MODEL 1
REMARK VINA RESULT:    -4.495      0.000      0.000
REMARK INTER + INTRA:         -10.885
REMARK INTER:                  -8.700
REMARK INTRA:                  -2.185
REMARK UNBOUND:                -2.185
REMARK SMILES CCCCCCCCCCCCCCCCCC(=O)[O-]
REMARK SMILES IDX 10 1 11 2 12 3 13 4 14 5 15 6 16 7 17 8 18 9 19 10 20 11
REMARK SMILES IDX 9 12 8 13 7 14 6 15 5 16 4 17 3 18 2 19 1 20
REMARK H PARENT
REMARK Flexibility Score: inf
ROOT
ATOM      1  C   UNL     1      16.071   0.357   0.129  1.00  0.00     0.000 C 
ENDROOT
BRANCH   1   2
ATOM      2  C   UNL     1      15.493  -0.810  -0.685  1.00  0.00     0.000 C 
BRANCH   2   3
ATOM      3  C   UNL     1      14.047  -0.518  -1.110  1.00  0.00     0.000 C 
BRANCH   3   4
ATOM      4  C   UNL     1      13.144  -0.146   0.077  1.00  0.00     0.000 C 
BRANCH   4   5
ATOM      5  C   UNL     1      11.804  -0.898   0.061  1.00  0.00     0.000 C 
BRANCH   5   6
ATOM      6  C   UNL     1      12.021  -2.406   0.255  1.00  0.00     0.000 C 
BRANCH   6   7
ATOM      7  C   UNL     1      10.734  -3.227   0.052  1.00  0.00     0.006 C 
BRANCH   7   8
ATOM      8  C   UNL     1      10.971  -4.676  -0.402  1.00  0.00     0.053 C 
BRANCH   8   9
ATOM      9  C   UNL     1       9.687  -5.391  -0.692  1.00  0.00     0.041 C 
ATOM     10  O   UNL     1       9.642  -6.649  -0.664  1.00  0.00    -0.550 OA
ATOM     11  O   UNL     1       8.530  -4.666  -0.952  1.00  0.00    -0.550 OA
ENDBRANCH   8   9
ENDBRANCH   7   8
ENDBRANCH   6   7
ENDBRANCH   5   6
ENDBRANCH   4   5
ENDBRANCH   3   4
ENDBRANCH   2   3
ENDBRANCH   1   2
BRANCH   1  12
ATOM     12  C   UNL     1      17.287  -0.057   0.974  1.00  0.00     0.000 C 
BRANCH  12  13
ATOM     13  C   UNL     1      16.981  -0.066   2.482  1.00  0.00    -0.000 C 
BRANCH  13  14
ATOM     14  C   UNL     1      15.520   0.331   2.785  1.00  0.00    -0.000 C 
BRANCH  14  15
ATOM     15  C   UNL     1      14.873  -0.486   3.921  1.00  0.00    -0.000 C 
BRANCH  15  16
ATOM     16  C   UNL     1      14.035  -1.692   3.463  1.00  0.00    -0.000 C 
BRANCH  16  17
ATOM     17  C   UNL     1      12.526  -1.484   3.678  1.00  0.00    -0.000 C 
BRANCH  17  18
ATOM     18  C   UNL     1      12.196  -0.132   4.335  1.00  0.00    -0.000 C 
BRANCH  18  19
ATOM     19  C   UNL     1      11.358   0.824   3.467  1.00  0.00    -0.003 C 
ATOM     20  C   UNL     1      10.063   0.191   2.960  1.00  0.00     0.004 C 
ENDBRANCH  18  19
ENDBRANCH  17  18
ENDBRANCH  16  17
ENDBRANCH  15  16
ENDBRANCH  14  15
ENDBRANCH  13  14
ENDBRANCH  12  13
ENDBRANCH   1  12
TORSDOF 16
ENDMDL
MODEL 2
REMARK VINA RESULT:    -4.483      1.423      2.591
REMARK INTER + INTRA:         -10.861
REMARK INTER:                  -8.323
REMARK INTRA:                  -2.539
REMARK UNBOUND:                -2.185
REMARK SMILES CCCCCCCCCCCCCCCCCC(=O)[O-]
REMARK SMILES IDX 10 1 11 2 12 3 13 4 14 5 15 6 16 7 17 8 18 9 19 10 20 11
REMARK SMILES IDX 9 12 8 13 7 14 6 15 5 16 4 17 3 18 2 19 1 20
REMARK H PARENT
REMARK Flexibility Score: inf
ROOT
ATOM      1  C   UNL     1      15.548  -2.077   1.767  1.00  0.00     0.000 C 
ENDROOT
BRANCH   1   2
ATOM      2  C   UNL     1      16.323  -0.806   1.389  1.00  0.00     0.000 C 
BRANCH   2   3
ATOM      3  C   UNL     1      15.455   0.133   0.540  1.00  0.00     0.000 C 
BRANCH   3   4
ATOM      4  C   UNL     1      15.285  -0.363  -0.906  1.00  0.00     0.000 C 
BRANCH   4   5
ATOM      5  C   UNL     1      13.811  -0.475  -1.324  1.00  0.00     0.000 C 
BRANCH   5   6
ATOM      6  C   UNL     1      12.887  -0.393  -0.100  1.00  0.00     0.000 C 
BRANCH   6   7
ATOM      7  C   UNL     1      11.756  -1.437  -0.134  1.00  0.00     0.006 C 
BRANCH   7   8
ATOM      8  C   UNL     1      12.135  -2.803   0.463  1.00  0.00     0.053 C 
BRANCH   8   9
ATOM      9  C   UNL     1      11.284  -3.909  -0.081  1.00  0.00     0.041 C 
ATOM     10  O   UNL     1      10.077  -3.696  -0.370  1.00  0.00    -0.550 OA
ATOM     11  O   UNL     1      11.835  -5.165  -0.307  1.00  0.00    -0.550 OA
ENDBRANCH   8   9
ENDBRANCH   7   8
ENDBRANCH   6   7
ENDBRANCH   5   6
ENDBRANCH   4   5
ENDBRANCH   3   4
ENDBRANCH   2   3
ENDBRANCH   1   2
BRANCH   1  12
ATOM     12  C   UNL     1      16.150  -2.797   2.984  1.00  0.00     0.000 C 
BRANCH  12  13
ATOM     13  C   UNL     1      15.249  -2.706   4.228  1.00  0.00    -0.000 C 
BRANCH  13  14
ATOM     14  C   UNL     1      13.877  -2.073   3.912  1.00  0.00    -0.000 C 
BRANCH  14  15
ATOM     15  C   UNL     1      13.780  -0.579   4.275  1.00  0.00    -0.000 C 
BRANCH  15  16
ATOM     16  C   UNL     1      12.757   0.227   3.456  1.00  0.00    -0.000 C 
BRANCH  16  17
ATOM     17  C   UNL     1      11.400  -0.486   3.329  1.00  0.00    -0.000 C 
BRANCH  17  18
ATOM     18  C   UNL     1      10.237   0.486   3.059  1.00  0.00    -0.000 C 
BRANCH  18  19
ATOM     19  C   UNL     1       9.022  -0.137   2.347  1.00  0.00    -0.003 C 
ATOM     20  C   UNL     1       9.066  -1.664   2.316  1.00  0.00     0.004 C 
ENDBRANCH  18  19
ENDBRANCH  17  18
ENDBRANCH  16  17
ENDBRANCH  15  16
ENDBRANCH  14  15
ENDBRANCH  13  14
ENDBRANCH  12  13
ENDBRANCH   1  12
TORSDOF 16
ENDMDL
MODEL 3
REMARK VINA RESULT:    -4.374      1.975      5.273
REMARK INTER + INTRA:         -10.651
REMARK INTER:                  -8.634
REMARK INTRA:                  -2.016
REMARK UNBOUND:                -2.185
REMARK SMILES CCCCCCCCCCCCCCCCCC(=O)[O-]
REMARK SMILES IDX 10 1 11 2 12 3 13 4 14 5 15 6 16 7 17 8 18 9 19 10 20 11
REMARK SMILES IDX 9 12 8 13 7 14 6 15 5 16 4 17 3 18 2 19 1 20
REMARK H PARENT
REMARK Flexibility Score: inf
ROOT
ATOM      1  C   UNL     1      11.893   0.454   3.676  1.00  0.00     0.000 C 
ENDROOT
BRANCH   1   2
ATOM      2  C   UNL     1      12.388  -0.980   3.912  1.00  0.00     0.000 C 
BRANCH   2   3
ATOM      3  C   UNL     1      13.922  -1.025   3.979  1.00  0.00     0.000 C 
BRANCH   3   4
ATOM      4  C   UNL     1      14.477  -2.457   3.888  1.00  0.00     0.000 C 
BRANCH   4   5
ATOM      5  C   UNL     1      15.673  -2.568   2.930  1.00  0.00     0.000 C 
BRANCH   5   6
ATOM      6  C   UNL     1      15.271  -3.286   1.634  1.00  0.00     0.000 C 
BRANCH   6   7
ATOM      7  C   UNL     1      14.120  -4.288   1.838  1.00  0.00     0.006 C 
BRANCH   7   8
ATOM      8  C   UNL     1      14.355  -5.664   1.194  1.00  0.00     0.053 C 
BRANCH   8   9
ATOM      9  C   UNL     1      13.071  -6.321   0.787  1.00  0.00     0.041 C 
ATOM     10  O   UNL     1      12.440  -5.908  -0.221  1.00  0.00    -0.550 OA
ATOM     11  O   UNL     1      12.593  -7.416   1.498  1.00  0.00    -0.550 OA
ENDBRANCH   8   9
ENDBRANCH   7   8
ENDBRANCH   6   7
ENDBRANCH   5   6
ENDBRANCH   4   5
ENDBRANCH   3   4
ENDBRANCH   2   3
ENDBRANCH   1   2
BRANCH   1  12
ATOM     12  C   UNL     1      10.375   0.525   3.446  1.00  0.00     0.000 C 
BRANCH  12  13
ATOM     13  C   UNL     1       9.982   0.197   1.994  1.00  0.00    -0.000 C 
BRANCH  13  14
ATOM     14  C   UNL     1      11.052   0.657   0.981  1.00  0.00    -0.000 C 
BRANCH  14  15
ATOM     15  C   UNL     1      11.757  -0.500   0.248  1.00  0.00    -0.000 C 
BRANCH  15  16
ATOM     16  C   UNL     1      13.295  -0.457   0.286  1.00  0.00    -0.000 C 
BRANCH  16  17
ATOM     17  C   UNL     1      13.928  -0.543  -1.113  1.00  0.00    -0.000 C 
BRANCH  17  18
ATOM     18  C   UNL     1      15.441  -0.258  -1.104  1.00  0.00    -0.000 C 
BRANCH  18  19
ATOM     19  C   UNL     1      16.042   0.016   0.286  1.00  0.00    -0.003 C 
ATOM     20  C   UNL     1      17.560   0.185   0.258  1.00  0.00     0.004 C 
ENDBRANCH  18  19
ENDBRANCH  17  18
ENDBRANCH  16  17
ENDBRANCH  15  16
ENDBRANCH  14  15
ENDBRANCH  13  14
ENDBRANCH  12  13
ENDBRANCH   1  12
TORSDOF 16
ENDMDL
MODEL 4
REMARK VINA RESULT:    -4.345      3.988      6.156
REMARK INTER + INTRA:         -10.595
REMARK INTER:                  -7.932
REMARK INTRA:                  -2.663
REMARK UNBOUND:                -2.185
REMARK SMILES CCCCCCCCCCCCCCCCCC(=O)[O-]
REMARK SMILES IDX 10 1 11 2 12 3 13 4 14 5 15 6 16 7 17 8 18 9 19 10 20 11
REMARK SMILES IDX 9 12 8 13 7 14 6 15 5 16 4 17 3 18 2 19 1 20
REMARK H PARENT
REMARK Flexibility Score: inf
ROOT
ATOM      1  C   UNL     1      14.940  -0.447  -0.850  1.00  0.00     0.000 C 
ENDROOT
BRANCH   1   2
ATOM      2  C   UNL     1      16.295  -0.451  -0.128  1.00  0.00     0.000 C 
BRANCH   2   3
ATOM      3  C   UNL     1      16.171   0.168   1.272  1.00  0.00     0.000 C 
BRANCH   3   4
ATOM      4  C   UNL     1      17.432  -0.043   2.126  1.00  0.00     0.000 C 
BRANCH   4   5
ATOM      5  C   UNL     1      17.265  -1.167   3.161  1.00  0.00     0.000 C 
BRANCH   5   6
ATOM      6  C   UNL     1      17.000  -0.589   4.559  1.00  0.00     0.000 C 
BRANCH   6   7
ATOM      7  C   UNL     1      16.653  -1.671   5.597  1.00  0.00     0.006 C 
BRANCH   7   8
ATOM      8  C   UNL     1      16.904  -3.112   5.121  1.00  0.00     0.053 C 
BRANCH   8   9
ATOM      9  C   UNL     1      17.113  -4.053   6.266  1.00  0.00     0.041 C 
ATOM     10  O   UNL     1      16.601  -3.808   7.390  1.00  0.00    -0.550 OA
ATOM     11  O   UNL     1      17.839  -5.225   6.081  1.00  0.00    -0.550 OA
ENDBRANCH   8   9
ENDBRANCH   7   8
ENDBRANCH   6   7
ENDBRANCH   5   6
ENDBRANCH   4   5
ENDBRANCH   3   4
ENDBRANCH   2   3
ENDBRANCH   1   2
BRANCH   1  12
ATOM     12  C   UNL     1      13.769  -0.120   0.091  1.00  0.00     0.000 C 
BRANCH  12  13
ATOM     13  C   UNL     1      12.521  -0.971  -0.201  1.00  0.00    -0.000 C 
BRANCH  13  14
ATOM     14  C   UNL     1      11.277  -0.465   0.560  1.00  0.00    -0.000 C 
BRANCH  14  15
ATOM     15  C   UNL     1      11.591   0.587   1.641  1.00  0.00    -0.000 C 
BRANCH  15  16
ATOM     16  C   UNL     1      11.037   0.271   3.041  1.00  0.00    -0.000 C 
BRANCH  16  17
ATOM     17  C   UNL     1      12.106   0.379   4.143  1.00  0.00    -0.000 C 
BRANCH  17  18
ATOM     18  C   UNL     1      13.409  -0.360   3.787  1.00  0.00    -0.000 C 
BRANCH  18  19
ATOM     19  C   UNL     1      13.372  -1.884   4.002  1.00  0.00    -0.003 C 
ATOM     20  C   UNL     1      13.881  -2.671   2.795  1.00  0.00     0.004 C 
ENDBRANCH  18  19
ENDBRANCH  17  18
ENDBRANCH  16  17
ENDBRANCH  15  16
ENDBRANCH  14  15
ENDBRANCH  13  14
ENDBRANCH  12  13
ENDBRANCH   1  12
TORSDOF 16
ENDMDL
MODEL 5
REMARK VINA RESULT:    -4.323      1.859      4.407
REMARK INTER + INTRA:         -10.552
REMARK INTER:                  -8.225
REMARK INTRA:                  -2.327
REMARK UNBOUND:                -2.185
REMARK SMILES CCCCCCCCCCCCCCCCCC(=O)[O-]
REMARK SMILES IDX 10 1 11 2 12 3 13 4 14 5 15 6 16 7 17 8 18 9 19 10 20 11
REMARK SMILES IDX 9 12 8 13 7 14 6 15 5 16 4 17 3 18 2 19 1 20
REMARK H PARENT
REMARK Flexibility Score: inf
ROOT
ATOM      1  C   UNL     1      15.654  -2.774   3.500  1.00  0.00     0.000 C 
ENDROOT
BRANCH   1   2
ATOM      2  C   UNL     1      14.419  -2.128   2.855  1.00  0.00     0.000 C 
BRANCH   2   3
ATOM      3  C   UNL     1      13.315  -1.898   3.897  1.00  0.00     0.000 C 
BRANCH   3   4
ATOM      4  C   UNL     1      13.058  -0.406   4.168  1.00  0.00     0.000 C 
BRANCH   4   5
ATOM      5  C   UNL     1      12.455   0.321   2.955  1.00  0.00     0.000 C 
BRANCH   5   6
ATOM      6  C   UNL     1      10.921   0.322   3.025  1.00  0.00     0.000 C 
BRANCH   6   7
ATOM      7  C   UNL     1      10.265  -0.275   1.768  1.00  0.00     0.006 C 
BRANCH   7   8
ATOM      8  C   UNL     1      10.258  -1.812   1.724  1.00  0.00     0.053 C 
BRANCH   8   9
ATOM      9  C   UNL     1      11.021  -2.343   0.550  1.00  0.00     0.041 C 
ATOM     10  O   UNL     1      12.091  -1.788   0.185  1.00  0.00    -0.550 OA
ATOM     11  O   UNL     1      10.572  -3.478  -0.117  1.00  0.00    -0.550 OA
ENDBRANCH   8   9
ENDBRANCH   7   8
ENDBRANCH   6   7
ENDBRANCH   5   6
ENDBRANCH   4   5
ENDBRANCH   3   4
ENDBRANCH   2   3
ENDBRANCH   1   2
BRANCH   1  12
ATOM     12  C   UNL     1      15.944  -2.223   4.905  1.00  0.00     0.000 C 
BRANCH  12  13
ATOM     13  C   UNL     1      17.377  -1.678   5.042  1.00  0.00    -0.000 C 
BRANCH  13  14
ATOM     14  C   UNL     1      17.856  -0.966   3.759  1.00  0.00    -0.000 C 
BRANCH  14  15
ATOM     15  C   UNL     1      17.445   0.517   3.676  1.00  0.00    -0.000 C 
BRANCH  15  16
ATOM     16  C   UNL     1      16.445   0.856   2.557  1.00  0.00    -0.000 C 
BRANCH  16  17
ATOM     17  C   UNL     1      17.087   0.838   1.159  1.00  0.00    -0.000 C 
BRANCH  17  18
ATOM     18  C   UNL     1      16.550  -0.297   0.268  1.00  0.00    -0.000 C 
BRANCH  18  19
ATOM     19  C   UNL     1      15.163  -0.040  -0.347  1.00  0.00    -0.003 C 
ATOM     20  C   UNL     1      15.073  -0.459  -1.813  1.00  0.00     0.004 C 
ENDBRANCH  18  19
ENDBRANCH  17  18
ENDBRANCH  16  17
ENDBRANCH  15  16
ENDBRANCH  14  15
ENDBRANCH  13  14
ENDBRANCH  12  13
ENDBRANCH   1  12
TORSDOF 16
ENDMDL
MODEL 6
REMARK VINA RESULT:    -4.268      4.080      6.476
REMARK INTER + INTRA:         -10.444
REMARK INTER:                  -7.392
REMARK INTRA:                  -3.052
REMARK UNBOUND:                -2.185
REMARK SMILES CCCCCCCCCCCCCCCCCC(=O)[O-]
REMARK SMILES IDX 10 1 11 2 12 3 13 4 14 5 15 6 16 7 17 8 18 9 19 10 20 11
REMARK SMILES IDX 9 12 8 13 7 14 6 15 5 16 4 17 3 18 2 19 1 20
REMARK H PARENT
REMARK Flexibility Score: inf
ROOT
ATOM      1  C   UNL     1      10.675  -1.479   1.954  1.00  0.00     0.000 C 
ENDROOT
BRANCH   1   2
ATOM      2  C   UNL     1      11.181  -1.770   0.534  1.00  0.00     0.000 C 
BRANCH   2   3
ATOM      3  C   UNL     1      12.166  -0.687   0.071  1.00  0.00     0.000 C 
BRANCH   3   4
ATOM      4  C   UNL     1      13.604  -1.215  -0.066  1.00  0.00     0.000 C 
BRANCH   4   5
ATOM      5  C   UNL     1      14.658  -0.103   0.057  1.00  0.00     0.000 C 
BRANCH   5   6
ATOM      6  C   UNL     1      16.077  -0.678  -0.057  1.00  0.00     0.000 C 
BRANCH   6   7
ATOM      7  C   UNL     1      17.078   0.009   0.890  1.00  0.00     0.006 C 
BRANCH   7   8
ATOM      8  C   UNL     1      16.495   1.192   1.680  1.00  0.00     0.053 C 
BRANCH   8   9
ATOM      9  C   UNL     1      17.378   1.595   2.821  1.00  0.00     0.041 C 
ATOM     10  O   UNL     1      17.440   2.800   3.179  1.00  0.00    -0.550 OA
ATOM     11  O   UNL     1      18.101   0.632   3.515  1.00  0.00    -0.550 OA
ENDBRANCH   8   9
ENDBRANCH   7   8
ENDBRANCH   6   7
ENDBRANCH   5   6
ENDBRANCH   4   5
ENDBRANCH   3   4
ENDBRANCH   2   3
ENDBRANCH   1   2
BRANCH   1  12
ATOM     12  C   UNL     1      10.436   0.019   2.201  1.00  0.00     0.000 C 
BRANCH  12  13
ATOM     13  C   UNL     1      11.141   0.527   3.472  1.00  0.00    -0.000 C 
BRANCH  13  14
ATOM     14  C   UNL     1      12.200  -0.469   3.991  1.00  0.00    -0.000 C 
BRANCH  14  15
ATOM     15  C   UNL     1      13.606   0.140   4.149  1.00  0.00    -0.000 C 
BRANCH  15  16
ATOM     16  C   UNL     1      14.765  -0.871   4.106  1.00  0.00    -0.000 C 
BRANCH  16  17
ATOM     17  C   UNL     1      14.360  -2.214   3.473  1.00  0.00    -0.000 C 
BRANCH  17  18
ATOM     18  C   UNL     1      15.552  -2.970   2.860  1.00  0.00    -0.000 C 
BRANCH  18  19
ATOM     19  C   UNL     1      15.185  -3.978   1.756  1.00  0.00    -0.003 C 
ATOM     20  C   UNL     1      13.696  -4.320   1.731  1.00  0.00     0.004 C 
ENDBRANCH  18  19
ENDBRANCH  17  18
ENDBRANCH  16  17
ENDBRANCH  15  16
ENDBRANCH  14  15
ENDBRANCH  13  14
ENDBRANCH  12  13
ENDBRANCH   1  12
TORSDOF 16
ENDMDL
MODEL 7
REMARK VINA RESULT:    -4.240      2.593      5.214
REMARK INTER + INTRA:         -10.390
REMARK INTER:                  -7.957
REMARK INTRA:                  -2.433
REMARK UNBOUND:                -2.185
REMARK SMILES CCCCCCCCCCCCCCCCCC(=O)[O-]
REMARK SMILES IDX 10 1 11 2 12 3 13 4 14 5 15 6 16 7 17 8 18 9 19 10 20 11
REMARK SMILES IDX 9 12 8 13 7 14 6 15 5 16 4 17 3 18 2 19 1 20
REMARK H PARENT
REMARK Flexibility Score: inf
ROOT
ATOM      1  C   UNL     1      12.270   0.302   0.693  1.00  0.00     0.000 C 
ENDROOT
BRANCH   1   2
ATOM      2  C   UNL     1      10.846  -0.163   1.031  1.00  0.00     0.000 C 
BRANCH   2   3
ATOM      3  C   UNL     1      10.719  -0.496   2.524  1.00  0.00     0.000 C 
BRANCH   3   4
ATOM      4  C   UNL     1      11.556   0.439   3.413  1.00  0.00     0.000 C 
BRANCH   4   5
ATOM      5  C   UNL     1      12.507  -0.325   4.347  1.00  0.00     0.000 C 
BRANCH   5   6
ATOM      6  C   UNL     1      13.969  -0.121   3.925  1.00  0.00     0.000 C 
BRANCH   6   7
ATOM      7  C   UNL     1      14.693  -1.444   3.617  1.00  0.00     0.006 C 
BRANCH   7   8
ATOM      8  C   UNL     1      13.757  -2.617   3.284  1.00  0.00     0.053 C 
BRANCH   8   9
ATOM      9  C   UNL     1      14.317  -3.494   2.206  1.00  0.00     0.041 C 
ATOM     10  O   UNL     1      15.531  -3.407   1.885  1.00  0.00    -0.550 OA
ATOM     11  O   UNL     1      13.506  -4.437   1.585  1.00  0.00    -0.550 OA
ENDBRANCH   8   9
ENDBRANCH   7   8
ENDBRANCH   6   7
ENDBRANCH   5   6
ENDBRANCH   4   5
ENDBRANCH   3   4
ENDBRANCH   2   3
ENDBRANCH   1   2
BRANCH   1  12
ATOM     12  C   UNL     1      13.155  -0.839   0.166  1.00  0.00     0.000 C 
BRANCH  12  13
ATOM     13  C   UNL     1      13.806  -0.504  -1.188  1.00  0.00    -0.000 C 
BRANCH  13  14
ATOM     14  C   UNL     1      15.302  -0.149  -1.045  1.00  0.00    -0.000 C 
BRANCH  14  15
ATOM     15  C   UNL     1      15.826  -0.220   0.402  1.00  0.00    -0.000 C 
BRANCH  15  16
ATOM     16  C   UNL     1      17.316   0.121   0.574  1.00  0.00    -0.000 C 
BRANCH  16  17
ATOM     17  C   UNL     1      17.696   0.410   2.037  1.00  0.00    -0.000 C 
BRANCH  17  18
ATOM     18  C   UNL     1      17.102   1.732   2.558  1.00  0.00    -0.000 C 
BRANCH  18  19
ATOM     19  C   UNL     1      17.080   1.874   4.091  1.00  0.00    -0.003 C 
ATOM     20  C   UNL     1      17.563   0.618   4.814  1.00  0.00     0.004 C 
ENDBRANCH  18  19
ENDBRANCH  17  18
ENDBRANCH  16  17
ENDBRANCH  15  16
ENDBRANCH  14  15
ENDBRANCH  13  14
ENDBRANCH  12  13
ENDBRANCH   1  12
TORSDOF 16
ENDMDL
MODEL 8
REMARK VINA RESULT:    -4.238      3.406      5.525
REMARK INTER + INTRA:         -10.386
REMARK INTER:                  -8.074
REMARK INTRA:                  -2.312
REMARK UNBOUND:                -2.185
REMARK SMILES CCCCCCCCCCCCCCCCCC(=O)[O-]
REMARK SMILES IDX 10 1 11 2 12 3 13 4 14 5 15 6 16 7 17 8 18 9 19 10 20 11
REMARK SMILES IDX 9 12 8 13 7 14 6 15 5 16 4 17 3 18 2 19 1 20
REMARK H PARENT
REMARK Flexibility Score: inf
ROOT
ATOM      1  C   UNL     1      14.510  -0.451  -1.084  1.00  0.00     0.000 C 
ENDROOT
BRANCH   1   2
ATOM      2  C   UNL     1      15.864  -0.747  -0.421  1.00  0.00     0.000 C 
BRANCH   2   3
ATOM      3  C   UNL     1      16.348   0.459   0.397  1.00  0.00     0.000 C 
BRANCH   3   4
ATOM      4  C   UNL     1      17.725   0.225   1.039  1.00  0.00     0.000 C 
BRANCH   4   5
ATOM      5  C   UNL     1      17.642   0.013   2.559  1.00  0.00     0.000 C 
BRANCH   5   6
ATOM      6  C   UNL     1      16.179  -0.022   3.027  1.00  0.00     0.000 C 
BRANCH   6   7
ATOM      7  C   UNL     1      15.830  -1.307   3.800  1.00  0.00     0.006 C 
BRANCH   7   8
ATOM      8  C   UNL     1      16.293  -2.604   3.117  1.00  0.00     0.053 C 
BRANCH   8   9
ATOM      9  C   UNL     1      17.086  -3.474   4.043  1.00  0.00     0.041 C 
ATOM     10  O   UNL     1      17.200  -3.168   5.259  1.00  0.00    -0.550 OA
ATOM     11  O   UNL     1      17.665  -4.647   3.571  1.00  0.00    -0.550 OA
ENDBRANCH   8   9
ENDBRANCH   7   8
ENDBRANCH   6   7
ENDBRANCH   5   6
ENDBRANCH   4   5
ENDBRANCH   3   4
ENDBRANCH   2   3
ENDBRANCH   1   2
BRANCH   1  12
ATOM     12  C   UNL     1      13.323  -0.714  -0.144  1.00  0.00     0.000 C 
BRANCH  12  13
ATOM     13  C   UNL     1      13.603  -1.846   0.860  1.00  0.00    -0.000 C 
BRANCH  13  14
ATOM     14  C   UNL     1      12.312  -2.565   1.306  1.00  0.00    -0.000 C 
BRANCH  14  15
ATOM     15  C   UNL     1      11.017  -1.862   0.853  1.00  0.00    -0.000 C 
BRANCH  15  16
ATOM     16  C   UNL     1       9.934  -1.726   1.938  1.00  0.00    -0.000 C 
BRANCH  16  17
ATOM     17  C   UNL     1       9.676  -0.264   2.341  1.00  0.00    -0.000 C 
BRANCH  17  18
ATOM     18  C   UNL     1      10.967   0.570   2.428  1.00  0.00    -0.000 C 
BRANCH  18  19
ATOM     19  C   UNL     1      11.513   0.774   3.853  1.00  0.00    -0.003 C 
ATOM     20  C   UNL     1      12.356  -0.402   4.344  1.00  0.00     0.004 C 
ENDBRANCH  18  19
ENDBRANCH  17  18
ENDBRANCH  16  17
ENDBRANCH  15  16
ENDBRANCH  14  15
ENDBRANCH  13  14
ENDBRANCH  12  13
ENDBRANCH   1  12
TORSDOF 16
ENDMDL
MODEL 9
REMARK VINA RESULT:    -4.226      3.293      5.514
REMARK INTER + INTRA:         -10.364
REMARK INTER:                  -7.872
REMARK INTRA:                  -2.492
REMARK UNBOUND:                -2.185
REMARK SMILES CCCCCCCCCCCCCCCCCC(=O)[O-]
REMARK SMILES IDX 10 1 11 2 12 3 13 4 14 5 15 6 16 7 17 8 18 9 19 10 20 11
REMARK SMILES IDX 9 12 8 13 7 14 6 15 5 16 4 17 3 18 2 19 1 20
REMARK H PARENT
REMARK Flexibility Score: inf
ROOT
ATOM      1  C   UNL     1      13.652  -0.433   0.013  1.00  0.00     0.000 C 
ENDROOT
BRANCH   1   2
ATOM      2  C   UNL     1      14.615  -0.482  -1.182  1.00  0.00     0.000 C 
BRANCH   2   3
ATOM      3  C   UNL     1      16.076  -0.437  -0.709  1.00  0.00     0.000 C 
BRANCH   3   4
ATOM      4  C   UNL     1      16.201  -0.381   0.822  1.00  0.00     0.000 C 
BRANCH   4   5
ATOM      5  C   UNL     1      17.098   0.772   1.301  1.00  0.00     0.000 C 
BRANCH   5   6
ATOM      6  C   UNL     1      16.918   1.015   2.807  1.00  0.00     0.000 C 
BRANCH   6   7
ATOM      7  C   UNL     1      16.259  -0.174   3.530  1.00  0.00     0.006 C 
BRANCH   7   8
ATOM      8  C   UNL     1      17.214  -0.978   4.427  1.00  0.00     0.053 C 
BRANCH   8   9
ATOM      9  C   UNL     1      16.584  -2.242   4.927  1.00  0.00     0.041 C 
ATOM     10  O   UNL     1      16.057  -3.051   4.119  1.00  0.00    -0.550 OA
ATOM     11  O   UNL     1      16.615  -2.546   6.284  1.00  0.00    -0.550 OA
ENDBRANCH   8   9
ENDBRANCH   7   8
ENDBRANCH   6   7
ENDBRANCH   5   6
ENDBRANCH   4   5
ENDBRANCH   3   4
ENDBRANCH   2   3
ENDBRANCH   1   2
BRANCH   1  12
ATOM     12  C   UNL     1      12.328  -1.163  -0.265  1.00  0.00     0.000 C 
BRANCH  12  13
ATOM     13  C   UNL     1      12.149  -2.415   0.613  1.00  0.00    -0.000 C 
BRANCH  13  14
ATOM     14  C   UNL     1      13.233  -2.522   1.707  1.00  0.00    -0.000 C 
BRANCH  14  15
ATOM     15  C   UNL     1      12.688  -2.384   3.141  1.00  0.00    -0.000 C 
BRANCH  15  16
ATOM     16  C   UNL     1      13.000  -1.047   3.834  1.00  0.00    -0.000 C 
BRANCH  16  17
ATOM     17  C   UNL     1      11.753  -0.164   4.015  1.00  0.00    -0.000 C 
BRANCH  17  18
ATOM     18  C   UNL     1      11.516   0.788   2.829  1.00  0.00    -0.000 C 
BRANCH  18  19
ATOM     19  C   UNL     1      10.282   0.461   1.969  1.00  0.00    -0.003 C 
ATOM     20  C   UNL     1       9.366  -0.580   2.611  1.00  0.00     0.004 C 
ENDBRANCH  18  19
ENDBRANCH  17  18
ENDBRANCH  16  17
ENDBRANCH  15  16
ENDBRANCH  14  15
ENDBRANCH  13  14
ENDBRANCH  12  13
ENDBRANCH   1  12
TORSDOF 16
ENDMDL
