MODEL 1
REMARK VINA RESULT:    -8.217      0.000      0.000
REMARK INTER + INTRA:          -8.937
REMARK INTER:                  -8.937
REMARK INTRA:                   0.000
REMARK UNBOUND:                 0.000
REMARK SMILES Cc1cc(O)c2c(c1)C(=O)c1cc(O)cc(O)c1C2=O
REMARK SMILES IDX 1 1 2 2 8 3 7 4 6 5 4 6 3 7 19 8 20 9 18 10 11 11 9 12 10 13
REMARK SMILES IDX 12 14 13 15 15 16 16 17 5 18 17 20 14 22
REMARK H PARENT 5 19 17 21 14 23
REMARK Flexibility Score: inf
ROOT
ATOM      1  C   UNL     1      10.110  -4.707   2.955  1.00  0.00     0.044 C 
ATOM      2  C   UNL     1       9.706  -3.451   2.239  1.00  0.00    -0.047 A 
ATOM      3  C   UNL     1       9.625  -3.430   0.843  1.00  0.00     0.016 A 
ATOM      4  C   UNL     1       9.206  -2.273   0.166  1.00  0.00     0.038 A 
ATOM      5  C   UNL     1       8.836  -1.124   0.901  1.00  0.00     0.076 A 
ATOM      6  C   UNL     1       8.965  -1.135   2.314  1.00  0.00     0.127 A 
ATOM      7  C   UNL     1       9.365  -2.305   2.966  1.00  0.00     0.050 A 
ATOM      8  C   UNL     1       8.259   0.028   0.160  1.00  0.00     0.201 C 
ATOM      9  O   UNL     1       7.424   0.783   0.724  1.00  0.00    -0.288 OA
ATOM     10  C   UNL     1       8.521   0.175  -1.297  1.00  0.00     0.076 A 
ATOM     11  C   UNL     1       8.891  -0.978  -2.027  1.00  0.00     0.041 A 
ATOM     12  C   UNL     1       9.153  -2.251  -1.315  1.00  0.00     0.194 C 
ATOM     13  O   UNL     1       9.356  -3.310  -1.970  1.00  0.00    -0.289 OA
ATOM     14  C   UNL     1       9.013  -0.909  -3.425  1.00  0.00     0.059 A 
ATOM     15  C   UNL     1       8.786   0.294  -4.098  1.00  0.00     0.120 A 
ATOM     16  C   UNL     1       8.461   1.442  -3.377  1.00  0.00     0.093 A 
ATOM     17  C   UNL     1       8.354   1.405  -1.983  1.00  0.00     0.131 A 
ENDROOT
BRANCH   6  18
ATOM     18  O   UNL     1       8.738  -0.004   3.102  1.00  0.00    -0.507 OA
ATOM     19  H   UNL     1       8.611  -0.037   4.104  1.00  0.00     0.293 HD
ENDBRANCH   6  18
BRANCH  17  20
ATOM     20  O   UNL     1       8.116   2.613  -1.323  1.00  0.00    -0.507 OA
ATOM     21  H   UNL     1       7.425   3.286  -1.624  1.00  0.00     0.293 HD
ENDBRANCH  17  20
BRANCH  15  22
ATOM     22  O   UNL     1       8.894   0.363  -5.485  1.00  0.00    -0.508 OA
ATOM     23  H   UNL     1       9.458   1.072  -5.939  1.00  0.00     0.293 HD
ENDBRANCH  15  22
TORSDOF 3
ENDMDL
MODEL 2
REMARK VINA RESULT:    -6.660      1.737      5.171
REMARK INTER + INTRA:          -7.244
REMARK INTER:                  -7.244
REMARK INTRA:                   0.000
REMARK UNBOUND:                 0.000
REMARK SMILES Cc1cc(O)c2c(c1)C(=O)c1cc(O)cc(O)c1C2=O
REMARK SMILES IDX 1 1 2 2 8 3 7 4 6 5 4 6 3 7 19 8 20 9 18 10 11 11 9 12 10 13
REMARK SMILES IDX 12 14 13 15 15 16 16 17 5 18 17 20 14 22
REMARK H PARENT 5 19 17 21 14 23
REMARK Flexibility Score: inf
ROOT
ATOM      1  C   UNL     1       9.429  -4.824  -5.421  1.00  0.00     0.044 C 
ATOM      2  C   UNL     1       9.174  -3.578  -4.623  1.00  0.00    -0.047 A 
ATOM      3  C   UNL     1       9.427  -3.558  -3.248  1.00  0.00     0.016 A 
ATOM      4  C   UNL     1       9.234  -2.385  -2.500  1.00  0.00     0.038 A 
ATOM      5  C   UNL     1       8.805  -1.203  -3.146  1.00  0.00     0.076 A 
ATOM      6  C   UNL     1       8.506  -1.241  -4.532  1.00  0.00     0.127 A 
ATOM      7  C   UNL     1       8.725  -2.415  -5.259  1.00  0.00     0.050 A 
ATOM      8  C   UNL     1       8.754   0.052  -2.351  1.00  0.00     0.201 C 
ATOM      9  O   UNL     1       8.949   1.161  -2.915  1.00  0.00    -0.288 OA
ATOM     10  C   UNL     1       8.663  -0.016  -0.869  1.00  0.00     0.076 A 
ATOM     11  C   UNL     1       9.093  -1.201  -0.228  1.00  0.00     0.041 A 
ATOM     12  C   UNL     1       9.474  -2.382  -1.038  1.00  0.00     0.194 C 
ATOM     13  O   UNL     1       9.980  -3.393  -0.479  1.00  0.00    -0.289 OA
ATOM     14  C   UNL     1       9.152  -1.253   1.175  1.00  0.00     0.059 A 
ATOM     15  C   UNL     1       8.775  -0.149   1.943  1.00  0.00     0.120 A 
ATOM     16  C   UNL     1       8.312   1.006   1.315  1.00  0.00     0.093 A 
ATOM     17  C   UNL     1       8.224   1.078  -0.079  1.00  0.00     0.131 A 
ENDROOT
BRANCH   6  18
ATOM     18  O   UNL     1       7.961  -0.152  -5.218  1.00  0.00    -0.507 OA
ATOM     19  H   UNL     1       7.030   0.205  -5.051  1.00  0.00     0.293 HD
ENDBRANCH   6  18
BRANCH  17  20
ATOM     20  O   UNL     1       7.665   2.233  -0.631  1.00  0.00    -0.507 OA
ATOM     21  H   UNL     1       8.032   3.161  -0.471  1.00  0.00     0.293 HD
ENDBRANCH  17  20
BRANCH  15  22
ATOM     22  O   UNL     1       8.844  -0.194   3.333  1.00  0.00    -0.508 OA
ATOM     23  H   UNL     1       8.173  -0.719   3.881  1.00  0.00     0.293 HD
ENDBRANCH  15  22
TORSDOF 3
ENDMDL
MODEL 3
REMARK VINA RESULT:    -6.407      3.494      4.550
REMARK INTER + INTRA:          -6.969
REMARK INTER:                  -6.969
REMARK INTRA:                   0.000
REMARK UNBOUND:                 0.000
REMARK SMILES Cc1cc(O)c2c(c1)C(=O)c1cc(O)cc(O)c1C2=O
REMARK SMILES IDX 1 1 2 2 8 3 7 4 6 5 4 6 3 7 19 8 20 9 18 10 11 11 9 12 10 13
REMARK SMILES IDX 12 14 13 15 15 16 16 17 5 18 17 20 14 22
REMARK H PARENT 5 19 17 21 14 23
REMARK Flexibility Score: inf
ROOT
ATOM      1  C   UNL     1       8.976  -1.261   2.669  1.00  0.00     0.044 C 
ATOM      2  C   UNL     1       8.590  -1.278   1.219  1.00  0.00    -0.047 A 
ATOM      3  C   UNL     1       7.311  -1.694   0.835  1.00  0.00     0.016 A 
ATOM      4  C   UNL     1       6.925  -1.672  -0.516  1.00  0.00     0.038 A 
ATOM      5  C   UNL     1       7.826  -1.198  -1.497  1.00  0.00     0.076 A 
ATOM      6  C   UNL     1       9.137  -0.822  -1.107  1.00  0.00     0.127 A 
ATOM      7  C   UNL     1       9.492  -0.834   0.245  1.00  0.00     0.050 A 
ATOM      8  C   UNL     1       7.333  -1.051  -2.891  1.00  0.00     0.201 C 
ATOM      9  O   UNL     1       7.819  -0.162  -3.638  1.00  0.00    -0.288 OA
ATOM     10  C   UNL     1       6.142  -1.822  -3.338  1.00  0.00     0.076 A 
ATOM     11  C   UNL     1       5.245  -2.292  -2.353  1.00  0.00     0.041 A 
ATOM     12  C   UNL     1       5.579  -2.144  -0.917  1.00  0.00     0.194 C 
ATOM     13  O   UNL     1       4.727  -2.444  -0.036  1.00  0.00    -0.289 OA
ATOM     14  C   UNL     1       4.040  -2.904  -2.741  1.00  0.00     0.059 A 
ATOM     15  C   UNL     1       3.730  -3.063  -4.094  1.00  0.00     0.120 A 
ATOM     16  C   UNL     1       4.632  -2.637  -5.067  1.00  0.00     0.093 A 
ATOM     17  C   UNL     1       5.847  -2.045  -4.707  1.00  0.00     0.131 A 
ENDROOT
BRANCH   6  18
ATOM     18  O   UNL     1      10.125  -0.461  -2.028  1.00  0.00    -0.507 OA
ATOM     19  H   UNL     1       9.956  -0.364  -3.020  1.00  0.00     0.293 HD
ENDBRANCH   6  18
BRANCH  17  20
ATOM     20  O   UNL     1       6.738  -1.727  -5.735  1.00  0.00    -0.507 OA
ATOM     21  H   UNL     1       7.743  -1.756  -5.631  1.00  0.00     0.293 HD
ENDBRANCH  17  20
BRANCH  15  22
ATOM     22  O   UNL     1       2.531  -3.658  -4.482  1.00  0.00    -0.508 OA
ATOM     23  H   UNL     1       1.643  -3.364  -4.093  1.00  0.00     0.293 HD
ENDBRANCH  15  22
TORSDOF 3
ENDMDL
MODEL 4
REMARK VINA RESULT:    -6.266     12.557     13.362
REMARK INTER + INTRA:          -6.816
REMARK INTER:                  -6.816
REMARK INTRA:                   0.000
REMARK UNBOUND:                 0.000
REMARK SMILES Cc1cc(O)c2c(c1)C(=O)c1cc(O)cc(O)c1C2=O
REMARK SMILES IDX 1 1 2 2 8 3 7 4 6 5 4 6 3 7 19 8 20 9 18 10 11 11 9 12 10 13
REMARK SMILES IDX 12 14 13 15 15 16 16 17 5 18 17 20 14 22
REMARK H PARENT 5 19 17 21 14 23
REMARK Flexibility Score: inf
ROOT
ATOM      1  C   UNL     1       1.065  -8.060  -2.625  1.00  0.00     0.044 C 
ATOM      2  C   UNL     1       0.023  -6.993  -2.458  1.00  0.00    -0.047 A 
ATOM      3  C   UNL     1      -0.978  -7.131  -1.491  1.00  0.00     0.016 A 
ATOM      4  C   UNL     1      -1.932  -6.118  -1.297  1.00  0.00     0.038 A 
ATOM      5  C   UNL     1      -1.866  -4.934  -2.066  1.00  0.00     0.076 A 
ATOM      6  C   UNL     1      -0.878  -4.819  -3.076  1.00  0.00     0.127 A 
ATOM      7  C   UNL     1       0.073  -5.831  -3.238  1.00  0.00     0.050 A 
ATOM      8  C   UNL     1      -2.800  -3.827  -1.731  1.00  0.00     0.201 C 
ATOM      9  O   UNL     1      -2.455  -2.632  -1.932  1.00  0.00    -0.288 OA
ATOM     10  C   UNL     1      -4.054  -4.118  -0.987  1.00  0.00     0.076 A 
ATOM     11  C   UNL     1      -4.114  -5.303  -0.220  1.00  0.00     0.041 A 
ATOM     12  C   UNL     1      -3.008  -6.287  -0.292  1.00  0.00     0.194 C 
ATOM     13  O   UNL     1      -2.995  -7.280   0.486  1.00  0.00    -0.289 OA
ATOM     14  C   UNL     1      -5.226  -5.546   0.604  1.00  0.00     0.059 A 
ATOM     15  C   UNL     1      -6.281  -4.631   0.660  1.00  0.00     0.120 A 
ATOM     16  C   UNL     1      -6.243  -3.481  -0.127  1.00  0.00     0.093 A 
ATOM     17  C   UNL     1      -5.157  -3.226  -0.972  1.00  0.00     0.131 A 
ENDROOT
BRANCH   6  18
ATOM     18  O   UNL     1      -0.822  -3.738  -3.960  1.00  0.00    -0.507 OA
ATOM     19  H   UNL     1       0.024  -3.439  -4.424  1.00  0.00     0.293 HD
ENDBRANCH   6  18
BRANCH  17  20
ATOM     20  O   UNL     1      -5.232  -2.101  -1.796  1.00  0.00    -0.507 OA
ATOM     21  H   UNL     1      -5.237  -2.148  -2.805  1.00  0.00     0.293 HD
ENDBRANCH  17  20
BRANCH  15  22
ATOM     22  O   UNL     1      -7.379  -4.862   1.485  1.00  0.00    -0.508 OA
ATOM     23  H   UNL     1      -7.362  -4.625   2.470  1.00  0.00     0.293 HD
ENDBRANCH  15  22
TORSDOF 3
ENDMDL
MODEL 5
REMARK VINA RESULT:    -6.266     12.093     13.321
REMARK INTER + INTRA:          -6.815
REMARK INTER:                  -6.815
REMARK INTRA:                   0.000
REMARK UNBOUND:                 0.000
REMARK SMILES Cc1cc(O)c2c(c1)C(=O)c1cc(O)cc(O)c1C2=O
REMARK SMILES IDX 1 1 2 2 8 3 7 4 6 5 4 6 3 7 19 8 20 9 18 10 11 11 9 12 10 13
REMARK SMILES IDX 12 14 13 15 15 16 16 17 5 18 17 20 14 22
REMARK H PARENT 5 19 17 21 14 23
REMARK Flexibility Score: inf
ROOT
ATOM      1  C   UNL     1      -0.513  -9.553   4.047  1.00  0.00     0.044 C 
ATOM      2  C   UNL     1      -0.656  -8.096   4.378  1.00  0.00    -0.047 A 
ATOM      3  C   UNL     1      -1.921  -7.502   4.415  1.00  0.00     0.016 A 
ATOM      4  C   UNL     1      -2.070  -6.150   4.766  1.00  0.00     0.038 A 
ATOM      5  C   UNL     1      -0.933  -5.385   5.113  1.00  0.00     0.076 A 
ATOM      6  C   UNL     1       0.353  -5.979   5.029  1.00  0.00     0.127 A 
ATOM      7  C   UNL     1       0.473  -7.332   4.696  1.00  0.00     0.050 A 
ATOM      8  C   UNL     1      -1.143  -4.004   5.620  1.00  0.00     0.201 C 
ATOM      9  O   UNL     1      -0.329  -3.506   6.442  1.00  0.00    -0.288 OA
ATOM     10  C   UNL     1      -2.408  -3.288   5.308  1.00  0.00     0.076 A 
ATOM     11  C   UNL     1      -3.542  -4.058   4.962  1.00  0.00     0.041 A 
ATOM     12  C   UNL     1      -3.412  -5.522   4.772  1.00  0.00     0.194 C 
ATOM     13  O   UNL     1      -4.441  -6.229   4.592  1.00  0.00    -0.289 OA
ATOM     14  C   UNL     1      -4.788  -3.429   4.794  1.00  0.00     0.059 A 
ATOM     15  C   UNL     1      -4.911  -2.046   4.952  1.00  0.00     0.120 A 
ATOM     16  C   UNL     1      -3.787  -1.280   5.253  1.00  0.00     0.093 A 
ATOM     17  C   UNL     1      -2.532  -1.878   5.404  1.00  0.00     0.131 A 
ENDROOT
BRANCH   6  18
ATOM     18  O   UNL     1       1.533  -5.260   5.234  1.00  0.00    -0.507 OA
ATOM     19  H   UNL     1       2.247  -5.144   4.528  1.00  0.00     0.293 HD
ENDBRANCH   6  18
BRANCH  17  20
ATOM     20  O   UNL     1      -1.438  -1.036   5.615  1.00  0.00    -0.507 OA
ATOM     21  H   UNL     1      -0.492  -1.272   5.348  1.00  0.00     0.293 HD
ENDBRANCH  17  20
BRANCH  15  22
ATOM     22  O   UNL     1      -6.147  -1.422   4.798  1.00  0.00    -0.508 OA
ATOM     23  H   UNL     1      -6.738  -1.211   5.595  1.00  0.00     0.293 HD
ENDBRANCH  15  22
TORSDOF 3
ENDMDL
MODEL 6
REMARK VINA RESULT:    -5.910     11.073     11.817
REMARK INTER + INTRA:          -6.429
REMARK INTER:                  -6.429
REMARK INTRA:                   0.000
REMARK UNBOUND:                 0.000
REMARK SMILES Cc1cc(O)c2c(c1)C(=O)c1cc(O)cc(O)c1C2=O
REMARK SMILES IDX 1 1 2 2 8 3 7 4 6 5 4 6 3 7 19 8 20 9 18 10 11 11 9 12 10 13
REMARK SMILES IDX 12 14 13 15 15 16 16 17 5 18 17 20 14 22
REMARK H PARENT 5 19 17 21 14 23
REMARK Flexibility Score: inf
ROOT
ATOM      1  C   UNL     1      -5.279  -5.147   0.992  1.00  0.00     0.044 C 
ATOM      2  C   UNL     1      -4.142  -4.943   0.034  1.00  0.00    -0.047 A 
ATOM      3  C   UNL     1      -3.333  -6.022  -0.340  1.00  0.00     0.016 A 
ATOM      4  C   UNL     1      -2.294  -5.850  -1.270  1.00  0.00     0.038 A 
ATOM      5  C   UNL     1      -2.078  -4.583  -1.856  1.00  0.00     0.076 A 
ATOM      6  C   UNL     1      -2.871  -3.483  -1.439  1.00  0.00     0.127 A 
ATOM      7  C   UNL     1      -3.912  -3.682  -0.527  1.00  0.00     0.050 A 
ATOM      8  C   UNL     1      -1.068  -4.474  -2.942  1.00  0.00     0.201 C 
ATOM      9  O   UNL     1      -1.213  -3.615  -3.850  1.00  0.00    -0.288 OA
ATOM     10  C   UNL     1       0.002  -5.500  -3.059  1.00  0.00     0.076 A 
ATOM     11  C   UNL     1      -0.220  -6.765  -2.471  1.00  0.00     0.041 A 
ATOM     12  C   UNL     1      -1.423  -6.992  -1.636  1.00  0.00     0.194 C 
ATOM     13  O   UNL     1      -1.692  -8.151  -1.217  1.00  0.00    -0.289 OA
ATOM     14  C   UNL     1       0.706  -7.803  -2.677  1.00  0.00     0.059 A 
ATOM     15  C   UNL     1       1.852  -7.588  -3.447  1.00  0.00     0.120 A 
ATOM     16  C   UNL     1       2.094  -6.329  -3.994  1.00  0.00     0.093 A 
ATOM     17  C   UNL     1       1.199  -5.274  -3.787  1.00  0.00     0.131 A 
ENDROOT
BRANCH   6  18
ATOM     18  O   UNL     1      -2.640  -2.176  -1.877  1.00  0.00    -0.507 OA
ATOM     19  H   UNL     1      -2.508  -1.392  -1.252  1.00  0.00     0.293 HD
ENDBRANCH   6  18
BRANCH  17  20
ATOM     20  O   UNL     1       1.554  -4.020  -4.289  1.00  0.00    -0.507 OA
ATOM     21  H   UNL     1       1.037  -3.544  -5.015  1.00  0.00     0.293 HD
ENDBRANCH  17  20
BRANCH  15  22
ATOM     22  O   UNL     1       2.765  -8.617  -3.663  1.00  0.00    -0.508 OA
ATOM     23  H   UNL     1       3.205  -8.755  -4.565  1.00  0.00     0.293 HD
ENDBRANCH  15  22
TORSDOF 3
ENDMDL
MODEL 7
REMARK VINA RESULT:    -5.808     12.561     13.210
REMARK INTER + INTRA:          -6.317
REMARK INTER:                  -6.317
REMARK INTRA:                   0.000
REMARK UNBOUND:                 0.000
REMARK SMILES Cc1cc(O)c2c(c1)C(=O)c1cc(O)cc(O)c1C2=O
REMARK SMILES IDX 1 1 2 2 8 3 7 4 6 5 4 6 3 7 19 8 20 9 18 10 11 11 9 12 10 13
REMARK SMILES IDX 12 14 13 15 15 16 16 17 5 18 17 20 14 22
REMARK H PARENT 5 19 17 21 14 23
REMARK Flexibility Score: inf
ROOT
ATOM      1  C   UNL     1      -6.776  -4.865   2.131  1.00  0.00     0.044 C 
ATOM      2  C   UNL     1      -5.814  -4.704   0.990  1.00  0.00    -0.047 A 
ATOM      3  C   UNL     1      -4.784  -5.631   0.800  1.00  0.00     0.016 A 
ATOM      4  C   UNL     1      -3.905  -5.513  -0.290  1.00  0.00     0.038 A 
ATOM      5  C   UNL     1      -4.077  -4.464  -1.221  1.00  0.00     0.076 A 
ATOM      6  C   UNL     1      -5.094  -3.501  -0.998  1.00  0.00     0.127 A 
ATOM      7  C   UNL     1      -5.969  -3.650   0.082  1.00  0.00     0.050 A 
ATOM      8  C   UNL     1      -3.223  -4.458  -2.437  1.00  0.00     0.201 C 
ATOM      9  O   UNL     1      -3.661  -3.965  -3.510  1.00  0.00    -0.288 OA
ATOM     10  C   UNL     1      -1.934  -5.199  -2.438  1.00  0.00     0.076 A 
ATOM     11  C   UNL     1      -1.767  -6.247  -1.504  1.00  0.00     0.041 A 
ATOM     12  C   UNL     1      -2.797  -6.481  -0.465  1.00  0.00     0.194 C 
ATOM     13  O   UNL     1      -2.717  -7.492   0.286  1.00  0.00    -0.289 OA
ATOM     14  C   UNL     1      -0.621  -7.059  -1.563  1.00  0.00     0.059 A 
ATOM     15  C   UNL     1       0.362  -6.829  -2.529  1.00  0.00     0.120 A 
ATOM     16  C   UNL     1       0.219  -5.770  -3.424  1.00  0.00     0.093 A 
ATOM     17  C   UNL     1      -0.901  -4.934  -3.374  1.00  0.00     0.131 A 
ENDROOT
BRANCH   6  18
ATOM     18  O   UNL     1      -5.251  -2.368  -1.801  1.00  0.00    -0.507 OA
ATOM     19  H   UNL     1      -5.769  -1.548  -1.516  1.00  0.00     0.293 HD
ENDBRANCH   6  18
BRANCH  17  20
ATOM     20  O   UNL     1      -0.930  -3.842  -4.243  1.00  0.00    -0.507 OA
ATOM     21  H   UNL     1      -0.240  -3.104  -4.235  1.00  0.00     0.293 HD
ENDBRANCH  17  20
BRANCH  15  22
ATOM     22  O   UNL     1       1.493  -7.639  -2.598  1.00  0.00    -0.508 OA
ATOM     23  H   UNL     1       2.426  -7.246  -2.623  1.00  0.00     0.293 HD
ENDBRANCH  15  22
TORSDOF 3
ENDMDL
MODEL 8
REMARK VINA RESULT:    -5.729     12.672     13.498
REMARK INTER + INTRA:          -6.231
REMARK INTER:                  -6.231
REMARK INTRA:                   0.000
REMARK UNBOUND:                 0.000
REMARK SMILES Cc1cc(O)c2c(c1)C(=O)c1cc(O)cc(O)c1C2=O
REMARK SMILES IDX 1 1 2 2 8 3 7 4 6 5 4 6 3 7 19 8 20 9 18 10 11 11 9 12 10 13
REMARK SMILES IDX 12 14 13 15 15 16 16 17 5 18 17 20 14 22
REMARK H PARENT 5 19 17 21 14 23
REMARK Flexibility Score: inf
ROOT
ATOM      1  C   UNL     1       1.084  -6.503  -4.426  1.00  0.00     0.044 C 
ATOM      2  C   UNL     1       0.061  -6.399  -3.333  1.00  0.00    -0.047 A 
ATOM      3  C   UNL     1      -1.079  -5.609  -3.507  1.00  0.00     0.016 A 
ATOM      4  C   UNL     1      -2.064  -5.540  -2.507  1.00  0.00     0.038 A 
ATOM      5  C   UNL     1      -1.917  -6.296  -1.323  1.00  0.00     0.076 A 
ATOM      6  C   UNL     1      -0.736  -7.060  -1.132  1.00  0.00     0.127 A 
ATOM      7  C   UNL     1       0.220  -7.129  -2.149  1.00  0.00     0.050 A 
ATOM      8  C   UNL     1      -3.045  -6.313  -0.356  1.00  0.00     0.201 C 
ATOM      9  O   UNL     1      -3.241  -7.327   0.363  1.00  0.00    -0.288 OA
ATOM     10  C   UNL     1      -4.048  -5.215  -0.374  1.00  0.00     0.076 A 
ATOM     11  C   UNL     1      -4.191  -4.462  -1.561  1.00  0.00     0.041 A 
ATOM     12  C   UNL     1      -3.253  -4.675  -2.688  1.00  0.00     0.194 C 
ATOM     13  O   UNL     1      -3.454  -4.100  -3.794  1.00  0.00    -0.289 OA
ATOM     14  C   UNL     1      -5.220  -3.510  -1.664  1.00  0.00     0.059 A 
ATOM     15  C   UNL     1      -6.094  -3.292  -0.596  1.00  0.00     0.120 A 
ATOM     16  C   UNL     1      -5.930  -4.005   0.590  1.00  0.00     0.093 A 
ATOM     17  C   UNL     1      -4.902  -4.943   0.727  1.00  0.00     0.131 A 
ENDROOT
BRANCH   6  18
ATOM     18  O   UNL     1      -0.459  -7.735   0.059  1.00  0.00    -0.507 OA
ATOM     19  H   UNL     1      -0.886  -8.615   0.316  1.00  0.00     0.293 HD
ENDBRANCH   6  18
BRANCH  17  20
ATOM     20  O   UNL     1      -4.745  -5.550   1.974  1.00  0.00    -0.507 OA
ATOM     21  H   UNL     1      -4.337  -5.086   2.774  1.00  0.00     0.293 HD
ENDBRANCH  17  20
BRANCH  15  22
ATOM     22  O   UNL     1      -7.122  -2.358  -0.700  1.00  0.00    -0.508 OA
ATOM     23  H   UNL     1      -7.960  -2.426  -0.133  1.00  0.00     0.293 HD
ENDBRANCH  15  22
TORSDOF 3
ENDMDL
