MODEL 1
REMARK VINA RESULT:    -3.467      0.000      0.000
REMARK INTER + INTRA:          -4.992
REMARK INTER:                  -4.683
REMARK INTRA:                  -0.309
REMARK UNBOUND:                -0.309
REMARK SMILES CCCCCCCC(=O)[O-]
REMARK SMILES IDX 5 1 6 2 7 3 8 4 9 5 10 6 4 7 3 8 2 9 1 10
REMARK H PARENT
REMARK Flexibility Score: inf
ROOT
ATOM      1  C   UNL     1     -10.122   8.886 -19.420  1.00  0.00     0.000 C 
ENDROOT
BRANCH   1   2
ATOM      2  C   UNL     1      -9.939   9.912 -18.283  1.00  0.00     0.006 C 
BRANCH   2   3
ATOM      3  C   UNL     1      -9.339   9.328 -16.994  1.00  0.00     0.053 C 
BRANCH   3   4
ATOM      4  C   UNL     1      -8.410  10.291 -16.323  1.00  0.00     0.041 C 
ATOM      5  O   UNL     1      -7.639  11.011 -17.011  1.00  0.00    -0.550 OA
ATOM      6  O   UNL     1      -8.370  10.371 -14.937  1.00  0.00    -0.550 OA
ENDBRANCH   3   4
ENDBRANCH   2   3
ENDBRANCH   1   2
BRANCH   1   7
ATOM      7  C   UNL     1     -10.529   7.470 -18.968  1.00  0.00     0.000 C 
BRANCH   7   8
ATOM      8  C   UNL     1     -11.981   7.075 -19.290  1.00  0.00    -0.000 C 
BRANCH   8   9
ATOM      9  C   UNL     1     -12.728   8.153 -20.090  1.00  0.00    -0.003 C 
ATOM     10  C   UNL     1     -13.060   7.662 -21.497  1.00  0.00     0.004 C 
ENDBRANCH   8   9
ENDBRANCH   7   8
ENDBRANCH   1   7
TORSDOF 6
ENDMDL
MODEL 2
REMARK VINA RESULT:    -3.439      0.993      1.600
REMARK INTER + INTRA:          -4.955
REMARK INTER:                  -4.640
REMARK INTRA:                  -0.315
REMARK UNBOUND:                -0.309
REMARK SMILES CCCCCCCC(=O)[O-]
REMARK SMILES IDX 5 1 6 2 7 3 8 4 9 5 10 6 4 7 3 8 2 9 1 10
REMARK H PARENT
REMARK Flexibility Score: inf
ROOT
ATOM      1  C   UNL     1     -11.121   9.349 -18.957  1.00  0.00     0.000 C 
ENDROOT
BRANCH   1   2
ATOM      2  C   UNL     1      -9.827   8.596 -18.588  1.00  0.00     0.006 C 
BRANCH   2   3
ATOM      3  C   UNL     1      -9.309   8.883 -17.170  1.00  0.00     0.053 C 
BRANCH   3   4
ATOM      4  C   UNL     1      -8.396  10.070 -17.136  1.00  0.00     0.041 C 
ATOM      5  O   UNL     1      -8.201  10.688 -16.057  1.00  0.00    -0.550 OA
ATOM      6  O   UNL     1      -7.786  10.513 -18.303  1.00  0.00    -0.550 OA
ENDBRANCH   3   4
ENDBRANCH   2   3
ENDBRANCH   1   2
BRANCH   1   7
ATOM      7  C   UNL     1     -12.301   8.455 -19.386  1.00  0.00     0.000 C 
BRANCH   7   8
ATOM      8  C   UNL     1     -11.963   6.962 -19.547  1.00  0.00    -0.000 C 
BRANCH   8   9
ATOM      9  C   UNL     1     -12.333   6.413 -20.932  1.00  0.00    -0.003 C 
ATOM     10  C   UNL     1     -13.121   7.442 -21.739  1.00  0.00     0.004 C 
ENDBRANCH   8   9
ENDBRANCH   7   8
ENDBRANCH   1   7
TORSDOF 6
ENDMDL
MODEL 3
REMARK VINA RESULT:    -3.419      1.735      2.697
REMARK INTER + INTRA:          -4.927
REMARK INTER:                  -4.472
REMARK INTRA:                  -0.456
REMARK UNBOUND:                -0.309
REMARK SMILES CCCCCCCC(=O)[O-]
REMARK SMILES IDX 5 1 6 2 7 3 8 4 9 5 10 6 4 7 3 8 2 9 1 10
REMARK H PARENT
REMARK Flexibility Score: inf
ROOT
ATOM      1  C   UNL     1     -12.362   8.183 -19.298  1.00  0.00     0.000 C 
ENDROOT
BRANCH   1   2
ATOM      2  C   UNL     1     -10.939   8.747 -19.111  1.00  0.00     0.006 C 
BRANCH   2   3
ATOM      3  C   UNL     1      -9.946   7.763 -18.470  1.00  0.00     0.053 C 
BRANCH   3   4
ATOM      4  C   UNL     1      -8.909   8.468 -17.651  1.00  0.00     0.041 C 
ATOM      5  O   UNL     1      -9.251   9.164 -16.660  1.00  0.00    -0.550 OA
ATOM      6  O   UNL     1      -7.568   8.382 -18.002  1.00  0.00    -0.550 OA
ENDBRANCH   3   4
ENDBRANCH   2   3
ENDBRANCH   1   2
BRANCH   1   7
ATOM      7  C   UNL     1     -12.841   8.081 -20.760  1.00  0.00     0.000 C 
BRANCH   7   8
ATOM      8  C   UNL     1     -12.458   6.776 -21.481  1.00  0.00    -0.000 C 
BRANCH   8   9
ATOM      9  C   UNL     1     -12.289   5.591 -20.520  1.00  0.00    -0.003 C 
ATOM     10  C   UNL     1     -10.957   4.882 -20.749  1.00  0.00     0.004 C 
ENDBRANCH   8   9
ENDBRANCH   7   8
ENDBRANCH   1   7
TORSDOF 6
ENDMDL
MODEL 4
REMARK VINA RESULT:    -3.413      3.761      5.674
REMARK INTER + INTRA:          -4.919
REMARK INTER:                  -4.599
REMARK INTRA:                  -0.320
REMARK UNBOUND:                -0.309
REMARK SMILES CCCCCCCC(=O)[O-]
REMARK SMILES IDX 5 1 6 2 7 3 8 4 9 5 10 6 4 7 3 8 2 9 1 10
REMARK H PARENT
REMARK Flexibility Score: inf
ROOT
ATOM      1  C   UNL     1     -11.690   9.225 -20.203  1.00  0.00     0.000 C 
ENDROOT
BRANCH   1   2
ATOM      2  C   UNL     1     -12.980   8.382 -20.252  1.00  0.00     0.006 C 
BRANCH   2   3
ATOM      3  C   UNL     1     -13.131   7.527 -21.521  1.00  0.00     0.053 C 
BRANCH   3   4
ATOM      4  C   UNL     1     -12.242   6.322 -21.493  1.00  0.00     0.041 C 
ATOM      5  O   UNL     1     -11.553   6.019 -22.502  1.00  0.00    -0.550 OA
ATOM      6  O   UNL     1     -12.198   5.514 -20.363  1.00  0.00    -0.550 OA
ENDBRANCH   3   4
ENDBRANCH   2   3
ENDBRANCH   1   2
BRANCH   1   7
ATOM      7  C   UNL     1     -10.955   9.221 -18.847  1.00  0.00     0.000 C 
BRANCH   7   8
ATOM      8  C   UNL     1     -10.066   7.991 -18.591  1.00  0.00    -0.000 C 
BRANCH   8   9
ATOM      9  C   UNL     1      -8.782   8.333 -17.821  1.00  0.00    -0.003 C 
ATOM     10  C   UNL     1      -8.973   9.578 -16.960  1.00  0.00     0.004 C 
ENDBRANCH   8   9
ENDBRANCH   7   8
ENDBRANCH   1   7
TORSDOF 6
ENDMDL
MODEL 5
REMARK VINA RESULT:    -3.403      3.566      5.700
REMARK INTER + INTRA:          -4.905
REMARK INTER:                  -4.480
REMARK INTRA:                  -0.425
REMARK UNBOUND:                -0.309
REMARK SMILES CCCCCCCC(=O)[O-]
REMARK SMILES IDX 5 1 6 2 7 3 8 4 9 5 10 6 4 7 3 8 2 9 1 10
REMARK H PARENT
REMARK Flexibility Score: inf
ROOT
ATOM      1  C   UNL     1     -11.994   7.208 -19.349  1.00  0.00     0.000 C 
ENDROOT
BRANCH   1   2
ATOM      2  C   UNL     1     -12.901   8.098 -20.223  1.00  0.00     0.006 C 
BRANCH   2   3
ATOM      3  C   UNL     1     -13.191   7.528 -21.620  1.00  0.00     0.053 C 
BRANCH   3   4
ATOM      4  C   UNL     1     -11.936   7.304 -22.405  1.00  0.00     0.041 C 
ATOM      5  O   UNL     1     -11.617   6.143 -22.774  1.00  0.00    -0.550 OA
ATOM      6  O   UNL     1     -11.099   8.373 -22.703  1.00  0.00    -0.550 OA
ENDBRANCH   3   4
ENDBRANCH   2   3
ENDBRANCH   1   2
BRANCH   1   7
ATOM      7  C   UNL     1     -10.612   7.805 -19.015  1.00  0.00     0.000 C 
BRANCH   7   8
ATOM      8  C   UNL     1     -10.499   9.329 -19.202  1.00  0.00    -0.000 C 
BRANCH   8   9
ATOM      9  C   UNL     1      -9.697  10.008 -18.083  1.00  0.00    -0.003 C 
ATOM     10  C   UNL     1      -9.150   8.980 -17.096  1.00  0.00     0.004 C 
ENDBRANCH   8   9
ENDBRANCH   7   8
ENDBRANCH   1   7
TORSDOF 6
ENDMDL
MODEL 6
REMARK VINA RESULT:    -3.383      3.426      3.963
REMARK INTER + INTRA:          -4.878
REMARK INTER:                  -4.475
REMARK INTRA:                  -0.403
REMARK UNBOUND:                -0.309
REMARK SMILES CCCCCCCC(=O)[O-]
REMARK SMILES IDX 5 1 6 2 7 3 8 4 9 5 10 6 4 7 3 8 2 9 1 10
REMARK H PARENT
REMARK Flexibility Score: inf
ROOT
ATOM      1  C   UNL     1     -10.267   8.725 -18.904  1.00  0.00     0.000 C 
ENDROOT
BRANCH   1   2
ATOM      2  C   UNL     1      -9.590   7.443 -18.379  1.00  0.00     0.006 C 
BRANCH   2   3
ATOM      3  C   UNL     1      -8.425   6.941 -19.248  1.00  0.00     0.053 C 
BRANCH   3   4
ATOM      4  C   UNL     1      -8.484   5.460 -19.463  1.00  0.00     0.041 C 
ATOM      5  O   UNL     1      -9.483   4.941 -20.028  1.00  0.00    -0.550 OA
ATOM      6  O   UNL     1      -7.452   4.648 -19.009  1.00  0.00    -0.550 OA
ENDBRANCH   3   4
ENDBRANCH   2   3
ENDBRANCH   1   2
BRANCH   1   7
ATOM      7  C   UNL     1     -11.711   8.544 -19.412  1.00  0.00     0.000 C 
BRANCH   7   8
ATOM      8  C   UNL     1     -12.205   7.087 -19.468  1.00  0.00    -0.000 C 
BRANCH   8   9
ATOM      9  C   UNL     1     -12.383   6.572 -20.903  1.00  0.00    -0.003 C 
ATOM     10  C   UNL     1     -13.142   7.582 -21.759  1.00  0.00     0.004 C 
ENDBRANCH   8   9
ENDBRANCH   7   8
ENDBRANCH   1   7
TORSDOF 6
ENDMDL
MODEL 7
REMARK VINA RESULT:    -3.376      1.854      2.624
REMARK INTER + INTRA:          -4.869
REMARK INTER:                  -4.418
REMARK INTRA:                  -0.451
REMARK UNBOUND:                -0.309
REMARK SMILES CCCCCCCC(=O)[O-]
REMARK SMILES IDX 5 1 6 2 7 3 8 4 9 5 10 6 4 7 3 8 2 9 1 10
REMARK H PARENT
REMARK Flexibility Score: inf
ROOT
ATOM      1  C   UNL     1     -12.606   8.811 -19.400  1.00  0.00     0.000 C 
ENDROOT
BRANCH   1   2
ATOM      2  C   UNL     1     -11.164   9.171 -18.992  1.00  0.00     0.006 C 
BRANCH   2   3
ATOM      3  C   UNL     1     -10.246   7.958 -18.771  1.00  0.00     0.053 C 
BRANCH   3   4
ATOM      4  C   UNL     1      -9.071   8.294 -17.907  1.00  0.00     0.041 C 
ATOM      5  O   UNL     1      -7.924   7.867 -18.203  1.00  0.00    -0.550 OA
ATOM      6  O   UNL     1      -9.245   9.054 -16.757  1.00  0.00    -0.550 OA
ENDBRANCH   3   4
ENDBRANCH   2   3
ENDBRANCH   1   2
BRANCH   1   7
ATOM      7  C   UNL     1     -12.748   7.537 -20.257  1.00  0.00     0.000 C 
BRANCH   7   8
ATOM      8  C   UNL     1     -12.802   7.776 -21.776  1.00  0.00    -0.000 C 
BRANCH   8   9
ATOM      9  C   UNL     1     -11.466   7.484 -22.474  1.00  0.00    -0.003 C 
ATOM     10  C   UNL     1     -10.804   8.773 -22.956  1.00  0.00     0.004 C 
ENDBRANCH   8   9
ENDBRANCH   7   8
ENDBRANCH   1   7
TORSDOF 6
ENDMDL
MODEL 8
REMARK VINA RESULT:    -3.344      3.876      5.568
REMARK INTER + INTRA:          -4.825
REMARK INTER:                  -4.434
REMARK INTRA:                  -0.391
REMARK UNBOUND:                -0.309
REMARK SMILES CCCCCCCC(=O)[O-]
REMARK SMILES IDX 5 1 6 2 7 3 8 4 9 5 10 6 4 7 3 8 2 9 1 10
REMARK H PARENT
REMARK Flexibility Score: inf
ROOT
ATOM      1  C   UNL     1     -13.121   7.856 -21.023  1.00  0.00     0.000 C 
ENDROOT
BRANCH   1   2
ATOM      2  C   UNL     1     -12.289   6.666 -21.542  1.00  0.00     0.006 C 
BRANCH   2   3
ATOM      3  C   UNL     1     -12.030   5.570 -20.495  1.00  0.00     0.053 C 
BRANCH   3   4
ATOM      4  C   UNL     1     -10.788   4.789 -20.797  1.00  0.00     0.041 C 
ATOM      5  O   UNL     1     -10.788   3.930 -21.718  1.00  0.00    -0.550 OA
ATOM      6  O   UNL     1      -9.640   4.987 -20.041  1.00  0.00    -0.550 OA
ENDBRANCH   3   4
ENDBRANCH   2   3
ENDBRANCH   1   2
BRANCH   1   7
ATOM      7  C   UNL     1     -12.590   8.516 -19.734  1.00  0.00     0.000 C 
BRANCH   7   8
ATOM      8  C   UNL     1     -11.236   9.233 -19.880  1.00  0.00    -0.000 C 
BRANCH   8   9
ATOM      9  C   UNL     1     -10.467   9.329 -18.555  1.00  0.00    -0.003 C 
ATOM     10  C   UNL     1      -9.677   8.051 -18.285  1.00  0.00     0.004 C 
ENDBRANCH   8   9
ENDBRANCH   7   8
ENDBRANCH   1   7
TORSDOF 6
ENDMDL
MODEL 9
REMARK VINA RESULT:    -3.301      3.909      5.394
REMARK INTER + INTRA:          -4.767
REMARK INTER:                  -4.150
REMARK INTRA:                  -0.617
REMARK UNBOUND:                -0.309
REMARK SMILES CCCCCCCC(=O)[O-]
REMARK SMILES IDX 5 1 6 2 7 3 8 4 9 5 10 6 4 7 3 8 2 9 1 10
REMARK H PARENT
REMARK Flexibility Score: inf
ROOT
ATOM      1  C   UNL     1     -11.313   9.122 -19.811  1.00  0.00     0.000 C 
ENDROOT
BRANCH   1   2
ATOM      2  C   UNL     1     -12.719   8.490 -19.784  1.00  0.00     0.006 C 
BRANCH   2   3
ATOM      3  C   UNL     1     -13.091   7.717 -21.060  1.00  0.00     0.053 C 
BRANCH   3   4
ATOM      4  C   UNL     1     -12.254   6.487 -21.233  1.00  0.00     0.041 C 
ATOM      5  O   UNL     1     -12.320   5.552 -20.392  1.00  0.00    -0.550 OA
ATOM      6  O   UNL     1     -11.376   6.387 -22.305  1.00  0.00    -0.550 OA
ENDBRANCH   3   4
ENDBRANCH   2   3
ENDBRANCH   1   2
BRANCH   1   7
ATOM      7  C   UNL     1     -10.488   8.942 -18.521  1.00  0.00     0.000 C 
BRANCH   7   8
ATOM      8  C   UNL     1      -9.862   7.548 -18.337  1.00  0.00    -0.000 C 
BRANCH   8   9
ATOM      9  C   UNL     1      -9.025   7.106 -19.545  1.00  0.00    -0.003 C 
ATOM     10  C   UNL     1      -8.894   5.586 -19.597  1.00  0.00     0.004 C 
ENDBRANCH   8   9
ENDBRANCH   7   8
ENDBRANCH   1   7
TORSDOF 6
ENDMDL
