MODEL 1
REMARK VINA RESULT:    -3.669      0.000      0.000
REMARK INTER + INTRA:          -4.388
REMARK INTER:                  -4.312
REMARK INTRA:                  -0.075
REMARK UNBOUND:                -0.075
REMARK SMILES O=C([O-])CCC(=O)[O-]
REMARK SMILES IDX 4 1 2 2 1 3 3 4 5 5 6 6 7 7 8 8
REMARK H PARENT
REMARK Flexibility Score: inf
ROOT
ATOM      1  C   UNL     1      17.257   2.801  25.004  1.00  0.00     0.059 C 
ENDROOT
BRANCH   1   2
ATOM      2  C   UNL     1      15.841   3.087  25.405  1.00  0.00     0.042 C 
ATOM      3  O   UNL     1      15.601   3.754  26.445  1.00  0.00    -0.550 OA
ATOM      4  O   UNL     1      14.790   2.651  24.608  1.00  0.00    -0.550 OA
ENDBRANCH   1   2
BRANCH   1   5
ATOM      5  C   UNL     1      17.732   1.445  25.538  1.00  0.00     0.059 C 
BRANCH   5   6
ATOM      6  C   UNL     1      19.007   1.573  26.313  1.00  0.00     0.042 C 
ATOM      7  O   UNL     1      19.018   2.168  27.423  1.00  0.00    -0.550 OA
ATOM      8  O   UNL     1      20.177   1.000  25.829  1.00  0.00    -0.550 OA
ENDBRANCH   5   6
ENDBRANCH   1   5
TORSDOF 3
ENDMDL
MODEL 2
REMARK VINA RESULT:    -3.632      0.082      3.999
REMARK INTER + INTRA:          -4.344
REMARK INTER:                  -4.272
REMARK INTRA:                  -0.072
REMARK UNBOUND:                -0.075
REMARK SMILES O=C([O-])CCC(=O)[O-]
REMARK SMILES IDX 4 1 2 2 1 3 3 4 5 5 6 6 7 7 8 8
REMARK H PARENT
REMARK Flexibility Score: inf
ROOT
ATOM      1  C   UNL     1      17.771   1.398  25.552  1.00  0.00     0.059 C 
ENDROOT
BRANCH   1   2
ATOM      2  C   UNL     1      19.059   1.514  26.309  1.00  0.00     0.042 C 
ATOM      3  O   UNL     1      19.087   2.092  27.427  1.00  0.00    -0.550 OA
ATOM      4  O   UNL     1      20.221   0.948  25.798  1.00  0.00    -0.550 OA
ENDBRANCH   1   2
BRANCH   1   5
ATOM      5  C   UNL     1      17.324   2.751  24.988  1.00  0.00     0.059 C 
BRANCH   5   6
ATOM      6  C   UNL     1      15.916   3.076  25.382  1.00  0.00     0.042 C 
ATOM      7  O   UNL     1      15.688   3.764  26.411  1.00  0.00    -0.550 OA
ATOM      8  O   UNL     1      14.855   2.652  24.590  1.00  0.00    -0.550 OA
ENDBRANCH   5   6
ENDBRANCH   1   5
TORSDOF 3
ENDMDL
MODEL 3
REMARK VINA RESULT:    -3.370     14.561     15.518
REMARK INTER + INTRA:          -4.036
REMARK INTER:                  -4.005
REMARK INTRA:                  -0.031
REMARK UNBOUND:                -0.075
REMARK SMILES O=C([O-])CCC(=O)[O-]
REMARK SMILES IDX 4 1 2 2 1 3 3 4 5 5 6 6 7 7 8 8
REMARK H PARENT
REMARK Flexibility Score: inf
ROOT
ATOM      1  C   UNL     1      29.108  -0.189  34.694  1.00  0.00     0.059 C 
ENDROOT
BRANCH   1   2
ATOM      2  C   UNL     1      30.437  -0.002  34.027  1.00  0.00     0.042 C 
ATOM      3  O   UNL     1      31.062   1.084  34.153  1.00  0.00    -0.550 OA
ATOM      4  O   UNL     1      31.005  -1.042  33.302  1.00  0.00    -0.550 OA
ENDBRANCH   1   2
BRANCH   1   5
ATOM      5  C   UNL     1      28.722  -1.669  34.778  1.00  0.00     0.059 C 
BRANCH   5   6
ATOM      6  C   UNL     1      27.654  -1.904  35.801  1.00  0.00     0.042 C 
ATOM      7  O   UNL     1      26.468  -2.125  35.441  1.00  0.00    -0.550 OA
ATOM      8  O   UNL     1      27.976  -1.920  37.153  1.00  0.00    -0.550 OA
ENDBRANCH   5   6
ENDBRANCH   1   5
TORSDOF 3
ENDMDL
MODEL 4
REMARK VINA RESULT:    -3.030     14.535     15.568
REMARK INTER + INTRA:          -3.637
REMARK INTER:                  -3.595
REMARK INTRA:                  -0.042
REMARK UNBOUND:                -0.075
REMARK SMILES O=C([O-])CCC(=O)[O-]
REMARK SMILES IDX 4 1 2 2 1 3 3 4 5 5 6 6 7 7 8 8
REMARK H PARENT
REMARK Flexibility Score: inf
ROOT
ATOM      1  C   UNL     1      28.595  -1.209  34.749  1.00  0.00     0.059 C 
ENDROOT
BRANCH   1   2
ATOM      2  C   UNL     1      27.711  -1.793  35.809  1.00  0.00     0.042 C 
ATOM      3  O   UNL     1      26.528  -2.125  35.534  1.00  0.00    -0.550 OA
ATOM      4  O   UNL     1      28.207  -2.008  37.089  1.00  0.00    -0.550 OA
ENDBRANCH   1   2
BRANCH   1   5
ATOM      5  C   UNL     1      29.962  -0.806  35.313  1.00  0.00     0.059 C 
BRANCH   5   6
ATOM      6  C   UNL     1      30.379   0.551  34.835  1.00  0.00     0.042 C 
ATOM      7  O   UNL     1      30.336   0.832  33.609  1.00  0.00    -0.550 OA
ATOM      8  O   UNL     1      30.776   1.520  35.749  1.00  0.00    -0.550 OA
ENDBRANCH   5   6
ENDBRANCH   1   5
TORSDOF 3
ENDMDL
MODEL 5
REMARK VINA RESULT:    -2.743     14.437     15.686
REMARK INTER + INTRA:          -3.300
REMARK INTER:                  -3.261
REMARK INTRA:                  -0.039
REMARK UNBOUND:                -0.075
REMARK SMILES O=C([O-])CCC(=O)[O-]
REMARK SMILES IDX 4 1 2 2 1 3 3 4 5 5 6 6 7 7 8 8
REMARK H PARENT
REMARK Flexibility Score: inf
ROOT
ATOM      1  C   UNL     1      11.938  17.094  22.386  1.00  0.00     0.059 C 
ENDROOT
BRANCH   1   2
ATOM      2  C   UNL     1      11.991  17.287  23.871  1.00  0.00     0.042 C 
ATOM      3  O   UNL     1      10.992  17.003  24.583  1.00  0.00    -0.550 OA
ATOM      4  O   UNL     1      13.158  17.743  24.472  1.00  0.00    -0.550 OA
ENDBRANCH   1   2
BRANCH   1   5
ATOM      5  C   UNL     1      10.909  16.029  21.991  1.00  0.00     0.059 C 
BRANCH   5   6
ATOM      6  C   UNL     1      11.471  15.060  20.997  1.00  0.00     0.042 C 
ATOM      7  O   UNL     1      11.998  15.477  19.933  1.00  0.00    -0.550 OA
ATOM      8  O   UNL     1      11.448  13.696  21.264  1.00  0.00    -0.550 OA
ENDBRANCH   5   6
ENDBRANCH   1   5
TORSDOF 3
ENDMDL
MODEL 6
REMARK VINA RESULT:    -2.713     14.239     15.808
REMARK INTER + INTRA:          -3.265
REMARK INTER:                  -3.165
REMARK INTRA:                  -0.099
REMARK UNBOUND:                -0.075
REMARK SMILES O=C([O-])CCC(=O)[O-]
REMARK SMILES IDX 4 1 2 2 1 3 3 4 5 5 6 6 7 7 8 8
REMARK H PARENT
REMARK Flexibility Score: inf
ROOT
ATOM      1  C   UNL     1      10.979  15.723  22.278  1.00  0.00     0.059 C 
ENDROOT
BRANCH   1   2
ATOM      2  C   UNL     1      11.344  14.811  21.146  1.00  0.00     0.042 C 
ATOM      3  O   UNL     1      11.691  15.288  20.034  1.00  0.00    -0.550 OA
ATOM      4  O   UNL     1      11.340  13.434  21.333  1.00  0.00    -0.550 OA
ENDBRANCH   1   2
BRANCH   1   5
ATOM      5  C   UNL     1      11.156  17.196  21.895  1.00  0.00     0.059 C 
BRANCH   5   6
ATOM      6  C   UNL     1      12.466  17.739  22.376  1.00  0.00     0.042 C 
ATOM      7  O   UNL     1      12.708  17.813  23.610  1.00  0.00    -0.550 OA
ATOM      8  O   UNL     1      13.439  18.125  21.461  1.00  0.00    -0.550 OA
ENDBRANCH   5   6
ENDBRANCH   1   5
TORSDOF 3
ENDMDL
MODEL 7
REMARK VINA RESULT:    -2.671     19.923     20.575
REMARK INTER + INTRA:          -3.215
REMARK INTER:                  -3.108
REMARK INTRA:                  -0.107
REMARK UNBOUND:                -0.075
REMARK SMILES O=C([O-])CCC(=O)[O-]
REMARK SMILES IDX 4 1 2 2 1 3 3 4 5 5 6 6 7 7 8 8
REMARK H PARENT
REMARK Flexibility Score: inf
ROOT
ATOM      1  C   UNL     1      29.256  16.615  19.560  1.00  0.00     0.059 C 
ENDROOT
BRANCH   1   2
ATOM      2  C   UNL     1      30.419  16.743  18.622  1.00  0.00     0.042 C 
ATOM      3  O   UNL     1      30.783  17.878  18.216  1.00  0.00    -0.550 OA
ATOM      4  O   UNL     1      31.125  15.612  18.231  1.00  0.00    -0.550 OA
ENDBRANCH   1   2
BRANCH   1   5
ATOM      5  C   UNL     1      28.894  17.961  20.197  1.00  0.00     0.059 C 
BRANCH   5   6
ATOM      6  C   UNL     1      29.320  18.024  21.632  1.00  0.00     0.042 C 
ATOM      7  O   UNL     1      28.459  18.113  22.546  1.00  0.00    -0.550 OA
ATOM      8  O   UNL     1      30.668  17.944  21.963  1.00  0.00    -0.550 OA
ENDBRANCH   5   6
ENDBRANCH   1   5
TORSDOF 3
ENDMDL
MODEL 8
REMARK VINA RESULT:    -2.599     15.344     16.273
REMARK INTER + INTRA:          -3.130
REMARK INTER:                  -3.041
REMARK INTRA:                  -0.089
REMARK UNBOUND:                -0.075
REMARK SMILES O=C([O-])CCC(=O)[O-]
REMARK SMILES IDX 4 1 2 2 1 3 3 4 5 5 6 6 7 7 8 8
REMARK H PARENT
REMARK Flexibility Score: inf
ROOT
ATOM      1  C   UNL     1      11.361  16.681  24.142  1.00  0.00     0.059 C 
ENDROOT
BRANCH   1   2
ATOM      2  C   UNL     1      12.326  16.989  25.247  1.00  0.00     0.042 C 
ATOM      3  O   UNL     1      12.377  16.253  26.266  1.00  0.00    -0.550 OA
ATOM      4  O   UNL     1      13.196  18.066  25.130  1.00  0.00    -0.550 OA
ENDBRANCH   1   2
BRANCH   1   5
ATOM      5  C   UNL     1      11.347  17.785  23.080  1.00  0.00     0.059 C 
BRANCH   5   6
ATOM      6  C   UNL     1      12.218  17.439  21.911  1.00  0.00     0.042 C 
ATOM      7  O   UNL     1      13.242  18.125  21.657  1.00  0.00    -0.550 OA
ATOM      8  O   UNL     1      11.920  16.332  21.125  1.00  0.00    -0.550 OA
ENDBRANCH   5   6
ENDBRANCH   1   5
TORSDOF 3
ENDMDL
MODEL 9
REMARK VINA RESULT:    -2.440     14.868     15.887
REMARK INTER + INTRA:          -2.944
REMARK INTER:                  -2.903
REMARK INTRA:                  -0.040
REMARK UNBOUND:                -0.075
REMARK SMILES O=C([O-])CCC(=O)[O-]
REMARK SMILES IDX 4 1 2 2 1 3 3 4 5 5 6 6 7 7 8 8
REMARK H PARENT
REMARK Flexibility Score: inf
ROOT
ATOM      1  C   UNL     1      11.587  16.687  21.751  1.00  0.00     0.059 C 
ENDROOT
BRANCH   1   2
ATOM      2  C   UNL     1      11.552  15.443  20.917  1.00  0.00     0.042 C 
ATOM      3  O   UNL     1      11.257  14.337  21.441  1.00  0.00    -0.550 OA
ATOM      4  O   UNL     1      11.804  15.512  19.552  1.00  0.00    -0.550 OA
ENDBRANCH   1   2
BRANCH   1   5
ATOM      5  C   UNL     1      11.161  16.410  23.196  1.00  0.00     0.059 C 
BRANCH   5   6
ATOM      6  C   UNL     1      11.714  17.433  24.141  1.00  0.00     0.042 C 
ATOM      7  O   UNL     1      10.948  18.056  24.922  1.00  0.00    -0.550 OA
ATOM      8  O   UNL     1      13.083  17.669  24.188  1.00  0.00    -0.550 OA
ENDBRANCH   5   6
ENDBRANCH   1   5
TORSDOF 3
ENDMDL
