MODEL 1
REMARK VINA RESULT:    -8.384      0.000      0.000
REMARK INTER + INTRA:         -18.400
REMARK INTER:                 -15.981
REMARK INTRA:                  -2.419
REMARK UNBOUND:                -2.419
REMARK SMILES C[C@@H]1O[C@@H](O[C@H]2[C@H](O)[C@H](OCCc3ccc(O)c(O)c3)O[C@@H](CO)[C@@H]2OC(=O)C=Cc2ccc(O)c(O)c2)[C@H](O)[C@H](O)[C@H]1O
REMARK SMILES IDX 6 1 7 2 9 3 21 4 22 5 25 6 5 7 4 8 1 9 2 10 43 11 3 12 41 13
REMARK SMILES IDX 39 14 44 15 42 17 40 19 8 21 26 23 27 24 28 25 29 26 30 27
REMARK SMILES IDX 31 28 38 29 32 30 36 31 33 32 34 33 37 34 35 36 10 38 11 39
REMARK SMILES IDX 12 40 13 41 20 42 14 43 18 44 15 45 16 46 19 47 17 49 23 51
REMARK SMILES IDX 24 52
REMARK H PARENT 44 16 42 18 40 20 8 22 37 35 35 37 19 48 17 50 24 53
REMARK Flexibility Score: inf
ROOT
ATOM      1  C   UNL     1      38.235  40.258  -2.391  1.00  0.00     0.199 C 
ATOM      2  C   UNL     1      37.784  41.661  -2.854  1.00  0.00     0.203 C 
ATOM      3  C   UNL     1      36.455  41.591  -3.637  1.00  0.00     0.282 C 
ATOM      4  O   UNL     1      36.546  40.678  -4.718  1.00  0.00    -0.340 OA
ATOM      5  C   UNL     1      36.820  39.357  -4.279  1.00  0.00     0.190 C 
ATOM      6  C   UNL     1      38.208  39.305  -3.598  1.00  0.00     0.240 C 
ENDROOT
BRANCH   1   7
ATOM      7  O   UNL     1      39.563  40.303  -1.892  1.00  0.00    -0.340 OA
BRANCH   7   8
ATOM      8  C   UNL     1      39.627  40.492  -0.482  1.00  0.00     0.282 C 
ATOM      9  C   UNL     1      43.254  40.045  -0.062  1.00  0.00     0.041 C 
ATOM     10  C   UNL     1      41.818  39.644  -0.408  1.00  0.00     0.150 C 
ATOM     11  C   UNL     1      41.410  38.363   0.349  1.00  0.00     0.174 C 
ATOM     12  O   UNL     1      40.965  40.726  -0.068  1.00  0.00    -0.344 OA
ATOM     13  C   UNL     1      39.941  38.021   0.040  1.00  0.00     0.179 C 
ATOM     14  C   UNL     1      39.033  39.255   0.226  1.00  0.00     0.202 C 
BRANCH  11  15
ATOM     15  O   UNL     1      42.234  37.298  -0.052  1.00  0.00    -0.388 OA
ATOM     16  H   UNL     1      42.415  36.753   0.757  1.00  0.00     0.211 HD
ENDBRANCH  11  15
BRANCH  13  17
ATOM     17  O   UNL     1      39.517  36.974   0.873  1.00  0.00    -0.387 OA
ATOM     18  H   UNL     1      38.847  36.449   0.359  1.00  0.00     0.211 HD
ENDBRANCH  13  17
BRANCH  14  19
ATOM     19  O   UNL     1      38.793  39.515   1.588  1.00  0.00    -0.385 OA
ATOM     20  H   UNL     1      39.191  40.394   1.809  1.00  0.00     0.211 HD
ENDBRANCH  14  19
ENDBRANCH   7   8
ENDBRANCH   1   7
BRANCH   2  21
ATOM     21  O   UNL     1      37.673  42.557  -1.775  1.00  0.00    -0.385 OA
ATOM     22  H   UNL     1      38.041  42.112  -0.967  1.00  0.00     0.211 HD
ENDBRANCH   2  21
BRANCH   6  23
ATOM     23  O   UNL     1      38.502  37.975  -3.160  1.00  0.00    -0.453 OA
BRANCH  23  24
ATOM     24  C   UNL     1      39.592  37.235  -3.637  1.00  0.00     0.331 C 
ATOM     25  O   UNL     1      40.092  37.491  -4.767  1.00  0.00    -0.247 OA
BRANCH  24  26
ATOM     26  C   UNL     1      40.152  36.132  -2.845  1.00  0.00     0.094 C 
ATOM     27  C   UNL     1      40.552  34.982  -3.405  1.00  0.00     0.016 C 
BRANCH  27  28
ATOM     28  C   UNL     1      41.118  33.853  -2.625  1.00  0.00    -0.021 A 
ATOM     29  C   UNL     1      40.598  33.464  -1.373  1.00  0.00     0.058 A 
ATOM     30  C   UNL     1      42.231  33.167  -3.136  1.00  0.00     0.012 A 
ATOM     31  C   UNL     1      41.165  32.393  -0.665  1.00  0.00     0.157 A 
ATOM     32  C   UNL     1      42.795  32.100  -2.433  1.00  0.00     0.051 A 
ATOM     33  C   UNL     1      42.266  31.706  -1.201  1.00  0.00     0.157 A 
BRANCH  31  34
ATOM     34  O   UNL     1      40.642  32.015   0.570  1.00  0.00    -0.504 OA
ATOM     35  H   UNL     1      39.886  31.345   0.643  1.00  0.00     0.293 HD
ENDBRANCH  31  34
BRANCH  33  36
ATOM     36  O   UNL     1      42.851  30.634  -0.522  1.00  0.00    -0.504 OA
ATOM     37  H   UNL     1      42.424  30.221   0.299  1.00  0.00     0.293 HD
ENDBRANCH  33  36
ENDBRANCH  27  28
ENDBRANCH  24  26
ENDBRANCH  23  24
ENDBRANCH   6  23
BRANCH   3  38
ATOM     38  O   UNL     1      35.378  41.233  -2.775  1.00  0.00    -0.350 OA
BRANCH  38  39
ATOM     39  C   UNL     1      34.123  41.354  -3.420  1.00  0.00     0.168 C 
BRANCH  39  40
ATOM     40  C   UNL     1      33.056  40.509  -2.712  1.00  0.00     0.064 C 
BRANCH  40  41
ATOM     41  C   UNL     1      32.840  39.208  -3.439  1.00  0.00    -0.042 A 
ATOM     42  C   UNL     1      32.211  38.128  -2.796  1.00  0.00     0.054 A 
ATOM     43  C   UNL     1      33.212  39.086  -4.786  1.00  0.00     0.008 A 
ATOM     44  C   UNL     1      31.979  36.929  -3.488  1.00  0.00     0.157 A 
ATOM     45  C   UNL     1      32.977  37.891  -5.477  1.00  0.00     0.050 A 
ATOM     46  C   UNL     1      32.366  36.812  -4.834  1.00  0.00     0.157 A 
BRANCH  44  47
ATOM     47  O   UNL     1      31.362  35.855  -2.847  1.00  0.00    -0.504 OA
ATOM     48  H   UNL     1      30.572  35.368  -3.257  1.00  0.00     0.293 HD
ENDBRANCH  44  47
BRANCH  46  49
ATOM     49  O   UNL     1      32.146  35.634  -5.549  1.00  0.00    -0.504 OA
ATOM     50  H   UNL     1      31.982  34.748  -5.084  1.00  0.00     0.293 HD
ENDBRANCH  46  49
ENDBRANCH  40  41
ENDBRANCH  39  40
ENDBRANCH  38  39
ENDBRANCH   3  38
BRANCH   5  51
ATOM     51  C   UNL     1      36.772  38.437  -5.506  1.00  0.00     0.192 C 
BRANCH  51  52
ATOM     52  O   UNL     1      36.407  37.137  -5.133  1.00  0.00    -0.394 OA
ATOM     53  H   UNL     1      36.255  37.167  -4.153  1.00  0.00     0.210 HD
ENDBRANCH  51  52
ENDBRANCH   5  51
TORSDOF 20
ENDMDL
MODEL 2
REMARK VINA RESULT:    -8.357      1.851      2.618
REMARK INTER + INTRA:         -18.349
REMARK INTER:                 -15.921
REMARK INTRA:                  -2.427
REMARK UNBOUND:                -2.419
REMARK SMILES C[C@@H]1O[C@@H](O[C@H]2[C@H](O)[C@H](OCCc3ccc(O)c(O)c3)O[C@@H](CO)[C@@H]2OC(=O)C=Cc2ccc(O)c(O)c2)[C@H](O)[C@H](O)[C@H]1O
REMARK SMILES IDX 6 1 7 2 9 3 21 4 22 5 25 6 5 7 4 8 1 9 2 10 43 11 3 12 41 13
REMARK SMILES IDX 39 14 44 15 42 17 40 19 8 21 26 23 27 24 28 25 29 26 30 27
REMARK SMILES IDX 31 28 38 29 32 30 36 31 33 32 34 33 37 34 35 36 10 38 11 39
REMARK SMILES IDX 12 40 13 41 20 42 14 43 18 44 15 45 16 46 19 47 17 49 23 51
REMARK SMILES IDX 24 52
REMARK H PARENT 44 16 42 18 40 20 8 22 37 35 35 37 19 48 17 50 24 53
REMARK Flexibility Score: inf
ROOT
ATOM      1  C   UNL     1      38.304  39.267  -2.466  1.00  0.00     0.199 C 
ATOM      2  C   UNL     1      39.198  39.879  -3.567  1.00  0.00     0.203 C 
ATOM      3  C   UNL     1      38.427  40.025  -4.897  1.00  0.00     0.282 C 
ATOM      4  O   UNL     1      37.861  38.788  -5.298  1.00  0.00    -0.340 OA
ATOM      5  C   UNL     1      36.929  38.295  -4.349  1.00  0.00     0.190 C 
ATOM      6  C   UNL     1      37.649  37.987  -3.015  1.00  0.00     0.240 C 
ENDROOT
BRANCH   1   7
ATOM      7  O   UNL     1      39.083  38.914  -1.334  1.00  0.00    -0.340 OA
BRANCH   7   8
ATOM      8  C   UNL     1      38.922  39.812  -0.240  1.00  0.00     0.282 C 
ATOM      9  C   UNL     1      42.382  41.048  -0.067  1.00  0.00     0.041 C 
ATOM     10  C   UNL     1      41.249  40.021   0.009  1.00  0.00     0.150 C 
ATOM     11  C   UNL     1      41.278  39.274   1.359  1.00  0.00     0.174 C 
ATOM     12  O   UNL     1      40.019  40.709  -0.162  1.00  0.00    -0.344 OA
ATOM     13  C   UNL     1      40.090  38.300   1.440  1.00  0.00     0.179 C 
ATOM     14  C   UNL     1      38.768  39.004   1.066  1.00  0.00     0.202 C 
BRANCH  11  15
ATOM     15  O   UNL     1      42.481  38.557   1.473  1.00  0.00    -0.388 OA
ATOM     16  H   UNL     1      42.238  37.604   1.600  1.00  0.00     0.211 HD
ENDBRANCH  11  15
BRANCH  13  17
ATOM     17  O   UNL     1      40.007  37.766   2.736  1.00  0.00    -0.387 OA
ATOM     18  H   UNL     1      39.701  38.501   3.332  1.00  0.00     0.211 HD
ENDBRANCH  13  17
BRANCH  14  19
ATOM     19  O   UNL     1      38.305  39.817   2.117  1.00  0.00    -0.385 OA
ATOM     20  H   UNL     1      37.344  39.623   2.257  1.00  0.00     0.211 HD
ENDBRANCH  14  19
ENDBRANCH   7   8
ENDBRANCH   1   7
BRANCH   2  21
ATOM     21  O   UNL     1      39.738  41.116  -3.173  1.00  0.00    -0.385 OA
ATOM     22  H   UNL     1      40.712  40.993  -3.021  1.00  0.00     0.211 HD
ENDBRANCH   2  21
BRANCH   6  23
ATOM     23  O   UNL     1      36.721  37.479  -2.051  1.00  0.00    -0.453 OA
BRANCH  23  24
ATOM     24  C   UNL     1      36.877  36.237  -1.421  1.00  0.00     0.331 C 
ATOM     25  O   UNL     1      35.905  35.700  -0.820  1.00  0.00    -0.247 OA
BRANCH  24  26
ATOM     26  C   UNL     1      38.176  35.553  -1.422  1.00  0.00     0.094 C 
ATOM     27  C   UNL     1      38.336  34.323  -1.929  1.00  0.00     0.016 C 
BRANCH  27  28
ATOM     28  C   UNL     1      39.638  33.611  -1.939  1.00  0.00    -0.021 A 
ATOM     29  C   UNL     1      40.325  33.279  -0.752  1.00  0.00     0.058 A 
ATOM     30  C   UNL     1      40.223  33.284  -3.172  1.00  0.00     0.012 A 
ATOM     31  C   UNL     1      41.558  32.609  -0.804  1.00  0.00     0.157 A 
ATOM     32  C   UNL     1      41.448  32.616  -3.224  1.00  0.00     0.051 A 
ATOM     33  C   UNL     1      42.119  32.272  -2.047  1.00  0.00     0.157 A 
BRANCH  31  34
ATOM     34  O   UNL     1      42.227  32.282   0.373  1.00  0.00    -0.504 OA
ATOM     35  H   UNL     1      42.380  32.967   1.104  1.00  0.00     0.293 HD
ENDBRANCH  31  34
BRANCH  33  36
ATOM     36  O   UNL     1      43.341  31.602  -2.132  1.00  0.00    -0.504 OA
ATOM     37  H   UNL     1      43.696  31.239  -3.010  1.00  0.00     0.293 HD
ENDBRANCH  33  36
ENDBRANCH  27  28
ENDBRANCH  24  26
ENDBRANCH  23  24
ENDBRANCH   6  23
BRANCH   3  38
ATOM     38  O   UNL     1      37.414  41.021  -4.788  1.00  0.00    -0.350 OA
BRANCH  38  39
ATOM     39  C   UNL     1      36.542  41.013  -5.905  1.00  0.00     0.168 C 
BRANCH  39  40
ATOM     40  C   UNL     1      35.374  41.986  -5.699  1.00  0.00     0.064 C 
BRANCH  40  41
ATOM     41  C   UNL     1      34.213  41.291  -5.040  1.00  0.00    -0.042 A 
ATOM     42  C   UNL     1      33.305  42.015  -4.248  1.00  0.00     0.054 A 
ATOM     43  C   UNL     1      33.996  39.922  -5.261  1.00  0.00     0.008 A 
ATOM     44  C   UNL     1      32.203  41.370  -3.664  1.00  0.00     0.157 A 
ATOM     45  C   UNL     1      32.895  39.281  -4.682  1.00  0.00     0.050 A 
ATOM     46  C   UNL     1      32.000  39.996  -3.883  1.00  0.00     0.157 A 
BRANCH  44  47
ATOM     47  O   UNL     1      31.307  42.087  -2.873  1.00  0.00    -0.504 OA
ATOM     48  H   UNL     1      31.525  43.014  -2.522  1.00  0.00     0.293 HD
ENDBRANCH  44  47
BRANCH  46  49
ATOM     49  O   UNL     1      30.912  39.328  -3.318  1.00  0.00    -0.504 OA
ATOM     50  H   UNL     1      30.586  39.533  -2.381  1.00  0.00     0.293 HD
ENDBRANCH  46  49
ENDBRANCH  40  41
ENDBRANCH  39  40
ENDBRANCH  38  39
ENDBRANCH   3  38
BRANCH   5  51
ATOM     51  C   UNL     1      36.290  37.030  -4.936  1.00  0.00     0.192 C 
BRANCH  51  52
ATOM     52  O   UNL     1      35.046  36.784  -4.339  1.00  0.00    -0.394 OA
ATOM     53  H   UNL     1      35.145  37.045  -3.387  1.00  0.00     0.210 HD
ENDBRANCH  51  52
ENDBRANCH   5  51
TORSDOF 20
ENDMDL
MODEL 3
REMARK VINA RESULT:    -8.251      2.409      6.422
REMARK INTER + INTRA:         -18.147
REMARK INTER:                 -15.142
REMARK INTRA:                  -3.005
REMARK UNBOUND:                -2.419
REMARK SMILES C[C@@H]1O[C@@H](O[C@H]2[C@H](O)[C@H](OCCc3ccc(O)c(O)c3)O[C@@H](CO)[C@@H]2OC(=O)C=Cc2ccc(O)c(O)c2)[C@H](O)[C@H](O)[C@H]1O
REMARK SMILES IDX 6 1 7 2 9 3 21 4 22 5 25 6 5 7 4 8 1 9 2 10 43 11 3 12 41 13
REMARK SMILES IDX 39 14 44 15 42 17 40 19 8 21 26 23 27 24 28 25 29 26 30 27
REMARK SMILES IDX 31 28 38 29 32 30 36 31 33 32 34 33 37 34 35 36 10 38 11 39
REMARK SMILES IDX 12 40 13 41 20 42 14 43 18 44 15 45 16 46 19 47 17 49 23 51
REMARK SMILES IDX 24 52
REMARK H PARENT 44 16 42 18 40 20 8 22 37 35 35 37 19 48 17 50 24 53
REMARK Flexibility Score: inf
ROOT
ATOM      1  C   UNL     1      38.235  36.205  -3.895  1.00  0.00     0.199 C 
ATOM      2  C   UNL     1      37.766  35.677  -5.268  1.00  0.00     0.203 C 
ATOM      3  C   UNL     1      36.888  36.716  -5.998  1.00  0.00     0.282 C 
ATOM      4  O   UNL     1      35.799  37.125  -5.185  1.00  0.00    -0.340 OA
ATOM      5  C   UNL     1      36.233  37.742  -3.984  1.00  0.00     0.190 C 
ATOM      6  C   UNL     1      37.012  36.722  -3.119  1.00  0.00     0.240 C 
ENDROOT
BRANCH   1   7
ATOM      7  O   UNL     1      38.830  35.161  -3.139  1.00  0.00    -0.340 OA
BRANCH   7   8
ATOM      8  C   UNL     1      40.202  35.396  -2.841  1.00  0.00     0.282 C 
ATOM      9  C   UNL     1      41.652  32.764  -4.961  1.00  0.00     0.041 C 
ATOM     10  C   UNL     1      40.825  33.350  -3.814  1.00  0.00     0.150 C 
ATOM     11  C   UNL     1      41.226  32.711  -2.469  1.00  0.00     0.174 C 
ATOM     12  O   UNL     1      41.039  34.753  -3.791  1.00  0.00    -0.344 OA
ATOM     13  C   UNL     1      40.432  33.366  -1.324  1.00  0.00     0.179 C 
ATOM     14  C   UNL     1      40.505  34.905  -1.409  1.00  0.00     0.202 C 
BRANCH  11  15
ATOM     15  O   UNL     1      40.949  31.333  -2.503  1.00  0.00    -0.388 OA
ATOM     16  H   UNL     1      41.618  30.919  -3.108  1.00  0.00     0.211 HD
ENDBRANCH  11  15
BRANCH  13  17
ATOM     17  O   UNL     1      40.933  32.922  -0.090  1.00  0.00    -0.387 OA
ATOM     18  H   UNL     1      41.722  33.489   0.122  1.00  0.00     0.211 HD
ENDBRANCH  13  17
BRANCH  14  19
ATOM     19  O   UNL     1      41.749  35.385  -0.959  1.00  0.00    -0.385 OA
ATOM     20  H   UNL     1      42.412  34.654  -1.044  1.00  0.00     0.211 HD
ENDBRANCH  14  19
ENDBRANCH   7   8
ENDBRANCH   1   7
BRANCH   2  21
ATOM     21  O   UNL     1      38.850  35.294  -6.079  1.00  0.00    -0.385 OA
ATOM     22  H   UNL     1      39.393  34.633  -5.575  1.00  0.00     0.211 HD
ENDBRANCH   2  21
BRANCH   6  23
ATOM     23  O   UNL     1      37.446  37.330  -1.898  1.00  0.00    -0.453 OA
BRANCH  23  24
ATOM     24  C   UNL     1      37.382  36.683  -0.657  1.00  0.00     0.331 C 
ATOM     25  O   UNL     1      36.547  35.757  -0.462  1.00  0.00    -0.247 OA
BRANCH  24  26
ATOM     26  C   UNL     1      38.262  37.089   0.446  1.00  0.00     0.094 C 
ATOM     27  C   UNL     1      38.448  38.375   0.776  1.00  0.00     0.016 C 
BRANCH  27  28
ATOM     28  C   UNL     1      39.335  38.809   1.884  1.00  0.00    -0.021 A 
ATOM     29  C   UNL     1      38.851  39.514   3.006  1.00  0.00     0.058 A 
ATOM     30  C   UNL     1      40.709  38.537   1.799  1.00  0.00     0.012 A 
ATOM     31  C   UNL     1      39.724  39.911   4.031  1.00  0.00     0.157 A 
ATOM     32  C   UNL     1      41.578  38.930   2.820  1.00  0.00     0.051 A 
ATOM     33  C   UNL     1      41.093  39.613   3.938  1.00  0.00     0.157 A 
BRANCH  31  34
ATOM     34  O   UNL     1      39.236  40.604   5.137  1.00  0.00    -0.504 OA
ATOM     35  H   UNL     1      39.438  40.304   6.083  1.00  0.00     0.293 HD
ENDBRANCH  31  34
BRANCH  33  36
ATOM     36  O   UNL     1      41.986  39.991   4.943  1.00  0.00    -0.504 OA
ATOM     37  H   UNL     1      42.380  40.924   4.990  1.00  0.00     0.293 HD
ENDBRANCH  33  36
ENDBRANCH  27  28
ENDBRANCH  24  26
ENDBRANCH  23  24
ENDBRANCH   6  23
BRANCH   3  38
ATOM     38  O   UNL     1      37.662  37.845  -6.394  1.00  0.00    -0.350 OA
BRANCH  38  39
ATOM     39  C   UNL     1      36.925  38.727  -7.221  1.00  0.00     0.168 C 
BRANCH  39  40
ATOM     40  C   UNL     1      37.540  40.133  -7.213  1.00  0.00     0.064 C 
BRANCH  40  41
ATOM     41  C   UNL     1      37.340  40.793  -5.875  1.00  0.00    -0.042 A 
ATOM     42  C   UNL     1      36.084  41.315  -5.518  1.00  0.00     0.054 A 
ATOM     43  C   UNL     1      38.393  40.839  -4.949  1.00  0.00     0.008 A 
ATOM     44  C   UNL     1      35.892  41.899  -4.256  1.00  0.00     0.157 A 
ATOM     45  C   UNL     1      38.199  41.417  -3.689  1.00  0.00     0.050 A 
ATOM     46  C   UNL     1      36.957  41.949  -3.339  1.00  0.00     0.157 A 
BRANCH  44  47
ATOM     47  O   UNL     1      34.649  42.423  -3.906  1.00  0.00    -0.504 OA
ATOM     48  H   UNL     1      34.441  42.725  -2.959  1.00  0.00     0.293 HD
ENDBRANCH  44  47
BRANCH  46  49
ATOM     49  O   UNL     1      36.795  42.520  -2.076  1.00  0.00    -0.504 OA
ATOM     50  H   UNL     1      36.978  42.001  -1.226  1.00  0.00     0.293 HD
ENDBRANCH  46  49
ENDBRANCH  40  41
ENDBRANCH  39  40
ENDBRANCH  38  39
ENDBRANCH   3  38
BRANCH   5  51
ATOM     51  C   UNL     1      34.989  38.255  -3.246  1.00  0.00     0.192 C 
BRANCH  51  52
ATOM     52  O   UNL     1      34.468  37.261  -2.408  1.00  0.00    -0.394 OA
ATOM     53  H   UNL     1      35.253  36.797  -2.015  1.00  0.00     0.210 HD
ENDBRANCH  51  52
ENDBRANCH   5  51
TORSDOF 20
ENDMDL
MODEL 4
REMARK VINA RESULT:    -8.238      2.803      6.649
REMARK INTER + INTRA:         -18.122
REMARK INTER:                 -15.370
REMARK INTRA:                  -2.752
REMARK UNBOUND:                -2.419
REMARK SMILES C[C@@H]1O[C@@H](O[C@H]2[C@H](O)[C@H](OCCc3ccc(O)c(O)c3)O[C@@H](CO)[C@@H]2OC(=O)C=Cc2ccc(O)c(O)c2)[C@H](O)[C@H](O)[C@H]1O
REMARK SMILES IDX 6 1 7 2 9 3 21 4 22 5 25 6 5 7 4 8 1 9 2 10 43 11 3 12 41 13
REMARK SMILES IDX 39 14 44 15 42 17 40 19 8 21 26 23 27 24 28 25 29 26 30 27
REMARK SMILES IDX 31 28 38 29 32 30 36 31 33 32 34 33 37 34 35 36 10 38 11 39
REMARK SMILES IDX 12 40 13 41 20 42 14 43 18 44 15 45 16 46 19 47 17 49 23 51
REMARK SMILES IDX 24 52
REMARK H PARENT 44 16 42 18 40 20 8 22 37 35 35 37 19 48 17 50 24 53
REMARK Flexibility Score: inf
ROOT
ATOM      1  C   UNL     1      38.314  35.955  -3.920  1.00  0.00     0.199 C 
ATOM      2  C   UNL     1      37.907  35.271  -5.244  1.00  0.00     0.203 C 
ATOM      3  C   UNL     1      37.041  36.207  -6.114  1.00  0.00     0.282 C 
ATOM      4  O   UNL     1      35.915  36.679  -5.392  1.00  0.00    -0.340 OA
ATOM      5  C   UNL     1      36.292  37.432  -4.251  1.00  0.00     0.190 C 
ATOM      6  C   UNL     1      37.052  36.528  -3.251  1.00  0.00     0.240 C 
ENDROOT
BRANCH   1   7
ATOM      7  O   UNL     1      38.895  35.012  -3.033  1.00  0.00    -0.340 OA
BRANCH   7   8
ATOM      8  C   UNL     1      40.264  35.278  -2.749  1.00  0.00     0.282 C 
ATOM      9  C   UNL     1      41.751  32.633  -4.826  1.00  0.00     0.041 C 
ATOM     10  C   UNL     1      40.921  33.226  -3.686  1.00  0.00     0.150 C 
ATOM     11  C   UNL     1      41.342  32.621  -2.331  1.00  0.00     0.174 C 
ATOM     12  O   UNL     1      41.107  34.633  -3.692  1.00  0.00    -0.344 OA
ATOM     13  C   UNL     1      40.544  33.284  -1.194  1.00  0.00     0.179 C 
ATOM     14  C   UNL     1      40.586  34.822  -1.309  1.00  0.00     0.202 C 
BRANCH  11  15
ATOM     15  O   UNL     1      41.092  31.238  -2.336  1.00  0.00    -0.388 OA
ATOM     16  H   UNL     1      41.190  30.931  -3.274  1.00  0.00     0.211 HD
ENDBRANCH  11  15
BRANCH  13  17
ATOM     17  O   UNL     1      41.061  32.874   0.045  1.00  0.00    -0.387 OA
ATOM     18  H   UNL     1      41.595  32.052  -0.123  1.00  0.00     0.211 HD
ENDBRANCH  13  17
BRANCH  14  19
ATOM     19  O   UNL     1      41.824  35.335  -0.878  1.00  0.00    -0.385 OA
ATOM     20  H   UNL     1      42.542  34.871  -1.378  1.00  0.00     0.211 HD
ENDBRANCH  14  19
ENDBRANCH   7   8
ENDBRANCH   1   7
BRANCH   2  21
ATOM     21  O   UNL     1      39.028  34.824  -5.967  1.00  0.00    -0.385 OA
ATOM     22  H   UNL     1      39.042  33.832  -5.932  1.00  0.00     0.211 HD
ENDBRANCH   2  21
BRANCH   6  23
ATOM     23  O   UNL     1      37.429  37.273  -2.089  1.00  0.00    -0.453 OA
BRANCH  23  24
ATOM     24  C   UNL     1      37.217  36.812  -0.783  1.00  0.00     0.331 C 
ATOM     25  O   UNL     1      36.522  35.779  -0.575  1.00  0.00    -0.247 OA
BRANCH  24  26
ATOM     26  C   UNL     1      37.774  37.536   0.367  1.00  0.00     0.094 C 
ATOM     27  C   UNL     1      39.093  37.621   0.588  1.00  0.00     0.016 C 
BRANCH  27  28
ATOM     28  C   UNL     1      39.679  38.344   1.745  1.00  0.00    -0.021 A 
ATOM     29  C   UNL     1      41.068  38.539   1.887  1.00  0.00     0.058 A 
ATOM     30  C   UNL     1      38.823  38.824   2.747  1.00  0.00     0.012 A 
ATOM     31  C   UNL     1      41.583  39.225   2.999  1.00  0.00     0.157 A 
ATOM     32  C   UNL     1      39.334  39.508   3.853  1.00  0.00     0.051 A 
ATOM     33  C   UNL     1      40.710  39.715   3.983  1.00  0.00     0.157 A 
BRANCH  31  34
ATOM     34  O   UNL     1      42.957  39.415   3.129  1.00  0.00    -0.504 OA
ATOM     35  H   UNL     1      43.452  40.104   2.576  1.00  0.00     0.293 HD
ENDBRANCH  31  34
BRANCH  33  36
ATOM     36  O   UNL     1      41.190  40.405   5.098  1.00  0.00    -0.504 OA
ATOM     37  H   UNL     1      40.821  40.247   6.029  1.00  0.00     0.293 HD
ENDBRANCH  33  36
ENDBRANCH  27  28
ENDBRANCH  24  26
ENDBRANCH  23  24
ENDBRANCH   6  23
BRANCH   3  38
ATOM     38  O   UNL     1      37.812  37.302  -6.603  1.00  0.00    -0.350 OA
BRANCH  38  39
ATOM     39  C   UNL     1      37.782  37.380  -8.017  1.00  0.00     0.168 C 
BRANCH  39  40
ATOM     40  C   UNL     1      36.476  38.021  -8.505  1.00  0.00     0.064 C 
BRANCH  40  41
ATOM     41  C   UNL     1      36.368  39.443  -8.020  1.00  0.00    -0.042 A 
ATOM     42  C   UNL     1      37.008  40.484  -8.715  1.00  0.00     0.054 A 
ATOM     43  C   UNL     1      35.576  39.746  -6.902  1.00  0.00     0.008 A 
ATOM     44  C   UNL     1      36.876  41.812  -8.281  1.00  0.00     0.157 A 
ATOM     45  C   UNL     1      35.441  41.071  -6.472  1.00  0.00     0.050 A 
ATOM     46  C   UNL     1      36.089  42.104  -7.153  1.00  0.00     0.157 A 
BRANCH  44  47
ATOM     47  O   UNL     1      37.517  42.843  -8.965  1.00  0.00    -0.504 OA
ATOM     48  H   UNL     1      38.135  43.496  -8.494  1.00  0.00     0.293 HD
ENDBRANCH  44  47
BRANCH  46  49
ATOM     49  O   UNL     1      35.936  43.415  -6.699  1.00  0.00    -0.504 OA
ATOM     50  H   UNL     1      35.071  43.928  -6.824  1.00  0.00     0.293 HD
ENDBRANCH  46  49
ENDBRANCH  40  41
ENDBRANCH  39  40
ENDBRANCH  38  39
ENDBRANCH   3  38
BRANCH   5  51
ATOM     51  C   UNL     1      35.012  37.997  -3.620  1.00  0.00     0.192 C 
BRANCH  51  52
ATOM     52  O   UNL     1      34.470  37.085  -2.705  1.00  0.00    -0.394 OA
ATOM     53  H   UNL     1      35.206  36.858  -2.079  1.00  0.00     0.210 HD
ENDBRANCH  51  52
ENDBRANCH   5  51
TORSDOF 20
ENDMDL
MODEL 5
REMARK VINA RESULT:    -8.148      2.455      5.362
REMARK INTER + INTRA:         -17.950
REMARK INTER:                 -15.486
REMARK INTRA:                  -2.464
REMARK UNBOUND:                -2.419
REMARK SMILES C[C@@H]1O[C@@H](O[C@H]2[C@H](O)[C@H](OCCc3ccc(O)c(O)c3)O[C@@H](CO)[C@@H]2OC(=O)C=Cc2ccc(O)c(O)c2)[C@H](O)[C@H](O)[C@H]1O
REMARK SMILES IDX 6 1 7 2 9 3 21 4 22 5 25 6 5 7 4 8 1 9 2 10 43 11 3 12 41 13
REMARK SMILES IDX 39 14 44 15 42 17 40 19 8 21 26 23 27 24 28 25 29 26 30 27
REMARK SMILES IDX 31 28 38 29 32 30 36 31 33 32 34 33 37 34 35 36 10 38 11 39
REMARK SMILES IDX 12 40 13 41 20 42 14 43 18 44 15 45 16 46 19 47 17 49 23 51
REMARK SMILES IDX 24 52
REMARK H PARENT 44 16 42 18 40 20 8 22 37 35 35 37 19 48 17 50 24 53
REMARK Flexibility Score: inf
ROOT
ATOM      1  C   UNL     1      37.980  37.470  -2.435  1.00  0.00     0.199 C 
ATOM      2  C   UNL     1      36.496  37.772  -2.135  1.00  0.00     0.203 C 
ATOM      3  C   UNL     1      36.084  39.156  -2.683  1.00  0.00     0.282 C 
ATOM      4  O   UNL     1      36.943  40.174  -2.196  1.00  0.00    -0.340 OA
ATOM      5  C   UNL     1      38.289  39.971  -2.595  1.00  0.00     0.190 C 
ATOM      6  C   UNL     1      38.832  38.664  -1.971  1.00  0.00     0.240 C 
ENDROOT
BRANCH   1   7
ATOM      7  O   UNL     1      38.406  36.319  -1.722  1.00  0.00    -0.340 OA
BRANCH   7   8
ATOM      8  C   UNL     1      38.400  35.135  -2.513  1.00  0.00     0.282 C 
ATOM      9  C   UNL     1      39.783  32.827  -0.005  1.00  0.00     0.041 C 
ATOM     10  C   UNL     1      39.770  34.021  -0.963  1.00  0.00     0.150 C 
ATOM     11  C   UNL     1      40.985  33.972  -1.913  1.00  0.00     0.174 C 
ATOM     12  O   UNL     1      38.555  33.984  -1.695  1.00  0.00    -0.344 OA
ATOM     13  C   UNL     1      40.912  35.141  -2.911  1.00  0.00     0.179 C 
ATOM     14  C   UNL     1      39.520  35.221  -3.572  1.00  0.00     0.202 C 
BRANCH  11  15
ATOM     15  O   UNL     1      42.171  34.068  -1.164  1.00  0.00    -0.388 OA
ATOM     16  H   UNL     1      42.086  34.874  -0.592  1.00  0.00     0.211 HD
ENDBRANCH  11  15
BRANCH  13  17
ATOM     17  O   UNL     1      41.907  34.986  -3.890  1.00  0.00    -0.387 OA
ATOM     18  H   UNL     1      41.440  34.847  -4.757  1.00  0.00     0.211 HD
ENDBRANCH  13  17
BRANCH  14  19
ATOM     19  O   UNL     1      39.363  34.232  -4.561  1.00  0.00    -0.385 OA
ATOM     20  H   UNL     1      39.306  34.682  -5.441  1.00  0.00     0.211 HD
ENDBRANCH  14  19
ENDBRANCH   7   8
ENDBRANCH   1   7
BRANCH   2  21
ATOM     21  O   UNL     1      35.646  36.771  -2.639  1.00  0.00    -0.385 OA
ATOM     22  H   UNL     1      34.767  36.856  -2.185  1.00  0.00     0.211 HD
ENDBRANCH   2  21
BRANCH   6  23
ATOM     23  O   UNL     1      40.194  38.453  -2.357  1.00  0.00    -0.453 OA
BRANCH  23  24
ATOM     24  C   UNL     1      41.266  38.538  -1.458  1.00  0.00     0.331 C 
ATOM     25  O   UNL     1      42.418  38.855  -1.866  1.00  0.00    -0.247 OA
BRANCH  24  26
ATOM     26  C   UNL     1      41.076  38.232  -0.035  1.00  0.00     0.094 C 
ATOM     27  C   UNL     1      41.334  39.127   0.929  1.00  0.00     0.016 C 
BRANCH  27  28
ATOM     28  C   UNL     1      41.152  38.840   2.374  1.00  0.00    -0.021 A 
ATOM     29  C   UNL     1      42.241  38.735   3.264  1.00  0.00     0.058 A 
ATOM     30  C   UNL     1      39.854  38.636   2.866  1.00  0.00     0.012 A 
ATOM     31  C   UNL     1      42.027  38.458   4.624  1.00  0.00     0.157 A 
ATOM     32  C   UNL     1      39.641  38.362   4.220  1.00  0.00     0.051 A 
ATOM     33  C   UNL     1      40.720  38.275   5.103  1.00  0.00     0.157 A 
BRANCH  31  34
ATOM     34  O   UNL     1      43.109  38.358   5.496  1.00  0.00    -0.504 OA
ATOM     35  H   UNL     1      43.670  39.165   5.741  1.00  0.00     0.293 HD
ENDBRANCH  31  34
BRANCH  33  36
ATOM     36  O   UNL     1      40.474  38.002   6.451  1.00  0.00    -0.504 OA
ATOM     37  H   UNL     1      40.738  38.648   7.187  1.00  0.00     0.293 HD
ENDBRANCH  33  36
ENDBRANCH  27  28
ENDBRANCH  24  26
ENDBRANCH  23  24
ENDBRANCH   6  23
BRANCH   3  38
ATOM     38  O   UNL     1      36.075  39.154  -4.108  1.00  0.00    -0.350 OA
BRANCH  38  39
ATOM     39  C   UNL     1      35.166  40.105  -4.632  1.00  0.00     0.168 C 
BRANCH  39  40
ATOM     40  C   UNL     1      34.285  39.481  -5.723  1.00  0.00     0.064 C 
BRANCH  40  41
ATOM     41  C   UNL     1      33.445  38.368  -5.157  1.00  0.00    -0.042 A 
ATOM     42  C   UNL     1      32.685  38.570  -3.992  1.00  0.00     0.054 A 
ATOM     43  C   UNL     1      33.368  37.136  -5.824  1.00  0.00     0.008 A 
ATOM     44  C   UNL     1      31.874  37.541  -3.487  1.00  0.00     0.157 A 
ATOM     45  C   UNL     1      32.556  36.112  -5.323  1.00  0.00     0.050 A 
ATOM     46  C   UNL     1      31.812  36.307  -4.157  1.00  0.00     0.157 A 
BRANCH  44  47
ATOM     47  O   UNL     1      31.127  37.740  -2.326  1.00  0.00    -0.504 OA
ATOM     48  H   UNL     1      31.149  38.618  -1.819  1.00  0.00     0.293 HD
ENDBRANCH  44  47
BRANCH  46  49
ATOM     49  O   UNL     1      31.014  35.266  -3.680  1.00  0.00    -0.504 OA
ATOM     50  H   UNL     1      30.074  35.426  -3.336  1.00  0.00     0.293 HD
ENDBRANCH  46  49
ENDBRANCH  40  41
ENDBRANCH  39  40
ENDBRANCH  38  39
ENDBRANCH   3  38
BRANCH   5  51
ATOM     51  C   UNL     1      39.103  41.185  -2.127  1.00  0.00     0.192 C 
BRANCH  51  52
ATOM     52  O   UNL     1      38.965  41.369  -0.746  1.00  0.00    -0.394 OA
ATOM     53  H   UNL     1      39.878  41.285  -0.367  1.00  0.00     0.210 HD
ENDBRANCH  51  52
ENDBRANCH   5  51
TORSDOF 20
ENDMDL
MODEL 6
REMARK VINA RESULT:    -8.081      1.487      2.051
REMARK INTER + INTRA:         -17.823
REMARK INTER:                 -15.355
REMARK INTRA:                  -2.468
REMARK UNBOUND:                -2.419
REMARK SMILES C[C@@H]1O[C@@H](O[C@H]2[C@H](O)[C@H](OCCc3ccc(O)c(O)c3)O[C@@H](CO)[C@@H]2OC(=O)C=Cc2ccc(O)c(O)c2)[C@H](O)[C@H](O)[C@H]1O
REMARK SMILES IDX 6 1 7 2 9 3 21 4 22 5 25 6 5 7 4 8 1 9 2 10 43 11 3 12 41 13
REMARK SMILES IDX 39 14 44 15 42 17 40 19 8 21 26 23 27 24 28 25 29 26 30 27
REMARK SMILES IDX 31 28 38 29 32 30 36 31 33 32 34 33 37 34 35 36 10 38 11 39
REMARK SMILES IDX 12 40 13 41 20 42 14 43 18 44 15 45 16 46 19 47 17 49 23 51
REMARK SMILES IDX 24 52
REMARK H PARENT 44 16 42 18 40 20 8 22 37 35 35 37 19 48 17 50 24 53
REMARK Flexibility Score: inf
ROOT
ATOM      1  C   UNL     1      36.972  39.908  -3.264  1.00  0.00     0.199 C 
ATOM      2  C   UNL     1      37.080  41.370  -3.750  1.00  0.00     0.203 C 
ATOM      3  C   UNL     1      35.863  41.763  -4.615  1.00  0.00     0.282 C 
ATOM      4  O   UNL     1      35.686  40.856  -5.691  1.00  0.00    -0.340 OA
ATOM      5  C   UNL     1      35.444  39.533  -5.239  1.00  0.00     0.190 C 
ATOM      6  C   UNL     1      36.680  39.003  -4.473  1.00  0.00     0.240 C 
ENDROOT
BRANCH   1   7
ATOM      7  O   UNL     1      38.197  39.487  -2.683  1.00  0.00    -0.340 OA
BRANCH   7   8
ATOM      8  C   UNL     1      38.282  39.766  -1.289  1.00  0.00     0.282 C 
ATOM      9  C   UNL     1      41.737  41.024  -1.219  1.00  0.00     0.041 C 
ATOM     10  C   UNL     1      40.616  40.000  -1.417  1.00  0.00     0.150 C 
ATOM     11  C   UNL     1      40.896  38.720  -0.603  1.00  0.00     0.174 C 
ATOM     12  O   UNL     1      39.396  40.601  -1.011  1.00  0.00    -0.344 OA
ATOM     13  C   UNL     1      39.723  37.736  -0.762  1.00  0.00     0.179 C 
ATOM     14  C   UNL     1      38.372  38.437  -0.507  1.00  0.00     0.202 C 
BRANCH  11  15
ATOM     15  O   UNL     1      42.078  38.118  -1.067  1.00  0.00    -0.388 OA
ATOM     16  H   UNL     1      42.275  38.515  -1.954  1.00  0.00     0.211 HD
ENDBRANCH  11  15
BRANCH  13  17
ATOM     17  O   UNL     1      39.888  36.660   0.126  1.00  0.00    -0.387 OA
ATOM     18  H   UNL     1      40.525  36.028  -0.303  1.00  0.00     0.211 HD
ENDBRANCH  13  17
BRANCH  14  19
ATOM     19  O   UNL     1      38.150  38.640   0.868  1.00  0.00    -0.385 OA
ATOM     20  H   UNL     1      37.586  37.898   1.202  1.00  0.00     0.211 HD
ENDBRANCH  14  19
ENDBRANCH   7   8
ENDBRANCH   1   7
BRANCH   2  21
ATOM     21  O   UNL     1      37.232  42.267  -2.678  1.00  0.00    -0.385 OA
ATOM     22  H   UNL     1      36.790  41.873  -1.882  1.00  0.00     0.211 HD
ENDBRANCH   2  21
BRANCH   6  23
ATOM     23  O   UNL     1      36.452  37.665  -4.021  1.00  0.00    -0.453 OA
BRANCH  23  24
ATOM     24  C   UNL     1      37.231  36.575  -4.433  1.00  0.00     0.331 C 
ATOM     25  O   UNL     1      37.052  36.057  -5.570  1.00  0.00    -0.247 OA
BRANCH  24  26
ATOM     26  C   UNL     1      38.246  36.000  -3.542  1.00  0.00     0.094 C 
ATOM     27  C   UNL     1      38.369  34.678  -3.357  1.00  0.00     0.016 C 
BRANCH  27  28
ATOM     28  C   UNL     1      39.385  34.074  -2.460  1.00  0.00    -0.021 A 
ATOM     29  C   UNL     1      40.733  33.917  -2.844  1.00  0.00     0.058 A 
ATOM     30  C   UNL     1      38.985  33.615  -1.196  1.00  0.00     0.012 A 
ATOM     31  C   UNL     1      41.663  33.337  -1.967  1.00  0.00     0.157 A 
ATOM     32  C   UNL     1      39.910  33.039  -0.321  1.00  0.00     0.051 A 
ATOM     33  C   UNL     1      41.249  32.900  -0.698  1.00  0.00     0.157 A 
BRANCH  31  34
ATOM     34  O   UNL     1      42.993  33.188  -2.355  1.00  0.00    -0.504 OA
ATOM     35  H   UNL     1      43.705  33.851  -2.073  1.00  0.00     0.293 HD
ENDBRANCH  31  34
BRANCH  33  36
ATOM     36  O   UNL     1      42.150  32.323   0.199  1.00  0.00    -0.504 OA
ATOM     37  H   UNL     1      43.152  32.446   0.109  1.00  0.00     0.293 HD
ENDBRANCH  33  36
ENDBRANCH  27  28
ENDBRANCH  24  26
ENDBRANCH  23  24
ENDBRANCH   6  23
BRANCH   3  38
ATOM     38  O   UNL     1      34.679  41.829  -3.824  1.00  0.00    -0.350 OA
BRANCH  38  39
ATOM     39  C   UNL     1      33.509  41.724  -4.615  1.00  0.00     0.168 C 
BRANCH  39  40
ATOM     40  C   UNL     1      32.277  41.455  -3.741  1.00  0.00     0.064 C 
BRANCH  40  41
ATOM     41  C   UNL     1      32.055  39.975  -3.575  1.00  0.00    -0.042 A 
ATOM     42  C   UNL     1      33.110  39.136  -3.177  1.00  0.00     0.054 A 
ATOM     43  C   UNL     1      30.775  39.431  -3.760  1.00  0.00     0.008 A 
ATOM     44  C   UNL     1      32.891  37.762  -2.988  1.00  0.00     0.157 A 
ATOM     45  C   UNL     1      30.556  38.062  -3.569  1.00  0.00     0.050 A 
ATOM     46  C   UNL     1      31.607  37.225  -3.187  1.00  0.00     0.157 A 
BRANCH  44  47
ATOM     47  O   UNL     1      33.940  36.930  -2.601  1.00  0.00    -0.504 OA
ATOM     48  H   UNL     1      34.831  36.929  -3.088  1.00  0.00     0.293 HD
ENDBRANCH  44  47
BRANCH  46  49
ATOM     49  O   UNL     1      31.359  35.864  -3.005  1.00  0.00    -0.504 OA
ATOM     50  H   UNL     1      31.493  35.191  -3.751  1.00  0.00     0.293 HD
ENDBRANCH  46  49
ENDBRANCH  40  41
ENDBRANCH  39  40
ENDBRANCH  38  39
ENDBRANCH   3  38
BRANCH   5  51
ATOM     51  C   UNL     1      35.145  38.666  -6.470  1.00  0.00     0.192 C 
BRANCH  51  52
ATOM     52  O   UNL     1      34.406  37.533  -6.106  1.00  0.00    -0.394 OA
ATOM     53  H   UNL     1      33.652  37.481  -6.750  1.00  0.00     0.210 HD
ENDBRANCH  51  52
ENDBRANCH   5  51
TORSDOF 20
ENDMDL
MODEL 7
REMARK VINA RESULT:    -8.071      2.638      7.393
REMARK INTER + INTRA:         -17.804
REMARK INTER:                 -15.972
REMARK INTRA:                  -1.832
REMARK UNBOUND:                -2.419
REMARK SMILES C[C@@H]1O[C@@H](O[C@H]2[C@H](O)[C@H](OCCc3ccc(O)c(O)c3)O[C@@H](CO)[C@@H]2OC(=O)C=Cc2ccc(O)c(O)c2)[C@H](O)[C@H](O)[C@H]1O
REMARK SMILES IDX 6 1 7 2 9 3 21 4 22 5 25 6 5 7 4 8 1 9 2 10 43 11 3 12 41 13
REMARK SMILES IDX 39 14 44 15 42 17 40 19 8 21 26 23 27 24 28 25 29 26 30 27
REMARK SMILES IDX 31 28 38 29 32 30 36 31 33 32 34 33 37 34 35 36 10 38 11 39
REMARK SMILES IDX 12 40 13 41 20 42 14 43 18 44 15 45 16 46 19 47 17 49 23 51
REMARK SMILES IDX 24 52
REMARK H PARENT 44 16 42 18 40 20 8 22 37 35 35 37 19 48 17 50 24 53
REMARK Flexibility Score: inf
ROOT
ATOM      1  C   UNL     1      38.275  38.748  -2.557  1.00  0.00     0.199 C 
ATOM      2  C   UNL     1      38.460  39.609  -1.289  1.00  0.00     0.203 C 
ATOM      3  C   UNL     1      38.754  38.730  -0.053  1.00  0.00     0.282 C 
ATOM      4  O   UNL     1      37.754  37.739   0.118  1.00  0.00    -0.340 OA
ATOM      5  C   UNL     1      37.682  36.857  -0.991  1.00  0.00     0.190 C 
ATOM      6  C   UNL     1      37.254  37.637  -2.257  1.00  0.00     0.240 C 
ENDROOT
BRANCH   1   7
ATOM      7  O   UNL     1      37.770  39.537  -3.623  1.00  0.00    -0.340 OA
BRANCH   7   8
ATOM      8  C   UNL     1      36.418  39.940  -3.431  1.00  0.00     0.282 C 
ATOM      9  C   UNL     1      35.025  38.597  -6.559  1.00  0.00     0.041 C 
ATOM     10  C   UNL     1      35.902  39.491  -5.679  1.00  0.00     0.150 C 
ATOM     11  C   UNL     1      35.701  40.978  -6.040  1.00  0.00     0.174 C 
ATOM     12  O   UNL     1      35.557  39.249  -4.324  1.00  0.00    -0.344 OA
ATOM     13  C   UNL     1      36.538  41.860  -5.096  1.00  0.00     0.179 C 
ATOM     14  C   UNL     1      36.308  41.468  -3.621  1.00  0.00     0.202 C 
BRANCH  11  15
ATOM     15  O   UNL     1      36.106  41.197  -7.368  1.00  0.00    -0.388 OA
ATOM     16  H   UNL     1      36.127  40.311  -7.813  1.00  0.00     0.211 HD
ENDBRANCH  11  15
BRANCH  13  17
ATOM     17  O   UNL     1      36.207  43.209  -5.298  1.00  0.00    -0.387 OA
ATOM     18  H   UNL     1      36.203  43.361  -6.281  1.00  0.00     0.211 HD
ENDBRANCH  13  17
BRANCH  14  19
ATOM     19  O   UNL     1      35.074  41.952  -3.148  1.00  0.00    -0.385 OA
ATOM     20  H   UNL     1      34.388  41.779  -3.840  1.00  0.00     0.211 HD
ENDBRANCH  14  19
ENDBRANCH   7   8
ENDBRANCH   1   7
BRANCH   2  21
ATOM     21  O   UNL     1      39.469  40.575  -1.455  1.00  0.00    -0.385 OA
ATOM     22  H   UNL     1      39.911  40.713  -0.577  1.00  0.00     0.211 HD
ENDBRANCH   2  21
BRANCH   6  23
ATOM     23  O   UNL     1      37.167  36.756  -3.381  1.00  0.00    -0.453 OA
BRANCH  23  24
ATOM     24  C   UNL     1      38.288  36.162  -3.977  1.00  0.00     0.331 C 
ATOM     25  O   UNL     1      38.739  36.604  -5.070  1.00  0.00    -0.247 OA
BRANCH  24  26
ATOM     26  C   UNL     1      38.939  35.001  -3.358  1.00  0.00     0.094 C 
ATOM     27  C   UNL     1      40.195  35.050  -2.892  1.00  0.00     0.016 C 
BRANCH  27  28
ATOM     28  C   UNL     1      40.874  33.889  -2.265  1.00  0.00    -0.021 A 
ATOM     29  C   UNL     1      40.455  33.345  -1.033  1.00  0.00     0.058 A 
ATOM     30  C   UNL     1      41.992  33.332  -2.904  1.00  0.00     0.012 A 
ATOM     31  C   UNL     1      41.128  32.248  -0.471  1.00  0.00     0.157 A 
ATOM     32  C   UNL     1      42.661  32.240  -2.346  1.00  0.00     0.051 A 
ATOM     33  C   UNL     1      42.234  31.692  -1.134  1.00  0.00     0.157 A 
BRANCH  31  34
ATOM     34  O   UNL     1      40.705  31.716   0.745  1.00  0.00    -0.504 OA
ATOM     35  H   UNL     1      40.973  32.133   1.629  1.00  0.00     0.293 HD
ENDBRANCH  31  34
BRANCH  33  36
ATOM     36  O   UNL     1      42.922  30.598  -0.603  1.00  0.00    -0.504 OA
ATOM     37  H   UNL     1      43.259  29.840  -1.185  1.00  0.00     0.293 HD
ENDBRANCH  33  36
ENDBRANCH  27  28
ENDBRANCH  24  26
ENDBRANCH  23  24
ENDBRANCH   6  23
BRANCH   3  38
ATOM     38  O   UNL     1      40.039  38.124  -0.157  1.00  0.00    -0.350 OA
BRANCH  38  39
ATOM     39  C   UNL     1      40.931  38.604   0.834  1.00  0.00     0.168 C 
BRANCH  39  40
ATOM     40  C   UNL     1      40.165  39.193   2.025  1.00  0.00     0.064 C 
BRANCH  40  41
ATOM     41  C   UNL     1      40.682  38.629   3.322  1.00  0.00    -0.042 A 
ATOM     42  C   UNL     1      42.048  38.710   3.640  1.00  0.00     0.054 A 
ATOM     43  C   UNL     1      39.790  38.071   4.250  1.00  0.00     0.008 A 
ATOM     44  C   UNL     1      42.521  38.215   4.866  1.00  0.00     0.157 A 
ATOM     45  C   UNL     1      40.261  37.581   5.474  1.00  0.00     0.050 A 
ATOM     46  C   UNL     1      41.621  37.647   5.785  1.00  0.00     0.157 A 
BRANCH  44  47
ATOM     47  O   UNL     1      43.878  38.288   5.177  1.00  0.00    -0.504 OA
ATOM     48  H   UNL     1      44.549  37.621   4.808  1.00  0.00     0.293 HD
ENDBRANCH  44  47
BRANCH  46  49
ATOM     49  O   UNL     1      42.061  37.149   7.012  1.00  0.00    -0.504 OA
ATOM     50  H   UNL     1      42.753  36.411   7.074  1.00  0.00     0.293 HD
ENDBRANCH  46  49
ENDBRANCH  40  41
ENDBRANCH  39  40
ENDBRANCH  38  39
ENDBRANCH   3  38
BRANCH   5  51
ATOM     51  C   UNL     1      36.665  35.759  -0.650  1.00  0.00     0.192 C 
BRANCH  51  52
ATOM     52  O   UNL     1      35.435  36.017  -1.267  1.00  0.00    -0.394 OA
ATOM     53  H   UNL     1      35.277  36.991  -1.164  1.00  0.00     0.210 HD
ENDBRANCH  51  52
ENDBRANCH   5  51
TORSDOF 20
ENDMDL
MODEL 8
REMARK VINA RESULT:    -8.020      2.313      6.559
REMARK INTER + INTRA:         -17.705
REMARK INTER:                 -14.672
REMARK INTRA:                  -3.034
REMARK UNBOUND:                -2.419
REMARK SMILES C[C@@H]1O[C@@H](O[C@H]2[C@H](O)[C@H](OCCc3ccc(O)c(O)c3)O[C@@H](CO)[C@@H]2OC(=O)C=Cc2ccc(O)c(O)c2)[C@H](O)[C@H](O)[C@H]1O
REMARK SMILES IDX 6 1 7 2 9 3 21 4 22 5 25 6 5 7 4 8 1 9 2 10 43 11 3 12 41 13
REMARK SMILES IDX 39 14 44 15 42 17 40 19 8 21 26 23 27 24 28 25 29 26 30 27
REMARK SMILES IDX 31 28 38 29 32 30 36 31 33 32 34 33 37 34 35 36 10 38 11 39
REMARK SMILES IDX 12 40 13 41 20 42 14 43 18 44 15 45 16 46 19 47 17 49 23 51
REMARK SMILES IDX 24 52
REMARK H PARENT 44 16 42 18 40 20 8 22 37 35 35 37 19 48 17 50 24 53
REMARK Flexibility Score: inf
ROOT
ATOM      1  C   UNL     1      37.317  38.245  -3.089  1.00  0.00     0.199 C 
ATOM      2  C   UNL     1      38.104  38.859  -4.267  1.00  0.00     0.203 C 
ATOM      3  C   UNL     1      39.606  38.511  -4.179  1.00  0.00     0.282 C 
ATOM      4  O   UNL     1      40.145  38.891  -2.923  1.00  0.00    -0.340 OA
ATOM      5  C   UNL     1      39.516  38.216  -1.846  1.00  0.00     0.190 C 
ATOM      6  C   UNL     1      38.023  38.617  -1.774  1.00  0.00     0.240 C 
ENDROOT
BRANCH   1   7
ATOM      7  O   UNL     1      35.998  38.768  -3.047  1.00  0.00    -0.340 OA
BRANCH   7   8
ATOM      8  C   UNL     1      35.153  38.241  -4.064  1.00  0.00     0.282 C 
ATOM      9  C   UNL     1      33.802  41.424  -5.318  1.00  0.00     0.041 C 
ATOM     10  C   UNL     1      34.056  40.305  -4.305  1.00  0.00     0.150 C 
ATOM     11  C   UNL     1      32.726  39.787  -3.718  1.00  0.00     0.174 C 
ATOM     12  O   UNL     1      34.757  39.263  -4.967  1.00  0.00    -0.344 OA
ATOM     13  C   UNL     1      33.002  38.617  -2.758  1.00  0.00     0.179 C 
ATOM     14  C   UNL     1      33.927  37.568  -3.411  1.00  0.00     0.202 C 
BRANCH  11  15
ATOM     15  O   UNL     1      32.084  40.825  -3.021  1.00  0.00    -0.388 OA
ATOM     16  H   UNL     1      31.160  40.516  -2.832  1.00  0.00     0.211 HD
ENDBRANCH  11  15
BRANCH  13  17
ATOM     17  O   UNL     1      31.787  38.025  -2.376  1.00  0.00    -0.387 OA
ATOM     18  H   UNL     1      31.853  37.059  -2.603  1.00  0.00     0.211 HD
ENDBRANCH  13  17
BRANCH  14  19
ATOM     19  O   UNL     1      33.227  36.775  -4.340  1.00  0.00    -0.385 OA
ATOM     20  H   UNL     1      32.938  37.357  -5.087  1.00  0.00     0.211 HD
ENDBRANCH  14  19
ENDBRANCH   7   8
ENDBRANCH   1   7
BRANCH   2  21
ATOM     21  O   UNL     1      37.580  38.461  -5.510  1.00  0.00    -0.385 OA
ATOM     22  H   UNL     1      36.633  38.196  -5.374  1.00  0.00     0.211 HD
ENDBRANCH   2  21
BRANCH   6  23
ATOM     23  O   UNL     1      37.378  37.951  -0.684  1.00  0.00    -0.453 OA
BRANCH  23  24
ATOM     24  C   UNL     1      37.054  36.588  -0.704  1.00  0.00     0.331 C 
ATOM     25  O   UNL     1      35.869  36.217  -0.935  1.00  0.00    -0.247 OA
BRANCH  24  26
ATOM     26  C   UNL     1      38.076  35.570  -0.431  1.00  0.00     0.094 C 
ATOM     27  C   UNL     1      38.844  35.050  -1.398  1.00  0.00     0.016 C 
BRANCH  27  28
ATOM     28  C   UNL     1      39.881  34.018  -1.146  1.00  0.00    -0.021 A 
ATOM     29  C   UNL     1      41.144  34.049  -1.775  1.00  0.00     0.058 A 
ATOM     30  C   UNL     1      39.585  32.958  -0.276  1.00  0.00     0.012 A 
ATOM     31  C   UNL     1      42.096  33.051  -1.513  1.00  0.00     0.157 A 
ATOM     32  C   UNL     1      40.533  31.966  -0.014  1.00  0.00     0.051 A 
ATOM     33  C   UNL     1      41.790  32.008  -0.624  1.00  0.00     0.157 A 
BRANCH  31  34
ATOM     34  O   UNL     1      43.341  33.092  -2.136  1.00  0.00    -0.504 OA
ATOM     35  H   UNL     1      43.554  33.775  -2.854  1.00  0.00     0.293 HD
ENDBRANCH  31  34
BRANCH  33  36
ATOM     36  O   UNL     1      42.717  31.003  -0.340  1.00  0.00    -0.504 OA
ATOM     37  H   UNL     1      42.786  30.580   0.578  1.00  0.00     0.293 HD
ENDBRANCH  33  36
ENDBRANCH  27  28
ENDBRANCH  24  26
ENDBRANCH  23  24
ENDBRANCH   6  23
BRANCH   3  38
ATOM     38  O   UNL     1      39.818  37.121  -4.409  1.00  0.00    -0.350 OA
BRANCH  38  39
ATOM     39  C   UNL     1      40.475  36.884  -5.642  1.00  0.00     0.168 C 
BRANCH  39  40
ATOM     40  C   UNL     1      39.779  35.768  -6.431  1.00  0.00     0.064 C 
BRANCH  40  41
ATOM     41  C   UNL     1      39.870  34.458  -5.694  1.00  0.00    -0.042 A 
ATOM     42  C   UNL     1      38.747  33.932  -5.033  1.00  0.00     0.054 A 
ATOM     43  C   UNL     1      41.066  33.724  -5.712  1.00  0.00     0.008 A 
ATOM     44  C   UNL     1      38.826  32.693  -4.377  1.00  0.00     0.157 A 
ATOM     45  C   UNL     1      41.144  32.488  -5.061  1.00  0.00     0.050 A 
ATOM     46  C   UNL     1      40.032  31.970  -4.392  1.00  0.00     0.157 A 
BRANCH  44  47
ATOM     47  O   UNL     1      37.714  32.175  -3.716  1.00  0.00    -0.504 OA
ATOM     48  H   UNL     1      37.680  32.097  -2.704  1.00  0.00     0.293 HD
ENDBRANCH  44  47
BRANCH  46  49
ATOM     49  O   UNL     1      40.141  30.735  -3.751  1.00  0.00    -0.504 OA
ATOM     50  H   UNL     1      39.532  30.474  -2.984  1.00  0.00     0.293 HD
ENDBRANCH  46  49
ENDBRANCH  40  41
ENDBRANCH  39  40
ENDBRANCH  38  39
ENDBRANCH   3  38
BRANCH   5  51
ATOM     51  C   UNL     1      40.253  38.602  -0.557  1.00  0.00     0.192 C 
BRANCH  51  52
ATOM     52  O   UNL     1      39.555  39.603   0.130  1.00  0.00    -0.394 OA
ATOM     53  H   UNL     1      40.237  40.265   0.413  1.00  0.00     0.210 HD
ENDBRANCH  51  52
ENDBRANCH   5  51
TORSDOF 20
ENDMDL
MODEL 9
REMARK VINA RESULT:    -7.885      2.268      7.358
REMARK INTER + INTRA:         -17.448
REMARK INTER:                 -14.326
REMARK INTRA:                  -3.122
REMARK UNBOUND:                -2.419
REMARK SMILES C[C@@H]1O[C@@H](O[C@H]2[C@H](O)[C@H](OCCc3ccc(O)c(O)c3)O[C@@H](CO)[C@@H]2OC(=O)C=Cc2ccc(O)c(O)c2)[C@H](O)[C@H](O)[C@H]1O
REMARK SMILES IDX 6 1 7 2 9 3 21 4 22 5 25 6 5 7 4 8 1 9 2 10 43 11 3 12 41 13
REMARK SMILES IDX 39 14 44 15 42 17 40 19 8 21 26 23 27 24 28 25 29 26 30 27
REMARK SMILES IDX 31 28 38 29 32 30 36 31 33 32 34 33 37 34 35 36 10 38 11 39
REMARK SMILES IDX 12 40 13 41 20 42 14 43 18 44 15 45 16 46 19 47 17 49 23 51
REMARK SMILES IDX 24 52
REMARK H PARENT 44 16 42 18 40 20 8 22 37 35 35 37 19 48 17 50 24 53
REMARK Flexibility Score: inf
ROOT
ATOM      1  C   UNL     1      36.084  37.741  -4.457  1.00  0.00     0.199 C 
ATOM      2  C   UNL     1      36.240  37.050  -5.829  1.00  0.00     0.203 C 
ATOM      3  C   UNL     1      37.601  37.390  -6.475  1.00  0.00     0.282 C 
ATOM      4  O   UNL     1      37.789  38.793  -6.563  1.00  0.00    -0.340 OA
ATOM      5  C   UNL     1      37.788  39.411  -5.286  1.00  0.00     0.190 C 
ATOM      6  C   UNL     1      36.404  39.238  -4.617  1.00  0.00     0.240 C 
ENDROOT
BRANCH   1   7
ATOM      7  O   UNL     1      34.749  37.622  -3.991  1.00  0.00    -0.340 OA
BRANCH   7   8
ATOM      8  C   UNL     1      33.788  37.592  -5.042  1.00  0.00     0.282 C 
ATOM      9  C   UNL     1      31.635  40.328  -3.857  1.00  0.00     0.041 C 
ATOM     10  C   UNL     1      32.320  38.959  -3.819  1.00  0.00     0.150 C 
ATOM     11  C   UNL     1      31.285  37.836  -3.603  1.00  0.00     0.174 C 
ATOM     12  O   UNL     1      33.011  38.780  -5.046  1.00  0.00    -0.344 OA
ATOM     13  C   UNL     1      31.987  36.467  -3.640  1.00  0.00     0.179 C 
ATOM     14  C   UNL     1      32.895  36.342  -4.882  1.00  0.00     0.202 C 
BRANCH  11  15
ATOM     15  O   UNL     1      30.659  38.008  -2.356  1.00  0.00    -0.388 OA
ATOM     16  H   UNL     1      30.920  37.234  -1.793  1.00  0.00     0.211 HD
ENDBRANCH  11  15
BRANCH  13  17
ATOM     17  O   UNL     1      31.024  35.445  -3.636  1.00  0.00    -0.387 OA
ATOM     18  H   UNL     1      31.488  34.611  -3.915  1.00  0.00     0.211 HD
ENDBRANCH  13  17
BRANCH  14  19
ATOM     19  O   UNL     1      32.142  36.103  -6.046  1.00  0.00    -0.385 OA
ATOM     20  H   UNL     1      32.326  36.833  -6.689  1.00  0.00     0.211 HD
ENDBRANCH  14  19
ENDBRANCH   7   8
ENDBRANCH   1   7
BRANCH   2  21
ATOM     21  O   UNL     1      36.076  35.656  -5.734  1.00  0.00    -0.385 OA
ATOM     22  H   UNL     1      35.105  35.466  -5.644  1.00  0.00     0.211 HD
ENDBRANCH   2  21
BRANCH   6  23
ATOM     23  O   UNL     1      36.386  39.867  -3.332  1.00  0.00    -0.453 OA
BRANCH  23  24
ATOM     24  C   UNL     1      37.422  39.728  -2.398  1.00  0.00     0.331 C 
ATOM     25  O   UNL     1      38.105  40.731  -2.049  1.00  0.00    -0.247 OA
BRANCH  24  26
ATOM     26  C   UNL     1      37.749  38.414  -1.832  1.00  0.00     0.094 C 
ATOM     27  C   UNL     1      38.912  37.796  -2.083  1.00  0.00     0.016 C 
BRANCH  27  28
ATOM     28  C   UNL     1      39.263  36.467  -1.525  1.00  0.00    -0.021 A 
ATOM     29  C   UNL     1      40.596  36.013  -1.439  1.00  0.00     0.058 A 
ATOM     30  C   UNL     1      38.232  35.618  -1.096  1.00  0.00     0.012 A 
ATOM     31  C   UNL     1      40.886  34.746  -0.908  1.00  0.00     0.157 A 
ATOM     32  C   UNL     1      38.520  34.358  -0.565  1.00  0.00     0.051 A 
ATOM     33  C   UNL     1      39.843  33.917  -0.466  1.00  0.00     0.157 A 
BRANCH  31  34
ATOM     34  O   UNL     1      42.206  34.308  -0.825  1.00  0.00    -0.504 OA
ATOM     35  H   UNL     1      42.929  34.876  -0.400  1.00  0.00     0.293 HD
ENDBRANCH  31  34
BRANCH  33  36
ATOM     36  O   UNL     1      40.099  32.654   0.071  1.00  0.00    -0.504 OA
ATOM     37  H   UNL     1      40.539  31.919  -0.471  1.00  0.00     0.293 HD
ENDBRANCH  33  36
ENDBRANCH  27  28
ENDBRANCH  24  26
ENDBRANCH  23  24
ENDBRANCH   6  23
BRANCH   3  38
ATOM     38  O   UNL     1      38.670  36.791  -5.749  1.00  0.00    -0.350 OA
BRANCH  38  39
ATOM     39  C   UNL     1      39.624  36.193  -6.609  1.00  0.00     0.168 C 
BRANCH  39  40
ATOM     40  C   UNL     1      39.266  34.729  -6.896  1.00  0.00     0.064 C 
BRANCH  40  41
ATOM     41  C   UNL     1      39.753  33.836  -5.785  1.00  0.00    -0.042 A 
ATOM     42  C   UNL     1      41.010  34.052  -5.195  1.00  0.00     0.054 A 
ATOM     43  C   UNL     1      38.926  32.816  -5.291  1.00  0.00     0.008 A 
ATOM     44  C   UNL     1      41.445  33.239  -4.136  1.00  0.00     0.157 A 
ATOM     45  C   UNL     1      39.358  32.009  -4.232  1.00  0.00     0.050 A 
ATOM     46  C   UNL     1      40.613  32.213  -3.655  1.00  0.00     0.157 A 
BRANCH  44  47
ATOM     47  O   UNL     1      42.695  33.449  -3.557  1.00  0.00    -0.504 OA
ATOM     48  H   UNL     1      43.467  33.851  -4.079  1.00  0.00     0.293 HD
ENDBRANCH  44  47
BRANCH  46  49
ATOM     49  O   UNL     1      41.017  31.391  -2.602  1.00  0.00    -0.504 OA
ATOM     50  H   UNL     1      40.576  30.497  -2.420  1.00  0.00     0.293 HD
ENDBRANCH  46  49
ENDBRANCH  40  41
ENDBRANCH  39  40
ENDBRANCH  38  39
ENDBRANCH   3  38
BRANCH   5  51
ATOM     51  C   UNL     1      38.123  40.895  -5.485  1.00  0.00     0.192 C 
BRANCH  51  52
ATOM     52  O   UNL     1      36.951  41.659  -5.559  1.00  0.00    -0.394 OA
ATOM     53  H   UNL     1      36.206  41.008  -5.643  1.00  0.00     0.210 HD
ENDBRANCH  51  52
ENDBRANCH   5  51
TORSDOF 20
ENDMDL
