MODEL 1
REMARK VINA RESULT:    -2.918      0.000      0.000
REMARK INTER + INTRA:          -3.412
REMARK INTER:                  -3.344
REMARK INTRA:                  -0.068
REMARK UNBOUND:                -0.068
REMARK SMILES CC(C)[C@H]([NH3+])C(=O)[O-]
REMARK SMILES IDX 4 1 5 2 6 6 7 7 8 8 2 9 1 10 3 11
REMARK H PARENT 5 3 5 4 5 5
REMARK Flexibility Score: inf
ROOT
ATOM      1  C   UNL     1      34.657  21.189  -9.732  1.00  0.00     0.230 C 
ENDROOT
BRANCH   1   2
ATOM      2  N   UNL     1      33.880  21.404 -10.963  1.00  0.00    -0.350 N 
ATOM      3  H   UNL     1      33.231  20.604 -11.129  1.00  0.00     0.345 HD
ATOM      4  H   UNL     1      34.503  21.524 -11.794  1.00  0.00     0.345 HD
ATOM      5  H   UNL     1      33.298  22.268 -10.859  1.00  0.00     0.345 HD
ENDBRANCH   1   2
BRANCH   1   6
ATOM      6  C   UNL     1      33.792  20.589  -8.651  1.00  0.00     0.099 C 
ATOM      7  O   UNL     1      33.698  21.161  -7.534  1.00  0.00    -0.544 OA
ATOM      8  O   UNL     1      33.058  19.434  -8.890  1.00  0.00    -0.544 OA
ENDBRANCH   1   6
BRANCH   1   9
ATOM      9  C   UNL     1      35.363  22.482  -9.224  1.00  0.00     0.047 C 
ATOM     10  C   UNL     1      36.887  22.310  -9.143  1.00  0.00     0.014 C 
ATOM     11  C   UNL     1      35.015  23.737 -10.043  1.00  0.00     0.014 C 
ENDBRANCH   1   9
TORSDOF 3
ENDMDL
MODEL 2
REMARK VINA RESULT:    -2.916     13.859     14.495
REMARK INTER + INTRA:          -3.410
REMARK INTER:                  -3.332
REMARK INTRA:                  -0.078
REMARK UNBOUND:                -0.068
REMARK SMILES CC(C)[C@H]([NH3+])C(=O)[O-]
REMARK SMILES IDX 4 1 5 2 6 6 7 7 8 8 2 9 1 10 3 11
REMARK H PARENT 5 3 5 4 5 5
REMARK Flexibility Score: inf
ROOT
ATOM      1  C   UNL     1      30.962  25.729 -22.196  1.00  0.00     0.230 C 
ENDROOT
BRANCH   1   2
ATOM      2  N   UNL     1      30.498  24.833 -23.267  1.00  0.00    -0.350 N 
ATOM      3  H   UNL     1      31.087  24.949 -24.122  1.00  0.00     0.345 HD
ATOM      4  H   UNL     1      29.497  25.011 -23.509  1.00  0.00     0.345 HD
ATOM      5  H   UNL     1      30.591  23.839 -22.952  1.00  0.00     0.345 HD
ENDBRANCH   1   2
BRANCH   1   6
ATOM      6  C   UNL     1      29.800  26.207 -21.359  1.00  0.00     0.099 C 
ATOM      7  O   UNL     1      30.015  26.807 -20.273  1.00  0.00    -0.544 OA
ATOM      8  O   UNL     1      28.493  26.035 -21.796  1.00  0.00    -0.544 OA
ENDBRANCH   1   6
BRANCH   1   9
ATOM      9  C   UNL     1      31.796  26.933 -22.728  1.00  0.00     0.047 C 
ATOM     10  C   UNL     1      33.087  26.475 -23.421  1.00  0.00     0.014 C 
ATOM     11  C   UNL     1      31.002  27.871 -23.654  1.00  0.00     0.014 C 
ENDBRANCH   1   9
TORSDOF 3
ENDMDL
MODEL 3
REMARK VINA RESULT:    -2.873      2.239      3.309
REMARK INTER + INTRA:          -3.361
REMARK INTER:                  -3.288
REMARK INTRA:                  -0.073
REMARK UNBOUND:                -0.068
REMARK SMILES CC(C)[C@H]([NH3+])C(=O)[O-]
REMARK SMILES IDX 4 1 5 2 6 6 7 7 8 8 2 9 1 10 3 11
REMARK H PARENT 5 3 5 4 5 5
REMARK Flexibility Score: inf
ROOT
ATOM      1  C   UNL     1      34.357  21.886  -9.748  1.00  0.00     0.230 C 
ENDROOT
BRANCH   1   2
ATOM      2  N   UNL     1      34.164  21.464 -11.144  1.00  0.00    -0.350 N 
ATOM      3  H   UNL     1      33.651  20.555 -11.184  1.00  0.00     0.345 HD
ATOM      4  H   UNL     1      35.076  21.369 -11.645  1.00  0.00     0.345 HD
ATOM      5  H   UNL     1      33.584  22.176 -11.645  1.00  0.00     0.345 HD
ENDBRANCH   1   2
BRANCH   1   6
ATOM      6  C   UNL     1      35.701  22.550  -9.572  1.00  0.00     0.099 C 
ATOM      7  O   UNL     1      36.756  21.888  -9.756  1.00  0.00    -0.544 OA
ATOM      8  O   UNL     1      35.789  23.899  -9.252  1.00  0.00    -0.544 OA
ENDBRANCH   1   6
BRANCH   1   9
ATOM      9  C   UNL     1      34.175  20.721  -8.729  1.00  0.00     0.047 C 
ATOM     10  C   UNL     1      34.346  21.196  -7.278  1.00  0.00     0.014 C 
ATOM     11  C   UNL     1      32.843  19.968  -8.886  1.00  0.00     0.014 C 
ENDBRANCH   1   9
TORSDOF 3
ENDMDL
MODEL 4
REMARK VINA RESULT:    -2.801     13.627     14.237
REMARK INTER + INTRA:          -3.278
REMARK INTER:                  -3.412
REMARK INTRA:                   0.134
REMARK UNBOUND:                -0.068
REMARK SMILES CC(C)[C@H]([NH3+])C(=O)[O-]
REMARK SMILES IDX 4 1 5 2 6 6 7 7 8 8 2 9 1 10 3 11
REMARK H PARENT 5 3 5 4 5 5
REMARK Flexibility Score: inf
ROOT
ATOM      1  C   UNL     1      30.196  27.857 -21.548  1.00  0.00     0.230 C 
ENDROOT
BRANCH   1   2
ATOM      2  N   UNL     1      30.658  28.605 -20.368  1.00  0.00    -0.350 N 
ATOM      3  H   UNL     1      30.863  27.953 -19.579  1.00  0.00     0.345 HD
ATOM      4  H   UNL     1      29.950  29.310 -20.060  1.00  0.00     0.345 HD
ATOM      5  H   UNL     1      31.545  29.108 -20.602  1.00  0.00     0.345 HD
ENDBRANCH   1   2
BRANCH   1   6
ATOM      6  C   UNL     1      29.564  26.549 -21.138  1.00  0.00     0.099 C 
ATOM      7  O   UNL     1      29.934  25.980 -20.078  1.00  0.00    -0.544 OA
ATOM      8  O   UNL     1      28.544  25.986 -21.894  1.00  0.00    -0.544 OA
ENDBRANCH   1   6
BRANCH   1   9
ATOM      9  C   UNL     1      31.320  27.625 -22.601  1.00  0.00     0.047 C 
ATOM     10  C   UNL     1      32.551  28.502 -22.328  1.00  0.00     0.014 C 
ATOM     11  C   UNL     1      31.740  26.152 -22.740  1.00  0.00     0.014 C 
ENDBRANCH   1   9
TORSDOF 3
ENDMDL
MODEL 5
REMARK VINA RESULT:    -2.799     14.004     14.843
REMARK INTER + INTRA:          -3.275
REMARK INTER:                  -3.203
REMARK INTRA:                  -0.072
REMARK UNBOUND:                -0.068
REMARK SMILES CC(C)[C@H]([NH3+])C(=O)[O-]
REMARK SMILES IDX 4 1 5 2 6 6 7 7 8 8 2 9 1 10 3 11
REMARK H PARENT 5 3 5 4 5 5
REMARK Flexibility Score: inf
ROOT
ATOM      1  C   UNL     1      29.865  26.403 -22.325  1.00  0.00     0.230 C 
ENDROOT
BRANCH   1   2
ATOM      2  N   UNL     1      30.568  25.171 -22.715  1.00  0.00    -0.350 N 
ATOM      3  H   UNL     1      30.642  24.520 -21.902  1.00  0.00     0.345 HD
ATOM      4  H   UNL     1      31.524  25.376 -23.083  1.00  0.00     0.345 HD
ATOM      5  H   UNL     1      30.023  24.682 -23.463  1.00  0.00     0.345 HD
ENDBRANCH   1   2
BRANCH   1   6
ATOM      6  C   UNL     1      30.096  26.712 -20.866  1.00  0.00     0.099 C 
ATOM      7  O   UNL     1      29.848  25.840 -19.994  1.00  0.00    -0.544 OA
ATOM      8  O   UNL     1      30.626  27.936 -20.476  1.00  0.00    -0.544 OA
ENDBRANCH   1   6
BRANCH   1   9
ATOM      9  C   UNL     1      28.341  26.363 -22.649  1.00  0.00     0.047 C 
ATOM     10  C   UNL     1      27.682  27.739 -22.479  1.00  0.00     0.014 C 
ATOM     11  C   UNL     1      28.022  25.792 -24.041  1.00  0.00     0.014 C 
ENDBRANCH   1   9
TORSDOF 3
ENDMDL
MODEL 6
REMARK VINA RESULT:    -2.789     13.641     14.259
REMARK INTER + INTRA:          -3.264
REMARK INTER:                  -3.190
REMARK INTRA:                  -0.073
REMARK UNBOUND:                -0.068
REMARK SMILES CC(C)[C@H]([NH3+])C(=O)[O-]
REMARK SMILES IDX 4 1 5 2 6 6 7 7 8 8 2 9 1 10 3 11
REMARK H PARENT 5 3 5 4 5 5
REMARK Flexibility Score: inf
ROOT
ATOM      1  C   UNL     1      30.292  27.721 -21.606  1.00  0.00     0.230 C 
ENDROOT
BRANCH   1   2
ATOM      2  N   UNL     1      30.310  28.764 -20.568  1.00  0.00    -0.350 N 
ATOM      3  H   UNL     1      29.560  29.469 -20.746  1.00  0.00     0.345 HD
ATOM      4  H   UNL     1      31.236  29.246 -20.526  1.00  0.00     0.345 HD
ATOM      5  H   UNL     1      30.120  28.329 -19.636  1.00  0.00     0.345 HD
ENDBRANCH   1   2
BRANCH   1   6
ATOM      6  C   UNL     1      29.553  26.497 -21.120  1.00  0.00     0.099 C 
ATOM      7  O   UNL     1      29.922  25.921 -20.064  1.00  0.00    -0.544 OA
ATOM      8  O   UNL     1      28.438  26.025 -21.802  1.00  0.00    -0.544 OA
ENDBRANCH   1   6
BRANCH   1   9
ATOM      9  C   UNL     1      31.715  27.344 -22.115  1.00  0.00     0.047 C 
ATOM     10  C   UNL     1      31.666  26.271 -23.213  1.00  0.00     0.014 C 
ATOM     11  C   UNL     1      32.539  28.552 -22.592  1.00  0.00     0.014 C 
ENDBRANCH   1   9
TORSDOF 3
ENDMDL
MODEL 7
REMARK VINA RESULT:    -2.752     14.064     14.926
REMARK INTER + INTRA:          -3.222
REMARK INTER:                  -3.159
REMARK INTRA:                  -0.063
REMARK UNBOUND:                -0.068
REMARK SMILES CC(C)[C@H]([NH3+])C(=O)[O-]
REMARK SMILES IDX 4 1 5 2 6 6 7 7 8 8 2 9 1 10 3 11
REMARK H PARENT 5 3 5 4 5 5
REMARK Flexibility Score: inf
ROOT
ATOM      1  C   UNL     1      30.665  26.026 -23.204  1.00  0.00     0.230 C 
ENDROOT
BRANCH   1   2
ATOM      2  N   UNL     1      30.496  24.570 -23.335  1.00  0.00    -0.350 N 
ATOM      3  H   UNL     1      29.661  24.350 -23.921  1.00  0.00     0.345 HD
ATOM      4  H   UNL     1      30.395  24.111 -22.401  1.00  0.00     0.345 HD
ATOM      5  H   UNL     1      31.334  24.166 -23.813  1.00  0.00     0.345 HD
ENDBRANCH   1   2
BRANCH   1   6
ATOM      6  C   UNL     1      32.111  26.376 -22.945  1.00  0.00     0.099 C 
ATOM      7  O   UNL     1      32.998  25.489 -23.048  1.00  0.00    -0.544 OA
ATOM      8  O   UNL     1      32.481  27.679 -22.638  1.00  0.00    -0.544 OA
ENDBRANCH   1   6
BRANCH   1   9
ATOM      9  C   UNL     1      29.739  26.652 -22.117  1.00  0.00     0.047 C 
ATOM     10  C   UNL     1      28.253  26.490 -22.468  1.00  0.00     0.014 C 
ATOM     11  C   UNL     1      30.009  26.122 -20.699  1.00  0.00     0.014 C 
ENDBRANCH   1   9
TORSDOF 3
ENDMDL
MODEL 8
REMARK VINA RESULT:    -2.683     12.410     13.077
REMARK INTER + INTRA:          -3.143
REMARK INTER:                  -3.077
REMARK INTRA:                  -0.066
REMARK UNBOUND:                -0.068
REMARK SMILES CC(C)[C@H]([NH3+])C(=O)[O-]
REMARK SMILES IDX 4 1 5 2 6 6 7 7 8 8 2 9 1 10 3 11
REMARK H PARENT 5 3 5 4 5 5
REMARK Flexibility Score: inf
ROOT
ATOM      1  C   UNL     1      29.010  13.099 -16.805  1.00  0.00     0.230 C 
ENDROOT
BRANCH   1   2
ATOM      2  N   UNL     1      27.937  13.947 -17.348  1.00  0.00    -0.350 N 
ATOM      3  H   UNL     1      28.122  14.174 -18.350  1.00  0.00     0.345 HD
ATOM      4  H   UNL     1      27.838  14.833 -16.803  1.00  0.00     0.345 HD
ATOM      5  H   UNL     1      27.029  13.428 -17.303  1.00  0.00     0.345 HD
ENDBRANCH   1   2
BRANCH   1   6
ATOM      6  C   UNL     1      29.206  11.871 -17.662  1.00  0.00     0.099 C 
ATOM      7  O   UNL     1      30.330  11.642 -18.180  1.00  0.00    -0.544 OA
ATOM      8  O   UNL     1      28.171  10.963 -17.847  1.00  0.00    -0.544 OA
ENDBRANCH   1   6
BRANCH   1   9
ATOM      9  C   UNL     1      28.782  12.706 -15.315  1.00  0.00     0.047 C 
ATOM     10  C   UNL     1      30.080  12.242 -14.638  1.00  0.00     0.014 C 
ATOM     11  C   UNL     1      28.115  13.813 -14.481  1.00  0.00     0.014 C 
ENDBRANCH   1   9
TORSDOF 3
ENDMDL
MODEL 9
REMARK VINA RESULT:    -2.584     11.809     12.887
REMARK INTER + INTRA:          -3.030
REMARK INTER:                  -2.952
REMARK INTRA:                  -0.078
REMARK UNBOUND:                -0.068
REMARK SMILES CC(C)[C@H]([NH3+])C(=O)[O-]
REMARK SMILES IDX 4 1 5 2 6 6 7 7 8 8 2 9 1 10 3 11
REMARK H PARENT 5 3 5 4 5 5
REMARK Flexibility Score: inf
ROOT
ATOM      1  C   UNL     1      31.787  11.292 -16.325  1.00  0.00     0.230 C 
ENDROOT
BRANCH   1   2
ATOM      2  N   UNL     1      33.116  11.780 -16.724  1.00  0.00    -0.350 N 
ATOM      3  H   UNL     1      33.864  11.274 -16.199  1.00  0.00     0.345 HD
ATOM      4  H   UNL     1      33.212  12.808 -16.558  1.00  0.00     0.345 HD
ATOM      5  H   UNL     1      33.263  11.594 -17.743  1.00  0.00     0.345 HD
ENDBRANCH   1   2
BRANCH   1   6
ATOM      6  C   UNL     1      30.788  11.492 -17.439  1.00  0.00     0.099 C 
ATOM      7  O   UNL     1      30.566  12.649 -17.881  1.00  0.00    -0.544 OA
ATOM      8  O   UNL     1      30.143  10.406 -18.017  1.00  0.00    -0.544 OA
ENDBRANCH   1   6
BRANCH   1   9
ATOM      9  C   UNL     1      31.275  11.932 -14.999  1.00  0.00     0.047 C 
ATOM     10  C   UNL     1      29.974  11.278 -14.512  1.00  0.00     0.014 C 
ATOM     11  C   UNL     1      32.322  11.933 -13.872  1.00  0.00     0.014 C 
ENDBRANCH   1   9
TORSDOF 3
ENDMDL
