MODEL 1
REMARK VINA RESULT:    -3.812      0.000      0.000
REMARK INTER + INTRA:          -4.133
REMARK INTER:                  -4.035
REMARK INTRA:                  -0.098
REMARK UNBOUND:                -0.098
REMARK SMILES C=C(C)[C@H]1CC=C(C)C(=O)C1
REMARK SMILES IDX 8 1 7 2 6 3 5 4 4 5 11 6 9 7 10 8 2 9 1 10 3 11
REMARK H PARENT
REMARK Flexibility Score: inf
ROOT
ATOM      1  C   UNL     1       0.249 -12.998   7.741  1.00  0.00     0.048 C 
ATOM      2  C   UNL     1       0.992 -13.873   8.712  1.00  0.00    -0.012 C 
ATOM      3  C   UNL     1       2.026 -13.372   9.409  1.00  0.00    -0.019 C 
ATOM      4  C   UNL     1       2.815 -14.209  10.381  1.00  0.00     0.036 C 
ATOM      5  C   UNL     1       1.922 -15.269  11.052  1.00  0.00     0.025 C 
ATOM      6  C   UNL     1       1.214 -16.124   9.986  1.00  0.00     0.089 C 
ATOM      7  C   UNL     1       0.507 -15.248   8.988  1.00  0.00     0.158 C 
ATOM      8  O   UNL     1      -0.485 -15.709   8.361  1.00  0.00    -0.295 OA
ENDROOT
BRANCH   5   9
ATOM      9  C   UNL     1       2.716 -16.133  12.022  1.00  0.00    -0.077 C 
ATOM     10  C   UNL     1       4.050 -16.007  12.100  1.00  0.00     0.008 C 
ATOM     11  C   UNL     1       2.035 -17.143  12.914  1.00  0.00     0.039 C 
ENDBRANCH   5   9
TORSDOF 1
ENDMDL
MODEL 2
REMARK VINA RESULT:    -3.807      2.032      4.895
REMARK INTER + INTRA:          -4.127
REMARK INTER:                  -4.032
REMARK INTRA:                  -0.096
REMARK UNBOUND:                -0.098
REMARK SMILES C=C(C)[C@H]1CC=C(C)C(=O)C1
REMARK SMILES IDX 8 1 7 2 6 3 5 4 4 5 11 6 9 7 10 8 2 9 1 10 3 11
REMARK H PARENT
REMARK Flexibility Score: inf
ROOT
ATOM      1  C   UNL     1       2.431 -16.343  11.905  1.00  0.00     0.048 C 
ATOM      2  C   UNL     1       2.214 -15.495  10.682  1.00  0.00    -0.012 C 
ATOM      3  C   UNL     1       0.966 -15.268  10.238  1.00  0.00    -0.019 C 
ATOM      4  C   UNL     1       0.693 -14.442   9.009  1.00  0.00     0.036 C 
ATOM      5  C   UNL     1       1.744 -13.329   8.845  1.00  0.00     0.025 C 
ATOM      6  C   UNL     1       3.162 -13.928   8.842  1.00  0.00     0.089 C 
ATOM      7  C   UNL     1       3.366 -14.811  10.042  1.00  0.00     0.158 C 
ATOM      8  O   UNL     1       4.534 -14.994  10.479  1.00  0.00    -0.295 OA
ENDROOT
BRANCH   5   9
ATOM      9  C   UNL     1       1.487 -12.500   7.594  1.00  0.00    -0.077 C 
ATOM     10  C   UNL     1       0.229 -12.260   7.191  1.00  0.00     0.008 C 
ATOM     11  C   UNL     1       2.624 -11.929   6.782  1.00  0.00     0.039 C 
ENDBRANCH   5   9
TORSDOF 1
ENDMDL
MODEL 3
REMARK VINA RESULT:    -3.748      2.093      4.499
REMARK INTER + INTRA:          -4.065
REMARK INTER:                  -3.969
REMARK INTRA:                  -0.096
REMARK UNBOUND:                -0.098
REMARK SMILES C=C(C)[C@H]1CC=C(C)C(=O)C1
REMARK SMILES IDX 8 1 7 2 6 3 5 4 4 5 11 6 9 7 10 8 2 9 1 10 3 11
REMARK H PARENT
REMARK Flexibility Score: inf
ROOT
ATOM      1  C   UNL     1       4.991 -16.395  12.978  1.00  0.00     0.048 C 
ATOM      2  C   UNL     1       3.907 -15.901  12.060  1.00  0.00    -0.012 C 
ATOM      3  C   UNL     1       4.165 -15.732  10.752  1.00  0.00    -0.019 C 
ATOM      4  C   UNL     1       3.123 -15.224   9.791  1.00  0.00     0.036 C 
ATOM      5  C   UNL     1       1.714 -15.685  10.207  1.00  0.00     0.025 C 
ATOM      6  C   UNL     1       1.422 -15.267  11.659  1.00  0.00     0.089 C 
ATOM      7  C   UNL     1       2.526 -15.722  12.574  1.00  0.00     0.158 C 
ATOM      8  O   UNL     1       2.274 -15.915  13.793  1.00  0.00    -0.295 OA
ENDROOT
BRANCH   5   9
ATOM      9  C   UNL     1       0.651 -15.160   9.252  1.00  0.00    -0.077 C 
ATOM     10  C   UNL     1       0.523 -13.839   9.047  1.00  0.00     0.008 C 
ATOM     11  C   UNL     1      -0.277 -16.096   8.517  1.00  0.00     0.039 C 
ENDBRANCH   5   9
TORSDOF 1
ENDMDL
MODEL 4
REMARK VINA RESULT:    -3.739      2.083      4.693
REMARK INTER + INTRA:          -4.056
REMARK INTER:                  -3.961
REMARK INTRA:                  -0.096
REMARK UNBOUND:                -0.098
REMARK SMILES C=C(C)[C@H]1CC=C(C)C(=O)C1
REMARK SMILES IDX 8 1 7 2 6 3 5 4 4 5 11 6 9 7 10 8 2 9 1 10 3 11
REMARK H PARENT
REMARK Flexibility Score: inf
ROOT
ATOM      1  C   UNL     1       3.843 -15.606  13.606  1.00  0.00     0.048 C 
ATOM      2  C   UNL     1       3.102 -15.434  12.309  1.00  0.00    -0.012 C 
ATOM      3  C   UNL     1       2.484 -16.487  11.746  1.00  0.00    -0.019 C 
ATOM      4  C   UNL     1       1.743 -16.374  10.440  1.00  0.00     0.036 C 
ATOM      5  C   UNL     1       1.109 -14.980  10.281  1.00  0.00     0.025 C 
ATOM      6  C   UNL     1       2.178 -13.885  10.442  1.00  0.00     0.089 C 
ATOM      7  C   UNL     1       2.950 -14.081  11.718  1.00  0.00     0.158 C 
ATOM      8  O   UNL     1       3.498 -13.085  12.263  1.00  0.00    -0.295 OA
ENDROOT
BRANCH   5   9
ATOM      9  C   UNL     1       0.373 -14.850   8.954  1.00  0.00    -0.077 C 
ATOM     10  C   UNL     1      -0.312 -15.893   8.459  1.00  0.00     0.008 C 
ATOM     11  C   UNL     1       0.392 -13.562   8.168  1.00  0.00     0.039 C 
ENDBRANCH   5   9
TORSDOF 1
ENDMDL
MODEL 5
REMARK VINA RESULT:    -3.696      1.720      3.046
REMARK INTER + INTRA:          -4.010
REMARK INTER:                  -3.912
REMARK INTRA:                  -0.098
REMARK UNBOUND:                -0.098
REMARK SMILES C=C(C)[C@H]1CC=C(C)C(=O)C1
REMARK SMILES IDX 8 1 7 2 6 3 5 4 4 5 11 6 9 7 10 8 2 9 1 10 3 11
REMARK H PARENT
REMARK Flexibility Score: inf
ROOT
ATOM      1  C   UNL     1      -0.538 -16.018   8.491  1.00  0.00     0.048 C 
ATOM      2  C   UNL     1       0.796 -15.610   9.054  1.00  0.00    -0.012 C 
ATOM      3  C   UNL     1       1.619 -16.542   9.564  1.00  0.00    -0.019 C 
ATOM      4  C   UNL     1       2.957 -16.187  10.157  1.00  0.00     0.036 C 
ATOM      5  C   UNL     1       3.576 -14.973   9.441  1.00  0.00     0.025 C 
ATOM      6  C   UNL     1       2.597 -13.785   9.458  1.00  0.00     0.089 C 
ATOM      7  C   UNL     1       1.250 -14.202   8.935  1.00  0.00     0.158 C 
ATOM      8  O   UNL     1       0.493 -13.333   8.424  1.00  0.00    -0.295 OA
ENDROOT
BRANCH   5   9
ATOM      9  C   UNL     1       4.921 -14.594  10.046  1.00  0.00    -0.077 C 
ATOM     10  C   UNL     1       5.517 -15.413  10.928  1.00  0.00     0.008 C 
ATOM     11  C   UNL     1       5.615 -13.306   9.677  1.00  0.00     0.039 C 
ENDBRANCH   5   9
TORSDOF 1
ENDMDL
MODEL 6
REMARK VINA RESULT:    -3.595      1.775      2.271
REMARK INTER + INTRA:          -3.903
REMARK INTER:                  -3.806
REMARK INTRA:                  -0.097
REMARK UNBOUND:                -0.098
REMARK SMILES C=C(C)[C@H]1CC=C(C)C(=O)C1
REMARK SMILES IDX 8 1 7 2 6 3 5 4 4 5 11 6 9 7 10 8 2 9 1 10 3 11
REMARK H PARENT
REMARK Flexibility Score: inf
ROOT
ATOM      1  C   UNL     1       2.788 -11.875   6.616  1.00  0.00     0.048 C 
ATOM      2  C   UNL     1       2.510 -12.821   7.751  1.00  0.00    -0.012 C 
ATOM      3  C   UNL     1       3.530 -13.325   8.467  1.00  0.00    -0.019 C 
ATOM      4  C   UNL     1       3.309 -14.289   9.602  1.00  0.00     0.036 C 
ATOM      5  C   UNL     1       1.978 -14.003  10.322  1.00  0.00     0.025 C 
ATOM      6  C   UNL     1       0.814 -14.011   9.315  1.00  0.00     0.089 C 
ATOM      7  C   UNL     1       1.109 -13.098   8.156  1.00  0.00     0.158 C 
ATOM      8  O   UNL     1       0.151 -12.598   7.508  1.00  0.00    -0.295 OA
ENDROOT
BRANCH   5   9
ATOM      9  C   UNL     1       1.737 -14.986  11.459  1.00  0.00    -0.077 C 
ATOM     10  C   UNL     1       1.826 -16.308  11.238  1.00  0.00     0.008 C 
ATOM     11  C   UNL     1       1.398 -14.510  12.851  1.00  0.00     0.039 C 
ENDBRANCH   5   9
TORSDOF 1
ENDMDL
MODEL 7
REMARK VINA RESULT:    -3.520      1.620      2.054
REMARK INTER + INTRA:          -3.824
REMARK INTER:                  -3.736
REMARK INTRA:                  -0.088
REMARK UNBOUND:                -0.098
REMARK SMILES C=C(C)[C@H]1CC=C(C)C(=O)C1
REMARK SMILES IDX 8 1 7 2 6 3 5 4 4 5 11 6 9 7 10 8 2 9 1 10 3 11
REMARK H PARENT
REMARK Flexibility Score: inf
ROOT
ATOM      1  C   UNL     1       0.305 -13.675   8.215  1.00  0.00     0.048 C 
ATOM      2  C   UNL     1       0.802 -14.449   9.405  1.00  0.00    -0.012 C 
ATOM      3  C   UNL     1       1.177 -15.731   9.259  1.00  0.00    -0.019 C 
ATOM      4  C   UNL     1       1.666 -16.558  10.419  1.00  0.00     0.036 C 
ATOM      5  C   UNL     1       2.415 -15.686  11.443  1.00  0.00     0.025 C 
ATOM      6  C   UNL     1       1.529 -14.511  11.896  1.00  0.00     0.089 C 
ATOM      7  C   UNL     1       0.995 -13.762  10.706  1.00  0.00     0.158 C 
ATOM      8  O   UNL     1       0.678 -12.549  10.836  1.00  0.00    -0.295 OA
ENDROOT
BRANCH   5   9
ATOM      9  C   UNL     1       2.897 -16.510  12.630  1.00  0.00    -0.077 C 
ATOM     10  C   UNL     1       4.164 -16.397  13.059  1.00  0.00     0.008 C 
ATOM     11  C   UNL     1       1.975 -17.463  13.351  1.00  0.00     0.039 C 
ENDBRANCH   5   9
TORSDOF 1
ENDMDL
MODEL 8
REMARK VINA RESULT:    -3.483      2.213      4.445
REMARK INTER + INTRA:          -3.785
REMARK INTER:                  -3.686
REMARK INTRA:                  -0.099
REMARK UNBOUND:                -0.098
REMARK SMILES C=C(C)[C@H]1CC=C(C)C(=O)C1
REMARK SMILES IDX 8 1 7 2 6 3 5 4 4 5 11 6 9 7 10 8 2 9 1 10 3 11
REMARK H PARENT
REMARK Flexibility Score: inf
ROOT
ATOM      1  C   UNL     1       3.084 -14.362  14.055  1.00  0.00     0.048 C 
ATOM      2  C   UNL     1       2.265 -14.454  12.798  1.00  0.00    -0.012 C 
ATOM      3  C   UNL     1       1.679 -13.351  12.299  1.00  0.00    -0.019 C 
ATOM      4  C   UNL     1       0.834 -13.390  11.054  1.00  0.00     0.036 C 
ATOM      5  C   UNL     1       1.344 -14.459  10.070  1.00  0.00     0.025 C 
ATOM      6  C   UNL     1       1.423 -15.831  10.764  1.00  0.00     0.089 C 
ATOM      7  C   UNL     1       2.206 -15.732  12.045  1.00  0.00     0.158 C 
ATOM      8  O   UNL     1       2.784 -16.759  12.492  1.00  0.00    -0.295 OA
ENDROOT
BRANCH   5   9
ATOM      9  C   UNL     1       0.483 -14.519   8.816  1.00  0.00    -0.077 C 
ATOM     10  C   UNL     1      -0.181 -15.644   8.507  1.00  0.00     0.008 C 
ATOM     11  C   UNL     1       0.350 -13.330   7.896  1.00  0.00     0.039 C 
ENDBRANCH   5   9
TORSDOF 1
ENDMDL
MODEL 9
REMARK VINA RESULT:    -2.143      2.039      2.645
REMARK INTER + INTRA:          -2.366
REMARK INTER:                  -2.268
REMARK INTRA:                  -0.098
REMARK UNBOUND:                -0.098
REMARK SMILES C=C(C)[C@H]1CC=C(C)C(=O)C1
REMARK SMILES IDX 8 1 7 2 6 3 5 4 4 5 11 6 9 7 10 8 2 9 1 10 3 11
REMARK H PARENT
REMARK Flexibility Score: inf
ROOT
ATOM      1  C   UNL     1       0.415 -11.875   6.665  1.00  0.00     0.048 C 
ATOM      2  C   UNL     1       1.052 -12.697   7.751  1.00  0.00    -0.012 C 
ATOM      3  C   UNL     1       0.291 -13.490   8.524  1.00  0.00    -0.019 C 
ATOM      4  C   UNL     1       0.875 -14.320   9.636  1.00  0.00     0.036 C 
ATOM      5  C   UNL     1       2.302 -14.784   9.291  1.00  0.00     0.025 C 
ATOM      6  C   UNL     1       3.187 -13.575   8.939  1.00  0.00     0.089 C 
ATOM      7  C   UNL     1       2.530 -12.727   7.884  1.00  0.00     0.158 C 
ATOM      8  O   UNL     1       3.249 -12.012   7.136  1.00  0.00    -0.295 OA
ENDROOT
BRANCH   5   9
ATOM      9  C   UNL     1       2.908 -15.609  10.418  1.00  0.00    -0.077 C 
ATOM     10  C   UNL     1       4.240 -15.648  10.583  1.00  0.00     0.008 C 
ATOM     11  C   UNL     1       2.042 -16.394  11.372  1.00  0.00     0.039 C 
ENDBRANCH   5   9
TORSDOF 1
ENDMDL
