MODEL 1
REMARK VINA RESULT:    -2.908      0.000      0.000
REMARK INTER + INTRA:          -3.709
REMARK INTER:                  -3.418
REMARK INTRA:                  -0.291
REMARK UNBOUND:                -0.291
REMARK SMILES O=c1c(O)c(-c2ccc(O)cc2)oc2cc(O)cc(O)c12
REMARK SMILES IDX 5 1 3 2 2 3 1 4 21 5 19 6 18 7 16 8 15 9 14 10 13 11 6 12
REMARK SMILES IDX 7 13 8 14 9 15 12 16 11 17 10 18 4 20 20 22 17 24
REMARK H PARENT 10 19 4 21 20 23 17 25
REMARK Flexibility Score: inf
ROOT
ATOM      1  C   UNL     1     -21.695 -15.768 -14.132  1.00  0.00     0.180 A 
ATOM      2  C   UNL     1     -22.346 -15.320 -15.294  1.00  0.00     0.208 A 
ATOM      3  C   UNL     1     -23.663 -15.740 -15.543  1.00  0.00     0.238 A 
ATOM      4  O   UNL     1     -24.220 -15.379 -16.613  1.00  0.00    -0.285 OA
ATOM      5  C   UNL     1     -24.317 -16.591 -14.620  1.00  0.00     0.111 A 
ATOM      6  C   UNL     1     -25.662 -17.047 -14.752  1.00  0.00     0.134 A 
ATOM      7  C   UNL     1     -26.163 -17.991 -13.845  1.00  0.00     0.093 A 
ATOM      8  C   UNL     1     -25.388 -18.444 -12.775  1.00  0.00     0.123 A 
ATOM      9  C   UNL     1     -24.093 -17.960 -12.605  1.00  0.00     0.094 A 
ATOM     10  C   UNL     1     -23.554 -17.046 -13.513  1.00  0.00     0.146 A 
ATOM     11  O   UNL     1     -22.312 -16.618 -13.319  1.00  0.00    -0.452 OA
ENDROOT
BRANCH   1  12
ATOM     12  C   UNL     1     -20.318 -15.347 -13.789  1.00  0.00     0.021 A 
ATOM     13  C   UNL     1     -20.076 -14.238 -12.957  1.00  0.00     0.016 A 
ATOM     14  C   UNL     1     -18.766 -13.875 -12.627  1.00  0.00     0.047 A 
ATOM     15  C   UNL     1     -17.685 -14.621 -13.111  1.00  0.00     0.115 A 
ATOM     16  C   UNL     1     -19.228 -16.102 -14.253  1.00  0.00     0.016 A 
ATOM     17  C   UNL     1     -17.920 -15.735 -13.922  1.00  0.00     0.047 A 
BRANCH  15  18
ATOM     18  O   UNL     1     -16.376 -14.267 -12.790  1.00  0.00    -0.508 OA
ATOM     19  H   UNL     1     -16.008 -13.348 -13.007  1.00  0.00     0.293 HD
ENDBRANCH  15  18
ENDBRANCH   1  12
BRANCH   2  20
ATOM     20  O   UNL     1     -21.674 -14.497 -16.204  1.00  0.00    -0.502 OA
ATOM     21  H   UNL     1     -22.143 -14.055 -16.985  1.00  0.00     0.293 HD
ENDBRANCH   2  20
BRANCH   6  22
ATOM     22  O   UNL     1     -26.550 -16.589 -15.729  1.00  0.00    -0.507 OA
ATOM     23  H   UNL     1     -27.441 -17.010 -15.938  1.00  0.00     0.293 HD
ENDBRANCH   6  22
BRANCH   8  24
ATOM     24  O   UNL     1     -25.899 -19.372 -11.870  1.00  0.00    -0.508 OA
ATOM     25  H   UNL     1     -25.979 -19.160 -10.883  1.00  0.00     0.293 HD
ENDBRANCH   8  24
TORSDOF 5
ENDMDL
