MODEL 1
REMARK VINA RESULT:    -2.581      0.000      0.000
REMARK INTER + INTRA:          -4.019
REMARK INTER:                  -3.638
REMARK INTRA:                  -0.381
REMARK UNBOUND:                -0.381
REMARK SMILES C=CCCCCCCC(=O)[O-]
REMARK SMILES IDX 6 1 7 2 8 3 9 4 10 5 11 6 5 7 4 8 3 9 2 10 1 11
REMARK H PARENT
REMARK Flexibility Score: inf
ROOT
ATOM      1  C   UNL     1      -7.101  52.125  -5.264  1.00  0.00     0.000 C 
ENDROOT
BRANCH   1   2
ATOM      2  C   UNL     1      -6.550  52.080  -6.704  1.00  0.00     0.006 C 
BRANCH   2   3
ATOM      3  C   UNL     1      -7.624  51.921  -7.792  1.00  0.00     0.053 C 
BRANCH   3   4
ATOM      4  C   UNL     1      -7.385  50.711  -8.641  1.00  0.00     0.041 C 
ATOM      5  O   UNL     1      -8.319  49.894  -8.858  1.00  0.00    -0.550 OA
ATOM      6  O   UNL     1      -6.122  50.467  -9.165  1.00  0.00    -0.550 OA
ENDBRANCH   3   4
ENDBRANCH   2   3
ENDBRANCH   1   2
BRANCH   1   7
ATOM      7  C   UNL     1      -8.636  52.091  -5.151  1.00  0.00     0.000 C 
BRANCH   7   8
ATOM      8  C   UNL     1      -9.125  51.588  -3.785  1.00  0.00     0.004 C 
BRANCH   8   9
ATOM      9  C   UNL     1      -8.743  50.118  -3.574  1.00  0.00     0.027 C 
BRANCH   9  10
ATOM     10  C   UNL     1      -8.659  49.781  -2.111  1.00  0.00    -0.035 C 
ATOM     11  C   UNL     1      -8.203  50.658  -1.212  1.00  0.00     0.004 C 
ENDBRANCH   9  10
ENDBRANCH   8   9
ENDBRANCH   7   8
ENDBRANCH   1   7
TORSDOF 7
ENDMDL
MODEL 2
REMARK VINA RESULT:    -2.516      1.708      2.456
REMARK INTER + INTRA:          -3.927
REMARK INTER:                  -3.606
REMARK INTRA:                  -0.320
REMARK UNBOUND:                -0.381
REMARK SMILES C=CCCCCCCC(=O)[O-]
REMARK SMILES IDX 6 1 7 2 8 3 9 4 10 5 11 6 5 7 4 8 3 9 2 10 1 11
REMARK H PARENT
REMARK Flexibility Score: inf
ROOT
ATOM      1  C   UNL     1      -6.905  52.107  -5.157  1.00  0.00     0.000 C 
ENDROOT
BRANCH   1   2
ATOM      2  C   UNL     1      -6.103  52.105  -6.474  1.00  0.00     0.006 C 
BRANCH   2   3
ATOM      3  C   UNL     1      -4.577  52.103  -6.291  1.00  0.00     0.053 C 
BRANCH   3   4
ATOM      4  C   UNL     1      -3.884  51.339  -7.377  1.00  0.00     0.041 C 
ATOM      5  O   UNL     1      -2.629  51.366  -7.469  1.00  0.00    -0.550 OA
ATOM      6  O   UNL     1      -4.628  50.624  -8.306  1.00  0.00    -0.550 OA
ENDBRANCH   3   4
ENDBRANCH   2   3
ENDBRANCH   1   2
BRANCH   1   7
ATOM      7  C   UNL     1      -8.418  51.869  -5.313  1.00  0.00     0.000 C 
BRANCH   7   8
ATOM      8  C   UNL     1      -9.099  51.462  -3.999  1.00  0.00     0.004 C 
BRANCH   8   9
ATOM      9  C   UNL     1      -8.487  50.171  -3.441  1.00  0.00     0.027 C 
BRANCH   9  10
ATOM     10  C   UNL     1      -8.520  50.157  -1.938  1.00  0.00    -0.035 C 
ATOM     11  C   UNL     1      -7.925  51.110  -1.213  1.00  0.00     0.004 C 
ENDBRANCH   9  10
ENDBRANCH   8   9
ENDBRANCH   7   8
ENDBRANCH   1   7
TORSDOF 7
ENDMDL
MODEL 3
REMARK VINA RESULT:    -2.261      3.158      5.641
REMARK INTER + INTRA:          -3.567
REMARK INTER:                  -3.334
REMARK INTRA:                  -0.233
REMARK UNBOUND:                -0.381
REMARK SMILES C=CCCCCCCC(=O)[O-]
REMARK SMILES IDX 6 1 7 2 8 3 9 4 10 5 11 6 5 7 4 8 3 9 2 10 1 11
REMARK H PARENT
REMARK Flexibility Score: inf
ROOT
ATOM      1  C   UNL     1      -7.136  51.889  -6.280  1.00  0.00     0.000 C 
ENDROOT
BRANCH   1   2
ATOM      2  C   UNL     1      -8.450  52.065  -5.492  1.00  0.00     0.006 C 
BRANCH   2   3
ATOM      3  C   UNL     1      -8.276  52.125  -3.967  1.00  0.00     0.053 C 
BRANCH   3   4
ATOM      4  C   UNL     1      -8.444  50.779  -3.331  1.00  0.00     0.041 C 
ATOM      5  O   UNL     1      -8.485  50.671  -2.077  1.00  0.00    -0.550 OA
ATOM      6  O   UNL     1      -8.523  49.641  -4.123  1.00  0.00    -0.550 OA
ENDBRANCH   3   4
ENDBRANCH   2   3
ENDBRANCH   1   2
BRANCH   1   7
ATOM      7  C   UNL     1      -7.270  52.014  -7.809  1.00  0.00     0.000 C 
BRANCH   7   8
ATOM      8  C   UNL     1      -5.941  51.791  -8.546  1.00  0.00     0.004 C 
BRANCH   8   9
ATOM      9  C   UNL     1      -4.749  52.124  -7.640  1.00  0.00     0.027 C 
BRANCH   9  10
ATOM     10  C   UNL     1      -3.454  51.667  -8.252  1.00  0.00    -0.035 C 
ATOM     11  C   UNL     1      -2.369  51.432  -7.508  1.00  0.00     0.004 C 
ENDBRANCH   9  10
ENDBRANCH   8   9
ENDBRANCH   7   8
ENDBRANCH   1   7
TORSDOF 7
ENDMDL
MODEL 4
REMARK VINA RESULT:    -2.209      1.850      3.119
REMARK INTER + INTRA:          -3.494
REMARK INTER:                  -3.001
REMARK INTRA:                  -0.493
REMARK UNBOUND:                -0.381
REMARK SMILES C=CCCCCCCC(=O)[O-]
REMARK SMILES IDX 6 1 7 2 8 3 9 4 10 5 11 6 5 7 4 8 3 9 2 10 1 11
REMARK H PARENT
REMARK Flexibility Score: inf
ROOT
ATOM      1  C   UNL     1      -9.119  50.458  -3.680  1.00  0.00     0.000 C 
ENDROOT
BRANCH   1   2
ATOM      2  C   UNL     1      -8.898  51.757  -4.481  1.00  0.00     0.006 C 
BRANCH   2   3
ATOM      3  C   UNL     1      -7.422  52.125  -4.703  1.00  0.00     0.053 C 
BRANCH   3   4
ATOM      4  C   UNL     1      -7.033  52.031  -6.145  1.00  0.00     0.041 C 
ATOM      5  O   UNL     1      -7.911  51.852  -7.029  1.00  0.00    -0.550 OA
ATOM      6  O   UNL     1      -5.695  52.109  -6.511  1.00  0.00    -0.550 OA
ENDBRANCH   3   4
ENDBRANCH   2   3
ENDBRANCH   1   2
BRANCH   1   7
ATOM      7  C   UNL     1      -8.298  50.342  -2.384  1.00  0.00     0.000 C 
BRANCH   7   8
ATOM      8  C   UNL     1      -8.937  51.084  -1.201  1.00  0.00     0.004 C 
BRANCH   8   9
ATOM      9  C   UNL     1      -7.972  52.125  -0.621  1.00  0.00     0.027 C 
BRANCH   9  10
ATOM     10  C   UNL     1      -6.586  51.561  -0.473  1.00  0.00    -0.035 C 
ATOM     11  C   UNL     1      -5.706  52.074   0.393  1.00  0.00     0.004 C 
ENDBRANCH   9  10
ENDBRANCH   8   9
ENDBRANCH   7   8
ENDBRANCH   1   7
TORSDOF 7
ENDMDL
MODEL 5
REMARK VINA RESULT:    -2.162      5.077      5.861
REMARK INTER + INTRA:          -3.427
REMARK INTER:                  -3.186
REMARK INTRA:                  -0.241
REMARK UNBOUND:                -0.381
REMARK SMILES C=CCCCCCCC(=O)[O-]
REMARK SMILES IDX 6 1 7 2 8 3 9 4 10 5 11 6 5 7 4 8 3 9 2 10 1 11
REMARK H PARENT
REMARK Flexibility Score: inf
ROOT
ATOM      1  C   UNL     1      -5.843  52.061  -8.360  1.00  0.00     0.000 C 
ENDROOT
BRANCH   1   2
ATOM      2  C   UNL     1      -4.303  52.125  -8.422  1.00  0.00     0.006 C 
BRANCH   2   3
ATOM      3  C   UNL     1      -3.591  51.500  -7.212  1.00  0.00     0.053 C 
BRANCH   3   4
ATOM      4  C   UNL     1      -2.101  51.587  -7.334  1.00  0.00     0.041 C 
ATOM      5  O   UNL     1      -1.571  51.903  -8.431  1.00  0.00    -0.550 OA
ATOM      6  O   UNL     1      -1.295  51.287  -6.243  1.00  0.00    -0.550 OA
ENDBRANCH   3   4
ENDBRANCH   2   3
ENDBRANCH   1   2
BRANCH   1   7
ATOM      7  C   UNL     1      -6.478  50.888  -9.129  1.00  0.00     0.000 C 
BRANCH   7   8
ATOM      8  C   UNL     1      -7.620  51.329 -10.056  1.00  0.00     0.004 C 
BRANCH   8   9
ATOM      9  C   UNL     1      -8.807  50.362  -9.962  1.00  0.00     0.027 C 
BRANCH   9  10
ATOM     10  C   UNL     1      -8.440  49.121  -9.197  1.00  0.00    -0.035 C 
ATOM     11  C   UNL     1      -9.125  47.981  -9.336  1.00  0.00     0.004 C 
ENDBRANCH   9  10
ENDBRANCH   8   9
ENDBRANCH   7   8
ENDBRANCH   1   7
TORSDOF 7
ENDMDL
MODEL 6
REMARK VINA RESULT:    -2.160      3.506      6.076
REMARK INTER + INTRA:          -3.425
REMARK INTER:                  -3.228
REMARK INTRA:                  -0.197
REMARK UNBOUND:                -0.381
REMARK SMILES C=CCCCCCCC(=O)[O-]
REMARK SMILES IDX 6 1 7 2 8 3 9 4 10 5 11 6 5 7 4 8 3 9 2 10 1 11
REMARK H PARENT
REMARK Flexibility Score: inf
ROOT
ATOM      1  C   UNL     1      -7.464  51.808  -5.345  1.00  0.00     0.000 C 
ENDROOT
BRANCH   1   2
ATOM      2  C   UNL     1      -8.449  51.176  -4.340  1.00  0.00     0.006 C 
BRANCH   2   3
ATOM      3  C   UNL     1      -8.707  52.021  -3.083  1.00  0.00     0.053 C 
BRANCH   3   4
ATOM      4  C   UNL     1      -8.378  51.273  -1.828  1.00  0.00     0.041 C 
ATOM      5  O   UNL     1      -8.702  50.062  -1.709  1.00  0.00    -0.550 OA
ATOM      6  O   UNL     1      -7.744  51.923  -0.777  1.00  0.00    -0.550 OA
ENDBRANCH   3   4
ENDBRANCH   2   3
ENDBRANCH   1   2
BRANCH   1   7
ATOM      7  C   UNL     1      -8.058  52.125  -6.729  1.00  0.00     0.000 C 
BRANCH   7   8
ATOM      8  C   UNL     1      -7.024  52.032  -7.860  1.00  0.00     0.004 C 
BRANCH   8   9
ATOM      9  C   UNL     1      -7.275  50.797  -8.733  1.00  0.00     0.027 C 
BRANCH   9  10
ATOM     10  C   UNL     1      -6.168  50.600  -9.732  1.00  0.00    -0.035 C 
ATOM     11  C   UNL     1      -4.948  51.111  -9.539  1.00  0.00     0.004 C 
ENDBRANCH   9  10
ENDBRANCH   8   9
ENDBRANCH   7   8
ENDBRANCH   1   7
TORSDOF 7
ENDMDL
MODEL 7
REMARK VINA RESULT:    -1.944      4.360      6.084
REMARK INTER + INTRA:          -3.120
REMARK INTER:                  -2.969
REMARK INTRA:                  -0.152
REMARK UNBOUND:                -0.381
REMARK SMILES C=CCCCCCCC(=O)[O-]
REMARK SMILES IDX 6 1 7 2 8 3 9 4 10 5 11 6 5 7 4 8 3 9 2 10 1 11
REMARK H PARENT
REMARK Flexibility Score: inf
ROOT
ATOM      1  C   UNL     1      -6.952  52.125  -0.488  1.00  0.00     0.000 C 
ENDROOT
BRANCH   1   2
ATOM      2  C   UNL     1      -8.157  51.362  -1.075  1.00  0.00     0.006 C 
BRANCH   2   3
ATOM      3  C   UNL     1      -8.731  51.972  -2.363  1.00  0.00     0.053 C 
BRANCH   3   4
ATOM      4  C   UNL     1      -8.668  51.014  -3.512  1.00  0.00     0.041 C 
ATOM      5  O   UNL     1      -8.866  51.419  -4.687  1.00  0.00    -0.550 OA
ATOM      6  O   UNL     1      -8.423  49.666  -3.281  1.00  0.00    -0.550 OA
ENDBRANCH   3   4
ENDBRANCH   2   3
ENDBRANCH   1   2
BRANCH   1   7
ATOM      7  C   UNL     1      -5.790  51.237  -0.005  1.00  0.00     0.000 C 
BRANCH   7   8
ATOM      8  C   UNL     1      -4.577  52.047   0.474  1.00  0.00     0.004 C 
BRANCH   8   9
ATOM      9  C   UNL     1      -3.283  51.237   0.324  1.00  0.00     0.027 C 
BRANCH   9  10
ATOM     10  C   UNL     1      -2.135  52.115  -0.090  1.00  0.00    -0.035 C 
ATOM     11  C   UNL     1      -0.975  52.115   0.574  1.00  0.00     0.004 C 
ENDBRANCH   9  10
ENDBRANCH   8   9
ENDBRANCH   7   8
ENDBRANCH   1   7
TORSDOF 7
ENDMDL
MODEL 8
REMARK VINA RESULT:    -1.875      4.331      6.030
REMARK INTER + INTRA:          -3.024
REMARK INTER:                  -2.689
REMARK INTRA:                  -0.335
REMARK UNBOUND:                -0.381
REMARK SMILES C=CCCCCCCC(=O)[O-]
REMARK SMILES IDX 6 1 7 2 8 3 9 4 10 5 11 6 5 7 4 8 3 9 2 10 1 11
REMARK H PARENT
REMARK Flexibility Score: inf
ROOT
ATOM      1  C   UNL     1      -4.450  51.208  -8.535  1.00  0.00     0.000 C 
ENDROOT
BRANCH   1   2
ATOM      2  C   UNL     1      -5.388  51.878  -9.561  1.00  0.00     0.006 C 
BRANCH   2   3
ATOM      3  C   UNL     1      -6.525  50.978 -10.067  1.00  0.00     0.053 C 
BRANCH   3   4
ATOM      4  C   UNL     1      -7.658  50.905  -9.091  1.00  0.00     0.041 C 
ATOM      5  O   UNL     1      -8.406  49.893  -9.061  1.00  0.00    -0.550 OA
ATOM      6  O   UNL     1      -7.907  51.970  -8.235  1.00  0.00    -0.550 OA
ENDBRANCH   3   4
ENDBRANCH   2   3
ENDBRANCH   1   2
BRANCH   1   7
ATOM      7  C   UNL     1      -4.359  51.918  -7.172  1.00  0.00     0.000 C 
BRANCH   7   8
ATOM      8  C   UNL     1      -2.913  52.124  -6.700  1.00  0.00     0.004 C 
BRANCH   8   9
ATOM      9  C   UNL     1      -1.940  51.272  -7.524  1.00  0.00     0.027 C 
BRANCH   9  10
ATOM     10  C   UNL     1      -1.131  52.122  -8.463  1.00  0.00    -0.035 C 
ATOM     11  C   UNL     1      -1.356  52.125  -9.781  1.00  0.00     0.004 C 
ENDBRANCH   9  10
ENDBRANCH   8   9
ENDBRANCH   7   8
ENDBRANCH   1   7
TORSDOF 7
ENDMDL
