MODEL 1
REMARK VINA RESULT:    88.887      0.000      0.000
REMARK INTER + INTRA:          97.313
REMARK INTER:                  96.681
REMARK INTRA:                   0.632
REMARK UNBOUND:                 0.632
REMARK SMILES C[C@H]1[C@H]2C3=CC[C@H]4[C@@]5(C)CC[C@@H](O)C(C)(C)[C@H]5CC[C@@]4(C)[C@]3(C)CC[C@@]2(C(=O)[O-])CC[C@@H]1C
REMARK SMILES IDX 26 1 30 2 25 3 3 4 31 5 24 6 4 7 2 8 32 9 22 10 5 11 1 12
REMARK SMILES IDX 33 13 23 14 20 15 6 16 7 17 19 18 21 19 8 20 18 21 17 22
REMARK SMILES IDX 10 23 9 24 14 25 11 26 12 27 15 28 16 29 27 30 28 31 29 32
REMARK SMILES IDX 13 33
REMARK H PARENT 13 34
REMARK Flexibility Score: inf
ROOT
ATOM      1  C   UNL     1       3.524 -10.587  -3.235  1.00  0.00     0.017 C 
ATOM      2  C   UNL     1       4.103 -11.114  -4.582  1.00  0.00     0.014 C 
ATOM      3  C   UNL     1       4.129  -9.169  -2.929  1.00  0.00     0.014 C 
ATOM      4  C   UNL     1       3.870 -11.635  -2.112  1.00  0.00     0.030 C 
ATOM      5  C   UNL     1       3.593 -12.515  -4.955  1.00  0.00     0.004 C 
ATOM      6  C   UNL     1       4.759  -9.059  -1.529  1.00  0.00     0.013 C 
ATOM      7  C   UNL     1       5.353 -11.504  -1.682  1.00  0.00    -0.063 C 
ATOM      8  C   UNL     1       3.312 -13.052  -2.497  1.00  0.00    -0.003 C 
ATOM      9  C   UNL     1       3.885 -13.553  -3.851  1.00  0.00    -0.011 C 
ATOM     10  C   UNL     1       5.898 -10.114  -1.312  1.00  0.00    -0.006 C 
ATOM     11  C   UNL     1       6.159 -12.561  -1.462  1.00  0.00    -0.027 C 
ATOM     12  C   UNL     1       3.367 -14.083  -1.342  1.00  0.00     0.008 C 
ATOM     13  C   UNL     1       3.286 -14.908  -4.265  1.00  0.00     0.008 C 
ATOM     14  C   UNL     1       7.033  -9.734  -2.327  1.00  0.00     0.017 C 
ATOM     15  C   UNL     1       6.439 -10.156   0.209  1.00  0.00    -0.020 C 
ATOM     16  C   UNL     1       7.453 -12.417  -0.713  1.00  0.00     0.032 C 
ATOM     17  C   UNL     1       7.274 -11.486   0.527  1.00  0.00     0.006 C 
ATOM     18  C   UNL     1       7.306  -8.908   0.494  1.00  0.00     0.008 C 
ATOM     19  C   UNL     1       5.224 -10.115   1.194  1.00  0.00     0.012 C 
ATOM     20  C   UNL     1       8.598 -11.314   1.414  1.00  0.00    -0.025 C 
ATOM     21  C   UNL     1       7.872  -8.844   1.910  1.00  0.00     0.005 C 
ATOM     22  C   UNL     1       8.401 -10.190   2.519  1.00  0.00     0.003 C 
ATOM     23  C   UNL     1       9.863 -10.991   0.546  1.00  0.00     0.010 C 
ATOM     24  C   UNL     1       8.830 -12.695   2.113  1.00  0.00     0.012 C 
ATOM     25  C   UNL     1       9.670  -9.971   3.485  1.00  0.00    -0.006 C 
ATOM     26  C   UNL     1      10.896 -10.058   1.216  1.00  0.00     0.033 C 
ATOM     27  C   UNL     1      11.021 -10.278   2.730  1.00  0.00     0.120 C 
ATOM     28  C   UNL     1       9.558 -10.894   4.735  1.00  0.00     0.014 C 
ATOM     29  C   UNL     1       9.713  -8.529   4.091  1.00  0.00     0.014 C 
ENDROOT
BRANCH   1  30
ATOM     30  C   UNL     1       2.013 -10.403  -3.354  1.00  0.00     0.048 C 
ATOM     31  O   UNL     1       1.482  -9.285  -3.115  1.00  0.00    -0.550 OA
ATOM     32  O   UNL     1       1.213 -11.430  -3.846  1.00  0.00    -0.550 OA
ENDBRANCH   1  30
BRANCH  27  33
ATOM     33  O   UNL     1      12.081  -9.485   3.209  1.00  0.00    -0.393 OA
ATOM     34  H   UNL     1      12.680 -10.082   3.728  1.00  0.00     0.210 HD
ENDBRANCH  27  33
TORSDOF 2
ENDMDL
MODEL 2
REMARK VINA RESULT:    91.126      1.749      3.473
REMARK INTER + INTRA:          99.748
REMARK INTER:                  99.458
REMARK INTRA:                   0.290
REMARK UNBOUND:                 0.632
REMARK SMILES C[C@H]1[C@H]2C3=CC[C@H]4[C@@]5(C)CC[C@@H](O)C(C)(C)[C@H]5CC[C@@]4(C)[C@]3(C)CC[C@@]2(C(=O)[O-])CC[C@@H]1C
REMARK SMILES IDX 26 1 30 2 25 3 3 4 31 5 24 6 4 7 2 8 32 9 22 10 5 11 1 12
REMARK SMILES IDX 33 13 23 14 20 15 6 16 7 17 19 18 21 19 8 20 18 21 17 22
REMARK SMILES IDX 10 23 9 24 14 25 11 26 12 27 15 28 16 29 27 30 28 31 29 32
REMARK SMILES IDX 13 33
REMARK H PARENT 13 34
REMARK Flexibility Score: inf
ROOT
ATOM      1  C   UNL     1       2.880 -13.628  -2.910  1.00  0.00     0.017 C 
ATOM      2  C   UNL     1       1.737 -12.586  -3.105  1.00  0.00     0.014 C 
ATOM      3  C   UNL     1       2.955 -14.041  -1.396  1.00  0.00     0.014 C 
ATOM      4  C   UNL     1       4.223 -12.978  -3.415  1.00  0.00     0.030 C 
ATOM      5  C   UNL     1       1.604 -12.094  -4.554  1.00  0.00     0.004 C 
ATOM      6  C   UNL     1       4.362 -13.901  -0.789  1.00  0.00     0.013 C 
ATOM      7  C   UNL     1       4.772 -11.978  -2.367  1.00  0.00    -0.063 C 
ATOM      8  C   UNL     1       4.076 -12.512  -4.908  1.00  0.00    -0.003 C 
ATOM      9  C   UNL     1       2.920 -11.489  -5.086  1.00  0.00    -0.011 C 
ATOM     10  C   UNL     1       4.908 -12.436  -0.905  1.00  0.00    -0.006 C 
ATOM     11  C   UNL     1       5.287 -10.774  -2.686  1.00  0.00    -0.027 C 
ATOM     12  C   UNL     1       5.415 -12.108  -5.573  1.00  0.00     0.008 C 
ATOM     13  C   UNL     1       2.729 -11.085  -6.558  1.00  0.00     0.008 C 
ATOM     14  C   UNL     1       3.964 -11.555  -0.014  1.00  0.00     0.017 C 
ATOM     15  C   UNL     1       6.454 -12.301  -0.460  1.00  0.00    -0.020 C 
ATOM     16  C   UNL     1       6.124  -9.996  -1.713  1.00  0.00     0.032 C 
ATOM     17  C   UNL     1       7.123 -10.937  -0.967  1.00  0.00     0.006 C 
ATOM     18  C   UNL     1       6.571 -12.405   1.079  1.00  0.00     0.008 C 
ATOM     19  C   UNL     1       7.275 -13.485  -1.071  1.00  0.00     0.012 C 
ATOM     20  C   UNL     1       8.093 -10.179   0.061  1.00  0.00    -0.025 C 
ATOM     21  C   UNL     1       7.996 -12.291   1.612  1.00  0.00     0.005 C 
ATOM     22  C   UNL     1       8.918 -11.218   0.934  1.00  0.00     0.003 C 
ATOM     23  C   UNL     1       7.317  -9.193   1.001  1.00  0.00     0.010 C 
ATOM     24  C   UNL     1       9.077  -9.338  -0.817  1.00  0.00     0.012 C 
ATOM     25  C   UNL     1       9.949 -10.548   1.974  1.00  0.00    -0.006 C 
ATOM     26  C   UNL     1       7.889  -9.064   2.430  1.00  0.00     0.033 C 
ATOM     27  C   UNL     1       9.421  -9.151   2.481  1.00  0.00     0.120 C 
ATOM     28  C   UNL     1      11.341 -10.357   1.300  1.00  0.00     0.014 C 
ATOM     29  C   UNL     1      10.251 -11.480   3.194  1.00  0.00     0.014 C 
ENDROOT
BRANCH   1  30
ATOM     30  C   UNL     1       2.566 -14.898  -3.698  1.00  0.00     0.048 C 
ATOM     31  O   UNL     1       1.623 -14.916  -4.535  1.00  0.00    -0.550 OA
ATOM     32  O   UNL     1       3.390 -16.014  -3.597  1.00  0.00    -0.550 OA
ENDBRANCH   1  30
BRANCH  27  33
ATOM     33  O   UNL     1       9.838  -8.879   3.797  1.00  0.00    -0.393 OA
ATOM     34  H   UNL     1       9.038  -8.572   4.299  1.00  0.00     0.210 HD
ENDBRANCH  27  33
TORSDOF 2
ENDMDL
