MODEL 1
REMARK VINA RESULT:    -3.756      0.000      0.000
REMARK INTER + INTRA:          -3.756
REMARK INTER:                  -3.756
REMARK INTRA:                   0.000
REMARK UNBOUND:                 0.000
REMARK SMILES O=C1CCCCC1
REMARK SMILES IDX 5 1 4 2 3 3 2 4 1 5 7 6 6 7
REMARK H PARENT
REMARK Flexibility Score: inf
ROOT
ATOM      1  C   UNL     1      16.143  42.418 -12.972  1.00  0.00     0.001 C 
ATOM      2  C   UNL     1      16.562  43.446 -14.035  1.00  0.00     0.008 C 
ATOM      3  C   UNL     1      15.371  44.300 -14.488  1.00  0.00     0.075 C 
ATOM      4  C   UNL     1      14.651  44.867 -13.295  1.00  0.00     0.132 C 
ATOM      5  O   UNL     1      14.279  46.031 -13.295  1.00  0.00    -0.300 OA
ATOM      6  C   UNL     1      14.307  43.961 -12.145  1.00  0.00     0.075 C 
ATOM      7  C   UNL     1      15.525  43.114 -11.751  1.00  0.00     0.008 C 
ENDROOT
TORSDOF 0
ENDMDL
MODEL 2
REMARK VINA RESULT:    -3.564     14.057     15.024
REMARK INTER + INTRA:          -3.564
REMARK INTER:                  -3.564
REMARK INTRA:                   0.000
REMARK UNBOUND:                 0.000
REMARK SMILES O=C1CCCCC1
REMARK SMILES IDX 5 1 4 2 3 3 2 4 1 5 7 6 6 7
REMARK H PARENT
REMARK Flexibility Score: inf
ROOT
ATOM      1  C   UNL     1      16.764  45.639   0.113  1.00  0.00     0.001 C 
ATOM      2  C   UNL     1      16.521  45.160   1.552  1.00  0.00     0.008 C 
ATOM      3  C   UNL     1      17.653  44.243   2.035  1.00  0.00     0.075 C 
ATOM      4  C   UNL     1      18.989  44.890   1.790  1.00  0.00     0.132 C 
ATOM      5  O   UNL     1      19.860  44.850   2.646  1.00  0.00    -0.300 OA
ATOM      6  C   UNL     1      19.274  45.501   0.446  1.00  0.00     0.075 C 
ATOM      7  C   UNL     1      18.102  46.385   0.002  1.00  0.00     0.008 C 
ENDROOT
TORSDOF 0
ENDMDL
MODEL 3
REMARK VINA RESULT:    -3.458     13.590     14.418
REMARK INTER + INTRA:          -3.458
REMARK INTER:                  -3.458
REMARK INTRA:                   0.000
REMARK UNBOUND:                 0.000
REMARK SMILES O=C1CCCCC1
REMARK SMILES IDX 5 1 4 2 3 3 2 4 1 5 7 6 6 7
REMARK H PARENT
REMARK Flexibility Score: inf
ROOT
ATOM      1  C   UNL     1      19.453  44.783   0.856  1.00  0.00     0.001 C 
ATOM      2  C   UNL     1      19.028  46.147   0.293  1.00  0.00     0.008 C 
ATOM      3  C   UNL     1      17.565  46.131  -0.169  1.00  0.00     0.075 C 
ATOM      4  C   UNL     1      16.681  45.581   0.916  1.00  0.00     0.132 C 
ATOM      5  O   UNL     1      15.612  46.116   1.171  1.00  0.00    -0.300 OA
ATOM      6  C   UNL     1      17.079  44.311   1.616  1.00  0.00     0.075 C 
ATOM      7  C   UNL     1      18.555  44.372   2.033  1.00  0.00     0.008 C 
ENDROOT
TORSDOF 0
ENDMDL
MODEL 4
REMARK VINA RESULT:    -3.375     14.179     15.265
REMARK INTER + INTRA:          -3.375
REMARK INTER:                  -3.375
REMARK INTRA:                   0.000
REMARK UNBOUND:                 0.000
REMARK SMILES O=C1CCCCC1
REMARK SMILES IDX 5 1 4 2 3 3 2 4 1 5 7 6 6 7
REMARK H PARENT
REMARK Flexibility Score: inf
ROOT
ATOM      1  C   UNL     1      18.015  44.653   2.045  1.00  0.00     0.001 C 
ATOM      2  C   UNL     1      19.492  44.829   2.428  1.00  0.00     0.008 C 
ATOM      3  C   UNL     1      20.273  43.519   2.261  1.00  0.00     0.075 C 
ATOM      4  C   UNL     1      20.028  42.935   0.896  1.00  0.00     0.132 C 
ATOM      5  O   UNL     1      20.955  42.474   0.248  1.00  0.00    -0.300 OA
ATOM      6  C   UNL     1      18.619  42.836   0.382  1.00  0.00     0.075 C 
ATOM      7  C   UNL     1      17.878  44.163   0.596  1.00  0.00     0.008 C 
ENDROOT
TORSDOF 0
ENDMDL
MODEL 5
REMARK VINA RESULT:    -3.358     13.982     15.023
REMARK INTER + INTRA:          -3.358
REMARK INTER:                  -3.358
REMARK INTRA:                   0.000
REMARK UNBOUND:                 0.000
REMARK SMILES O=C1CCCCC1
REMARK SMILES IDX 5 1 4 2 3 3 2 4 1 5 7 6 6 7
REMARK H PARENT
REMARK Flexibility Score: inf
ROOT
ATOM      1  C   UNL     1      19.514  44.738   2.419  1.00  0.00     0.001 C 
ATOM      2  C   UNL     1      18.037  44.487   2.082  1.00  0.00     0.008 C 
ATOM      3  C   UNL     1      17.864  44.030   0.628  1.00  0.00     0.075 C 
ATOM      4  C   UNL     1      18.795  42.887   0.325  1.00  0.00     0.132 C 
ATOM      5  O   UNL     1      18.400  41.923  -0.312  1.00  0.00    -0.300 OA
ATOM      6  C   UNL     1      20.239  42.990   0.731  1.00  0.00     0.075 C 
ATOM      7  C   UNL     1      20.353  43.474   2.182  1.00  0.00     0.008 C 
ENDROOT
TORSDOF 0
ENDMDL
MODEL 6
REMARK VINA RESULT:    -3.347     13.534     14.292
REMARK INTER + INTRA:          -3.347
REMARK INTER:                  -3.347
REMARK INTRA:                   0.000
REMARK UNBOUND:                 0.000
REMARK SMILES O=C1CCCCC1
REMARK SMILES IDX 5 1 4 2 3 3 2 4 1 5 7 6 6 7
REMARK H PARENT
REMARK Flexibility Score: inf
ROOT
ATOM      1  C   UNL     1      18.780  44.365   1.886  1.00  0.00     0.001 C 
ATOM      2  C   UNL     1      17.296  44.010   1.715  1.00  0.00     0.008 C 
ATOM      3  C   UNL     1      16.466  45.244   1.337  1.00  0.00     0.075 C 
ATOM      4  C   UNL     1      17.094  45.959   0.172  1.00  0.00     0.132 C 
ATOM      5  O   UNL     1      16.399  46.376  -0.743  1.00  0.00    -0.300 OA
ATOM      6  C   UNL     1      18.570  46.241   0.193  1.00  0.00     0.075 C 
ATOM      7  C   UNL     1      19.348  44.983   0.600  1.00  0.00     0.008 C 
ENDROOT
TORSDOF 0
ENDMDL
MODEL 7
REMARK VINA RESULT:    -3.330     14.029     14.803
REMARK INTER + INTRA:          -3.330
REMARK INTER:                  -3.330
REMARK INTRA:                   0.000
REMARK UNBOUND:                 0.000
REMARK SMILES O=C1CCCCC1
REMARK SMILES IDX 5 1 4 2 3 3 2 4 1 5 7 6 6 7
REMARK H PARENT
REMARK Flexibility Score: inf
ROOT
ATOM      1  C   UNL     1      18.027  46.367   0.159  1.00  0.00     0.001 C 
ATOM      2  C   UNL     1      19.371  45.631   0.263  1.00  0.00     0.008 C 
ATOM      3  C   UNL     1      19.471  44.832   1.569  1.00  0.00     0.075 C 
ATOM      4  C   UNL     1      18.251  43.970   1.749  1.00  0.00     0.132 C 
ATOM      5  O   UNL     1      18.362  42.816   2.134  1.00  0.00    -0.300 OA
ATOM      6  C   UNL     1      16.889  44.573   1.545  1.00  0.00     0.075 C 
ATOM      7  C   UNL     1      16.853  45.380   0.240  1.00  0.00     0.008 C 
ENDROOT
TORSDOF 0
ENDMDL
MODEL 8
REMARK VINA RESULT:    -3.330     13.949     14.791
REMARK INTER + INTRA:          -3.330
REMARK INTER:                  -3.330
REMARK INTRA:                   0.000
REMARK UNBOUND:                 0.000
REMARK SMILES O=C1CCCCC1
REMARK SMILES IDX 5 1 4 2 3 3 2 4 1 5 7 6 6 7
REMARK H PARENT
REMARK Flexibility Score: inf
ROOT
ATOM      1  C   UNL     1      18.032  42.699   1.817  1.00  0.00     0.001 C 
ATOM      2  C   UNL     1      17.469  43.290   0.516  1.00  0.00     0.008 C 
ATOM      3  C   UNL     1      17.553  44.822   0.516  1.00  0.00     0.075 C 
ATOM      4  C   UNL     1      18.944  45.269   0.875  1.00  0.00     0.132 C 
ATOM      5  O   UNL     1      19.479  46.176   0.257  1.00  0.00    -0.300 OA
ATOM      6  C   UNL     1      19.629  44.654   2.064  1.00  0.00     0.075 C 
ATOM      7  C   UNL     1      19.492  43.126   2.027  1.00  0.00     0.008 C 
ENDROOT
TORSDOF 0
ENDMDL
MODEL 9
REMARK VINA RESULT:    -3.321     13.945     14.848
REMARK INTER + INTRA:          -3.321
REMARK INTER:                  -3.321
REMARK INTRA:                   0.000
REMARK UNBOUND:                 0.000
REMARK SMILES O=C1CCCCC1
REMARK SMILES IDX 5 1 4 2 3 3 2 4 1 5 7 6 6 7
REMARK H PARENT
REMARK Flexibility Score: inf
ROOT
ATOM      1  C   UNL     1      20.270  43.409   2.039  1.00  0.00     0.001 C 
ATOM      2  C   UNL     1      19.949  42.945   0.610  1.00  0.00     0.008 C 
ATOM      3  C   UNL     1      18.440  42.754   0.410  1.00  0.00     0.075 C 
ATOM      4  C   UNL     1      17.693  43.975   0.871  1.00  0.00     0.132 C 
ATOM      5  O   UNL     1      16.773  44.424   0.204  1.00  0.00    -0.300 OA
ATOM      6  C   UNL     1      18.026  44.578   2.208  1.00  0.00     0.075 C 
ATOM      7  C   UNL     1      19.545  44.723   2.364  1.00  0.00     0.008 C 
ENDROOT
TORSDOF 0
ENDMDL
