MODEL 1
REMARK VINA RESULT:    -6.261      0.000      0.000
REMARK INTER + INTRA:          -6.261
REMARK INTER:                  -6.261
REMARK INTRA:                   0.000
REMARK UNBOUND:                 0.000
REMARK SMILES CC(C)=C1CC[C@@H](C)CC1=O
REMARK SMILES IDX 8 1 7 2 6 3 5 4 4 5 2 6 1 7 3 8 10 9 11 10 9 11
REMARK H PARENT
REMARK Flexibility Score: inf
ROOT
ATOM      1  C   UNL     1     140.240 140.585 120.029  1.00  0.00     0.008 C 
ATOM      2  C   UNL     1     140.514 140.627 118.521  1.00  0.00    -0.006 C 
ATOM      3  C   UNL     1     141.906 140.054 118.209  1.00  0.00     0.008 C 
ATOM      4  C   UNL     1     142.157 139.995 116.697  1.00  0.00     0.039 C 
ATOM      5  C   UNL     1     141.906 141.330 116.009  1.00  0.00    -0.006 C 
ATOM      6  C   UNL     1     142.620 141.707 114.908  1.00  0.00    -0.070 C 
ATOM      7  C   UNL     1     142.419 143.054 114.252  1.00  0.00     0.039 C 
ATOM      8  C   UNL     1     143.678 140.805 114.313  1.00  0.00     0.039 C 
ATOM      9  C   UNL     1     140.767 142.136 116.540  1.00  0.00     0.159 C 
ATOM     10  O   UNL     1     140.084 142.881 115.786  1.00  0.00    -0.295 OA
ATOM     11  C   UNL     1     140.409 142.066 117.996  1.00  0.00     0.084 C 
ENDROOT
TORSDOF 0
ENDMDL
MODEL 2
REMARK VINA RESULT:    -6.134      8.565      9.598
REMARK INTER + INTRA:          -6.134
REMARK INTER:                  -6.134
REMARK INTRA:                   0.000
REMARK UNBOUND:                 0.000
REMARK SMILES CC(C)=C1CC[C@@H](C)CC1=O
REMARK SMILES IDX 8 1 7 2 6 3 5 4 4 5 2 6 1 7 3 8 10 9 11 10 9 11
REMARK H PARENT
REMARK Flexibility Score: inf
ROOT
ATOM      1  C   UNL     1     136.379 135.759 119.706  1.00  0.00     0.008 C 
ATOM      2  C   UNL     1     136.024 135.792 118.215  1.00  0.00    -0.006 C 
ATOM      3  C   UNL     1     134.616 136.373 118.008  1.00  0.00     0.008 C 
ATOM      4  C   UNL     1     134.284 136.508 116.516  1.00  0.00     0.039 C 
ATOM      5  C   UNL     1     134.499 135.210 115.749  1.00  0.00    -0.006 C 
ATOM      6  C   UNL     1     133.728 134.886 114.670  1.00  0.00    -0.070 C 
ATOM      7  C   UNL     1     133.896 133.576 113.936  1.00  0.00     0.039 C 
ATOM      8  C   UNL     1     132.638 135.812 114.180  1.00  0.00     0.039 C 
ATOM      9  C   UNL     1     135.667 134.384 116.176  1.00  0.00     0.159 C 
ATOM     10  O   UNL     1     136.310 133.681 115.350  1.00  0.00    -0.295 OA
ATOM     11  C   UNL     1     136.103 134.381 117.613  1.00  0.00     0.084 C 
ENDROOT
TORSDOF 0
ENDMDL
MODEL 3
REMARK VINA RESULT:    -5.607      8.602      9.432
REMARK INTER + INTRA:          -5.607
REMARK INTER:                  -5.607
REMARK INTRA:                   0.000
REMARK UNBOUND:                 0.000
REMARK SMILES CC(C)=C1CC[C@@H](C)CC1=O
REMARK SMILES IDX 8 1 7 2 6 3 5 4 4 5 2 6 1 7 3 8 10 9 11 10 9 11
REMARK H PARENT
REMARK Flexibility Score: inf
ROOT
ATOM      1  C   UNL     1     137.176 135.372 118.122  1.00  0.00     0.008 C 
ATOM      2  C   UNL     1     136.353 135.816 116.907  1.00  0.00    -0.006 C 
ATOM      3  C   UNL     1     134.849 135.736 117.214  1.00  0.00     0.008 C 
ATOM      4  C   UNL     1     134.013 136.274 116.047  1.00  0.00     0.039 C 
ATOM      5  C   UNL     1     134.374 135.621 114.719  1.00  0.00    -0.006 C 
ATOM      6  C   UNL     1     133.439 135.432 113.742  1.00  0.00    -0.070 C 
ATOM      7  C   UNL     1     133.773 134.735 112.444  1.00  0.00     0.039 C 
ATOM      8  C   UNL     1     132.008 135.881 113.931  1.00  0.00     0.039 C 
ATOM      9  C   UNL     1     135.820 135.311 114.514  1.00  0.00     0.159 C 
ATOM     10  O   UNL     1     136.343 135.353 113.367  1.00  0.00    -0.295 OA
ATOM     11  C   UNL     1     136.686 134.948 115.685  1.00  0.00     0.084 C 
ENDROOT
TORSDOF 0
ENDMDL
MODEL 4
REMARK VINA RESULT:    -5.541      8.821      9.400
REMARK INTER + INTRA:          -5.541
REMARK INTER:                  -5.541
REMARK INTRA:                   0.000
REMARK UNBOUND:                 0.000
REMARK SMILES CC(C)=C1CC[C@@H](C)CC1=O
REMARK SMILES IDX 8 1 7 2 6 3 5 4 4 5 2 6 1 7 3 8 10 9 11 10 9 11
REMARK H PARENT
REMARK Flexibility Score: inf
ROOT
ATOM      1  C   UNL     1     136.419 135.356 118.722  1.00  0.00     0.008 C 
ATOM      2  C   UNL     1     136.184 134.803 117.312  1.00  0.00    -0.006 C 
ATOM      3  C   UNL     1     136.910 135.662 116.265  1.00  0.00     0.008 C 
ATOM      4  C   UNL     1     136.769 135.064 114.860  1.00  0.00     0.039 C 
ATOM      5  C   UNL     1     135.320 134.787 114.485  1.00  0.00    -0.006 C 
ATOM      6  C   UNL     1     134.890 134.880 113.192  1.00  0.00    -0.070 C 
ATOM      7  C   UNL     1     133.442 134.662 112.817  1.00  0.00     0.039 C 
ATOM      8  C   UNL     1     135.841 135.245 112.075  1.00  0.00     0.039 C 
ATOM      9  C   UNL     1     134.440 134.300 115.588  1.00  0.00     0.159 C 
ATOM     10  O   UNL     1     133.488 133.503 115.365  1.00  0.00    -0.295 OA
ATOM     11  C   UNL     1     134.681 134.752 116.999  1.00  0.00     0.084 C 
ENDROOT
TORSDOF 0
ENDMDL
MODEL 5
REMARK VINA RESULT:    -5.532      1.883      2.388
REMARK INTER + INTRA:          -5.532
REMARK INTER:                  -5.532
REMARK INTRA:                   0.000
REMARK UNBOUND:                 0.000
REMARK SMILES CC(C)=C1CC[C@@H](C)CC1=O
REMARK SMILES IDX 8 1 7 2 6 3 5 4 4 5 2 6 1 7 3 8 10 9 11 10 9 11
REMARK H PARENT
REMARK Flexibility Score: inf
ROOT
ATOM      1  C   UNL     1     139.924 141.021 118.741  1.00  0.00     0.008 C 
ATOM      2  C   UNL     1     140.224 141.598 117.353  1.00  0.00    -0.006 C 
ATOM      3  C   UNL     1     139.525 140.771 116.261  1.00  0.00     0.008 C 
ATOM      4  C   UNL     1     139.730 141.394 114.875  1.00  0.00     0.039 C 
ATOM      5  C   UNL     1     141.197 141.654 114.562  1.00  0.00    -0.006 C 
ATOM      6  C   UNL     1     141.675 141.579 113.285  1.00  0.00    -0.070 C 
ATOM      7  C   UNL     1     143.140 141.779 112.970  1.00  0.00     0.039 C 
ATOM      8  C   UNL     1     140.763 141.252 112.125  1.00  0.00     0.039 C 
ATOM      9  C   UNL     1     142.042 142.104 115.708  1.00  0.00     0.159 C 
ATOM     10  O   UNL     1     143.014 142.889 115.537  1.00  0.00    -0.295 OA
ATOM     11  C   UNL     1     141.738 141.629 117.099  1.00  0.00     0.084 C 
ENDROOT
TORSDOF 0
ENDMDL
MODEL 6
REMARK VINA RESULT:    -5.464      8.823     10.077
REMARK INTER + INTRA:          -5.464
REMARK INTER:                  -5.464
REMARK INTRA:                   0.000
REMARK UNBOUND:                 0.000
REMARK SMILES CC(C)=C1CC[C@@H](C)CC1=O
REMARK SMILES IDX 8 1 7 2 6 3 5 4 4 5 2 6 1 7 3 8 10 9 11 10 9 11
REMARK H PARENT
REMARK Flexibility Score: inf
ROOT
ATOM      1  C   UNL     1     134.192 135.019 111.539  1.00  0.00     0.008 C 
ATOM      2  C   UNL     1     134.308 134.764 113.046  1.00  0.00    -0.006 C 
ATOM      3  C   UNL     1     133.762 135.961 113.841  1.00  0.00     0.008 C 
ATOM      4  C   UNL     1     133.776 135.681 115.349  1.00  0.00     0.039 C 
ATOM      5  C   UNL     1     135.141 135.223 115.846  1.00  0.00    -0.006 C 
ATOM      6  C   UNL     1     135.576 135.523 117.105  1.00  0.00    -0.070 C 
ATOM      7  C   UNL     1     136.951 135.122 117.589  1.00  0.00     0.039 C 
ATOM      8  C   UNL     1     134.712 136.306 118.067  1.00  0.00     0.039 C 
ATOM      9  C   UNL     1     135.912 134.340 114.921  1.00  0.00     0.159 C 
ATOM     10  O   UNL     1     136.687 133.448 115.361  1.00  0.00    -0.295 OA
ATOM     11  C   UNL     1     135.770 134.499 113.435  1.00  0.00     0.084 C 
ENDROOT
TORSDOF 0
ENDMDL
MODEL 7
REMARK VINA RESULT:    -5.443      2.000      4.550
REMARK INTER + INTRA:          -5.443
REMARK INTER:                  -5.443
REMARK INTRA:                   0.000
REMARK UNBOUND:                 0.000
REMARK SMILES CC(C)=C1CC[C@@H](C)CC1=O
REMARK SMILES IDX 8 1 7 2 6 3 5 4 4 5 2 6 1 7 3 8 10 9 11 10 9 11
REMARK H PARENT
REMARK Flexibility Score: inf
ROOT
ATOM      1  C   UNL     1     144.977 140.624 113.506  1.00  0.00     0.008 C 
ATOM      2  C   UNL     1     143.494 140.910 113.767  1.00  0.00    -0.006 C 
ATOM      3  C   UNL     1     143.217 142.421 113.712  1.00  0.00     0.008 C 
ATOM      4  C   UNL     1     141.721 142.719 113.869  1.00  0.00     0.039 C 
ATOM      5  C   UNL     1     141.120 142.059 115.104  1.00  0.00    -0.006 C 
ATOM      6  C   UNL     1     140.090 142.638 115.788  1.00  0.00    -0.070 C 
ATOM      7  C   UNL     1     139.524 142.021 117.046  1.00  0.00     0.039 C 
ATOM      8  C   UNL     1     139.490 143.950 115.338  1.00  0.00     0.039 C 
ATOM      9  C   UNL     1     141.646 140.703 115.442  1.00  0.00     0.159 C 
ATOM     10  O   UNL     1     140.912 139.833 115.985  1.00  0.00    -0.295 OA
ATOM     11  C   UNL     1     143.071 140.349 115.132  1.00  0.00     0.084 C 
ENDROOT
TORSDOF 0
ENDMDL
MODEL 8
REMARK VINA RESULT:    -5.408      8.530      9.546
REMARK INTER + INTRA:          -5.408
REMARK INTER:                  -5.408
REMARK INTRA:                   0.000
REMARK UNBOUND:                 0.000
REMARK SMILES CC(C)=C1CC[C@@H](C)CC1=O
REMARK SMILES IDX 8 1 7 2 6 3 5 4 4 5 2 6 1 7 3 8 10 9 11 10 9 11
REMARK H PARENT
REMARK Flexibility Score: inf
ROOT
ATOM      1  C   UNL     1     138.479 137.936 114.230  1.00  0.00     0.008 C 
ATOM      2  C   UNL     1     137.375 136.931 113.884  1.00  0.00    -0.006 C 
ATOM      3  C   UNL     1     136.025 137.648 113.715  1.00  0.00     0.008 C 
ATOM      4  C   UNL     1     134.929 136.673 113.268  1.00  0.00     0.039 C 
ATOM      5  C   UNL     1     134.832 135.449 114.170  1.00  0.00    -0.006 C 
ATOM      6  C   UNL     1     133.640 134.821 114.390  1.00  0.00    -0.070 C 
ATOM      7  C   UNL     1     133.523 133.641 115.327  1.00  0.00     0.039 C 
ATOM      8  C   UNL     1     132.368 135.304 113.732  1.00  0.00     0.039 C 
ATOM      9  C   UNL     1     136.126 134.920 114.697  1.00  0.00     0.159 C 
ATOM     10  O   UNL     1     136.291 133.689 114.911  1.00  0.00    -0.295 OA
ATOM     11  C   UNL     1     137.265 135.857 114.975  1.00  0.00     0.084 C 
ENDROOT
TORSDOF 0
ENDMDL
MODEL 9
REMARK VINA RESULT:    -5.396      1.509      4.271
REMARK INTER + INTRA:          -5.396
REMARK INTER:                  -5.396
REMARK INTRA:                   0.000
REMARK UNBOUND:                 0.000
REMARK SMILES CC(C)=C1CC[C@@H](C)CC1=O
REMARK SMILES IDX 8 1 7 2 6 3 5 4 4 5 2 6 1 7 3 8 10 9 11 10 9 11
REMARK H PARENT
REMARK Flexibility Score: inf
ROOT
ATOM      1  C   UNL     1     141.783 141.760 111.729  1.00  0.00     0.008 C 
ATOM      2  C   UNL     1     141.762 141.961 113.248  1.00  0.00    -0.006 C 
ATOM      3  C   UNL     1     142.388 140.752 113.962  1.00  0.00     0.008 C 
ATOM      4  C   UNL     1     142.469 140.980 115.477  1.00  0.00     0.039 C 
ATOM      5  C   UNL     1     141.130 141.386 116.079  1.00  0.00    -0.006 C 
ATOM      6  C   UNL     1     140.788 141.033 117.353  1.00  0.00    -0.070 C 
ATOM      7  C   UNL     1     139.440 141.383 117.941  1.00  0.00     0.039 C 
ATOM      8  C   UNL     1     141.733 140.240 118.226  1.00  0.00     0.039 C 
ATOM      9  C   UNL     1     140.279 142.280 115.239  1.00  0.00     0.159 C 
ATOM     10  O   UNL     1     139.515 143.138 115.761  1.00  0.00    -0.295 OA
ATOM     11  C   UNL     1     140.324 142.176 113.742  1.00  0.00     0.084 C 
ENDROOT
TORSDOF 0
ENDMDL
