MODEL 1
REMARK VINA RESULT:    -6.398      0.000      0.000
REMARK INTER + INTRA:         -12.777
REMARK INTER:                 -11.634
REMARK INTRA:                  -1.143
REMARK UNBOUND:                -1.143
REMARK SMILES CCCCCCCCCCCCCCCC(=O)[O-]
REMARK SMILES IDX 9 1 10 2 11 3 12 4 13 5 14 6 15 7 16 8 17 9 18 10 8 11 7 12
REMARK SMILES IDX 6 13 5 14 4 15 3 16 2 17 1 18
REMARK H PARENT
REMARK Flexibility Score: inf
ROOT
ATOM      1  C   UNL     1       3.170   9.652  16.773  1.00  0.00     0.000 C 
ENDROOT
BRANCH   1   2
ATOM      2  C   UNL     1       2.986  10.354  18.134  1.00  0.00     0.000 C 
BRANCH   2   3
ATOM      3  C   UNL     1       3.700  11.713  18.274  1.00  0.00     0.000 C 
BRANCH   3   4
ATOM      4  C   UNL     1       5.236  11.652  18.191  1.00  0.00     0.000 C 
BRANCH   4   5
ATOM      5  C   UNL     1       5.770  11.955  16.783  1.00  0.00     0.000 C 
BRANCH   5   6
ATOM      6  C   UNL     1       4.845  12.934  16.044  1.00  0.00     0.006 C 
BRANCH   6   7
ATOM      7  C   UNL     1       4.454  12.424  14.651  1.00  0.00     0.053 C 
BRANCH   7   8
ATOM      8  C   UNL     1       2.984  12.569  14.400  1.00  0.00     0.041 C 
ATOM      9  O   UNL     1       2.365  11.698  13.735  1.00  0.00    -0.550 OA
ATOM     10  O   UNL     1       2.293  13.652  14.930  1.00  0.00    -0.550 OA
ENDBRANCH   7   8
ENDBRANCH   6   7
ENDBRANCH   5   6
ENDBRANCH   4   5
ENDBRANCH   3   4
ENDBRANCH   2   3
ENDBRANCH   1   2
BRANCH   1  11
ATOM     11  C   UNL     1       2.813   8.155  16.762  1.00  0.00     0.000 C 
BRANCH  11  12
ATOM     12  C   UNL     1       2.084   7.705  18.042  1.00  0.00    -0.000 C 
BRANCH  12  13
ATOM     13  C   UNL     1       0.651   7.201  17.761  1.00  0.00    -0.000 C 
BRANCH  13  14
ATOM     14  C   UNL     1       0.244   5.979  18.605  1.00  0.00    -0.000 C 
BRANCH  14  15
ATOM     15  C   UNL     1       0.949   4.662  18.227  1.00  0.00    -0.000 C 
BRANCH  15  16
ATOM     16  C   UNL     1       1.894   4.092  19.305  1.00  0.00    -0.000 C 
BRANCH  16  17
ATOM     17  C   UNL     1       3.133   4.955  19.602  1.00  0.00    -0.003 C 
ATOM     18  C   UNL     1       3.120   5.553  21.008  1.00  0.00     0.004 C 
ENDBRANCH  16  17
ENDBRANCH  15  16
ENDBRANCH  14  15
ENDBRANCH  13  14
ENDBRANCH  12  13
ENDBRANCH  11  12
ENDBRANCH   1  11
TORSDOF 14
ENDMDL
MODEL 2
REMARK VINA RESULT:    -6.142      1.431      1.851
REMARK INTER + INTRA:         -12.313
REMARK INTER:                 -10.833
REMARK INTRA:                  -1.480
REMARK UNBOUND:                -1.143
REMARK SMILES CCCCCCCCCCCCCCCC(=O)[O-]
REMARK SMILES IDX 9 1 10 2 11 3 12 4 13 5 14 6 15 7 16 8 17 9 18 10 8 11 7 12
REMARK SMILES IDX 6 13 5 14 4 15 3 16 2 17 1 18
REMARK H PARENT
REMARK Flexibility Score: inf
ROOT
ATOM      1  C   UNL     1       2.735   9.906  18.034  1.00  0.00     0.000 C 
ENDROOT
BRANCH   1   2
ATOM      2  C   UNL     1       3.435  11.267  17.845  1.00  0.00     0.000 C 
BRANCH   2   3
ATOM      3  C   UNL     1       4.877  11.195  17.305  1.00  0.00     0.000 C 
BRANCH   3   4
ATOM      4  C   UNL     1       5.254  12.304  16.306  1.00  0.00     0.000 C 
BRANCH   4   5
ATOM      5  C   UNL     1       4.028  13.003  15.700  1.00  0.00     0.000 C 
BRANCH   5   6
ATOM      6  C   UNL     1       3.816  12.573  14.242  1.00  0.00     0.006 C 
BRANCH   6   7
ATOM      7  C   UNL     1       2.799  11.431  14.115  1.00  0.00     0.053 C 
BRANCH   7   8
ATOM      8  C   UNL     1       3.426  10.189  13.560  1.00  0.00     0.041 C 
ATOM      9  O   UNL     1       2.776   9.442  12.783  1.00  0.00    -0.550 OA
ATOM     10  O   UNL     1       4.743   9.875  13.877  1.00  0.00    -0.550 OA
ENDBRANCH   7   8
ENDBRANCH   6   7
ENDBRANCH   5   6
ENDBRANCH   4   5
ENDBRANCH   3   4
ENDBRANCH   2   3
ENDBRANCH   1   2
BRANCH   1  11
ATOM     11  C   UNL     1       2.926   8.911  16.875  1.00  0.00     0.000 C 
BRANCH  11  12
ATOM     12  C   UNL     1       2.549   7.469  17.258  1.00  0.00    -0.000 C 
BRANCH  12  13
ATOM     13  C   UNL     1       1.191   7.386  17.990  1.00  0.00    -0.000 C 
BRANCH  13  14
ATOM     14  C   UNL     1       0.435   6.064  17.753  1.00  0.00    -0.000 C 
BRANCH  14  15
ATOM     15  C   UNL     1       1.272   4.788  17.965  1.00  0.00    -0.000 C 
BRANCH  15  16
ATOM     16  C   UNL     1       1.293   4.252  19.411  1.00  0.00    -0.000 C 
BRANCH  16  17
ATOM     17  C   UNL     1       2.672   4.275  20.093  1.00  0.00    -0.003 C 
ATOM     18  C   UNL     1       3.046   5.653  20.635  1.00  0.00     0.004 C 
ENDBRANCH  16  17
ENDBRANCH  15  16
ENDBRANCH  14  15
ENDBRANCH  13  14
ENDBRANCH  12  13
ENDBRANCH  11  12
ENDBRANCH   1  11
TORSDOF 14
ENDMDL
MODEL 3
REMARK VINA RESULT:    -6.024      3.172      7.735
REMARK INTER + INTRA:         -12.097
REMARK INTER:                 -10.655
REMARK INTRA:                  -1.442
REMARK UNBOUND:                -1.143
REMARK SMILES CCCCCCCCCCCCCCCC(=O)[O-]
REMARK SMILES IDX 9 1 10 2 11 3 12 4 13 5 14 6 15 7 16 8 17 9 18 10 8 11 7 12
REMARK SMILES IDX 6 13 5 14 4 15 3 16 2 17 1 18
REMARK H PARENT
REMARK Flexibility Score: inf
ROOT
ATOM      1  C   UNL     1       3.317   9.267  16.985  1.00  0.00     0.000 C 
ENDROOT
BRANCH   1   2
ATOM      2  C   UNL     1       2.710   7.849  16.967  1.00  0.00     0.000 C 
BRANCH   2   3
ATOM      3  C   UNL     1       1.491   7.644  17.889  1.00  0.00     0.000 C 
BRANCH   3   4
ATOM      4  C   UNL     1       0.476   6.595  17.400  1.00  0.00     0.000 C 
BRANCH   4   5
ATOM      5  C   UNL     1       0.185   5.513  18.450  1.00  0.00     0.000 C 
BRANCH   5   6
ATOM      6  C   UNL     1       1.243   4.402  18.402  1.00  0.00     0.006 C 
BRANCH   6   7
ATOM      7  C   UNL     1       1.860   4.127  19.779  1.00  0.00     0.053 C 
BRANCH   7   8
ATOM      8  C   UNL     1       3.028   5.025  20.053  1.00  0.00     0.041 C 
ATOM      9  O   UNL     1       3.789   5.380  19.116  1.00  0.00    -0.550 OA
ATOM     10  O   UNL     1       3.254   5.496  21.341  1.00  0.00    -0.550 OA
ENDBRANCH   7   8
ENDBRANCH   6   7
ENDBRANCH   5   6
ENDBRANCH   4   5
ENDBRANCH   3   4
ENDBRANCH   2   3
ENDBRANCH   1   2
BRANCH   1  11
ATOM     11  C   UNL     1       2.761  10.196  18.079  1.00  0.00     0.000 C 
BRANCH  11  12
ATOM     12  C   UNL     1       3.532  11.525  18.182  1.00  0.00    -0.000 C 
BRANCH  12  13
ATOM     13  C   UNL     1       4.954  11.432  17.585  1.00  0.00    -0.000 C 
BRANCH  13  14
ATOM     14  C   UNL     1       5.164  12.306  16.335  1.00  0.00    -0.000 C 
BRANCH  14  15
ATOM     15  C   UNL     1       3.883  12.944  15.764  1.00  0.00    -0.000 C 
BRANCH  15  16
ATOM     16  C   UNL     1       3.613  12.651  14.274  1.00  0.00    -0.000 C 
BRANCH  16  17
ATOM     17  C   UNL     1       2.794  11.377  14.001  1.00  0.00    -0.003 C 
ATOM     18  C   UNL     1       3.666  10.169  13.659  1.00  0.00     0.004 C 
ENDBRANCH  16  17
ENDBRANCH  15  16
ENDBRANCH  14  15
ENDBRANCH  13  14
ENDBRANCH  12  13
ENDBRANCH  11  12
ENDBRANCH   1  11
TORSDOF 14
ENDMDL
MODEL 4
REMARK VINA RESULT:    -5.856      3.153      7.834
REMARK INTER + INTRA:         -11.792
REMARK INTER:                 -10.551
REMARK INTRA:                  -1.241
REMARK UNBOUND:                -1.143
REMARK SMILES CCCCCCCCCCCCCCCC(=O)[O-]
REMARK SMILES IDX 9 1 10 2 11 3 12 4 13 5 14 6 15 7 16 8 17 9 18 10 8 11 7 12
REMARK SMILES IDX 6 13 5 14 4 15 3 16 2 17 1 18
REMARK H PARENT
REMARK Flexibility Score: inf
ROOT
ATOM      1  C   UNL     1       2.778   8.124  16.827  1.00  0.00     0.000 C 
ENDROOT
BRANCH   1   2
ATOM      2  C   UNL     1       2.007   7.752  18.110  1.00  0.00     0.000 C 
BRANCH   2   3
ATOM      3  C   UNL     1       0.537   7.340  17.896  1.00  0.00     0.000 C 
BRANCH   3   4
ATOM      4  C   UNL     1       0.114   6.046  18.615  1.00  0.00     0.000 C 
BRANCH   4   5
ATOM      5  C   UNL     1       0.430   4.782  17.803  1.00  0.00     0.000 C 
BRANCH   5   6
ATOM      6  C   UNL     1       1.624   4.026  18.406  1.00  0.00     0.006 C 
BRANCH   6   7
ATOM      7  C   UNL     1       1.793   4.308  19.905  1.00  0.00     0.053 C 
BRANCH   7   8
ATOM      8  C   UNL     1       3.063   5.048  20.191  1.00  0.00     0.041 C 
ATOM      9  O   UNL     1       3.892   5.266  19.269  1.00  0.00    -0.550 OA
ATOM     10  O   UNL     1       3.316   5.526  21.471  1.00  0.00    -0.550 OA
ENDBRANCH   7   8
ENDBRANCH   6   7
ENDBRANCH   5   6
ENDBRANCH   4   5
ENDBRANCH   3   4
ENDBRANCH   2   3
ENDBRANCH   1   2
BRANCH   1  11
ATOM     11  C   UNL     1       3.263   9.584  16.762  1.00  0.00     0.000 C 
BRANCH  11  12
ATOM     12  C   UNL     1       2.958  10.372  18.048  1.00  0.00    -0.000 C 
BRANCH  12  13
ATOM     13  C   UNL     1       3.863  11.614  18.211  1.00  0.00    -0.000 C 
BRANCH  13  14
ATOM     14  C   UNL     1       5.192  11.522  17.437  1.00  0.00    -0.000 C 
BRANCH  14  15
ATOM     15  C   UNL     1       5.342  12.526  16.279  1.00  0.00    -0.000 C 
BRANCH  15  16
ATOM     16  C   UNL     1       4.016  13.044  15.685  1.00  0.00    -0.000 C 
BRANCH  16  17
ATOM     17  C   UNL     1       3.777  12.675  14.210  1.00  0.00    -0.003 C 
ATOM     18  C   UNL     1       2.568  11.762  14.013  1.00  0.00     0.004 C 
ENDBRANCH  16  17
ENDBRANCH  15  16
ENDBRANCH  14  15
ENDBRANCH  13  14
ENDBRANCH  12  13
ENDBRANCH  11  12
ENDBRANCH   1  11
TORSDOF 14
ENDMDL
MODEL 5
REMARK VINA RESULT:    -5.782      1.987      2.938
REMARK INTER + INTRA:         -11.658
REMARK INTER:                 -10.182
REMARK INTRA:                  -1.476
REMARK UNBOUND:                -1.143
REMARK SMILES CCCCCCCCCCCCCCCC(=O)[O-]
REMARK SMILES IDX 9 1 10 2 11 3 12 4 13 5 14 6 15 7 16 8 17 9 18 10 8 11 7 12
REMARK SMILES IDX 6 13 5 14 4 15 3 16 2 17 1 18
REMARK H PARENT
REMARK Flexibility Score: inf
ROOT
ATOM      1  C   UNL     1       3.111   9.085  16.067  1.00  0.00     0.000 C 
ENDROOT
BRANCH   1   2
ATOM      2  C   UNL     1       3.492   8.798  14.601  1.00  0.00     0.000 C 
BRANCH   2   3
ATOM      3  C   UNL     1       3.768  10.044  13.737  1.00  0.00     0.000 C 
BRANCH   3   4
ATOM      4  C   UNL     1       3.144  11.350  14.262  1.00  0.00     0.000 C 
BRANCH   4   5
ATOM      5  C   UNL     1       4.195  12.397  14.657  1.00  0.00     0.000 C 
BRANCH   5   6
ATOM      6  C   UNL     1       4.111  12.722  16.155  1.00  0.00     0.006 C 
BRANCH   6   7
ATOM      7  C   UNL     1       5.071  11.864  16.990  1.00  0.00     0.053 C 
BRANCH   7   8
ATOM      8  C   UNL     1       4.584  11.698  18.397  1.00  0.00     0.041 C 
ATOM      9  O   UNL     1       5.378  11.837  19.364  1.00  0.00    -0.550 OA
ATOM     10  O   UNL     1       3.244  11.420  18.641  1.00  0.00    -0.550 OA
ENDBRANCH   7   8
ENDBRANCH   6   7
ENDBRANCH   5   6
ENDBRANCH   4   5
ENDBRANCH   3   4
ENDBRANCH   2   3
ENDBRANCH   1   2
BRANCH   1  11
ATOM     11  C   UNL     1       2.768   7.840  16.905  1.00  0.00     0.000 C 
BRANCH  11  12
ATOM     12  C   UNL     1       1.791   8.143  18.054  1.00  0.00    -0.000 C 
BRANCH  12  13
ATOM     13  C   UNL     1       0.526   7.258  18.005  1.00  0.00    -0.000 C 
BRANCH  13  14
ATOM     14  C   UNL     1       0.802   5.798  17.599  1.00  0.00    -0.000 C 
BRANCH  14  15
ATOM     15  C   UNL     1       0.728   4.776  18.750  1.00  0.00    -0.000 C 
BRANCH  15  16
ATOM     16  C   UNL     1       2.052   4.052  19.069  1.00  0.00    -0.000 C 
BRANCH  16  17
ATOM     17  C   UNL     1       3.217   4.975  19.466  1.00  0.00    -0.003 C 
ATOM     18  C   UNL     1       2.956   5.742  20.761  1.00  0.00     0.004 C 
ENDBRANCH  16  17
ENDBRANCH  15  16
ENDBRANCH  14  15
ENDBRANCH  13  14
ENDBRANCH  12  13
ENDBRANCH  11  12
ENDBRANCH   1  11
TORSDOF 14
ENDMDL
MODEL 6
REMARK VINA RESULT:    -5.667      3.170      7.464
REMARK INTER + INTRA:         -11.449
REMARK INTER:                 -10.087
REMARK INTRA:                  -1.361
REMARK UNBOUND:                -1.143
REMARK SMILES CCCCCCCCCCCCCCCC(=O)[O-]
REMARK SMILES IDX 9 1 10 2 11 3 12 4 13 5 14 6 15 7 16 8 17 9 18 10 8 11 7 12
REMARK SMILES IDX 6 13 5 14 4 15 3 16 2 17 1 18
REMARK H PARENT
REMARK Flexibility Score: inf
ROOT
ATOM      1  C   UNL     1       3.078   9.121  16.530  1.00  0.00     0.000 C 
ENDROOT
BRANCH   1   2
ATOM      2  C   UNL     1       2.769   7.684  16.996  1.00  0.00     0.000 C 
BRANCH   2   3
ATOM      3  C   UNL     1       1.612   7.555  18.007  1.00  0.00     0.000 C 
BRANCH   3   4
ATOM      4  C   UNL     1       0.410   6.727  17.518  1.00  0.00     0.000 C 
BRANCH   4   5
ATOM      5  C   UNL     1       0.130   5.504  18.403  1.00  0.00     0.000 C 
BRANCH   5   6
ATOM      6  C   UNL     1       1.292   4.503  18.341  1.00  0.00     0.006 C 
BRANCH   6   7
ATOM      7  C   UNL     1       1.866   4.191  19.729  1.00  0.00     0.053 C 
BRANCH   7   8
ATOM      8  C   UNL     1       3.053   5.049  20.044  1.00  0.00     0.041 C 
ATOM      9  O   UNL     1       3.926   5.271  19.166  1.00  0.00    -0.550 OA
ATOM     10  O   UNL     1       3.176   5.630  21.301  1.00  0.00    -0.550 OA
ENDBRANCH   7   8
ENDBRANCH   6   7
ENDBRANCH   5   6
ENDBRANCH   4   5
ENDBRANCH   3   4
ENDBRANCH   2   3
ENDBRANCH   1   2
BRANCH   1  11
ATOM     11  C   UNL     1       3.361   9.268  15.024  1.00  0.00     0.000 C 
BRANCH  11  12
ATOM     12  C   UNL     1       4.066  10.592  14.676  1.00  0.00    -0.000 C 
BRANCH  12  13
ATOM     13  C   UNL     1       3.076  11.689  14.224  1.00  0.00    -0.000 C 
BRANCH  13  14
ATOM     14  C   UNL     1       3.174  12.991  15.042  1.00  0.00    -0.000 C 
BRANCH  14  15
ATOM     15  C   UNL     1       4.001  12.886  16.337  1.00  0.00    -0.000 C 
BRANCH  15  16
ATOM     16  C   UNL     1       3.178  12.682  17.626  1.00  0.00    -0.000 C 
BRANCH  16  17
ATOM     17  C   UNL     1       3.850  11.801  18.693  1.00  0.00    -0.003 C 
ATOM     18  C   UNL     1       5.332  11.554  18.416  1.00  0.00     0.004 C 
ENDBRANCH  16  17
ENDBRANCH  15  16
ENDBRANCH  14  15
ENDBRANCH  13  14
ENDBRANCH  12  13
ENDBRANCH  11  12
ENDBRANCH   1  11
TORSDOF 14
ENDMDL
MODEL 7
REMARK VINA RESULT:    -5.609      2.187      3.158
REMARK INTER + INTRA:         -11.342
REMARK INTER:                 -10.037
REMARK INTRA:                  -1.305
REMARK UNBOUND:                -1.143
REMARK SMILES CCCCCCCCCCCCCCCC(=O)[O-]
REMARK SMILES IDX 9 1 10 2 11 3 12 4 13 5 14 6 15 7 16 8 17 9 18 10 8 11 7 12
REMARK SMILES IDX 6 13 5 14 4 15 3 16 2 17 1 18
REMARK H PARENT
REMARK Flexibility Score: inf
ROOT
ATOM      1  C   UNL     1       2.778   7.150  16.881  1.00  0.00     0.000 C 
ENDROOT
BRANCH   1   2
ATOM      2  C   UNL     1       2.246   8.369  17.661  1.00  0.00     0.000 C 
BRANCH   2   3
ATOM      3  C   UNL     1       2.757   9.738  17.169  1.00  0.00     0.000 C 
BRANCH   3   4
ATOM      4  C   UNL     1       3.662   9.685  15.925  1.00  0.00     0.000 C 
BRANCH   4   5
ATOM      5  C   UNL     1       4.056  11.079  15.414  1.00  0.00     0.000 C 
BRANCH   5   6
ATOM      6  C   UNL     1       4.243  12.058  16.582  1.00  0.00     0.006 C 
BRANCH   6   7
ATOM      7  C   UNL     1       5.638  11.950  17.213  1.00  0.00     0.053 C 
BRANCH   7   8
ATOM      8  C   UNL     1       5.561  11.726  18.692  1.00  0.00     0.041 C 
ATOM      9  O   UNL     1       6.595  11.423  19.343  1.00  0.00    -0.550 OA
ATOM     10  O   UNL     1       4.351  11.885  19.357  1.00  0.00    -0.550 OA
ENDBRANCH   7   8
ENDBRANCH   6   7
ENDBRANCH   5   6
ENDBRANCH   4   5
ENDBRANCH   3   4
ENDBRANCH   2   3
ENDBRANCH   1   2
BRANCH   1  11
ATOM     11  C   UNL     1       1.787   5.979  16.753  1.00  0.00     0.000 C 
BRANCH  11  12
ATOM     12  C   UNL     1       0.494   6.200  17.558  1.00  0.00    -0.000 C 
BRANCH  12  13
ATOM     13  C   UNL     1       0.366   5.227  18.751  1.00  0.00    -0.000 C 
BRANCH  13  14
ATOM     14  C   UNL     1       1.255   3.975  18.633  1.00  0.00    -0.000 C 
BRANCH  14  15
ATOM     15  C   UNL     1       2.384   3.877  19.676  1.00  0.00    -0.000 C 
BRANCH  15  16
ATOM     16  C   UNL     1       3.318   5.103  19.748  1.00  0.00    -0.000 C 
BRANCH  16  17
ATOM     17  C   UNL     1       3.054   6.052  20.930  1.00  0.00    -0.003 C 
ATOM     18  C   UNL     1       3.468   5.458  22.275  1.00  0.00     0.004 C 
ENDBRANCH  16  17
ENDBRANCH  15  16
ENDBRANCH  14  15
ENDBRANCH  13  14
ENDBRANCH  12  13
ENDBRANCH  11  12
ENDBRANCH   1  11
TORSDOF 14
ENDMDL
MODEL 8
REMARK VINA RESULT:    -5.390      3.307      7.149
REMARK INTER + INTRA:         -10.946
REMARK INTER:                  -9.248
REMARK INTRA:                  -1.697
REMARK UNBOUND:                -1.143
REMARK SMILES CCCCCCCCCCCCCCCC(=O)[O-]
REMARK SMILES IDX 9 1 10 2 11 3 12 4 13 5 14 6 15 7 16 8 17 9 18 10 8 11 7 12
REMARK SMILES IDX 6 13 5 14 4 15 3 16 2 17 1 18
REMARK H PARENT
REMARK Flexibility Score: inf
ROOT
ATOM      1  C   UNL     1       3.740  11.865  18.210  1.00  0.00     0.000 C 
ENDROOT
BRANCH   1   2
ATOM      2  C   UNL     1       2.793  10.655  18.347  1.00  0.00     0.000 C 
BRANCH   2   3
ATOM      3  C   UNL     1       3.090   9.478  17.398  1.00  0.00     0.000 C 
BRANCH   3   4
ATOM      4  C   UNL     1       2.071   8.325  17.452  1.00  0.00     0.000 C 
BRANCH   4   5
ATOM      5  C   UNL     1       2.677   6.973  17.050  1.00  0.00     0.000 C 
BRANCH   5   6
ATOM      6  C   UNL     1       3.114   6.178  18.289  1.00  0.00     0.006 C 
BRANCH   6   7
ATOM      7  C   UNL     1       1.919   5.682  19.113  1.00  0.00     0.053 C 
BRANCH   7   8
ATOM      8  C   UNL     1       1.182   4.580  18.415  1.00  0.00     0.041 C 
ATOM      9  O   UNL     1       0.132   4.830  17.767  1.00  0.00    -0.550 OA
ATOM     10  O   UNL     1       1.676   3.282  18.453  1.00  0.00    -0.550 OA
ENDBRANCH   7   8
ENDBRANCH   6   7
ENDBRANCH   5   6
ENDBRANCH   4   5
ENDBRANCH   3   4
ENDBRANCH   2   3
ENDBRANCH   1   2
BRANCH   1  11
ATOM     11  C   UNL     1       5.210  11.510  17.928  1.00  0.00     0.000 C 
BRANCH  11  12
ATOM     12  C   UNL     1       5.715  12.074  16.587  1.00  0.00    -0.000 C 
BRANCH  12  13
ATOM     13  C   UNL     1       4.702  13.041  15.933  1.00  0.00    -0.000 C 
BRANCH  13  14
ATOM     14  C   UNL     1       4.267  12.623  14.517  1.00  0.00    -0.000 C 
BRANCH  14  15
ATOM     15  C   UNL     1       2.936  11.849  14.446  1.00  0.00    -0.000 C 
BRANCH  15  16
ATOM     16  C   UNL     1       2.918  10.669  13.452  1.00  0.00    -0.000 C 
BRANCH  16  17
ATOM     17  C   UNL     1       3.918   9.542  13.763  1.00  0.00    -0.003 C 
ATOM     18  C   UNL     1       3.395   8.158  13.381  1.00  0.00     0.004 C 
ENDBRANCH  16  17
ENDBRANCH  15  16
ENDBRANCH  14  15
ENDBRANCH  13  14
ENDBRANCH  12  13
ENDBRANCH  11  12
ENDBRANCH   1  11
TORSDOF 14
ENDMDL
MODEL 9
REMARK VINA RESULT:    -5.161      1.195      2.059
REMARK INTER + INTRA:         -10.528
REMARK INTER:                  -9.688
REMARK INTRA:                  -0.839
REMARK UNBOUND:                -1.143
REMARK SMILES CCCCCCCCCCCCCCCC(=O)[O-]
REMARK SMILES IDX 9 1 10 2 11 3 12 4 13 5 14 6 15 7 16 8 17 9 18 10 8 11 7 12
REMARK SMILES IDX 6 13 5 14 4 15 3 16 2 17 1 18
REMARK H PARENT
REMARK Flexibility Score: inf
ROOT
ATOM      1  C   UNL     1       2.755   7.510  16.904  1.00  0.00     0.000 C 
ENDROOT
BRANCH   1   2
ATOM      2  C   UNL     1       2.485   8.464  18.085  1.00  0.00     0.000 C 
BRANCH   2   3
ATOM      3  C   UNL     1       2.505   9.965  17.736  1.00  0.00     0.000 C 
BRANCH   3   4
ATOM      4  C   UNL     1       3.880  10.516  17.314  1.00  0.00     0.000 C 
BRANCH   4   5
ATOM      5  C   UNL     1       3.925  12.050  17.290  1.00  0.00     0.000 C 
BRANCH   5   6
ATOM      6  C   UNL     1       4.078  12.573  15.855  1.00  0.00     0.006 C 
BRANCH   6   7
ATOM      7  C   UNL     1       4.543  11.479  14.884  1.00  0.00     0.053 C 
BRANCH   7   8
ATOM      8  C   UNL     1       3.403  10.927  14.084  1.00  0.00     0.041 C 
ATOM      9  O   UNL     1       3.432   9.737  13.674  1.00  0.00    -0.550 OA
ATOM     10  O   UNL     1       2.292  11.719  13.820  1.00  0.00    -0.550 OA
ENDBRANCH   7   8
ENDBRANCH   6   7
ENDBRANCH   5   6
ENDBRANCH   4   5
ENDBRANCH   3   4
ENDBRANCH   2   3
ENDBRANCH   1   2
BRANCH   1  11
ATOM     11  C   UNL     1       1.992   6.174  16.962  1.00  0.00     0.000 C 
BRANCH  11  12
ATOM     12  C   UNL     1       0.736   6.241  17.850  1.00  0.00    -0.000 C 
BRANCH  12  13
ATOM     13  C   UNL     1       0.570   4.987  18.736  1.00  0.00    -0.000 C 
BRANCH  13  14
ATOM     14  C   UNL     1       1.745   3.995  18.640  1.00  0.00    -0.000 C 
BRANCH  14  15
ATOM     15  C   UNL     1       2.820   4.152  19.732  1.00  0.00    -0.000 C 
BRANCH  15  16
ATOM     16  C   UNL     1       2.770   5.481  20.514  1.00  0.00    -0.000 C 
BRANCH  16  17
ATOM     17  C   UNL     1       3.501   5.464  21.868  1.00  0.00    -0.003 C 
ATOM     18  C   UNL     1       3.027   6.566  22.815  1.00  0.00     0.004 C 
ENDBRANCH  16  17
ENDBRANCH  15  16
ENDBRANCH  14  15
ENDBRANCH  13  14
ENDBRANCH  12  13
ENDBRANCH  11  12
ENDBRANCH   1  11
TORSDOF 14
ENDMDL
