MODEL 1
REMARK VINA RESULT:    -4.508      0.000      0.000
REMARK INTER + INTRA:         -16.940
REMARK INTER:                 -11.886
REMARK INTRA:                  -5.054
REMARK UNBOUND:                -5.054
REMARK SMILES CCCCCCCCCCCCCCCCCCCCCCCCCCCCCC(=O)[O-]
REMARK SMILES IDX 16 1 17 2 18 3 19 4 20 5 21 6 22 7 23 8 24 9 25 10 26 11
REMARK SMILES IDX 27 12 28 13 29 14 30 15 31 16 32 17 15 18 14 19 13 20 12 21
REMARK SMILES IDX 11 22 10 23 9 24 8 25 7 26 6 27 5 28 4 29 3 30 2 31 1 32
REMARK H PARENT
REMARK Flexibility Score: inf
ROOT
ATOM      1  C   UNL     1     -43.351 -33.601  39.973  1.00  0.00     0.000 C 
ENDROOT
BRANCH   1   2
ATOM      2  C   UNL     1     -44.315 -32.887  39.017  1.00  0.00     0.000 C 
BRANCH   2   3
ATOM      3  C   UNL     1     -45.721 -32.791  39.628  1.00  0.00     0.000 C 
BRANCH   3   4
ATOM      4  C   UNL     1     -46.828 -32.794  38.563  1.00  0.00     0.000 C 
BRANCH   4   5
ATOM      5  C   UNL     1     -46.271 -32.710  37.131  1.00  0.00     0.000 C 
BRANCH   5   6
ATOM      6  C   UNL     1     -46.630 -31.386  36.435  1.00  0.00     0.000 C 
BRANCH   6   7
ATOM      7  C   UNL     1     -47.247 -30.362  37.403  1.00  0.00     0.000 C 
BRANCH   7   8
ATOM      8  C   UNL     1     -46.273 -29.226  37.770  1.00  0.00     0.000 C 
BRANCH   8   9
ATOM      9  C   UNL     1     -44.875 -29.329  37.127  1.00  0.00     0.000 C 
BRANCH   9  10
ATOM     10  C   UNL     1     -43.699 -29.359  38.124  1.00  0.00     0.000 C 
BRANCH  10  11
ATOM     11  C   UNL     1     -44.103 -29.293  39.610  1.00  0.00     0.000 C 
BRANCH  11  12
ATOM     12  C   UNL     1     -43.178 -28.443  40.502  1.00  0.00     0.000 C 
BRANCH  12  13
ATOM     13  C   UNL     1     -41.886 -29.144  40.963  1.00  0.00     0.006 C 
BRANCH  13  14
ATOM     14  C   UNL     1     -40.642 -28.772  40.133  1.00  0.00     0.053 C 
BRANCH  14  15
ATOM     15  C   UNL     1     -39.746 -27.802  40.843  1.00  0.00     0.041 C 
ATOM     16  O   UNL     1     -38.532 -28.081  41.030  1.00  0.00    -0.550 OA
ATOM     17  O   UNL     1     -40.242 -26.580  41.277  1.00  0.00    -0.550 OA
ENDBRANCH  14  15
ENDBRANCH  13  14
ENDBRANCH  12  13
ENDBRANCH  11  12
ENDBRANCH  10  11
ENDBRANCH   9  10
ENDBRANCH   8   9
ENDBRANCH   7   8
ENDBRANCH   6   7
ENDBRANCH   5   6
ENDBRANCH   4   5
ENDBRANCH   3   4
ENDBRANCH   2   3
ENDBRANCH   1   2
BRANCH   1  18
ATOM     18  C   UNL     1     -42.029 -32.831  40.102  1.00  0.00     0.000 C 
BRANCH  18  19
ATOM     19  C   UNL     1     -41.509 -32.300  38.756  1.00  0.00     0.000 C 
BRANCH  19  20
ATOM     20  C   UNL     1     -40.146 -32.889  38.336  1.00  0.00     0.000 C 
BRANCH  20  21
ATOM     21  C   UNL     1     -39.750 -34.111  39.186  1.00  0.00     0.000 C 
BRANCH  21  22
ATOM     22  C   UNL     1     -40.089 -35.443  38.501  1.00  0.00     0.000 C 
BRANCH  22  23
ATOM     23  C   UNL     1     -39.675 -35.477  37.022  1.00  0.00     0.000 C 
BRANCH  23  24
ATOM     24  C   UNL     1     -40.817 -36.009  36.148  1.00  0.00    -0.000 C 
BRANCH  24  25
ATOM     25  C   UNL     1     -42.162 -35.388  36.555  1.00  0.00    -0.000 C 
BRANCH  25  26
ATOM     26  C   UNL     1     -43.344 -36.341  36.318  1.00  0.00    -0.000 C 
BRANCH  26  27
ATOM     27  C   UNL     1     -44.694 -35.719  36.719  1.00  0.00    -0.000 C 
BRANCH  27  28
ATOM     28  C   UNL     1     -45.707 -36.768  37.209  1.00  0.00    -0.000 C 
BRANCH  28  29
ATOM     29  C   UNL     1     -45.992 -36.652  38.716  1.00  0.00    -0.000 C 
BRANCH  29  30
ATOM     30  C   UNL     1     -47.482 -36.429  39.022  1.00  0.00    -0.000 C 
BRANCH  30  31
ATOM     31  C   UNL     1     -47.915 -37.060  40.354  1.00  0.00    -0.003 C 
ATOM     32  C   UNL     1     -48.635 -38.385  40.125  1.00  0.00     0.004 C 
ENDBRANCH  30  31
ENDBRANCH  29  30
ENDBRANCH  28  29
ENDBRANCH  27  28
ENDBRANCH  26  27
ENDBRANCH  25  26
ENDBRANCH  24  25
ENDBRANCH  23  24
ENDBRANCH  22  23
ENDBRANCH  21  22
ENDBRANCH  20  21
ENDBRANCH  19  20
ENDBRANCH  18  19
ENDBRANCH   1  18
TORSDOF 28
ENDMDL
MODEL 2
REMARK VINA RESULT:    -4.435      3.196      5.976
REMARK INTER + INTRA:         -16.748
REMARK INTER:                 -11.049
REMARK INTRA:                  -5.699
REMARK UNBOUND:                -5.054
REMARK SMILES CCCCCCCCCCCCCCCCCCCCCCCCCCCCCC(=O)[O-]
REMARK SMILES IDX 16 1 17 2 18 3 19 4 20 5 21 6 22 7 23 8 24 9 25 10 26 11
REMARK SMILES IDX 27 12 28 13 29 14 30 15 31 16 32 17 15 18 14 19 13 20 12 21
REMARK SMILES IDX 11 22 10 23 9 24 8 25 7 26 6 27 5 28 4 29 3 30 2 31 1 32
REMARK H PARENT
REMARK Flexibility Score: inf
ROOT
ATOM      1  C   UNL     1     -40.321 -35.507  36.922  1.00  0.00     0.000 C 
ENDROOT
BRANCH   1   2
ATOM      2  C   UNL     1     -40.402 -34.141  37.616  1.00  0.00     0.000 C 
BRANCH   2   3
ATOM      3  C   UNL     1     -40.587 -34.307  39.132  1.00  0.00     0.000 C 
BRANCH   3   4
ATOM      4  C   UNL     1     -41.454 -33.197  39.746  1.00  0.00     0.000 C 
BRANCH   4   5
ATOM      5  C   UNL     1     -41.914 -32.161  38.703  1.00  0.00     0.000 C 
BRANCH   5   6
ATOM      6  C   UNL     1     -41.589 -30.717  39.123  1.00  0.00     0.000 C 
BRANCH   6   7
ATOM      7  C   UNL     1     -42.415 -30.258  40.336  1.00  0.00     0.000 C 
BRANCH   7   8
ATOM      8  C   UNL     1     -43.578 -29.326  39.948  1.00  0.00     0.000 C 
BRANCH   8   9
ATOM      9  C   UNL     1     -43.432 -28.633  38.578  1.00  0.00     0.000 C 
BRANCH   9  10
ATOM     10  C   UNL     1     -44.525 -28.982  37.550  1.00  0.00     0.000 C 
BRANCH  10  11
ATOM     11  C   UNL     1     -45.542 -30.042  38.014  1.00  0.00     0.000 C 
BRANCH  11  12
ATOM     12  C   UNL     1     -45.365 -31.438  37.388  1.00  0.00     0.000 C 
BRANCH  12  13
ATOM     13  C   UNL     1     -46.673 -32.191  37.082  1.00  0.00     0.006 C 
BRANCH  13  14
ATOM     14  C   UNL     1     -47.615 -31.444  36.119  1.00  0.00     0.053 C 
BRANCH  14  15
ATOM     15  C   UNL     1     -48.992 -31.266  36.682  1.00  0.00     0.041 C 
ATOM     16  O   UNL     1     -49.256 -31.658  37.850  1.00  0.00    -0.550 OA
ATOM     17  O   UNL     1     -49.981 -30.646  35.929  1.00  0.00    -0.550 OA
ENDBRANCH  14  15
ENDBRANCH  13  14
ENDBRANCH  12  13
ENDBRANCH  11  12
ENDBRANCH  10  11
ENDBRANCH   9  10
ENDBRANCH   8   9
ENDBRANCH   7   8
ENDBRANCH   6   7
ENDBRANCH   5   6
ENDBRANCH   4   5
ENDBRANCH   3   4
ENDBRANCH   2   3
ENDBRANCH   1   2
BRANCH   1  18
ATOM     18  C   UNL     1     -41.611 -35.810  36.147  1.00  0.00     0.000 C 
BRANCH  18  19
ATOM     19  C   UNL     1     -42.881 -35.607  36.992  1.00  0.00     0.000 C 
BRANCH  19  20
ATOM     20  C   UNL     1     -44.107 -35.146  36.175  1.00  0.00     0.000 C 
BRANCH  20  21
ATOM     21  C   UNL     1     -45.434 -35.622  36.794  1.00  0.00     0.000 C 
BRANCH  21  22
ATOM     22  C   UNL     1     -45.393 -37.097  37.222  1.00  0.00     0.000 C 
BRANCH  22  23
ATOM     23  C   UNL     1     -46.478 -37.450  38.252  1.00  0.00     0.000 C 
BRANCH  23  24
ATOM     24  C   UNL     1     -46.658 -36.313  39.266  1.00  0.00    -0.000 C 
BRANCH  24  25
ATOM     25  C   UNL     1     -45.701 -36.476  40.456  1.00  0.00    -0.000 C 
BRANCH  25  26
ATOM     26  C   UNL     1     -44.624 -35.381  40.498  1.00  0.00    -0.000 C 
BRANCH  26  27
ATOM     27  C   UNL     1     -45.083 -34.074  39.828  1.00  0.00    -0.000 C 
BRANCH  27  28
ATOM     28  C   UNL     1     -44.879 -32.843  40.728  1.00  0.00    -0.000 C 
BRANCH  28  29
ATOM     29  C   UNL     1     -46.194 -32.345  41.350  1.00  0.00    -0.000 C 
BRANCH  29  30
ATOM     30  C   UNL     1     -47.435 -32.983  40.704  1.00  0.00    -0.000 C 
BRANCH  30  31
ATOM     31  C   UNL     1     -48.359 -33.656  41.731  1.00  0.00    -0.003 C 
ATOM     32  C   UNL     1     -49.605 -34.224  41.059  1.00  0.00     0.004 C 
ENDBRANCH  30  31
ENDBRANCH  29  30
ENDBRANCH  28  29
ENDBRANCH  27  28
ENDBRANCH  26  27
ENDBRANCH  25  26
ENDBRANCH  24  25
ENDBRANCH  23  24
ENDBRANCH  22  23
ENDBRANCH  21  22
ENDBRANCH  20  21
ENDBRANCH  19  20
ENDBRANCH  18  19
ENDBRANCH   1  18
TORSDOF 28
ENDMDL
MODEL 3
REMARK VINA RESULT:    -4.362      3.292      8.852
REMARK INTER + INTRA:         -16.556
REMARK INTER:                 -11.543
REMARK INTRA:                  -5.013
REMARK UNBOUND:                -5.054
REMARK SMILES CCCCCCCCCCCCCCCCCCCCCCCCCCCCCC(=O)[O-]
REMARK SMILES IDX 16 1 17 2 18 3 19 4 20 5 21 6 22 7 23 8 24 9 25 10 26 11
REMARK SMILES IDX 27 12 28 13 29 14 30 15 31 16 32 17 15 18 14 19 13 20 12 21
REMARK SMILES IDX 11 22 10 23 9 24 8 25 7 26 6 27 5 28 4 29 3 30 2 31 1 32
REMARK H PARENT
REMARK Flexibility Score: inf
ROOT
ATOM      1  C   UNL     1     -44.561 -30.769  39.578  1.00  0.00     0.000 C 
ENDROOT
BRANCH   1   2
ATOM      2  C   UNL     1     -43.501 -31.155  38.538  1.00  0.00     0.000 C 
BRANCH   2   3
ATOM      3  C   UNL     1     -42.224 -31.668  39.221  1.00  0.00     0.000 C 
BRANCH   3   4
ATOM      4  C   UNL     1     -41.986 -33.166  38.978  1.00  0.00     0.000 C 
BRANCH   4   5
ATOM      5  C   UNL     1     -40.544 -33.471  38.535  1.00  0.00     0.000 C 
BRANCH   5   6
ATOM      6  C   UNL     1     -40.286 -34.978  38.364  1.00  0.00     0.000 C 
BRANCH   6   7
ATOM      7  C   UNL     1     -39.810 -35.335  36.946  1.00  0.00     0.000 C 
BRANCH   7   8
ATOM      8  C   UNL     1     -40.820 -36.211  36.181  1.00  0.00     0.000 C 
BRANCH   8   9
ATOM      9  C   UNL     1     -42.104 -35.487  35.727  1.00  0.00     0.000 C 
BRANCH   9  10
ATOM     10  C   UNL     1     -43.344 -35.745  36.605  1.00  0.00     0.000 C 
BRANCH  10  11
ATOM     11  C   UNL     1     -44.528 -34.789  36.358  1.00  0.00     0.000 C 
BRANCH  11  12
ATOM     12  C   UNL     1     -45.368 -34.451  37.604  1.00  0.00     0.000 C 
BRANCH  12  13
ATOM     13  C   UNL     1     -46.350 -33.277  37.435  1.00  0.00     0.006 C 
BRANCH  13  14
ATOM     14  C   UNL     1     -47.298 -33.076  38.633  1.00  0.00     0.053 C 
BRANCH  14  15
ATOM     15  C   UNL     1     -48.418 -32.128  38.329  1.00  0.00     0.041 C 
ATOM     16  O   UNL     1     -48.344 -31.356  37.336  1.00  0.00    -0.550 OA
ATOM     17  O   UNL     1     -49.556 -32.111  39.125  1.00  0.00    -0.550 OA
ENDBRANCH  14  15
ENDBRANCH  13  14
ENDBRANCH  12  13
ENDBRANCH  11  12
ENDBRANCH  10  11
ENDBRANCH   9  10
ENDBRANCH   8   9
ENDBRANCH   7   8
ENDBRANCH   6   7
ENDBRANCH   5   6
ENDBRANCH   4   5
ENDBRANCH   3   4
ENDBRANCH   2   3
ENDBRANCH   1   2
BRANCH   1  18
ATOM     18  C   UNL     1     -45.465 -29.645  39.055  1.00  0.00     0.000 C 
BRANCH  18  19
ATOM     19  C   UNL     1     -44.853 -28.886  37.865  1.00  0.00     0.000 C 
BRANCH  19  20
ATOM     20  C   UNL     1     -45.374 -27.442  37.710  1.00  0.00     0.000 C 
BRANCH  20  21
ATOM     21  C   UNL     1     -44.289 -26.482  37.186  1.00  0.00     0.000 C 
BRANCH  21  22
ATOM     22  C   UNL     1     -42.909 -27.147  37.083  1.00  0.00     0.000 C 
BRANCH  22  23
ATOM     23  C   UNL     1     -41.754 -26.170  37.350  1.00  0.00     0.000 C 
BRANCH  23  24
ATOM     24  C   UNL     1     -40.603 -26.871  38.082  1.00  0.00    -0.000 C 
BRANCH  24  25
ATOM     25  C   UNL     1     -41.112 -28.080  38.882  1.00  0.00    -0.000 C 
BRANCH  25  26
ATOM     26  C   UNL     1     -41.217 -27.787  40.387  1.00  0.00    -0.000 C 
BRANCH  26  27
ATOM     27  C   UNL     1     -42.557 -28.248  40.987  1.00  0.00    -0.000 C 
BRANCH  27  28
ATOM     28  C   UNL     1     -43.433 -27.073  41.454  1.00  0.00    -0.000 C 
BRANCH  28  29
ATOM     29  C   UNL     1     -43.309 -25.846  40.535  1.00  0.00    -0.000 C 
BRANCH  29  30
ATOM     30  C   UNL     1     -42.803 -24.598  41.278  1.00  0.00    -0.000 C 
BRANCH  30  31
ATOM     31  C   UNL     1     -41.360 -24.228  40.903  1.00  0.00    -0.003 C 
ATOM     32  C   UNL     1     -40.432 -24.349  42.108  1.00  0.00     0.004 C 
ENDBRANCH  30  31
ENDBRANCH  29  30
ENDBRANCH  28  29
ENDBRANCH  27  28
ENDBRANCH  26  27
ENDBRANCH  25  26
ENDBRANCH  24  25
ENDBRANCH  23  24
ENDBRANCH  22  23
ENDBRANCH  21  22
ENDBRANCH  20  21
ENDBRANCH  19  20
ENDBRANCH  18  19
ENDBRANCH   1  18
TORSDOF 28
ENDMDL
MODEL 4
REMARK VINA RESULT:    -4.357      1.915      4.996
REMARK INTER + INTRA:         -16.544
REMARK INTER:                 -12.212
REMARK INTRA:                  -4.332
REMARK UNBOUND:                -5.054
REMARK SMILES CCCCCCCCCCCCCCCCCCCCCCCCCCCCCC(=O)[O-]
REMARK SMILES IDX 16 1 17 2 18 3 19 4 20 5 21 6 22 7 23 8 24 9 25 10 26 11
REMARK SMILES IDX 27 12 28 13 29 14 30 15 31 16 32 17 15 18 14 19 13 20 12 21
REMARK SMILES IDX 11 22 10 23 9 24 8 25 7 26 6 27 5 28 4 29 3 30 2 31 1 32
REMARK H PARENT
REMARK Flexibility Score: inf
ROOT
ATOM      1  C   UNL     1     -46.087 -33.264  40.637  1.00  0.00     0.000 C 
ENDROOT
BRANCH   1   2
ATOM      2  C   UNL     1     -46.700 -32.395  39.532  1.00  0.00     0.000 C 
BRANCH   2   3
ATOM      3  C   UNL     1     -46.470 -33.025  38.149  1.00  0.00     0.000 C 
BRANCH   3   4
ATOM      4  C   UNL     1     -45.645 -32.122  37.219  1.00  0.00     0.000 C 
BRANCH   4   5
ATOM      5  C   UNL     1     -45.652 -30.649  37.666  1.00  0.00     0.000 C 
BRANCH   5   6
ATOM      6  C   UNL     1     -44.242 -30.121  37.981  1.00  0.00     0.000 C 
BRANCH   6   7
ATOM      7  C   UNL     1     -43.258 -31.249  38.334  1.00  0.00     0.000 C 
BRANCH   7   8
ATOM      8  C   UNL     1     -42.941 -31.316  39.839  1.00  0.00     0.000 C 
BRANCH   8   9
ATOM      9  C   UNL     1     -43.416 -30.102  40.663  1.00  0.00     0.000 C 
BRANCH   9  10
ATOM     10  C   UNL     1     -42.324 -29.063  40.985  1.00  0.00     0.000 C 
BRANCH  10  11
ATOM     11  C   UNL     1     -42.480 -27.709  40.266  1.00  0.00     0.000 C 
BRANCH  11  12
ATOM     12  C   UNL     1     -43.564 -26.781  40.845  1.00  0.00     0.000 C 
BRANCH  12  13
ATOM     13  C   UNL     1     -43.049 -25.447  41.417  1.00  0.00     0.006 C 
BRANCH  13  14
ATOM     14  C   UNL     1     -41.513 -25.323  41.428  1.00  0.00     0.053 C 
BRANCH  14  15
ATOM     15  C   UNL     1     -41.009 -24.320  40.436  1.00  0.00     0.041 C 
ATOM     16  O   UNL     1     -40.319 -23.339  40.820  1.00  0.00    -0.550 OA
ATOM     17  O   UNL     1     -41.279 -24.478  39.083  1.00  0.00    -0.550 OA
ENDBRANCH  14  15
ENDBRANCH  13  14
ENDBRANCH  12  13
ENDBRANCH  11  12
ENDBRANCH  10  11
ENDBRANCH   9  10
ENDBRANCH   8   9
ENDBRANCH   7   8
ENDBRANCH   6   7
ENDBRANCH   5   6
ENDBRANCH   4   5
ENDBRANCH   3   4
ENDBRANCH   2   3
ENDBRANCH   1   2
BRANCH   1  18
ATOM     18  C   UNL     1     -45.223 -34.385  40.044  1.00  0.00     0.000 C 
BRANCH  18  19
ATOM     19  C   UNL     1     -45.275 -35.683  40.867  1.00  0.00     0.000 C 
BRANCH  19  20
ATOM     20  C   UNL     1     -46.144 -36.790  40.233  1.00  0.00     0.000 C 
BRANCH  20  21
ATOM     21  C   UNL     1     -46.490 -36.492  38.762  1.00  0.00     0.000 C 
BRANCH  21  22
ATOM     22  C   UNL     1     -46.255 -37.700  37.842  1.00  0.00     0.000 C 
BRANCH  22  23
ATOM     23  C   UNL     1     -45.142 -37.457  36.811  1.00  0.00     0.000 C 
BRANCH  23  24
ATOM     24  C   UNL     1     -44.846 -35.959  36.671  1.00  0.00    -0.000 C 
BRANCH  24  25
ATOM     25  C   UNL     1     -43.346 -35.709  36.453  1.00  0.00    -0.000 C 
BRANCH  25  26
ATOM     26  C   UNL     1     -42.705 -34.931  37.613  1.00  0.00    -0.000 C 
BRANCH  26  27
ATOM     27  C   UNL     1     -41.167 -34.983  37.581  1.00  0.00    -0.000 C 
BRANCH  27  28
ATOM     28  C   UNL     1     -40.520 -33.907  38.470  1.00  0.00    -0.000 C 
BRANCH  28  29
ATOM     29  C   UNL     1     -39.579 -34.505  39.528  1.00  0.00    -0.000 C 
BRANCH  29  30
ATOM     30  C   UNL     1     -39.191 -35.962  39.221  1.00  0.00    -0.000 C 
BRANCH  30  31
ATOM     31  C   UNL     1     -39.055 -36.819  40.488  1.00  0.00    -0.003 C 
ATOM     32  C   UNL     1     -37.716 -37.549  40.516  1.00  0.00     0.004 C 
ENDBRANCH  30  31
ENDBRANCH  29  30
ENDBRANCH  28  29
ENDBRANCH  27  28
ENDBRANCH  26  27
ENDBRANCH  25  26
ENDBRANCH  24  25
ENDBRANCH  23  24
ENDBRANCH  22  23
ENDBRANCH  21  22
ENDBRANCH  20  21
ENDBRANCH  19  20
ENDBRANCH  18  19
ENDBRANCH   1  18
TORSDOF 28
ENDMDL
MODEL 5
REMARK VINA RESULT:    -4.354      3.270      6.349
REMARK INTER + INTRA:         -16.536
REMARK INTER:                 -12.012
REMARK INTRA:                  -4.524
REMARK UNBOUND:                -5.054
REMARK SMILES CCCCCCCCCCCCCCCCCCCCCCCCCCCCCC(=O)[O-]
REMARK SMILES IDX 16 1 17 2 18 3 19 4 20 5 21 6 22 7 23 8 24 9 25 10 26 11
REMARK SMILES IDX 27 12 28 13 29 14 30 15 31 16 32 17 15 18 14 19 13 20 12 21
REMARK SMILES IDX 11 22 10 23 9 24 8 25 7 26 6 27 5 28 4 29 3 30 2 31 1 32
REMARK H PARENT
REMARK Flexibility Score: inf
ROOT
ATOM      1  C   UNL     1     -39.649 -27.360  41.215  1.00  0.00     0.000 C 
ENDROOT
BRANCH   1   2
ATOM      2  C   UNL     1     -39.393 -26.090  40.393  1.00  0.00     0.000 C 
BRANCH   2   3
ATOM      3  C   UNL     1     -39.417 -24.843  41.290  1.00  0.00     0.000 C 
BRANCH   3   4
ATOM      4  C   UNL     1     -40.710 -24.732  42.113  1.00  0.00     0.000 C 
BRANCH   4   5
ATOM      5  C   UNL     1     -41.936 -24.401  41.244  1.00  0.00     0.000 C 
BRANCH   5   6
ATOM      6  C   UNL     1     -42.967 -25.542  41.218  1.00  0.00     0.000 C 
BRANCH   6   7
ATOM      7  C   UNL     1     -43.607 -25.725  39.832  1.00  0.00     0.000 C 
BRANCH   7   8
ATOM      8  C   UNL     1     -42.565 -25.916  38.714  1.00  0.00     0.000 C 
BRANCH   8   9
ATOM      9  C   UNL     1     -42.761 -27.175  37.844  1.00  0.00     0.000 C 
BRANCH   9  10
ATOM     10  C   UNL     1     -44.152 -27.310  37.194  1.00  0.00     0.000 C 
BRANCH  10  11
ATOM     11  C   UNL     1     -44.746 -28.732  37.215  1.00  0.00     0.000 C 
BRANCH  11  12
ATOM     12  C   UNL     1     -45.534 -29.130  35.953  1.00  0.00     0.000 C 
BRANCH  12  13
ATOM     13  C   UNL     1     -47.059 -28.933  36.042  1.00  0.00     0.006 C 
BRANCH  13  14
ATOM     14  C   UNL     1     -47.585 -28.764  37.480  1.00  0.00     0.053 C 
BRANCH  14  15
ATOM     15  C   UNL     1     -48.390 -29.942  37.940  1.00  0.00     0.041 C 
ATOM     16  O   UNL     1     -49.185 -29.826  38.911  1.00  0.00    -0.550 OA
ATOM     17  O   UNL     1     -48.285 -31.161  37.284  1.00  0.00    -0.550 OA
ENDBRANCH  14  15
ENDBRANCH  13  14
ENDBRANCH  12  13
ENDBRANCH  11  12
ENDBRANCH  10  11
ENDBRANCH   9  10
ENDBRANCH   8   9
ENDBRANCH   7   8
ENDBRANCH   6   7
ENDBRANCH   5   6
ENDBRANCH   4   5
ENDBRANCH   3   4
ENDBRANCH   2   3
ENDBRANCH   1   2
BRANCH   1  18
ATOM     18  C   UNL     1     -40.360 -28.429  40.374  1.00  0.00     0.000 C 
BRANCH  18  19
ATOM     19  C   UNL     1     -41.678 -28.911  41.004  1.00  0.00     0.000 C 
BRANCH  19  20
ATOM     20  C   UNL     1     -42.395 -30.008  40.189  1.00  0.00     0.000 C 
BRANCH  20  21
ATOM     21  C   UNL     1     -41.543 -30.512  39.010  1.00  0.00     0.000 C 
BRANCH  21  22
ATOM     22  C   UNL     1     -41.644 -32.032  38.814  1.00  0.00     0.000 C 
BRANCH  22  23
ATOM     23  C   UNL     1     -40.356 -32.648  38.245  1.00  0.00     0.000 C 
BRANCH  23  24
ATOM     24  C   UNL     1     -40.363 -34.173  38.406  1.00  0.00    -0.000 C 
BRANCH  24  25
ATOM     25  C   UNL     1     -40.056 -34.871  37.073  1.00  0.00    -0.000 C 
BRANCH  25  26
ATOM     26  C   UNL     1     -41.310 -35.477  36.424  1.00  0.00    -0.000 C 
BRANCH  26  27
ATOM     27  C   UNL     1     -42.564 -35.321  37.303  1.00  0.00    -0.000 C 
BRANCH  27  28
ATOM     28  C   UNL     1     -43.848 -35.775  36.588  1.00  0.00    -0.000 C 
BRANCH  28  29
ATOM     29  C   UNL     1     -44.874 -34.639  36.442  1.00  0.00    -0.000 C 
BRANCH  29  30
ATOM     30  C   UNL     1     -45.245 -33.998  37.790  1.00  0.00    -0.000 C 
BRANCH  30  31
ATOM     31  C   UNL     1     -45.141 -32.466  37.767  1.00  0.00    -0.003 C 
ATOM     32  C   UNL     1     -45.375 -31.879  39.156  1.00  0.00     0.004 C 
ENDBRANCH  30  31
ENDBRANCH  29  30
ENDBRANCH  28  29
ENDBRANCH  27  28
ENDBRANCH  26  27
ENDBRANCH  25  26
ENDBRANCH  24  25
ENDBRANCH  23  24
ENDBRANCH  22  23
ENDBRANCH  21  22
ENDBRANCH  20  21
ENDBRANCH  19  20
ENDBRANCH  18  19
ENDBRANCH   1  18
TORSDOF 28
ENDMDL
MODEL 6
REMARK VINA RESULT:    -4.333      3.508      9.319
REMARK INTER + INTRA:         -16.480
REMARK INTER:                 -12.055
REMARK INTRA:                  -4.425
REMARK UNBOUND:                -5.054
REMARK SMILES CCCCCCCCCCCCCCCCCCCCCCCCCCCCCC(=O)[O-]
REMARK SMILES IDX 16 1 17 2 18 3 19 4 20 5 21 6 22 7 23 8 24 9 25 10 26 11
REMARK SMILES IDX 27 12 28 13 29 14 30 15 31 16 32 17 15 18 14 19 13 20 12 21
REMARK SMILES IDX 11 22 10 23 9 24 8 25 7 26 6 27 5 28 4 29 3 30 2 31 1 32
REMARK H PARENT
REMARK Flexibility Score: inf
ROOT
ATOM      1  C   UNL     1     -42.999 -28.937  40.693  1.00  0.00     0.000 C 
ENDROOT
BRANCH   1   2
ATOM      2  C   UNL     1     -43.248 -29.993  39.609  1.00  0.00     0.000 C 
BRANCH   2   3
ATOM      3  C   UNL     1     -42.820 -31.387  40.094  1.00  0.00     0.000 C 
BRANCH   3   4
ATOM      4  C   UNL     1     -42.213 -32.242  38.970  1.00  0.00     0.000 C 
BRANCH   4   5
ATOM      5  C   UNL     1     -40.947 -31.610  38.365  1.00  0.00     0.000 C 
BRANCH   5   6
ATOM      6  C   UNL     1     -39.902 -32.661  37.954  1.00  0.00     0.000 C 
BRANCH   6   7
ATOM      7  C   UNL     1     -40.329 -34.091  38.325  1.00  0.00     0.000 C 
BRANCH   7   8
ATOM      8  C   UNL     1     -40.042 -35.109  37.206  1.00  0.00     0.000 C 
BRANCH   8   9
ATOM      9  C   UNL     1     -41.270 -35.534  36.375  1.00  0.00     0.000 C 
BRANCH   9  10
ATOM     10  C   UNL     1     -42.627 -35.379  37.089  1.00  0.00     0.000 C 
BRANCH  10  11
ATOM     11  C   UNL     1     -43.859 -35.420  36.164  1.00  0.00     0.000 C 
BRANCH  11  12
ATOM     12  C   UNL     1     -45.200 -35.694  36.870  1.00  0.00     0.000 C 
BRANCH  12  13
ATOM     13  C   UNL     1     -45.457 -34.856  38.137  1.00  0.00     0.006 C 
BRANCH  13  14
ATOM     14  C   UNL     1     -46.550 -33.785  37.968  1.00  0.00     0.053 C 
BRANCH  14  15
ATOM     15  C   UNL     1     -46.041 -32.397  38.216  1.00  0.00     0.041 C 
ATOM     16  O   UNL     1     -46.260 -31.829  39.319  1.00  0.00    -0.550 OA
ATOM     17  O   UNL     1     -45.301 -31.739  37.243  1.00  0.00    -0.550 OA
ENDBRANCH  14  15
ENDBRANCH  13  14
ENDBRANCH  12  13
ENDBRANCH  11  12
ENDBRANCH  10  11
ENDBRANCH   9  10
ENDBRANCH   8   9
ENDBRANCH   7   8
ENDBRANCH   6   7
ENDBRANCH   5   6
ENDBRANCH   4   5
ENDBRANCH   3   4
ENDBRANCH   2   3
ENDBRANCH   1   2
BRANCH   1  18
ATOM     18  C   UNL     1     -41.526 -28.926  41.126  1.00  0.00     0.000 C 
BRANCH  18  19
ATOM     19  C   UNL     1     -40.632 -28.092  40.193  1.00  0.00     0.000 C 
BRANCH  19  20
ATOM     20  C   UNL     1     -39.714 -27.097  40.934  1.00  0.00     0.000 C 
BRANCH  20  21
ATOM     21  C   UNL     1     -40.509 -25.992  41.654  1.00  0.00     0.000 C 
BRANCH  21  22
ATOM     22  C   UNL     1     -39.994 -24.582  41.326  1.00  0.00     0.000 C 
BRANCH  22  23
ATOM     23  C   UNL     1     -38.904 -24.582  40.243  1.00  0.00     0.000 C 
BRANCH  23  24
ATOM     24  C   UNL     1     -39.263 -23.616  39.108  1.00  0.00    -0.000 C 
BRANCH  24  25
ATOM     25  C   UNL     1     -40.337 -22.613  39.553  1.00  0.00    -0.000 C 
BRANCH  25  26
ATOM     26  C   UNL     1     -41.366 -22.325  38.449  1.00  0.00    -0.000 C 
BRANCH  26  27
ATOM     27  C   UNL     1     -41.329 -23.370  37.319  1.00  0.00    -0.000 C 
BRANCH  27  28
ATOM     28  C   UNL     1     -42.538 -24.320  37.351  1.00  0.00    -0.000 C 
BRANCH  28  29
ATOM     29  C   UNL     1     -42.395 -25.420  38.415  1.00  0.00    -0.000 C 
BRANCH  29  30
ATOM     30  C   UNL     1     -43.692 -25.652  39.207  1.00  0.00    -0.000 C 
BRANCH  30  31
ATOM     31  C   UNL     1     -43.793 -24.764  40.456  1.00  0.00    -0.003 C 
ATOM     32  C   UNL     1     -44.546 -23.472  40.152  1.00  0.00     0.004 C 
ENDBRANCH  30  31
ENDBRANCH  29  30
ENDBRANCH  28  29
ENDBRANCH  27  28
ENDBRANCH  26  27
ENDBRANCH  25  26
ENDBRANCH  24  25
ENDBRANCH  23  24
ENDBRANCH  22  23
ENDBRANCH  21  22
ENDBRANCH  20  21
ENDBRANCH  19  20
ENDBRANCH  18  19
ENDBRANCH   1  18
TORSDOF 28
ENDMDL
MODEL 7
REMARK VINA RESULT:    -4.320      2.734      8.301
REMARK INTER + INTRA:         -16.446
REMARK INTER:                 -11.538
REMARK INTRA:                  -4.908
REMARK UNBOUND:                -5.054
REMARK SMILES CCCCCCCCCCCCCCCCCCCCCCCCCCCCCC(=O)[O-]
REMARK SMILES IDX 16 1 17 2 18 3 19 4 20 5 21 6 22 7 23 8 24 9 25 10 26 11
REMARK SMILES IDX 27 12 28 13 29 14 30 15 31 16 32 17 15 18 14 19 13 20 12 21
REMARK SMILES IDX 11 22 10 23 9 24 8 25 7 26 6 27 5 28 4 29 3 30 2 31 1 32
REMARK H PARENT
REMARK Flexibility Score: inf
ROOT
ATOM      1  C   UNL     1     -45.242 -30.802  37.287  1.00  0.00     0.000 C 
ENDROOT
BRANCH   1   2
ATOM      2  C   UNL     1     -46.205 -31.450  38.289  1.00  0.00     0.000 C 
BRANCH   2   3
ATOM      3  C   UNL     1     -46.691 -32.815  37.778  1.00  0.00     0.000 C 
BRANCH   3   4
ATOM      4  C   UNL     1     -45.621 -33.553  36.959  1.00  0.00     0.000 C 
BRANCH   4   5
ATOM      5  C   UNL     1     -45.626 -35.072  37.211  1.00  0.00     0.000 C 
BRANCH   5   6
ATOM      6  C   UNL     1     -46.495 -35.466  38.418  1.00  0.00     0.000 C 
BRANCH   6   7
ATOM      7  C   UNL     1     -45.813 -36.511  39.317  1.00  0.00     0.000 C 
BRANCH   7   8
ATOM      8  C   UNL     1     -45.196 -35.894  40.586  1.00  0.00     0.000 C 
BRANCH   8   9
ATOM      9  C   UNL     1     -45.748 -34.508  40.976  1.00  0.00     0.000 C 
BRANCH   9  10
ATOM     10  C   UNL     1     -44.725 -33.357  40.918  1.00  0.00     0.000 C 
BRANCH  10  11
ATOM     11  C   UNL     1     -43.279 -33.786  40.599  1.00  0.00     0.000 C 
BRANCH  11  12
ATOM     12  C   UNL     1     -42.827 -33.535  39.148  1.00  0.00     0.000 C 
BRANCH  12  13
ATOM     13  C   UNL     1     -42.164 -34.738  38.450  1.00  0.00     0.006 C 
BRANCH  13  14
ATOM     14  C   UNL     1     -40.681 -34.516  38.096  1.00  0.00     0.053 C 
BRANCH  14  15
ATOM     15  C   UNL     1     -39.752 -35.192  39.058  1.00  0.00     0.041 C 
ATOM     16  O   UNL     1     -39.051 -36.169  38.683  1.00  0.00    -0.550 OA
ATOM     17  O   UNL     1     -39.638 -34.729  40.363  1.00  0.00    -0.550 OA
ENDBRANCH  14  15
ENDBRANCH  13  14
ENDBRANCH  12  13
ENDBRANCH  11  12
ENDBRANCH  10  11
ENDBRANCH   9  10
ENDBRANCH   8   9
ENDBRANCH   7   8
ENDBRANCH   6   7
ENDBRANCH   5   6
ENDBRANCH   4   5
ENDBRANCH   3   4
ENDBRANCH   2   3
ENDBRANCH   1   2
BRANCH   1  18
ATOM     18  C   UNL     1     -44.025 -30.198  38.001  1.00  0.00     0.000 C 
BRANCH  18  19
ATOM     19  C   UNL     1     -44.252 -30.000  39.510  1.00  0.00     0.000 C 
BRANCH  19  20
ATOM     20  C   UNL     1     -42.964 -30.106  40.354  1.00  0.00     0.000 C 
BRANCH  20  21
ATOM     21  C   UNL     1     -42.567 -28.760  40.989  1.00  0.00     0.000 C 
BRANCH  21  22
ATOM     22  C   UNL     1     -41.060 -28.481  40.893  1.00  0.00     0.000 C 
BRANCH  22  23
ATOM     23  C   UNL     1     -40.614 -28.093  39.474  1.00  0.00     0.000 C 
BRANCH  23  24
ATOM     24  C   UNL     1     -39.087 -28.148  39.348  1.00  0.00    -0.000 C 
BRANCH  24  25
ATOM     25  C   UNL     1     -38.407 -27.707  40.653  1.00  0.00    -0.000 C 
BRANCH  25  26
ATOM     26  C   UNL     1     -37.889 -26.262  40.587  1.00  0.00    -0.000 C 
BRANCH  26  27
ATOM     27  C   UNL     1     -38.498 -25.468  39.418  1.00  0.00    -0.000 C 
BRANCH  27  28
ATOM     28  C   UNL     1     -39.517 -24.414  39.885  1.00  0.00    -0.000 C 
BRANCH  28  29
ATOM     29  C   UNL     1     -39.653 -24.366  41.416  1.00  0.00    -0.000 C 
BRANCH  29  30
ATOM     30  C   UNL     1     -41.049 -24.791  41.901  1.00  0.00    -0.000 C 
BRANCH  30  31
ATOM     31  C   UNL     1     -42.012 -25.096  40.744  1.00  0.00    -0.003 C 
ATOM     32  C   UNL     1     -43.268 -24.235  40.834  1.00  0.00     0.004 C 
ENDBRANCH  30  31
ENDBRANCH  29  30
ENDBRANCH  28  29
ENDBRANCH  27  28
ENDBRANCH  26  27
ENDBRANCH  25  26
ENDBRANCH  24  25
ENDBRANCH  23  24
ENDBRANCH  22  23
ENDBRANCH  21  22
ENDBRANCH  20  21
ENDBRANCH  19  20
ENDBRANCH  18  19
ENDBRANCH   1  18
TORSDOF 28
ENDMDL
MODEL 8
REMARK VINA RESULT:    -4.281      2.419      5.492
REMARK INTER + INTRA:         -16.343
REMARK INTER:                 -11.680
REMARK INTRA:                  -4.662
REMARK UNBOUND:                -5.054
REMARK SMILES CCCCCCCCCCCCCCCCCCCCCCCCCCCCCC(=O)[O-]
REMARK SMILES IDX 16 1 17 2 18 3 19 4 20 5 21 6 22 7 23 8 24 9 25 10 26 11
REMARK SMILES IDX 27 12 28 13 29 14 30 15 31 16 32 17 15 18 14 19 13 20 12 21
REMARK SMILES IDX 11 22 10 23 9 24 8 25 7 26 6 27 5 28 4 29 3 30 2 31 1 32
REMARK H PARENT
REMARK Flexibility Score: inf
ROOT
ATOM      1  C   UNL     1     -40.918 -31.907  38.443  1.00  0.00     0.000 C 
ENDROOT
BRANCH   1   2
ATOM      2  C   UNL     1     -41.711 -30.604  38.608  1.00  0.00     0.000 C 
BRANCH   2   3
ATOM      3  C   UNL     1     -42.204 -30.442  40.054  1.00  0.00     0.000 C 
BRANCH   3   4
ATOM      4  C   UNL     1     -42.209 -28.976  40.515  1.00  0.00     0.000 C 
BRANCH   4   5
ATOM      5  C   UNL     1     -40.963 -28.205  40.047  1.00  0.00     0.000 C 
BRANCH   5   6
ATOM      6  C   UNL     1     -39.898 -28.079  41.150  1.00  0.00     0.000 C 
BRANCH   6   7
ATOM      7  C   UNL     1     -38.856 -26.991  40.839  1.00  0.00     0.000 C 
BRANCH   7   8
ATOM      8  C   UNL     1     -39.497 -25.637  40.480  1.00  0.00     0.000 C 
BRANCH   8   9
ATOM      9  C   UNL     1     -40.012 -24.817  41.680  1.00  0.00     0.000 C 
BRANCH   9  10
ATOM     10  C   UNL     1     -41.411 -24.196  41.495  1.00  0.00     0.000 C 
BRANCH  10  11
ATOM     11  C   UNL     1     -42.556 -25.212  41.314  1.00  0.00     0.000 C 
BRANCH  11  12
ATOM     12  C   UNL     1     -43.715 -24.739  40.417  1.00  0.00     0.000 C 
BRANCH  12  13
ATOM     13  C   UNL     1     -43.333 -24.433  38.957  1.00  0.00     0.006 C 
BRANCH  13  14
ATOM     14  C   UNL     1     -42.579 -25.578  38.255  1.00  0.00     0.053 C 
BRANCH  14  15
ATOM     15  C   UNL     1     -43.495 -26.493  37.499  1.00  0.00     0.041 C 
ATOM     16  O   UNL     1     -44.699 -26.173  37.313  1.00  0.00    -0.550 OA
ATOM     17  O   UNL     1     -43.016 -27.687  36.978  1.00  0.00    -0.550 OA
ENDBRANCH  14  15
ENDBRANCH  13  14
ENDBRANCH  12  13
ENDBRANCH  11  12
ENDBRANCH  10  11
ENDBRANCH   9  10
ENDBRANCH   8   9
ENDBRANCH   7   8
ENDBRANCH   6   7
ENDBRANCH   5   6
ENDBRANCH   4   5
ENDBRANCH   3   4
ENDBRANCH   2   3
ENDBRANCH   1   2
BRANCH   1  18
ATOM     18  C   UNL     1     -41.513 -33.029  39.304  1.00  0.00     0.000 C 
BRANCH  18  19
ATOM     19  C   UNL     1     -41.012 -34.426  38.901  1.00  0.00     0.000 C 
BRANCH  19  20
ATOM     20  C   UNL     1     -40.855 -34.618  37.378  1.00  0.00     0.000 C 
BRANCH  20  21
ATOM     21  C   UNL     1     -41.836 -35.663  36.816  1.00  0.00     0.000 C 
BRANCH  21  22
ATOM     22  C   UNL     1     -43.305 -35.293  37.070  1.00  0.00     0.000 C 
BRANCH  22  23
ATOM     23  C   UNL     1     -44.289 -36.300  36.456  1.00  0.00     0.000 C 
BRANCH  23  24
ATOM     24  C   UNL     1     -45.615 -36.308  37.228  1.00  0.00    -0.000 C 
BRANCH  24  25
ATOM     25  C   UNL     1     -45.380 -36.115  38.734  1.00  0.00    -0.000 C 
BRANCH  25  26
ATOM     26  C   UNL     1     -46.619 -35.561  39.455  1.00  0.00    -0.000 C 
BRANCH  26  27
ATOM     27  C   UNL     1     -46.297 -34.334  40.326  1.00  0.00    -0.000 C 
BRANCH  27  28
ATOM     28  C   UNL     1     -45.038 -33.586  39.854  1.00  0.00    -0.000 C 
BRANCH  28  29
ATOM     29  C   UNL     1     -45.346 -32.157  39.379  1.00  0.00    -0.000 C 
BRANCH  29  30
ATOM     30  C   UNL     1     -45.045 -31.950  37.885  1.00  0.00    -0.000 C 
BRANCH  30  31
ATOM     31  C   UNL     1     -46.007 -32.725  36.973  1.00  0.00    -0.003 C 
ATOM     32  C   UNL     1     -47.328 -31.979  36.808  1.00  0.00     0.004 C 
ENDBRANCH  30  31
ENDBRANCH  29  30
ENDBRANCH  28  29
ENDBRANCH  27  28
ENDBRANCH  26  27
ENDBRANCH  25  26
ENDBRANCH  24  25
ENDBRANCH  23  24
ENDBRANCH  22  23
ENDBRANCH  21  22
ENDBRANCH  20  21
ENDBRANCH  19  20
ENDBRANCH  18  19
ENDBRANCH   1  18
TORSDOF 28
ENDMDL
MODEL 9
REMARK VINA RESULT:    -4.241      3.680      9.206
REMARK INTER + INTRA:         -16.236
REMARK INTER:                 -12.447
REMARK INTRA:                  -3.790
REMARK UNBOUND:                -5.054
REMARK SMILES CCCCCCCCCCCCCCCCCCCCCCCCCCCCCC(=O)[O-]
REMARK SMILES IDX 16 1 17 2 18 3 19 4 20 5 21 6 22 7 23 8 24 9 25 10 26 11
REMARK SMILES IDX 27 12 28 13 29 14 30 15 31 16 32 17 15 18 14 19 13 20 12 21
REMARK SMILES IDX 11 22 10 23 9 24 8 25 7 26 6 27 5 28 4 29 3 30 2 31 1 32
REMARK H PARENT
REMARK Flexibility Score: inf
ROOT
ATOM      1  C   UNL     1     -45.360 -31.504  39.808  1.00  0.00     0.000 C 
ENDROOT
BRANCH   1   2
ATOM      2  C   UNL     1     -43.943 -31.878  39.352  1.00  0.00     0.000 C 
BRANCH   2   3
ATOM      3  C   UNL     1     -43.328 -32.932  40.286  1.00  0.00     0.000 C 
BRANCH   3   4
ATOM      4  C   UNL     1     -42.057 -33.567  39.702  1.00  0.00     0.000 C 
BRANCH   4   5
ATOM      5  C   UNL     1     -41.217 -32.566  38.888  1.00  0.00     0.000 C 
BRANCH   5   6
ATOM      6  C   UNL     1     -40.068 -33.245  38.123  1.00  0.00     0.000 C 
BRANCH   6   7
ATOM      7  C   UNL     1     -40.130 -34.779  38.210  1.00  0.00     0.000 C 
BRANCH   7   8
ATOM      8  C   UNL     1     -39.994 -35.461  36.836  1.00  0.00     0.000 C 
BRANCH   8   9
ATOM      9  C   UNL     1     -41.326 -35.739  36.108  1.00  0.00     0.000 C 
BRANCH   9  10
ATOM     10  C   UNL     1     -42.594 -35.456  36.937  1.00  0.00     0.000 C 
BRANCH  10  11
ATOM     11  C   UNL     1     -43.899 -35.369  36.121  1.00  0.00     0.000 C 
BRANCH  11  12
ATOM     12  C   UNL     1     -45.139 -34.920  36.916  1.00  0.00     0.000 C 
BRANCH  12  13
ATOM     13  C   UNL     1     -45.306 -35.577  38.299  1.00  0.00     0.006 C 
BRANCH  13  14
ATOM     14  C   UNL     1     -46.762 -35.624  38.799  1.00  0.00     0.053 C 
BRANCH  14  15
ATOM     15  C   UNL     1     -47.240 -37.022  39.053  1.00  0.00     0.041 C 
ATOM     16  O   UNL     1     -46.419 -37.977  39.079  1.00  0.00    -0.550 OA
ATOM     17  O   UNL     1     -48.586 -37.269  39.286  1.00  0.00    -0.550 OA
ENDBRANCH  14  15
ENDBRANCH  13  14
ENDBRANCH  12  13
ENDBRANCH  11  12
ENDBRANCH  10  11
ENDBRANCH   9  10
ENDBRANCH   8   9
ENDBRANCH   7   8
ENDBRANCH   6   7
ENDBRANCH   5   6
ENDBRANCH   4   5
ENDBRANCH   3   4
ENDBRANCH   2   3
ENDBRANCH   1   2
BRANCH   1  18
ATOM     18  C   UNL     1     -46.335 -31.489  38.623  1.00  0.00     0.000 C 
BRANCH  18  19
ATOM     19  C   UNL     1     -45.625 -31.403  37.261  1.00  0.00     0.000 C 
BRANCH  19  20
ATOM     20  C   UNL     1     -45.903 -30.093  36.493  1.00  0.00     0.000 C 
BRANCH  20  21
ATOM     21  C   UNL     1     -45.395 -28.852  37.249  1.00  0.00     0.000 C 
BRANCH  21  22
ATOM     22  C   UNL     1     -44.378 -28.038  36.436  1.00  0.00     0.000 C 
BRANCH  22  23
ATOM     23  C   UNL     1     -43.043 -27.845  37.172  1.00  0.00     0.000 C 
BRANCH  23  24
ATOM     24  C   UNL     1     -42.610 -29.142  37.865  1.00  0.00    -0.000 C 
BRANCH  24  25
ATOM     25  C   UNL     1     -41.856 -28.847  39.171  1.00  0.00    -0.000 C 
BRANCH  25  26
ATOM     26  C   UNL     1     -40.800 -27.743  39.003  1.00  0.00    -0.000 C 
BRANCH  26  27
ATOM     27  C   UNL     1     -39.444 -28.123  39.625  1.00  0.00    -0.000 C 
BRANCH  27  28
ATOM     28  C   UNL     1     -39.220 -27.470  41.000  1.00  0.00    -0.000 C 
BRANCH  28  29
ATOM     29  C   UNL     1     -39.263 -25.934  40.935  1.00  0.00    -0.000 C 
BRANCH  29  30
ATOM     30  C   UNL     1     -40.450 -25.341  41.713  1.00  0.00    -0.000 C 
BRANCH  30  31
ATOM     31  C   UNL     1     -40.451 -23.806  41.714  1.00  0.00    -0.003 C 
ATOM     32  C   UNL     1     -40.442 -23.255  40.291  1.00  0.00     0.004 C 
ENDBRANCH  30  31
ENDBRANCH  29  30
ENDBRANCH  28  29
ENDBRANCH  27  28
ENDBRANCH  26  27
ENDBRANCH  25  26
ENDBRANCH  24  25
ENDBRANCH  23  24
ENDBRANCH  22  23
ENDBRANCH  21  22
ENDBRANCH  20  21
ENDBRANCH  19  20
ENDBRANCH  18  19
ENDBRANCH   1  18
TORSDOF 28
ENDMDL
