MODEL 1
REMARK VINA RESULT:    -8.376      0.000      0.000
REMARK INTER + INTRA:         -10.274
REMARK INTER:                 -10.089
REMARK INTRA:                  -0.184
REMARK UNBOUND:                -0.184
REMARK SMILES O=c1c(O)c(-c2ccc(O)c(O)c2)oc2cc(O)cc(O)c12
REMARK SMILES IDX 5 1 3 2 2 3 1 4 22 5 20 6 19 7 17 8 16 9 15 10 14 11 6 12
REMARK SMILES IDX 7 13 8 14 9 15 13 16 11 17 10 18 12 20 4 22 21 24 18 26
REMARK H PARENT 10 19 12 21 4 23 21 25 18 27
REMARK Flexibility Score: inf
ROOT
ATOM      1  C   UNL     1      13.105 -19.263 -19.024  1.00  0.00     0.180 A 
ATOM      2  C   UNL     1      11.927 -19.869 -18.556  1.00  0.00     0.208 A 
ATOM      3  C   UNL     1      11.999 -20.742 -17.458  1.00  0.00     0.238 A 
ATOM      4  O   UNL     1      10.933 -21.238 -17.009  1.00  0.00    -0.285 OA
ATOM      5  C   UNL     1      13.251 -21.010 -16.854  1.00  0.00     0.111 A 
ATOM      6  C   UNL     1      13.447 -21.908 -15.762  1.00  0.00     0.134 A 
ATOM      7  C   UNL     1      14.708 -21.997 -15.159  1.00  0.00     0.093 A 
ATOM      8  C   UNL     1      15.795 -21.270 -15.651  1.00  0.00     0.123 A 
ATOM      9  C   UNL     1      15.626 -20.435 -16.753  1.00  0.00     0.094 A 
ATOM     10  C   UNL     1      14.372 -20.298 -17.353  1.00  0.00     0.146 A 
ATOM     11  O   UNL     1      14.253 -19.484 -18.395  1.00  0.00    -0.452 OA
ENDROOT
BRANCH   1  12
ATOM     12  C   UNL     1      13.112 -18.352 -20.191  1.00  0.00     0.025 A 
ATOM     13  C   UNL     1      13.524 -17.021 -20.026  1.00  0.00     0.016 A 
ATOM     14  C   UNL     1      13.558 -16.149 -21.117  1.00  0.00     0.051 A 
ATOM     15  C   UNL     1      13.197 -16.597 -22.392  1.00  0.00     0.157 A 
ATOM     16  C   UNL     1      12.768 -18.806 -21.478  1.00  0.00     0.062 A 
ATOM     17  C   UNL     1      12.805 -17.933 -22.575  1.00  0.00     0.158 A 
BRANCH  15  18
ATOM     18  O   UNL     1      13.239 -15.704 -23.462  1.00  0.00    -0.504 OA
ATOM     19  H   UNL     1      12.472 -15.074 -23.667  1.00  0.00     0.293 HD
ENDBRANCH  15  18
BRANCH  17  20
ATOM     20  O   UNL     1      12.457 -18.390 -23.845  1.00  0.00    -0.504 OA
ATOM     21  H   UNL     1      11.844 -19.187 -23.974  1.00  0.00     0.293 HD
ENDBRANCH  17  20
ENDBRANCH   1  12
BRANCH   2  22
ATOM     22  O   UNL     1      10.698 -19.573 -19.154  1.00  0.00    -0.502 OA
ATOM     23  H   UNL     1       9.819 -19.926 -18.794  1.00  0.00     0.293 HD
ENDBRANCH   2  22
BRANCH   6  24
ATOM     24  O   UNL     1      12.452 -22.749 -15.254  1.00  0.00    -0.507 OA
ATOM     25  H   UNL     1      11.953 -23.440 -15.793  1.00  0.00     0.293 HD
ENDBRANCH   6  24
BRANCH   8  26
ATOM     26  O   UNL     1      17.050 -21.376 -15.055  1.00  0.00    -0.508 OA
ATOM     27  H   UNL     1      17.157 -21.407 -14.048  1.00  0.00     0.293 HD
ENDBRANCH   8  26
TORSDOF 6
ENDMDL
MODEL 2
REMARK VINA RESULT:    -8.285      1.522      3.331
REMARK INTER + INTRA:         -10.165
REMARK INTER:                 -10.024
REMARK INTRA:                  -0.140
REMARK UNBOUND:                -0.184
REMARK SMILES O=c1c(O)c(-c2ccc(O)c(O)c2)oc2cc(O)cc(O)c12
REMARK SMILES IDX 5 1 3 2 2 3 1 4 22 5 20 6 19 7 17 8 16 9 15 10 14 11 6 12
REMARK SMILES IDX 7 13 8 14 9 15 13 16 11 17 10 18 12 20 4 22 21 24 18 26
REMARK H PARENT 10 19 12 21 4 23 21 25 18 27
REMARK Flexibility Score: inf
ROOT
ATOM      1  C   UNL     1      13.692 -19.584 -18.153  1.00  0.00     0.180 A 
ATOM      2  C   UNL     1      14.975 -19.913 -17.681  1.00  0.00     0.208 A 
ATOM      3  C   UNL     1      15.094 -20.686 -16.515  1.00  0.00     0.238 A 
ATOM      4  O   UNL     1      16.243 -21.023 -16.128  1.00  0.00    -0.285 OA
ATOM      5  C   UNL     1      13.931 -21.106 -15.827  1.00  0.00     0.111 A 
ATOM      6  C   UNL     1      13.934 -21.859 -14.614  1.00  0.00     0.134 A 
ATOM      7  C   UNL     1      12.723 -22.332 -14.092  1.00  0.00     0.093 A 
ATOM      8  C   UNL     1      11.505 -22.023 -14.703  1.00  0.00     0.123 A 
ATOM      9  C   UNL     1      11.488 -21.240 -15.854  1.00  0.00     0.094 A 
ATOM     10  C   UNL     1      12.682 -20.784 -16.420  1.00  0.00     0.146 A 
ATOM     11  O   UNL     1      12.621 -20.048 -17.523  1.00  0.00    -0.452 OA
ENDROOT
BRANCH   1  12
ATOM     12  C   UNL     1      13.487 -18.752 -19.361  1.00  0.00     0.025 A 
ATOM     13  C   UNL     1      12.729 -19.258 -20.427  1.00  0.00     0.016 A 
ATOM     14  C   UNL     1      12.505 -18.482 -21.568  1.00  0.00     0.051 A 
ATOM     15  C   UNL     1      13.021 -17.186 -21.654  1.00  0.00     0.157 A 
ATOM     16  C   UNL     1      13.989 -17.440 -19.441  1.00  0.00     0.062 A 
ATOM     17  C   UNL     1      13.762 -16.658 -20.584  1.00  0.00     0.158 A 
BRANCH  15  18
ATOM     18  O   UNL     1      12.784 -16.436 -22.805  1.00  0.00    -0.504 OA
ATOM     19  H   UNL     1      13.535 -16.122 -23.408  1.00  0.00     0.293 HD
ENDBRANCH  15  18
BRANCH  17  20
ATOM     20  O   UNL     1      14.268 -15.362 -20.656  1.00  0.00    -0.504 OA
ATOM     21  H   UNL     1      14.216 -14.726 -19.869  1.00  0.00     0.293 HD
ENDBRANCH  17  20
ENDBRANCH   1  12
BRANCH   2  22
ATOM     22  O   UNL     1      16.110 -19.505 -18.388  1.00  0.00    -0.502 OA
ATOM     23  H   UNL     1      16.277 -18.537 -18.636  1.00  0.00     0.293 HD
ENDBRANCH   2  22
BRANCH   6  24
ATOM     24  O   UNL     1      15.086 -22.143 -13.875  1.00  0.00    -0.507 OA
ATOM     25  H   UNL     1      15.706 -21.448 -13.489  1.00  0.00     0.293 HD
ENDBRANCH   6  24
BRANCH   8  26
ATOM     26  O   UNL     1      10.305 -22.485 -14.168  1.00  0.00    -0.508 OA
ATOM     27  H   UNL     1      10.071 -22.344 -13.192  1.00  0.00     0.293 HD
ENDBRANCH   8  26
TORSDOF 6
ENDMDL
MODEL 3
REMARK VINA RESULT:    -8.124      1.409      3.016
REMARK INTER + INTRA:          -9.971
REMARK INTER:                  -9.790
REMARK INTRA:                  -0.181
REMARK UNBOUND:                -0.184
REMARK SMILES O=c1c(O)c(-c2ccc(O)c(O)c2)oc2cc(O)cc(O)c12
REMARK SMILES IDX 5 1 3 2 2 3 1 4 22 5 20 6 19 7 17 8 16 9 15 10 14 11 6 12
REMARK SMILES IDX 7 13 8 14 9 15 13 16 11 17 10 18 12 20 4 22 21 24 18 26
REMARK H PARENT 10 19 12 21 4 23 21 25 18 27
REMARK Flexibility Score: inf
ROOT
ATOM      1  C   UNL     1      13.728 -19.479 -18.095  1.00  0.00     0.180 A 
ATOM      2  C   UNL     1      15.004 -19.873 -17.655  1.00  0.00     0.208 A 
ATOM      3  C   UNL     1      15.110 -20.685 -16.515  1.00  0.00     0.238 A 
ATOM      4  O   UNL     1      16.251 -21.079 -16.159  1.00  0.00    -0.285 OA
ATOM      5  C   UNL     1      13.943 -21.079 -15.819  1.00  0.00     0.111 A 
ATOM      6  C   UNL     1      13.936 -21.867 -14.629  1.00  0.00     0.134 A 
ATOM      7  C   UNL     1      12.716 -22.306 -14.099  1.00  0.00     0.093 A 
ATOM      8  C   UNL     1      11.501 -21.931 -14.679  1.00  0.00     0.123 A 
ATOM      9  C   UNL     1      11.497 -21.113 -15.806  1.00  0.00     0.094 A 
ATOM     10  C   UNL     1      12.698 -20.689 -16.379  1.00  0.00     0.146 A 
ATOM     11  O   UNL     1      12.649 -19.918 -17.459  1.00  0.00    -0.452 OA
ENDROOT
BRANCH   1  12
ATOM     12  C   UNL     1      13.536 -18.603 -19.273  1.00  0.00     0.025 A 
ATOM     13  C   UNL     1      13.997 -17.279 -19.232  1.00  0.00     0.016 A 
ATOM     14  C   UNL     1      13.846 -16.441 -20.340  1.00  0.00     0.051 A 
ATOM     15  C   UNL     1      13.247 -16.918 -21.510  1.00  0.00     0.157 A 
ATOM     16  C   UNL     1      12.952 -19.087 -20.459  1.00  0.00     0.062 A 
ATOM     17  C   UNL     1      12.802 -18.248 -21.573  1.00  0.00     0.158 A 
BRANCH  15  18
ATOM     18  O   UNL     1      13.107 -16.058 -22.599  1.00  0.00    -0.504 OA
ATOM     19  H   UNL     1      13.471 -15.113 -22.589  1.00  0.00     0.293 HD
ENDBRANCH  15  18
BRANCH  17  20
ATOM     20  O   UNL     1      12.217 -18.734 -22.741  1.00  0.00    -0.504 OA
ATOM     21  H   UNL     1      12.433 -19.657 -23.100  1.00  0.00     0.293 HD
ENDBRANCH  17  20
ENDBRANCH   1  12
BRANCH   2  22
ATOM     22  O   UNL     1      16.142 -19.490 -18.370  1.00  0.00    -0.502 OA
ATOM     23  H   UNL     1      16.106 -18.827 -19.136  1.00  0.00     0.293 HD
ENDBRANCH   2  22
BRANCH   6  24
ATOM     24  O   UNL     1      15.088 -22.219 -13.919  1.00  0.00    -0.507 OA
ATOM     25  H   UNL     1      16.030 -22.099 -14.257  1.00  0.00     0.293 HD
ENDBRANCH   6  24
BRANCH   8  26
ATOM     26  O   UNL     1      10.292 -22.360 -14.136  1.00  0.00    -0.508 OA
ATOM     27  H   UNL     1       9.914 -21.944 -13.292  1.00  0.00     0.293 HD
ENDBRANCH   8  26
TORSDOF 6
ENDMDL
MODEL 4
REMARK VINA RESULT:    -7.724      1.547      2.931
REMARK INTER + INTRA:          -9.488
REMARK INTER:                  -9.253
REMARK INTRA:                  -0.235
REMARK UNBOUND:                -0.184
REMARK SMILES O=c1c(O)c(-c2ccc(O)c(O)c2)oc2cc(O)cc(O)c12
REMARK SMILES IDX 5 1 3 2 2 3 1 4 22 5 20 6 19 7 17 8 16 9 15 10 14 11 6 12
REMARK SMILES IDX 7 13 8 14 9 15 13 16 11 17 10 18 12 20 4 22 21 24 18 26
REMARK H PARENT 10 19 12 21 4 23 21 25 18 27
REMARK Flexibility Score: inf
ROOT
ATOM      1  C   UNL     1      12.696 -19.472 -18.941  1.00  0.00     0.180 A 
ATOM      2  C   UNL     1      13.958 -19.182 -18.392  1.00  0.00     0.208 A 
ATOM      3  C   UNL     1      14.375 -19.872 -17.243  1.00  0.00     0.238 A 
ATOM      4  O   UNL     1      15.527 -19.647 -16.789  1.00  0.00    -0.285 OA
ATOM      5  C   UNL     1      13.521 -20.829 -16.647  1.00  0.00     0.111 A 
ATOM      6  C   UNL     1      13.825 -21.558 -15.458  1.00  0.00     0.134 A 
ATOM      7  C   UNL     1      12.962 -22.575 -15.032  1.00  0.00     0.093 A 
ATOM      8  C   UNL     1      11.773 -22.845 -15.715  1.00  0.00     0.123 A 
ATOM      9  C   UNL     1      11.439 -22.099 -16.842  1.00  0.00     0.094 A 
ATOM     10  C   UNL     1      12.298 -21.103 -17.313  1.00  0.00     0.146 A 
ATOM     11  O   UNL     1      11.946 -20.422 -18.397  1.00  0.00    -0.452 OA
ENDROOT
BRANCH   1  12
ATOM     12  C   UNL     1      12.177 -18.769 -20.136  1.00  0.00     0.025 A 
ATOM     13  C   UNL     1      11.179 -17.796 -19.985  1.00  0.00     0.016 A 
ATOM     14  C   UNL     1      10.689 -17.104 -21.097  1.00  0.00     0.051 A 
ATOM     15  C   UNL     1      11.199 -17.366 -22.372  1.00  0.00     0.157 A 
ATOM     16  C   UNL     1      12.703 -19.016 -21.418  1.00  0.00     0.062 A 
ATOM     17  C   UNL     1      12.214 -18.322 -22.535  1.00  0.00     0.158 A 
BRANCH  15  18
ATOM     18  O   UNL     1      10.688 -16.663 -23.463  1.00  0.00    -0.504 OA
ATOM     19  H   UNL     1      11.055 -16.782 -24.400  1.00  0.00     0.293 HD
ENDBRANCH  15  18
BRANCH  17  20
ATOM     20  O   UNL     1      12.737 -18.577 -23.801  1.00  0.00    -0.504 OA
ATOM     21  H   UNL     1      13.418 -17.961 -24.229  1.00  0.00     0.293 HD
ENDBRANCH  17  20
ENDBRANCH   1  12
BRANCH   2  22
ATOM     22  O   UNL     1      14.794 -18.247 -19.010  1.00  0.00    -0.502 OA
ATOM     23  H   UNL     1      15.722 -18.484 -19.342  1.00  0.00     0.293 HD
ENDBRANCH   2  22
BRANCH   6  24
ATOM     24  O   UNL     1      14.938 -21.305 -14.650  1.00  0.00    -0.507 OA
ATOM     25  H   UNL     1      15.101 -21.726 -13.748  1.00  0.00     0.293 HD
ENDBRANCH   6  24
BRANCH   8  26
ATOM     26  O   UNL     1      10.912 -23.848 -15.275  1.00  0.00    -0.508 OA
ATOM     27  H   UNL     1      11.254 -24.650 -14.758  1.00  0.00     0.293 HD
ENDBRANCH   8  26
TORSDOF 6
ENDMDL
MODEL 5
REMARK VINA RESULT:    -7.102      1.834      7.344
REMARK INTER + INTRA:          -8.740
REMARK INTER:                  -9.214
REMARK INTRA:                   0.475
REMARK UNBOUND:                -0.184
REMARK SMILES O=c1c(O)c(-c2ccc(O)c(O)c2)oc2cc(O)cc(O)c12
REMARK SMILES IDX 5 1 3 2 2 3 1 4 22 5 20 6 19 7 17 8 16 9 15 10 14 11 6 12
REMARK SMILES IDX 7 13 8 14 9 15 13 16 11 17 10 18 12 20 4 22 21 24 18 26
REMARK H PARENT 10 19 12 21 4 23 21 25 18 27
REMARK Flexibility Score: inf
ROOT
ATOM      1  C   UNL     1      12.393 -19.338 -18.794  1.00  0.00     0.180 A 
ATOM      2  C   UNL     1      13.470 -18.455 -18.599  1.00  0.00     0.208 A 
ATOM      3  C   UNL     1      13.667 -17.409 -19.514  1.00  0.00     0.238 A 
ATOM      4  O   UNL     1      14.599 -16.589 -19.303  1.00  0.00    -0.285 OA
ATOM      5  C   UNL     1      12.798 -17.269 -20.623  1.00  0.00     0.111 A 
ATOM      6  C   UNL     1      12.929 -16.271 -21.634  1.00  0.00     0.134 A 
ATOM      7  C   UNL     1      11.936 -16.147 -22.613  1.00  0.00     0.093 A 
ATOM      8  C   UNL     1      10.851 -17.026 -22.656  1.00  0.00     0.123 A 
ATOM      9  C   UNL     1      10.746 -18.040 -21.707  1.00  0.00     0.094 A 
ATOM     10  C   UNL     1      11.701 -18.167 -20.696  1.00  0.00     0.146 A 
ATOM     11  O   UNL     1      11.558 -19.142 -19.806  1.00  0.00    -0.452 OA
ENDROOT
BRANCH   1  12
ATOM     12  C   UNL     1      12.136 -20.479 -17.886  1.00  0.00     0.025 A 
ATOM     13  C   UNL     1      11.055 -21.335 -18.143  1.00  0.00     0.016 A 
ATOM     14  C   UNL     1      10.805 -22.430 -17.311  1.00  0.00     0.051 A 
ATOM     15  C   UNL     1      11.640 -22.694 -16.220  1.00  0.00     0.157 A 
ATOM     16  C   UNL     1      12.986 -20.758 -16.800  1.00  0.00     0.062 A 
ATOM     17  C   UNL     1      12.739 -21.858 -15.965  1.00  0.00     0.158 A 
BRANCH  15  18
ATOM     18  O   UNL     1      11.365 -23.792 -15.406  1.00  0.00    -0.504 OA
ATOM     19  H   UNL     1      12.023 -24.553 -15.287  1.00  0.00     0.293 HD
ENDBRANCH  15  18
BRANCH  17  20
ATOM     20  O   UNL     1      13.583 -22.123 -14.889  1.00  0.00    -0.504 OA
ATOM     21  H   UNL     1      13.758 -23.069 -14.571  1.00  0.00     0.293 HD
ENDBRANCH  17  20
ENDBRANCH   1  12
BRANCH   2  22
ATOM     22  O   UNL     1      14.303 -18.598 -17.485  1.00  0.00    -0.502 OA
ATOM     23  H   UNL     1      15.080 -17.974 -17.304  1.00  0.00     0.293 HD
ENDBRANCH   2  22
BRANCH   6  24
ATOM     24  O   UNL     1      14.020 -15.403 -21.738  1.00  0.00    -0.507 OA
ATOM     25  H   UNL     1      14.455 -14.931 -20.960  1.00  0.00     0.293 HD
ENDBRANCH   6  24
BRANCH   8  26
ATOM     26  O   UNL     1       9.875 -16.904 -23.643  1.00  0.00    -0.508 OA
ATOM     27  H   UNL     1       9.192 -17.635 -23.804  1.00  0.00     0.293 HD
ENDBRANCH   8  26
TORSDOF 6
ENDMDL
MODEL 6
REMARK VINA RESULT:    -6.180      1.774      6.935
REMARK INTER + INTRA:          -7.628
REMARK INTER:                  -7.393
REMARK INTRA:                  -0.235
REMARK UNBOUND:                -0.184
REMARK SMILES O=c1c(O)c(-c2ccc(O)c(O)c2)oc2cc(O)cc(O)c12
REMARK SMILES IDX 5 1 3 2 2 3 1 4 22 5 20 6 19 7 17 8 16 9 15 10 14 11 6 12
REMARK SMILES IDX 7 13 8 14 9 15 13 16 11 17 10 18 12 20 4 22 21 24 18 26
REMARK H PARENT 10 19 12 21 4 23 21 25 18 27
REMARK Flexibility Score: inf
ROOT
ATOM      1  C   UNL     1      13.393 -18.979 -19.820  1.00  0.00     0.180 A 
ATOM      2  C   UNL     1      12.318 -18.093 -19.628  1.00  0.00     0.208 A 
ATOM      3  C   UNL     1      11.661 -17.566 -20.751  1.00  0.00     0.238 A 
ATOM      4  O   UNL     1      10.666 -16.817 -20.572  1.00  0.00    -0.285 OA
ATOM      5  C   UNL     1      12.097 -17.917 -22.051  1.00  0.00     0.111 A 
ATOM      6  C   UNL     1      11.531 -17.411 -23.260  1.00  0.00     0.134 A 
ATOM      7  C   UNL     1      11.955 -17.928 -24.490  1.00  0.00     0.093 A 
ATOM      8  C   UNL     1      12.971 -18.884 -24.558  1.00  0.00     0.123 A 
ATOM      9  C   UNL     1      13.570 -19.341 -23.387  1.00  0.00     0.094 A 
ATOM     10  C   UNL     1      13.143 -18.871 -22.143  1.00  0.00     0.146 A 
ATOM     11  O   UNL     1      13.735 -19.340 -21.050  1.00  0.00    -0.452 OA
ENDROOT
BRANCH   1  12
ATOM     12  C   UNL     1      14.150 -19.557 -18.686  1.00  0.00     0.025 A 
ATOM     13  C   UNL     1      15.434 -19.073 -18.396  1.00  0.00     0.016 A 
ATOM     14  C   UNL     1      16.158 -19.588 -17.317  1.00  0.00     0.051 A 
ATOM     15  C   UNL     1      15.605 -20.583 -16.505  1.00  0.00     0.157 A 
ATOM     16  C   UNL     1      13.587 -20.543 -17.855  1.00  0.00     0.062 A 
ATOM     17  C   UNL     1      14.311 -21.060 -16.771  1.00  0.00     0.158 A 
BRANCH  15  18
ATOM     18  O   UNL     1      16.352 -21.080 -15.438  1.00  0.00    -0.504 OA
ATOM     19  H   UNL     1      16.932 -21.906 -15.526  1.00  0.00     0.293 HD
ENDBRANCH  15  18
BRANCH  17  20
ATOM     20  O   UNL     1      13.748 -22.041 -15.957  1.00  0.00    -0.504 OA
ATOM     21  H   UNL     1      14.250 -22.890 -15.721  1.00  0.00     0.293 HD
ENDBRANCH  17  20
ENDBRANCH   1  12
BRANCH   2  22
ATOM     22  O   UNL     1      11.891 -17.777 -18.335  1.00  0.00    -0.502 OA
ATOM     23  H   UNL     1      11.006 -18.098 -17.961  1.00  0.00     0.293 HD
ENDBRANCH   2  22
BRANCH   6  24
ATOM     24  O   UNL     1      10.577 -16.389 -23.307  1.00  0.00    -0.507 OA
ATOM     25  H   UNL     1       9.727 -16.422 -23.850  1.00  0.00     0.293 HD
ENDBRANCH   6  24
BRANCH   8  26
ATOM     26  O   UNL     1      13.398 -19.381 -25.788  1.00  0.00    -0.508 OA
ATOM     27  H   UNL     1      14.372 -19.343 -26.065  1.00  0.00     0.293 HD
ENDBRANCH   8  26
TORSDOF 6
ENDMDL
MODEL 7
REMARK VINA RESULT:    -5.714      1.954      7.157
REMARK INTER + INTRA:          -7.068
REMARK INTER:                  -6.754
REMARK INTRA:                  -0.314
REMARK UNBOUND:                -0.184
REMARK SMILES O=c1c(O)c(-c2ccc(O)c(O)c2)oc2cc(O)cc(O)c12
REMARK SMILES IDX 5 1 3 2 2 3 1 4 22 5 20 6 19 7 17 8 16 9 15 10 14 11 6 12
REMARK SMILES IDX 7 13 8 14 9 15 13 16 11 17 10 18 12 20 4 22 21 24 18 26
REMARK H PARENT 10 19 12 21 4 23 21 25 18 27
REMARK Flexibility Score: inf
ROOT
ATOM      1  C   UNL     1      12.113 -19.141 -19.967  1.00  0.00     0.180 A 
ATOM      2  C   UNL     1      11.631 -17.824 -19.871  1.00  0.00     0.208 A 
ATOM      3  C   UNL     1      11.839 -16.943 -20.944  1.00  0.00     0.238 A 
ATOM      4  O   UNL     1      11.357 -15.782 -20.874  1.00  0.00    -0.285 OA
ATOM      5  C   UNL     1      12.542 -17.382 -22.091  1.00  0.00     0.111 A 
ATOM      6  C   UNL     1      12.845 -16.563 -23.219  1.00  0.00     0.134 A 
ATOM      7  C   UNL     1      13.430 -17.139 -24.353  1.00  0.00     0.093 A 
ATOM      8  C   UNL     1      13.783 -18.491 -24.375  1.00  0.00     0.123 A 
ATOM      9  C   UNL     1      13.544 -19.285 -23.256  1.00  0.00     0.094 A 
ATOM     10  C   UNL     1      12.928 -18.748 -22.123  1.00  0.00     0.146 A 
ATOM     11  O   UNL     1      12.710 -19.543 -21.082  1.00  0.00    -0.452 OA
ENDROOT
BRANCH   1  12
ATOM     12  C   UNL     1      11.954 -20.121 -18.868  1.00  0.00     0.025 A 
ATOM     13  C   UNL     1      10.774 -20.875 -18.781  1.00  0.00     0.016 A 
ATOM     14  C   UNL     1      10.611 -21.820 -17.765  1.00  0.00     0.051 A 
ATOM     15  C   UNL     1      11.629 -22.037 -16.831  1.00  0.00     0.157 A 
ATOM     16  C   UNL     1      12.985 -20.355 -17.939  1.00  0.00     0.062 A 
ATOM     17  C   UNL     1      12.824 -21.305 -16.920  1.00  0.00     0.158 A 
BRANCH  15  18
ATOM     18  O   UNL     1      11.436 -22.984 -15.826  1.00  0.00    -0.504 OA
ATOM     19  H   UNL     1      11.947 -23.859 -15.806  1.00  0.00     0.293 HD
ENDBRANCH  15  18
BRANCH  17  20
ATOM     20  O   UNL     1      13.848 -21.526 -16.001  1.00  0.00    -0.504 OA
ATOM     21  H   UNL     1      13.729 -22.149 -15.211  1.00  0.00     0.293 HD
ENDBRANCH  17  20
ENDBRANCH   1  12
BRANCH   2  22
ATOM     22  O   UNL     1      10.921 -17.417 -18.737  1.00  0.00    -0.502 OA
ATOM     23  H   UNL     1      10.792 -16.441 -18.499  1.00  0.00     0.293 HD
ENDBRANCH   2  22
BRANCH   6  24
ATOM     24  O   UNL     1      12.620 -15.184 -23.265  1.00  0.00    -0.507 OA
ATOM     25  H   UNL     1      11.930 -14.734 -23.847  1.00  0.00     0.293 HD
ENDBRANCH   6  24
BRANCH   8  26
ATOM     26  O   UNL     1      14.379 -19.052 -25.502  1.00  0.00    -0.508 OA
ATOM     27  H   UNL     1      14.296 -20.041 -25.708  1.00  0.00     0.293 HD
ENDBRANCH   8  26
TORSDOF 6
ENDMDL
