MODEL 1
REMARK VINA RESULT:    -6.610      0.000      0.000
REMARK INTER + INTRA:          -7.917
REMARK INTER:                  -7.769
REMARK INTRA:                  -0.147
REMARK UNBOUND:                -0.147
REMARK SMILES O=c1c(O)c(-c2ccc(O)cc2)oc2cc(O)cc(O)c12
REMARK SMILES IDX 5 1 3 2 2 3 1 4 21 5 19 6 18 7 16 8 15 9 14 10 13 11 6 12
REMARK SMILES IDX 7 13 8 14 9 15 12 16 11 17 10 18 4 20 20 22 17 24
REMARK H PARENT 10 19 4 21 20 23 17 25
REMARK Flexibility Score: inf
ROOT
ATOM      1  C   UNL     1      31.246 -91.633  37.753  1.00  0.00     0.180 A 
ATOM      2  C   UNL     1      30.014 -92.227  37.430  1.00  0.00     0.208 A 
ATOM      3  C   UNL     1      29.859 -93.612  37.605  1.00  0.00     0.238 A 
ATOM      4  O   UNL     1      28.771 -94.146  37.263  1.00  0.00    -0.285 OA
ATOM      5  C   UNL     1      30.931 -94.382  38.115  1.00  0.00     0.111 A 
ATOM      6  C   UNL     1      30.872 -95.785  38.370  1.00  0.00     0.134 A 
ATOM      7  C   UNL     1      32.034 -96.467  38.751  1.00  0.00     0.093 A 
ATOM      8  C   UNL     1      33.236 -95.789  38.949  1.00  0.00     0.123 A 
ATOM      9  C   UNL     1      33.290 -94.408  38.760  1.00  0.00     0.094 A 
ATOM     10  C   UNL     1      32.156 -93.704  38.346  1.00  0.00     0.146 A 
ATOM     11  O   UNL     1      32.253 -92.392  38.166  1.00  0.00    -0.452 OA
ENDROOT
BRANCH   1  12
ATOM     12  C   UNL     1      31.478 -90.177  37.620  1.00  0.00     0.021 A 
ATOM     13  C   UNL     1      30.753 -89.246  38.388  1.00  0.00     0.016 A 
ATOM     14  C   UNL     1      31.006 -87.877  38.262  1.00  0.00     0.047 A 
ATOM     15  C   UNL     1      31.995 -87.421  37.380  1.00  0.00     0.115 A 
ATOM     16  C   UNL     1      32.480 -89.712  36.752  1.00  0.00     0.016 A 
ATOM     17  C   UNL     1      32.730 -88.342  36.628  1.00  0.00     0.047 A 
BRANCH  15  18
ATOM     18  O   UNL     1      32.254 -86.059  37.245  1.00  0.00    -0.508 OA
ATOM     19  H   UNL     1      31.827 -85.376  37.858  1.00  0.00     0.293 HD
ENDBRANCH  15  18
ENDBRANCH   1  12
BRANCH   2  20
ATOM     20  O   UNL     1      28.975 -91.452  36.908  1.00  0.00    -0.502 OA
ATOM     21  H   UNL     1      29.113 -90.796  36.148  1.00  0.00     0.293 HD
ENDBRANCH   2  20
BRANCH   6  22
ATOM     22  O   UNL     1      29.701 -96.544  38.291  1.00  0.00    -0.507 OA
ATOM     23  H   UNL     1      29.668 -97.532  38.086  1.00  0.00     0.293 HD
ENDBRANCH   6  22
BRANCH   8  24
ATOM     24  O   UNL     1      34.368 -96.497  39.343  1.00  0.00    -0.508 OA
ATOM     25  H   UNL     1      35.265 -96.355  38.894  1.00  0.00     0.293 HD
ENDBRANCH   8  24
TORSDOF 5
ENDMDL
MODEL 2
REMARK VINA RESULT:    -5.954      1.293      3.262
REMARK INTER + INTRA:          -7.146
REMARK INTER:                  -6.995
REMARK INTRA:                  -0.151
REMARK UNBOUND:                -0.147
REMARK SMILES O=c1c(O)c(-c2ccc(O)cc2)oc2cc(O)cc(O)c12
REMARK SMILES IDX 5 1 3 2 2 3 1 4 21 5 19 6 18 7 16 8 15 9 14 10 13 11 6 12
REMARK SMILES IDX 7 13 8 14 9 15 12 16 11 17 10 18 4 20 20 22 17 24
REMARK H PARENT 10 19 4 21 20 23 17 25
REMARK Flexibility Score: inf
ROOT
ATOM      1  C   UNL     1      31.301 -91.957  37.728  1.00  0.00     0.180 A 
ATOM      2  C   UNL     1      32.335 -92.847  38.066  1.00  0.00     0.208 A 
ATOM      3  C   UNL     1      32.053 -94.220  38.149  1.00  0.00     0.238 A 
ATOM      4  O   UNL     1      32.970 -95.005  38.504  1.00  0.00    -0.285 OA
ATOM      5  C   UNL     1      30.745 -94.688  37.878  1.00  0.00     0.111 A 
ATOM      6  C   UNL     1      30.355 -96.061  37.894  1.00  0.00     0.134 A 
ATOM      7  C   UNL     1      29.005 -96.397  37.740  1.00  0.00     0.093 A 
ATOM      8  C   UNL     1      28.040 -95.418  37.506  1.00  0.00     0.123 A 
ATOM      9  C   UNL     1      28.419 -94.078  37.430  1.00  0.00     0.094 A 
ATOM     10  C   UNL     1      29.753 -93.707  37.615  1.00  0.00     0.146 A 
ATOM     11  O   UNL     1      30.070 -92.420  37.545  1.00  0.00    -0.452 OA
ENDROOT
BRANCH   1  12
ATOM     12  C   UNL     1      31.526 -90.500  37.596  1.00  0.00     0.021 A 
ATOM     13  C   UNL     1      32.383 -89.977  36.609  1.00  0.00     0.016 A 
ATOM     14  C   UNL     1      32.562 -88.596  36.488  1.00  0.00     0.047 A 
ATOM     15  C   UNL     1      31.877 -87.720  37.340  1.00  0.00     0.115 A 
ATOM     16  C   UNL     1      30.829 -89.612  38.433  1.00  0.00     0.016 A 
ATOM     17  C   UNL     1      31.010 -88.231  38.310  1.00  0.00     0.047 A 
BRANCH  15  18
ATOM     18  O   UNL     1      32.049 -86.341  37.230  1.00  0.00    -0.508 OA
ATOM     19  H   UNL     1      32.872 -85.944  36.793  1.00  0.00     0.293 HD
ENDBRANCH  15  18
ENDBRANCH   1  12
BRANCH   2  20
ATOM     20  O   UNL     1      33.615 -92.362  38.349  1.00  0.00    -0.502 OA
ATOM     21  H   UNL     1      33.897 -91.412  38.138  1.00  0.00     0.293 HD
ENDBRANCH   2  20
BRANCH   6  22
ATOM     22  O   UNL     1      31.252 -97.124  38.029  1.00  0.00    -0.507 OA
ATOM     23  H   UNL     1      31.667 -97.419  38.900  1.00  0.00     0.293 HD
ENDBRANCH   6  22
BRANCH   8  24
ATOM     24  O   UNL     1      26.708 -95.791  37.342  1.00  0.00    -0.508 OA
ATOM     25  H   UNL     1      25.963 -95.104  37.332  1.00  0.00     0.293 HD
ENDBRANCH   8  24
TORSDOF 5
ENDMDL
MODEL 3
REMARK VINA RESULT:    -5.786      9.502     10.841
REMARK INTER + INTRA:          -6.948
REMARK INTER:                  -6.695
REMARK INTRA:                  -0.253
REMARK UNBOUND:                -0.147
REMARK SMILES O=c1c(O)c(-c2ccc(O)cc2)oc2cc(O)cc(O)c12
REMARK SMILES IDX 5 1 3 2 2 3 1 4 21 5 19 6 18 7 16 8 15 9 14 10 13 11 6 12
REMARK SMILES IDX 7 13 8 14 9 15 12 16 11 17 10 18 4 20 20 22 17 24
REMARK H PARENT 10 19 4 21 20 23 17 25
REMARK Flexibility Score: inf
ROOT
ATOM      1  C   UNL     1      36.608 -94.763  30.072  1.00  0.00     0.180 A 
ATOM      2  C   UNL     1      37.692 -95.061  29.228  1.00  0.00     0.208 A 
ATOM      3  C   UNL     1      38.988 -95.094  29.771  1.00  0.00     0.238 A 
ATOM      4  O   UNL     1      39.959 -95.309  29.000  1.00  0.00    -0.285 OA
ATOM      5  C   UNL     1      39.180 -94.844  31.150  1.00  0.00     0.111 A 
ATOM      6  C   UNL     1      40.443 -94.889  31.814  1.00  0.00     0.134 A 
ATOM      7  C   UNL     1      40.533 -94.496  33.154  1.00  0.00     0.093 A 
ATOM      8  C   UNL     1      39.399 -94.122  33.874  1.00  0.00     0.123 A 
ATOM      9  C   UNL     1      38.151 -94.130  33.251  1.00  0.00     0.094 A 
ATOM     10  C   UNL     1      38.033 -94.483  31.904  1.00  0.00     0.146 A 
ATOM     11  O   UNL     1      36.829 -94.468  31.347  1.00  0.00    -0.452 OA
ENDROOT
BRANCH   1  12
ATOM     12  C   UNL     1      35.212 -94.735  29.580  1.00  0.00     0.021 A 
ATOM     13  C   UNL     1      34.711 -93.635  28.859  1.00  0.00     0.016 A 
ATOM     14  C   UNL     1      33.396 -93.642  28.383  1.00  0.00     0.047 A 
ATOM     15  C   UNL     1      32.570 -94.751  28.610  1.00  0.00     0.115 A 
ATOM     16  C   UNL     1      34.382 -95.851  29.785  1.00  0.00     0.016 A 
ATOM     17  C   UNL     1      33.067 -95.854  29.309  1.00  0.00     0.047 A 
BRANCH  15  18
ATOM     18  O   UNL     1      31.257 -94.767  28.143  1.00  0.00    -0.508 OA
ATOM     19  H   UNL     1      30.498 -95.125  28.710  1.00  0.00     0.293 HD
ENDBRANCH  15  18
ENDBRANCH   1  12
BRANCH   2  20
ATOM     20  O   UNL     1      37.482 -95.285  27.865  1.00  0.00    -0.502 OA
ATOM     21  H   UNL     1      36.938 -94.655  27.287  1.00  0.00     0.293 HD
ENDBRANCH   2  20
BRANCH   6  22
ATOM     22  O   UNL     1      41.624 -95.336  31.214  1.00  0.00    -0.507 OA
ATOM     23  H   UNL     1      42.361 -95.830  31.694  1.00  0.00     0.293 HD
ENDBRANCH   6  22
BRANCH   8  24
ATOM     24  O   UNL     1      39.524 -93.751  35.210  1.00  0.00    -0.508 OA
ATOM     25  H   UNL     1      38.897 -93.077  35.634  1.00  0.00     0.293 HD
ENDBRANCH   8  24
TORSDOF 5
ENDMDL
MODEL 4
REMARK VINA RESULT:    -5.515      9.484     11.042
REMARK INTER + INTRA:          -6.629
REMARK INTER:                  -6.431
REMARK INTRA:                  -0.198
REMARK UNBOUND:                -0.147
REMARK SMILES O=c1c(O)c(-c2ccc(O)cc2)oc2cc(O)cc(O)c12
REMARK SMILES IDX 5 1 3 2 2 3 1 4 21 5 19 6 18 7 16 8 15 9 14 10 13 11 6 12
REMARK SMILES IDX 7 13 8 14 9 15 12 16 11 17 10 18 4 20 20 22 17 24
REMARK H PARENT 10 19 4 21 20 23 17 25
REMARK Flexibility Score: inf
ROOT
ATOM      1  C   UNL     1      37.818 -94.973  31.166  1.00  0.00     0.180 A 
ATOM      2  C   UNL     1      38.361 -95.803  30.170  1.00  0.00     0.208 A 
ATOM      3  C   UNL     1      37.658 -95.971  28.965  1.00  0.00     0.238 A 
ATOM      4  O   UNL     1      38.124 -96.756  28.099  1.00  0.00    -0.285 OA
ATOM      5  C   UNL     1      36.431 -95.296  28.766  1.00  0.00     0.111 A 
ATOM      6  C   UNL     1      35.653 -95.361  27.571  1.00  0.00     0.134 A 
ATOM      7  C   UNL     1      34.391 -94.758  27.534  1.00  0.00     0.093 A 
ATOM      8  C   UNL     1      33.904 -94.037  28.624  1.00  0.00     0.123 A 
ATOM      9  C   UNL     1      34.681 -93.917  29.777  1.00  0.00     0.094 A 
ATOM     10  C   UNL     1      35.930 -94.537  29.857  1.00  0.00     0.146 A 
ATOM     11  O   UNL     1      36.633 -94.408  30.976  1.00  0.00    -0.452 OA
ENDROOT
BRANCH   1  12
ATOM     12  C   UNL     1      38.512 -94.727  32.451  1.00  0.00     0.021 A 
ATOM     13  C   UNL     1      39.705 -93.984  32.508  1.00  0.00     0.016 A 
ATOM     14  C   UNL     1      40.329 -93.744  33.736  1.00  0.00     0.047 A 
ATOM     15  C   UNL     1      39.763 -94.231  34.922  1.00  0.00     0.115 A 
ATOM     16  C   UNL     1      37.941 -95.195  33.647  1.00  0.00     0.016 A 
ATOM     17  C   UNL     1      38.568 -94.954  34.873  1.00  0.00     0.047 A 
BRANCH  15  18
ATOM     18  O   UNL     1      40.377 -94.000  36.151  1.00  0.00    -0.508 OA
ATOM     19  H   UNL     1      41.108 -93.306  36.255  1.00  0.00     0.293 HD
ENDBRANCH  15  18
ENDBRANCH   1  12
BRANCH   2  20
ATOM     20  O   UNL     1      39.565 -96.476  30.394  1.00  0.00    -0.502 OA
ATOM     21  H   UNL     1      39.600 -97.433  30.727  1.00  0.00     0.293 HD
ENDBRANCH   2  20
BRANCH   6  22
ATOM     22  O   UNL     1      36.085 -95.978  26.393  1.00  0.00    -0.507 OA
ATOM     23  H   UNL     1      36.615 -96.836  26.354  1.00  0.00     0.293 HD
ENDBRANCH   6  22
BRANCH   8  24
ATOM     24  O   UNL     1      32.650 -93.437  28.546  1.00  0.00    -0.508 OA
ATOM     25  H   UNL     1      32.537 -92.433  28.623  1.00  0.00     0.293 HD
ENDBRANCH   8  24
TORSDOF 5
ENDMDL
MODEL 5
REMARK VINA RESULT:    -5.401      7.778     10.285
REMARK INTER + INTRA:          -6.495
REMARK INTER:                  -6.281
REMARK INTRA:                  -0.214
REMARK UNBOUND:                -0.147
REMARK SMILES O=c1c(O)c(-c2ccc(O)cc2)oc2cc(O)cc(O)c12
REMARK SMILES IDX 5 1 3 2 2 3 1 4 21 5 19 6 18 7 16 8 15 9 14 10 13 11 6 12
REMARK SMILES IDX 7 13 8 14 9 15 12 16 11 17 10 18 4 20 20 22 17 24
REMARK H PARENT 10 19 4 21 20 23 17 25
REMARK Flexibility Score: inf
ROOT
ATOM      1  C   UNL     1      40.225 -94.892  35.531  1.00  0.00     0.180 A 
ATOM      2  C   UNL     1      41.248 -94.535  36.426  1.00  0.00     0.208 A 
ATOM      3  C   UNL     1      41.024 -94.671  37.807  1.00  0.00     0.238 A 
ATOM      4  O   UNL     1      41.924 -94.300  38.604  1.00  0.00    -0.285 OA
ATOM      5  C   UNL     1      39.787 -95.176  38.272  1.00  0.00     0.111 A 
ATOM      6  C   UNL     1      39.464 -95.392  39.646  1.00  0.00     0.134 A 
ATOM      7  C   UNL     1      38.164 -95.772  39.999  1.00  0.00     0.093 A 
ATOM      8  C   UNL     1      37.193 -96.006  39.027  1.00  0.00     0.123 A 
ATOM      9  C   UNL     1      37.513 -95.854  37.678  1.00  0.00     0.094 A 
ATOM     10  C   UNL     1      38.792 -95.442  37.295  1.00  0.00     0.146 A 
ATOM     11  O   UNL     1      39.053 -95.299  36.001  1.00  0.00    -0.452 OA
ENDROOT
BRANCH   1  12
ATOM     12  C   UNL     1      40.395 -94.800  34.063  1.00  0.00     0.021 A 
ATOM     13  C   UNL     1      41.241 -95.684  33.367  1.00  0.00     0.016 A 
ATOM     14  C   UNL     1      41.368 -95.594  31.978  1.00  0.00     0.047 A 
ATOM     15  C   UNL     1      40.641 -94.630  31.265  1.00  0.00     0.115 A 
ATOM     16  C   UNL     1      39.656 -93.850  33.338  1.00  0.00     0.016 A 
ATOM     17  C   UNL     1      39.785 -93.762  31.948  1.00  0.00     0.047 A 
BRANCH  15  18
ATOM     18  O   UNL     1      40.761 -94.530  29.881  1.00  0.00    -0.508 OA
ATOM     19  H   UNL     1      40.449 -93.707  29.381  1.00  0.00     0.293 HD
ENDBRANCH  15  18
ENDBRANCH   1  12
BRANCH   2  20
ATOM     20  O   UNL     1      42.455 -94.019  35.947  1.00  0.00    -0.502 OA
ATOM     21  H   UNL     1      43.160 -93.624  36.558  1.00  0.00     0.293 HD
ENDBRANCH   2  20
BRANCH   6  22
ATOM     22  O   UNL     1      40.386 -95.277  40.691  1.00  0.00    -0.507 OA
ATOM     23  H   UNL     1      41.241 -95.808  40.764  1.00  0.00     0.293 HD
ENDBRANCH   6  22
BRANCH   8  24
ATOM     24  O   UNL     1      35.913 -96.397  39.414  1.00  0.00    -0.508 OA
ATOM     25  H   UNL     1      35.647 -97.374  39.457  1.00  0.00     0.293 HD
ENDBRANCH   8  24
TORSDOF 5
ENDMDL
MODEL 6
REMARK VINA RESULT:    -5.326      8.077      9.675
REMARK INTER + INTRA:          -6.407
REMARK INTER:                  -6.121
REMARK INTRA:                  -0.286
REMARK UNBOUND:                -0.147
REMARK SMILES O=c1c(O)c(-c2ccc(O)cc2)oc2cc(O)cc(O)c12
REMARK SMILES IDX 5 1 3 2 2 3 1 4 21 5 19 6 18 7 16 8 15 9 14 10 13 11 6 12
REMARK SMILES IDX 7 13 8 14 9 15 12 16 11 17 10 18 4 20 20 22 17 24
REMARK H PARENT 10 19 4 21 20 23 17 25
REMARK Flexibility Score: inf
ROOT
ATOM      1  C   UNL     1      39.372 -95.250  35.159  1.00  0.00     0.180 A 
ATOM      2  C   UNL     1      38.317 -96.143  35.417  1.00  0.00     0.208 A 
ATOM      3  C   UNL     1      37.850 -96.282  36.735  1.00  0.00     0.238 A 
ATOM      4  O   UNL     1      36.941 -97.121  36.967  1.00  0.00    -0.285 OA
ATOM      5  C   UNL     1      38.431 -95.516  37.773  1.00  0.00     0.111 A 
ATOM      6  C   UNL     1      38.011 -95.547  39.137  1.00  0.00     0.134 A 
ATOM      7  C   UNL     1      38.743 -94.846  40.102  1.00  0.00     0.093 A 
ATOM      8  C   UNL     1      39.841 -94.064  39.745  1.00  0.00     0.123 A 
ATOM      9  C   UNL     1      40.226 -93.980  38.407  1.00  0.00     0.094 A 
ATOM     10  C   UNL     1      39.536 -94.696  37.425  1.00  0.00     0.146 A 
ATOM     11  O   UNL     1      39.941 -94.597  36.165  1.00  0.00    -0.452 OA
ENDROOT
BRANCH   1  12
ATOM     12  C   UNL     1      39.902 -95.031  33.795  1.00  0.00     0.021 A 
ATOM     13  C   UNL     1      40.988 -95.778  33.301  1.00  0.00     0.016 A 
ATOM     14  C   UNL     1      41.456 -95.570  32.000  1.00  0.00     0.047 A 
ATOM     15  C   UNL     1      40.838 -94.623  31.172  1.00  0.00     0.115 A 
ATOM     16  C   UNL     1      39.277 -94.097  32.950  1.00  0.00     0.016 A 
ATOM     17  C   UNL     1      39.748 -93.891  31.650  1.00  0.00     0.047 A 
BRANCH  15  18
ATOM     18  O   UNL     1      41.298 -94.406  29.875  1.00  0.00    -0.508 OA
ATOM     19  H   UNL     1      42.104 -93.821  29.691  1.00  0.00     0.293 HD
ENDBRANCH  15  18
ENDBRANCH   1  12
BRANCH   2  20
ATOM     20  O   UNL     1      37.771 -96.904  34.381  1.00  0.00    -0.502 OA
ATOM     21  H   UNL     1      37.138 -97.678  34.549  1.00  0.00     0.293 HD
ENDBRANCH   2  20
BRANCH   6  22
ATOM     22  O   UNL     1      36.873 -96.223  39.587  1.00  0.00    -0.507 OA
ATOM     23  H   UNL     1      35.937 -96.064  39.244  1.00  0.00     0.293 HD
ENDBRANCH   6  22
BRANCH   8  24
ATOM     24  O   UNL     1      40.538 -93.368  40.730  1.00  0.00    -0.508 OA
ATOM     25  H   UNL     1      41.468 -93.001  40.563  1.00  0.00     0.293 HD
ENDBRANCH   8  24
TORSDOF 5
ENDMDL
MODEL 7
REMARK VINA RESULT:    -5.107      9.389     10.764
REMARK INTER + INTRA:          -6.149
REMARK INTER:                  -5.885
REMARK INTRA:                  -0.264
REMARK UNBOUND:                -0.147
REMARK SMILES O=c1c(O)c(-c2ccc(O)cc2)oc2cc(O)cc(O)c12
REMARK SMILES IDX 5 1 3 2 2 3 1 4 21 5 19 6 18 7 16 8 15 9 14 10 13 11 6 12
REMARK SMILES IDX 7 13 8 14 9 15 12 16 11 17 10 18 4 20 20 22 17 24
REMARK H PARENT 10 19 4 21 20 23 17 25
REMARK Flexibility Score: inf
ROOT
ATOM      1  C   UNL     1      31.387 -95.490  29.108  1.00  0.00     0.180 A 
ATOM      2  C   UNL     1      30.885 -95.689  30.406  1.00  0.00     0.208 A 
ATOM      3  C   UNL     1      29.518 -95.967  30.572  1.00  0.00     0.238 A 
ATOM      4  O   UNL     1      29.065 -96.091  31.739  1.00  0.00    -0.285 OA
ATOM      5  C   UNL     1      28.675 -96.058  29.439  1.00  0.00     0.111 A 
ATOM      6  C   UNL     1      27.284 -96.373  29.486  1.00  0.00     0.134 A 
ATOM      7  C   UNL     1      26.520 -96.307  28.315  1.00  0.00     0.093 A 
ATOM      8  C   UNL     1      27.108 -96.001  27.088  1.00  0.00     0.123 A 
ATOM      9  C   UNL     1      28.478 -95.748  27.021  1.00  0.00     0.094 A 
ATOM     10  C   UNL     1      29.261 -95.772  28.178  1.00  0.00     0.146 A 
ATOM     11  O   UNL     1      30.559 -95.516  28.072  1.00  0.00    -0.452 OA
ENDROOT
BRANCH   1  12
ATOM     12  C   UNL     1      32.820 -95.219  28.851  1.00  0.00     0.021 A 
ATOM     13  C   UNL     1      33.775 -96.252  28.865  1.00  0.00     0.016 A 
ATOM     14  C   UNL     1      35.119 -95.975  28.595  1.00  0.00     0.047 A 
ATOM     15  C   UNL     1      35.522 -94.667  28.295  1.00  0.00     0.115 A 
ATOM     16  C   UNL     1      33.231 -93.914  28.531  1.00  0.00     0.016 A 
ATOM     17  C   UNL     1      34.575 -93.640  28.262  1.00  0.00     0.047 A 
BRANCH  15  18
ATOM     18  O   UNL     1      36.859 -94.379  28.027  1.00  0.00    -0.508 OA
ATOM     19  H   UNL     1      37.392 -94.917  27.354  1.00  0.00     0.293 HD
ENDBRANCH  15  18
ENDBRANCH   1  12
BRANCH   2  20
ATOM     20  O   UNL     1      31.730 -95.575  31.513  1.00  0.00    -0.502 OA
ATOM     21  H   UNL     1      31.396 -95.668  32.465  1.00  0.00     0.293 HD
ENDBRANCH   2  20
BRANCH   6  22
ATOM     22  O   UNL     1      26.616 -96.781  30.645  1.00  0.00    -0.507 OA
ATOM     23  H   UNL     1      26.198 -97.690  30.777  1.00  0.00     0.293 HD
ENDBRANCH   6  22
BRANCH   8  24
ATOM     24  O   UNL     1      26.320 -95.958  25.940  1.00  0.00    -0.508 OA
ATOM     25  H   UNL     1      25.628 -96.673  25.745  1.00  0.00     0.293 HD
ENDBRANCH   8  24
TORSDOF 5
ENDMDL
MODEL 8
REMARK VINA RESULT:    -5.029      9.034     10.953
REMARK INTER + INTRA:          -6.059
REMARK INTER:                  -5.915
REMARK INTRA:                  -0.144
REMARK UNBOUND:                -0.147
REMARK SMILES O=c1c(O)c(-c2ccc(O)cc2)oc2cc(O)cc(O)c12
REMARK SMILES IDX 5 1 3 2 2 3 1 4 21 5 19 6 18 7 16 8 15 9 14 10 13 11 6 12
REMARK SMILES IDX 7 13 8 14 9 15 12 16 11 17 10 18 4 20 20 22 17 24
REMARK H PARENT 10 19 4 21 20 23 17 25
REMARK Flexibility Score: inf
ROOT
ATOM      1  C   UNL     1      39.685 -94.707  34.444  1.00  0.00     0.180 A 
ATOM      2  C   UNL     1      38.620 -94.356  33.597  1.00  0.00     0.208 A 
ATOM      3  C   UNL     1      38.811 -94.403  32.206  1.00  0.00     0.238 A 
ATOM      4  O   UNL     1      37.870 -94.037  31.455  1.00  0.00    -0.285 OA
ATOM      5  C   UNL     1      40.058 -94.816  31.680  1.00  0.00     0.111 A 
ATOM      6  C   UNL     1      40.351 -94.938  30.289  1.00  0.00     0.134 A 
ATOM      7  C   UNL     1      41.659 -95.229  29.881  1.00  0.00     0.093 A 
ATOM      8  C   UNL     1      42.669 -95.464  30.813  1.00  0.00     0.123 A 
ATOM      9  C   UNL     1      42.380 -95.404  32.176  1.00  0.00     0.094 A 
ATOM     10  C   UNL     1      41.093 -95.082  32.615  1.00  0.00     0.146 A 
ATOM     11  O   UNL     1      40.863 -95.025  33.921  1.00  0.00    -0.452 OA
ENDROOT
BRANCH   1  12
ATOM     12  C   UNL     1      39.553 -94.707  35.918  1.00  0.00     0.021 A 
ATOM     13  C   UNL     1      38.652 -95.566  36.574  1.00  0.00     0.016 A 
ATOM     14  C   UNL     1      38.562 -95.565  37.969  1.00  0.00     0.047 A 
ATOM     15  C   UNL     1      39.380 -94.716  38.727  1.00  0.00     0.115 A 
ATOM     16  C   UNL     1      40.383 -93.872  36.688  1.00  0.00     0.016 A 
ATOM     17  C   UNL     1      40.290 -93.873  38.083  1.00  0.00     0.047 A 
BRANCH  15  18
ATOM     18  O   UNL     1      39.296 -94.704  40.118  1.00  0.00    -0.508 OA
ATOM     19  H   UNL     1      40.000 -95.150  40.694  1.00  0.00     0.293 HD
ENDBRANCH  15  18
ENDBRANCH   1  12
BRANCH   2  20
ATOM     20  O   UNL     1      37.403 -93.932  34.137  1.00  0.00    -0.502 OA
ATOM     21  H   UNL     1      36.835 -93.214  33.703  1.00  0.00     0.293 HD
ENDBRANCH   2  20
BRANCH   6  22
ATOM     22  O   UNL     1      39.395 -94.814  29.277  1.00  0.00    -0.507 OA
ATOM     23  H   UNL     1      39.242 -95.491  28.544  1.00  0.00     0.293 HD
ENDBRANCH   6  22
BRANCH   8  24
ATOM     24  O   UNL     1      43.955 -95.764  30.371  1.00  0.00    -0.508 OA
ATOM     25  H   UNL     1      44.322 -95.380  29.508  1.00  0.00     0.293 HD
ENDBRANCH   8  24
TORSDOF 5
ENDMDL
MODEL 9
REMARK VINA RESULT:    -4.950      9.168     10.313
REMARK INTER + INTRA:          -5.965
REMARK INTER:                  -5.686
REMARK INTRA:                  -0.280
REMARK UNBOUND:                -0.147
REMARK SMILES O=c1c(O)c(-c2ccc(O)cc2)oc2cc(O)cc(O)c12
REMARK SMILES IDX 5 1 3 2 2 3 1 4 21 5 19 6 18 7 16 8 15 9 14 10 13 11 6 12
REMARK SMILES IDX 7 13 8 14 9 15 12 16 11 17 10 18 4 20 20 22 17 24
REMARK H PARENT 10 19 4 21 20 23 17 25
REMARK Flexibility Score: inf
ROOT
ATOM      1  C   UNL     1      31.240 -95.488  28.754  1.00  0.00     0.180 A 
ATOM      2  C   UNL     1      30.304 -95.452  27.706  1.00  0.00     0.208 A 
ATOM      3  C   UNL     1      28.954 -95.717  27.989  1.00  0.00     0.238 A 
ATOM      4  O   UNL     1      28.130 -95.735  27.038  1.00  0.00    -0.285 OA
ATOM      5  C   UNL     1      28.555 -95.998  29.317  1.00  0.00     0.111 A 
ATOM      6  C   UNL     1      27.209 -96.243  29.726  1.00  0.00     0.134 A 
ATOM      7  C   UNL     1      26.948 -96.640  31.042  1.00  0.00     0.093 A 
ATOM      8  C   UNL     1      27.973 -96.740  31.982  1.00  0.00     0.123 A 
ATOM      9  C   UNL     1      29.285 -96.447  31.609  1.00  0.00     0.094 A 
ATOM     10  C   UNL     1      29.583 -96.081  30.293  1.00  0.00     0.146 A 
ATOM     11  O   UNL     1      30.845 -95.821  29.976  1.00  0.00    -0.452 OA
ENDROOT
BRANCH   1  12
ATOM     12  C   UNL     1      32.675 -95.196  28.539  1.00  0.00     0.021 A 
ATOM     13  C   UNL     1      33.151 -93.873  28.464  1.00  0.00     0.016 A 
ATOM     14  C   UNL     1      34.514 -93.621  28.285  1.00  0.00     0.047 A 
ATOM     15  C   UNL     1      35.421 -94.686  28.191  1.00  0.00     0.115 A 
ATOM     16  C   UNL     1      33.595 -96.256  28.463  1.00  0.00     0.016 A 
ATOM     17  C   UNL     1      34.958 -96.001  28.283  1.00  0.00     0.047 A 
BRANCH  15  18
ATOM     18  O   UNL     1      36.781 -94.447  28.010  1.00  0.00    -0.508 OA
ATOM     19  H   UNL     1      37.451 -95.205  27.970  1.00  0.00     0.293 HD
ENDBRANCH  15  18
ENDBRANCH   1  12
BRANCH   2  20
ATOM     20  O   UNL     1      30.722 -95.192  26.398  1.00  0.00    -0.502 OA
ATOM     21  H   UNL     1      31.321 -94.409  26.163  1.00  0.00     0.293 HD
ENDBRANCH   2  20
BRANCH   6  22
ATOM     22  O   UNL     1      26.100 -96.082  28.890  1.00  0.00    -0.507 OA
ATOM     23  H   UNL     1      26.082 -95.504  28.064  1.00  0.00     0.293 HD
ENDBRANCH   6  22
BRANCH   8  24
ATOM     24  O   UNL     1      27.674 -97.124  33.287  1.00  0.00    -0.508 OA
ATOM     25  H   UNL     1      27.507 -98.094  33.529  1.00  0.00     0.293 HD
ENDBRANCH   8  24
TORSDOF 5
ENDMDL
