MODEL 1
REMARK VINA RESULT:    -2.466      0.000      0.000
REMARK INTER + INTRA:          -2.649
REMARK INTER:                  -3.043
REMARK INTRA:                   0.394
REMARK UNBOUND:                 0.394
REMARK SMILES Oc1cc(O)c2cc(O)c(-c3cc(O)c(O)c(O)c3)[o+]c2c1
REMARK SMILES IDX 10 1 20 2 21 3 22 4 2 5 3 6 4 7 6 8 7 9 8 10 11 11 12 12
REMARK SMILES IDX 13 13 19 14 15 15 17 16 14 17 16 19 18 21 9 23 1 25 5 27
REMARK H PARENT 14 18 16 20 18 22 9 24 1 26 5 28
REMARK Flexibility Score: inf
ROOT
ATOM      1  C   UNL     1     -16.754 -36.405 -11.719  1.00  0.00     0.402 A 
ATOM      2  O   UNL     1     -15.556 -36.032 -12.161  1.00  0.00    -0.202 OA
ATOM      3  C   UNL     1     -15.222 -36.025 -13.447  1.00  0.00     0.368 A 
ATOM      4  C   UNL     1     -13.936 -35.618 -13.815  1.00  0.00     0.162 A 
ATOM      5  C   UNL     1     -13.558 -35.605 -15.157  1.00  0.00     0.128 A 
ATOM      6  C   UNL     1     -14.469 -36.000 -16.142  1.00  0.00     0.093 A 
ATOM      7  C   UNL     1     -15.763 -36.412 -15.800  1.00  0.00     0.136 A 
ATOM      8  C   UNL     1     -16.153 -36.425 -14.436  1.00  0.00     0.125 A 
ATOM      9  C   UNL     1     -17.432 -36.809 -14.003  1.00  0.00     0.078 A 
ATOM     10  C   UNL     1     -17.745 -36.792 -12.640  1.00  0.00     0.223 A 
ENDROOT
BRANCH   1  11
ATOM     11  C   UNL     1     -17.002 -36.378 -10.260  1.00  0.00     0.091 A 
ATOM     12  C   UNL     1     -18.242 -36.760  -9.721  1.00  0.00     0.068 A 
ATOM     13  C   UNL     1     -18.451 -36.750  -8.335  1.00  0.00     0.162 A 
ATOM     14  C   UNL     1     -15.961 -36.019  -9.389  1.00  0.00     0.068 A 
ATOM     15  C   UNL     1     -17.409 -36.367  -7.473  1.00  0.00     0.200 A 
ATOM     16  C   UNL     1     -16.164 -36.005  -8.003  1.00  0.00     0.162 A 
BRANCH  13  17
ATOM     17  O   UNL     1     -19.687 -37.124  -7.810  1.00  0.00    -0.504 OA
ATOM     18  H   UNL     1     -20.447 -36.461  -7.715  1.00  0.00     0.293 HD
ENDBRANCH  13  17
BRANCH  15  19
ATOM     19  O   UNL     1     -17.594 -36.345  -6.090  1.00  0.00    -0.502 OA
ATOM     20  H   UNL     1     -18.498 -36.505  -5.665  1.00  0.00     0.293 HD
ENDBRANCH  15  19
BRANCH  16  21
ATOM     21  O   UNL     1     -15.131 -35.633  -7.144  1.00  0.00    -0.504 OA
ATOM     22  H   UNL     1     -14.251 -36.135  -7.125  1.00  0.00     0.293 HD
ENDBRANCH  16  21
ENDBRANCH   1  11
BRANCH  10  23
ATOM     23  O   UNL     1     -19.031 -37.125 -12.213  1.00  0.00    -0.500 OA
ATOM     24  H   UNL     1     -19.303 -37.053 -11.239  1.00  0.00     0.294 HD
ENDBRANCH  10  23
BRANCH   5  25
ATOM     25  O   UNL     1     -12.271 -35.196 -15.503  1.00  0.00    -0.507 OA
ATOM     26  H   UNL     1     -11.776 -35.610 -16.283  1.00  0.00     0.293 HD
ENDBRANCH   5  25
BRANCH   7  27
ATOM     27  O   UNL     1     -16.613 -36.795 -16.843  1.00  0.00    -0.507 OA
ATOM     28  H   UNL     1     -17.618 -36.860 -16.766  1.00  0.00     0.293 HD
ENDBRANCH   7  27
TORSDOF 7
ENDMDL
MODEL 2
REMARK VINA RESULT:    -1.762      1.059      6.852
REMARK INTER + INTRA:          -1.781
REMARK INTER:                  -1.955
REMARK INTRA:                   0.174
REMARK UNBOUND:                 0.394
REMARK SMILES Oc1cc(O)c2cc(O)c(-c3cc(O)c(O)c(O)c3)[o+]c2c1
REMARK SMILES IDX 10 1 20 2 21 3 22 4 2 5 3 6 4 7 6 8 7 9 8 10 11 11 12 12
REMARK SMILES IDX 13 13 19 14 15 15 17 16 14 17 16 19 18 21 9 23 1 25 5 27
REMARK H PARENT 14 18 16 20 18 22 9 24 1 26 5 28
REMARK Flexibility Score: inf
ROOT
ATOM      1  C   UNL     1     -16.797 -36.536 -12.112  1.00  0.00     0.402 A 
ATOM      2  O   UNL     1     -16.113 -36.295 -10.998  1.00  0.00    -0.202 OA
ATOM      3  C   UNL     1     -16.670 -36.265  -9.791  1.00  0.00     0.368 A 
ATOM      4  C   UNL     1     -15.868 -36.000  -8.678  1.00  0.00     0.162 A 
ATOM      5  C   UNL     1     -16.427 -35.960  -7.400  1.00  0.00     0.128 A 
ATOM      6  C   UNL     1     -17.797 -36.186  -7.231  1.00  0.00     0.093 A 
ATOM      7  C   UNL     1     -18.622 -36.453  -8.331  1.00  0.00     0.136 A 
ATOM      8  C   UNL     1     -18.057 -36.498  -9.632  1.00  0.00     0.125 A 
ATOM      9  C   UNL     1     -18.804 -36.772 -10.789  1.00  0.00     0.078 A 
ATOM     10  C   UNL     1     -18.177 -36.803 -12.037  1.00  0.00     0.223 A 
ENDROOT
BRANCH   1  11
ATOM     11  C   UNL     1     -16.064 -36.533 -13.399  1.00  0.00     0.091 A 
ATOM     12  C   UNL     1     -16.699 -36.182 -14.602  1.00  0.00     0.068 A 
ATOM     13  C   UNL     1     -15.983 -36.162 -15.807  1.00  0.00     0.162 A 
ATOM     14  C   UNL     1     -14.692 -36.830 -13.412  1.00  0.00     0.068 A 
ATOM     15  C   UNL     1     -14.614 -36.484 -15.813  1.00  0.00     0.200 A 
ATOM     16  C   UNL     1     -13.971 -36.814 -14.614  1.00  0.00     0.162 A 
BRANCH  13  17
ATOM     17  O   UNL     1     -16.623 -35.819 -16.997  1.00  0.00    -0.504 OA
ATOM     18  H   UNL     1     -16.247 -36.087 -17.899  1.00  0.00     0.293 HD
ENDBRANCH  13  17
BRANCH  15  19
ATOM     19  O   UNL     1     -13.882 -36.475 -17.000  1.00  0.00    -0.502 OA
ATOM     20  H   UNL     1     -12.982 -36.016 -17.075  1.00  0.00     0.293 HD
ENDBRANCH  15  19
BRANCH  16  21
ATOM     21  O   UNL     1     -12.612 -37.125 -14.623  1.00  0.00    -0.504 OA
ATOM     22  H   UNL     1     -11.915 -36.446 -14.908  1.00  0.00     0.293 HD
ENDBRANCH  16  21
ENDBRANCH   1  11
BRANCH  10  23
ATOM     23  O   UNL     1     -18.909 -37.125 -13.181  1.00  0.00    -0.500 OA
ATOM     24  H   UNL     1     -19.624 -37.843 -13.171  1.00  0.00     0.294 HD
ENDBRANCH  10  23
BRANCH   5  25
ATOM     25  O   UNL     1     -15.611 -35.694  -6.302  1.00  0.00    -0.507 OA
ATOM     26  H   UNL     1     -15.759 -36.148  -5.410  1.00  0.00     0.293 HD
ENDBRANCH   5  25
BRANCH   7  27
ATOM     27  O   UNL     1     -19.982 -36.664  -8.079  1.00  0.00    -0.507 OA
ATOM     28  H   UNL     1     -20.720 -36.040  -8.371  1.00  0.00     0.293 HD
ENDBRANCH   7  27
TORSDOF 7
ENDMDL
