MODEL 1
REMARK VINA RESULT:    -2.083      0.000      0.000
REMARK INTER + INTRA:          -4.003
REMARK INTER:                  -3.301
REMARK INTRA:                  -0.701
REMARK UNBOUND:                -0.701
REMARK SMILES CCCCCCCCCCCC(=O)[O-]
REMARK SMILES IDX 7 1 8 2 9 3 10 4 11 5 12 6 13 7 14 8 6 9 5 10 4 11 3 12 2 13
REMARK SMILES IDX 1 14
REMARK H PARENT
REMARK Flexibility Score: inf
ROOT
ATOM      1  C   UNL     1      12.740  43.148  19.024  1.00  0.00     0.000 C 
ENDROOT
BRANCH   1   2
ATOM      2  C   UNL     1      12.406  44.638  18.830  1.00  0.00     0.000 C 
BRANCH   2   3
ATOM      3  C   UNL     1      13.423  45.359  17.930  1.00  0.00     0.000 C 
BRANCH   3   4
ATOM      4  C   UNL     1      14.781  44.642  17.875  1.00  0.00     0.006 C 
BRANCH   4   5
ATOM      5  C   UNL     1      15.678  45.080  19.037  1.00  0.00     0.053 C 
BRANCH   5   6
ATOM      6  C   UNL     1      16.036  43.907  19.893  1.00  0.00     0.041 C 
ATOM      7  O   UNL     1      16.745  42.975  19.427  1.00  0.00    -0.550 OA
ATOM      8  O   UNL     1      15.631  43.865  21.220  1.00  0.00    -0.550 OA
ENDBRANCH   5   6
ENDBRANCH   4   5
ENDBRANCH   3   4
ENDBRANCH   2   3
ENDBRANCH   1   2
BRANCH   1   9
ATOM      9  C   UNL     1      12.085  42.252  17.960  1.00  0.00     0.000 C 
BRANCH   9  10
ATOM     10  C   UNL     1      12.367  40.757  18.193  1.00  0.00    -0.000 C 
BRANCH  10  11
ATOM     11  C   UNL     1      13.108  40.495  19.515  1.00  0.00    -0.000 C 
BRANCH  11  12
ATOM     12  C   UNL     1      12.182  39.975  20.623  1.00  0.00    -0.000 C 
BRANCH  12  13
ATOM     13  C   UNL     1      12.606  40.518  21.993  1.00  0.00    -0.003 C 
ATOM     14  C   UNL     1      14.091  40.871  22.011  1.00  0.00     0.004 C 
ENDBRANCH  12  13
ENDBRANCH  11  12
ENDBRANCH  10  11
ENDBRANCH   9  10
ENDBRANCH   1   9
TORSDOF 10
ENDMDL
MODEL 2
REMARK VINA RESULT:    -1.885      1.909      4.008
REMARK INTER + INTRA:          -3.688
REMARK INTER:                  -3.600
REMARK INTRA:                  -0.088
REMARK UNBOUND:                -0.701
REMARK SMILES CCCCCCCCCCCC(=O)[O-]
REMARK SMILES IDX 7 1 8 2 9 3 10 4 11 5 12 6 13 7 14 8 6 9 5 10 4 11 3 12 2 13
REMARK SMILES IDX 1 14
REMARK H PARENT
REMARK Flexibility Score: inf
ROOT
ATOM      1  C   UNL     1      15.450  45.332  19.019  1.00  0.00     0.000 C 
ENDROOT
BRANCH   1   2
ATOM      2  C   UNL     1      16.319  44.121  19.403  1.00  0.00     0.000 C 
BRANCH   2   3
ATOM      3  C   UNL     1      15.485  42.858  19.674  1.00  0.00     0.000 C 
BRANCH   3   4
ATOM      4  C   UNL     1      14.869  42.844  21.082  1.00  0.00     0.006 C 
BRANCH   4   5
ATOM      5  C   UNL     1      13.554  42.060  21.095  1.00  0.00     0.053 C 
BRANCH   5   6
ATOM      6  C   UNL     1      13.580  41.010  22.161  1.00  0.00     0.041 C 
ATOM      7  O   UNL     1      14.672  40.673  22.692  1.00  0.00    -0.550 OA
ATOM      8  O   UNL     1      12.395  40.438  22.603  1.00  0.00    -0.550 OA
ENDBRANCH   5   6
ENDBRANCH   4   5
ENDBRANCH   3   4
ENDBRANCH   2   3
ENDBRANCH   1   2
BRANCH   1   9
ATOM      9  C   UNL     1      14.397  44.988  17.953  1.00  0.00     0.000 C 
BRANCH   9  10
ATOM     10  C   UNL     1      12.985  44.832  18.548  1.00  0.00    -0.000 C 
BRANCH  10  11
ATOM     11  C   UNL     1      12.188  43.696  17.887  1.00  0.00    -0.000 C 
BRANCH  11  12
ATOM     12  C   UNL     1      12.897  42.337  17.985  1.00  0.00    -0.000 C 
BRANCH  12  13
ATOM     13  C   UNL     1      11.892  41.185  17.876  1.00  0.00    -0.003 C 
ATOM     14  C   UNL     1      11.950  40.282  19.105  1.00  0.00     0.004 C 
ENDBRANCH  12  13
ENDBRANCH  11  12
ENDBRANCH  10  11
ENDBRANCH   9  10
ENDBRANCH   1   9
TORSDOF 10
ENDMDL
MODEL 3
REMARK VINA RESULT:    -1.641      2.039      4.168
REMARK INTER + INTRA:          -3.302
REMARK INTER:                  -2.412
REMARK INTRA:                  -0.890
REMARK UNBOUND:                -0.701
REMARK SMILES CCCCCCCCCCCC(=O)[O-]
REMARK SMILES IDX 7 1 8 2 9 3 10 4 11 5 12 6 13 7 14 8 6 9 5 10 4 11 3 12 2 13
REMARK SMILES IDX 1 14
REMARK H PARENT
REMARK Flexibility Score: inf
ROOT
ATOM      1  C   UNL     1      13.037  44.741  17.952  1.00  0.00     0.000 C 
ENDROOT
BRANCH   1   2
ATOM      2  C   UNL     1      11.918  43.857  18.529  1.00  0.00     0.000 C 
BRANCH   2   3
ATOM      3  C   UNL     1      12.445  42.821  19.537  1.00  0.00     0.000 C 
BRANCH   3   4
ATOM      4  C   UNL     1      12.577  41.416  18.930  1.00  0.00     0.006 C 
BRANCH   4   5
ATOM      5  C   UNL     1      13.626  40.592  19.683  1.00  0.00     0.053 C 
BRANCH   5   6
ATOM      6  C   UNL     1      13.226  40.417  21.114  1.00  0.00     0.041 C 
ATOM      7  O   UNL     1      12.067  40.019  21.404  1.00  0.00    -0.550 OA
ATOM      8  O   UNL     1      14.149  40.644  22.127  1.00  0.00    -0.550 OA
ENDBRANCH   5   6
ENDBRANCH   4   5
ENDBRANCH   3   4
ENDBRANCH   2   3
ENDBRANCH   1   2
BRANCH   1   9
ATOM      9  C   UNL     1      14.388  44.010  17.876  1.00  0.00     0.000 C 
BRANCH   9  10
ATOM     10  C   UNL     1      15.556  44.874  18.383  1.00  0.00    -0.000 C 
BRANCH  10  11
ATOM     11  C   UNL     1      16.664  44.039  19.046  1.00  0.00    -0.000 C 
BRANCH  11  12
ATOM     12  C   UNL     1      16.159  43.228  20.248  1.00  0.00    -0.000 C 
BRANCH  12  13
ATOM     13  C   UNL     1      15.274  44.089  21.157  1.00  0.00    -0.003 C 
ATOM     14  C   UNL     1      15.383  43.647  22.614  1.00  0.00     0.004 C 
ENDBRANCH  12  13
ENDBRANCH  11  12
ENDBRANCH  10  11
ENDBRANCH   9  10
ENDBRANCH   1   9
TORSDOF 10
ENDMDL
MODEL 4
REMARK VINA RESULT:    -1.356     11.409     12.931
REMARK INTER + INTRA:          -2.850
REMARK INTER:                  -2.490
REMARK INTRA:                  -0.360
REMARK UNBOUND:                -0.701
REMARK SMILES CCCCCCCCCCCC(=O)[O-]
REMARK SMILES IDX 7 1 8 2 9 3 10 4 11 5 12 6 13 7 14 8 6 9 5 10 4 11 3 12 2 13
REMARK SMILES IDX 1 14
REMARK H PARENT
REMARK Flexibility Score: inf
ROOT
ATOM      1  C   UNL     1      23.546  36.980  19.928  1.00  0.00     0.000 C 
ENDROOT
BRANCH   1   2
ATOM      2  C   UNL     1      23.774  35.584  19.320  1.00  0.00     0.000 C 
BRANCH   2   3
ATOM      3  C   UNL     1      24.353  35.648  17.897  1.00  0.00     0.000 C 
BRANCH   3   4
ATOM      4  C   UNL     1      25.888  35.603  17.876  1.00  0.00     0.006 C 
BRANCH   4   5
ATOM      5  C   UNL     1      26.478  37.013  17.975  1.00  0.00     0.053 C 
BRANCH   5   6
ATOM      6  C   UNL     1      27.958  36.948  18.186  1.00  0.00     0.041 C 
ATOM      7  O   UNL     1      28.664  37.982  18.043  1.00  0.00    -0.550 OA
ATOM      8  O   UNL     1      28.552  35.760  18.588  1.00  0.00    -0.550 OA
ENDBRANCH   5   6
ENDBRANCH   4   5
ENDBRANCH   3   4
ENDBRANCH   2   3
ENDBRANCH   1   2
BRANCH   1   9
ATOM      9  C   UNL     1      22.529  36.962  21.081  1.00  0.00     0.000 C 
BRANCH   9  10
ATOM     10  C   UNL     1      22.328  38.352  21.712  1.00  0.00    -0.000 C 
BRANCH  10  11
ATOM     11  C   UNL     1      22.427  38.324  23.246  1.00  0.00    -0.000 C 
BRANCH  11  12
ATOM     12  C   UNL     1      23.586  39.177  23.783  1.00  0.00    -0.000 C 
BRANCH  12  13
ATOM     13  C   UNL     1      23.968  38.749  25.205  1.00  0.00    -0.003 C 
ATOM     14  C   UNL     1      23.716  37.260  25.420  1.00  0.00     0.004 C 
ENDBRANCH  12  13
ENDBRANCH  11  12
ENDBRANCH  10  11
ENDBRANCH   9  10
ENDBRANCH   1   9
TORSDOF 10
ENDMDL
MODEL 5
REMARK VINA RESULT:    -1.187     11.404     13.117
REMARK INTER + INTRA:          -2.582
REMARK INTER:                  -2.004
REMARK INTRA:                  -0.578
REMARK UNBOUND:                -0.701
REMARK SMILES CCCCCCCCCCCC(=O)[O-]
REMARK SMILES IDX 7 1 8 2 9 3 10 4 11 5 12 6 13 7 14 8 6 9 5 10 4 11 3 12 2 13
REMARK SMILES IDX 1 14
REMARK H PARENT
REMARK Flexibility Score: inf
ROOT
ATOM      1  C   UNL     1      23.629  35.095  19.825  1.00  0.00     0.000 C 
ENDROOT
BRANCH   1   2
ATOM      2  C   UNL     1      22.889  36.402  20.160  1.00  0.00     0.000 C 
BRANCH   2   3
ATOM      3  C   UNL     1      22.487  36.489  21.642  1.00  0.00     0.000 C 
BRANCH   3   4
ATOM      4  C   UNL     1      22.375  37.937  22.143  1.00  0.00     0.006 C 
BRANCH   4   5
ATOM      5  C   UNL     1      22.484  37.997  23.669  1.00  0.00     0.053 C 
BRANCH   5   6
ATOM      6  C   UNL     1      23.631  38.866  24.080  1.00  0.00     0.041 C 
ATOM      7  O   UNL     1      24.260  39.534  23.217  1.00  0.00    -0.550 OA
ATOM      8  O   UNL     1      23.975  38.976  25.420  1.00  0.00    -0.550 OA
ENDBRANCH   5   6
ENDBRANCH   4   5
ENDBRANCH   3   4
ENDBRANCH   2   3
ENDBRANCH   1   2
BRANCH   1   9
ATOM      9  C   UNL     1      24.509  35.219  18.569  1.00  0.00     0.000 C 
BRANCH   9  10
ATOM     10  C   UNL     1      24.746  36.684  18.158  1.00  0.00    -0.000 C 
BRANCH  10  11
ATOM     11  C   UNL     1      26.227  36.985  17.875  1.00  0.00    -0.000 C 
BRANCH  11  12
ATOM     12  C   UNL     1      27.115  35.735  17.961  1.00  0.00    -0.000 C 
BRANCH  12  13
ATOM     13  C   UNL     1      28.478  36.072  18.577  1.00  0.00    -0.003 C 
ATOM     14  C   UNL     1      28.895  37.502  18.246  1.00  0.00     0.004 C 
ENDBRANCH  12  13
ENDBRANCH  11  12
ENDBRANCH  10  11
ENDBRANCH   9  10
ENDBRANCH   1   9
TORSDOF 10
ENDMDL
MODEL 6
REMARK VINA RESULT:    -1.111      2.096      3.429
REMARK INTER + INTRA:          -2.461
REMARK INTER:                  -1.771
REMARK INTRA:                  -0.691
REMARK UNBOUND:                -0.701
REMARK SMILES CCCCCCCCCCCC(=O)[O-]
REMARK SMILES IDX 7 1 8 2 9 3 10 4 11 5 12 6 13 7 14 8 6 9 5 10 4 11 3 12 2 13
REMARK SMILES IDX 1 14
REMARK H PARENT
REMARK Flexibility Score: inf
ROOT
ATOM      1  C   UNL     1      15.470  43.181  21.582  1.00  0.00     0.000 C 
ENDROOT
BRANCH   1   2
ATOM      2  C   UNL     1      15.328  44.187  20.426  1.00  0.00     0.000 C 
BRANCH   2   3
ATOM      3  C   UNL     1      16.373  43.966  19.320  1.00  0.00     0.000 C 
BRANCH   3   4
ATOM      4  C   UNL     1      15.741  43.806  17.929  1.00  0.00     0.006 C 
BRANCH   4   5
ATOM      5  C   UNL     1      14.368  43.135  18.025  1.00  0.00     0.053 C 
BRANCH   5   6
ATOM      6  C   UNL     1      13.279  44.161  17.990  1.00  0.00     0.041 C 
ATOM      7  O   UNL     1      12.074  43.810  18.100  1.00  0.00    -0.550 OA
ATOM      8  O   UNL     1      13.596  45.508  17.885  1.00  0.00    -0.550 OA
ENDBRANCH   5   6
ENDBRANCH   4   5
ENDBRANCH   3   4
ENDBRANCH   2   3
ENDBRANCH   1   2
BRANCH   1   9
ATOM      9  C   UNL     1      14.483  42.008  21.469  1.00  0.00     0.000 C 
BRANCH   9  10
ATOM     10  C   UNL     1      13.017  42.455  21.615  1.00  0.00    -0.000 C 
BRANCH  10  11
ATOM     11  C   UNL     1      12.060  41.637  20.732  1.00  0.00    -0.000 C 
BRANCH  11  12
ATOM     12  C   UNL     1      12.481  40.166  20.603  1.00  0.00    -0.000 C 
BRANCH  12  13
ATOM     13  C   UNL     1      11.877  39.532  19.343  1.00  0.00    -0.003 C 
ATOM     14  C   UNL     1      12.069  40.432  18.126  1.00  0.00     0.004 C 
ENDBRANCH  12  13
ENDBRANCH  11  12
ENDBRANCH  10  11
ENDBRANCH   9  10
ENDBRANCH   1   9
TORSDOF 10
ENDMDL
MODEL 7
REMARK VINA RESULT:    -0.870     11.914     13.398
REMARK INTER + INTRA:          -2.080
REMARK INTER:                  -1.623
REMARK INTRA:                  -0.456
REMARK UNBOUND:                -0.701
REMARK SMILES CCCCCCCCCCCC(=O)[O-]
REMARK SMILES IDX 7 1 8 2 9 3 10 4 11 5 12 6 13 7 14 8 6 9 5 10 4 11 3 12 2 13
REMARK SMILES IDX 1 14
REMARK H PARENT
REMARK Flexibility Score: inf
ROOT
ATOM      1  C   UNL     1      23.543  35.854  19.420  1.00  0.00     0.000 C 
ENDROOT
BRANCH   1   2
ATOM      2  C   UNL     1      24.274  36.101  18.088  1.00  0.00     0.000 C 
BRANCH   2   3
ATOM      3  C   UNL     1      25.671  35.460  18.054  1.00  0.00     0.000 C 
BRANCH   3   4
ATOM      4  C   UNL     1      26.796  36.492  17.881  1.00  0.00     0.006 C 
BRANCH   4   5
ATOM      5  C   UNL     1      28.168  35.814  17.897  1.00  0.00     0.053 C 
BRANCH   5   6
ATOM      6  C   UNL     1      29.190  36.711  18.522  1.00  0.00     0.041 C 
ATOM      7  O   UNL     1      28.978  37.218  19.655  1.00  0.00    -0.550 OA
ATOM      8  O   UNL     1      30.396  36.948  17.877  1.00  0.00    -0.550 OA
ENDBRANCH   5   6
ENDBRANCH   4   5
ENDBRANCH   3   4
ENDBRANCH   2   3
ENDBRANCH   1   2
BRANCH   1   9
ATOM      9  C   UNL     1      23.500  37.106  20.311  1.00  0.00     0.000 C 
BRANCH   9  10
ATOM     10  C   UNL     1      22.409  37.021  21.394  1.00  0.00    -0.000 C 
BRANCH  10  11
ATOM     11  C   UNL     1      22.347  38.284  22.269  1.00  0.00    -0.000 C 
BRANCH  11  12
ATOM     12  C   UNL     1      22.447  37.973  23.770  1.00  0.00    -0.000 C 
BRANCH  12  13
ATOM     13  C   UNL     1      23.581  38.774  24.421  1.00  0.00    -0.003 C 
ATOM     14  C   UNL     1      24.246  39.709  23.415  1.00  0.00     0.004 C 
ENDBRANCH  12  13
ENDBRANCH  11  12
ENDBRANCH  10  11
ENDBRANCH   9  10
ENDBRANCH   1   9
TORSDOF 10
ENDMDL
MODEL 8
REMARK VINA RESULT:    -0.726      1.057      1.984
REMARK INTER + INTRA:          -1.852
REMARK INTER:                  -1.902
REMARK INTRA:                   0.050
REMARK UNBOUND:                -0.701
REMARK SMILES CCCCCCCCCCCC(=O)[O-]
REMARK SMILES IDX 7 1 8 2 9 3 10 4 11 5 12 6 13 7 14 8 6 9 5 10 4 11 3 12 2 13
REMARK SMILES IDX 1 14
REMARK H PARENT
REMARK Flexibility Score: inf
ROOT
ATOM      1  C   UNL     1      12.810  41.592  18.786  1.00  0.00     0.000 C 
ENDROOT
BRANCH   1   2
ATOM      2  C   UNL     1      12.076  42.916  19.063  1.00  0.00     0.000 C 
BRANCH   2   3
ATOM      3  C   UNL     1      12.386  43.994  18.010  1.00  0.00     0.000 C 
BRANCH   3   4
ATOM      4  C   UNL     1      13.618  44.838  18.369  1.00  0.00     0.006 C 
BRANCH   4   5
ATOM      5  C   UNL     1      14.903  44.169  17.875  1.00  0.00     0.053 C 
BRANCH   5   6
ATOM      6  C   UNL     1      15.953  44.198  18.941  1.00  0.00     0.041 C 
ATOM      7  O   UNL     1      15.893  45.051  19.866  1.00  0.00    -0.550 OA
ATOM      8  O   UNL     1      16.969  43.252  18.942  1.00  0.00    -0.550 OA
ENDBRANCH   5   6
ENDBRANCH   4   5
ENDBRANCH   3   4
ENDBRANCH   2   3
ENDBRANCH   1   2
BRANCH   1   9
ATOM      9  C   UNL     1      11.886  40.369  18.906  1.00  0.00     0.000 C 
BRANCH   9  10
ATOM     10  C   UNL     1      11.912  39.747  20.314  1.00  0.00    -0.000 C 
BRANCH  10  11
ATOM     11  C   UNL     1      12.582  40.662  21.352  1.00  0.00    -0.000 C 
BRANCH  11  12
ATOM     12  C   UNL     1      14.112  40.526  21.365  1.00  0.00    -0.000 C 
BRANCH  12  13
ATOM     13  C   UNL     1      14.732  41.413  22.452  1.00  0.00    -0.003 C 
ATOM     14  C   UNL     1      14.879  42.854  21.970  1.00  0.00     0.004 C 
ENDBRANCH  12  13
ENDBRANCH  11  12
ENDBRANCH  10  11
ENDBRANCH   9  10
ENDBRANCH   1   9
TORSDOF 10
ENDMDL
