MODEL 1
REMARK VINA RESULT:    -4.751      0.000      0.000
REMARK INTER + INTRA:          -8.905
REMARK INTER:                  -8.084
REMARK INTRA:                  -0.821
REMARK UNBOUND:                -0.821
REMARK SMILES CCCCCCCCCCCCCC(=O)[O-]
REMARK SMILES IDX 8 1 9 2 10 3 11 4 12 5 13 6 14 7 15 8 16 9 7 10 6 11 5 12
REMARK SMILES IDX 4 13 3 14 2 15 1 16
REMARK H PARENT
REMARK Flexibility Score: inf
ROOT
ATOM      1  C   UNL     1      10.691   6.164  11.524  1.00  0.00     0.000 C 
ENDROOT
BRANCH   1   2
ATOM      2  C   UNL     1      11.539   7.280  12.167  1.00  0.00     0.000 C 
BRANCH   2   3
ATOM      3  C   UNL     1      11.295   8.692  11.606  1.00  0.00     0.000 C 
BRANCH   3   4
ATOM      4  C   UNL     1      12.064   8.961  10.305  1.00  0.00     0.000 C 
BRANCH   4   5
ATOM      5  C   UNL     1      12.475  10.437  10.203  1.00  0.00     0.006 C 
BRANCH   5   6
ATOM      6  C   UNL     1      12.190  11.209  11.497  1.00  0.00     0.053 C 
BRANCH   6   7
ATOM      7  C   UNL     1      12.307  12.690  11.297  1.00  0.00     0.041 C 
ATOM      8  O   UNL     1      12.825  13.412  12.189  1.00  0.00    -0.550 OA
ATOM      9  O   UNL     1      11.873  13.267  10.111  1.00  0.00    -0.550 OA
ENDBRANCH   6   7
ENDBRANCH   5   6
ENDBRANCH   4   5
ENDBRANCH   3   4
ENDBRANCH   2   3
ENDBRANCH   1   2
BRANCH   1  10
ATOM     10  C   UNL     1      11.478   5.158  10.665  1.00  0.00     0.000 C 
BRANCH  10  11
ATOM     11  C   UNL     1      12.990   5.101  10.952  1.00  0.00    -0.000 C 
BRANCH  11  12
ATOM     12  C   UNL     1      13.485   3.711  11.411  1.00  0.00    -0.000 C 
BRANCH  12  13
ATOM     13  C   UNL     1      12.356   2.846  11.998  1.00  0.00    -0.000 C 
BRANCH  13  14
ATOM     14  C   UNL     1      12.364   2.814  13.536  1.00  0.00    -0.000 C 
BRANCH  14  15
ATOM     15  C   UNL     1      13.490   1.970  14.160  1.00  0.00    -0.003 C 
ATOM     16  C   UNL     1      13.297   1.726  15.656  1.00  0.00     0.004 C 
ENDBRANCH  14  15
ENDBRANCH  13  14
ENDBRANCH  12  13
ENDBRANCH  11  12
ENDBRANCH  10  11
ENDBRANCH   1  10
TORSDOF 12
ENDMDL
MODEL 2
REMARK VINA RESULT:    -4.696      4.364      8.196
REMARK INTER + INTRA:          -8.812
REMARK INTER:                  -7.835
REMARK INTRA:                  -0.977
REMARK UNBOUND:                -0.821
REMARK SMILES CCCCCCCCCCCCCC(=O)[O-]
REMARK SMILES IDX 8 1 9 2 10 3 11 4 12 5 13 6 14 7 15 8 16 9 7 10 6 11 5 12
REMARK SMILES IDX 4 13 3 14 2 15 1 16
REMARK H PARENT
REMARK Flexibility Score: inf
ROOT
ATOM      1  C   UNL     1      11.399   6.305  11.578  1.00  0.00     0.000 C 
ENDROOT
BRANCH   1   2
ATOM      2  C   UNL     1      10.135   5.454  11.343  1.00  0.00     0.000 C 
BRANCH   2   3
ATOM      3  C   UNL     1      10.086   4.716   9.993  1.00  0.00     0.000 C 
BRANCH   3   4
ATOM      4  C   UNL     1       9.639   3.253  10.126  1.00  0.00     0.000 C 
BRANCH   4   5
ATOM      5  C   UNL     1      10.678   2.303   9.511  1.00  0.00     0.006 C 
BRANCH   5   6
ATOM      6  C   UNL     1      12.116   2.776   9.759  1.00  0.00     0.053 C 
BRANCH   6   7
ATOM      7  C   UNL     1      12.637   2.298  11.080  1.00  0.00     0.041 C 
ATOM      8  O   UNL     1      12.878   3.121  12.002  1.00  0.00    -0.550 OA
ATOM      9  O   UNL     1      12.823   0.940  11.303  1.00  0.00    -0.550 OA
ENDBRANCH   6   7
ENDBRANCH   5   6
ENDBRANCH   4   5
ENDBRANCH   3   4
ENDBRANCH   2   3
ENDBRANCH   1   2
BRANCH   1  10
ATOM     10  C   UNL     1      12.102   6.799  10.300  1.00  0.00     0.000 C 
BRANCH  10  11
ATOM     11  C   UNL     1      12.112   8.328  10.114  1.00  0.00    -0.000 C 
BRANCH  11  12
ATOM     12  C   UNL     1      11.555   9.107  11.326  1.00  0.00    -0.000 C 
BRANCH  12  13
ATOM     13  C   UNL     1      12.016  10.576  11.347  1.00  0.00    -0.000 C 
BRANCH  13  14
ATOM     14  C   UNL     1      12.695  11.009  10.036  1.00  0.00    -0.000 C 
BRANCH  14  15
ATOM     15  C   UNL     1      12.316  12.418   9.545  1.00  0.00    -0.003 C 
ATOM     16  C   UNL     1      12.991  12.795   8.228  1.00  0.00     0.004 C 
ENDBRANCH  14  15
ENDBRANCH  13  14
ENDBRANCH  12  13
ENDBRANCH  11  12
ENDBRANCH  10  11
ENDBRANCH   1  10
TORSDOF 12
ENDMDL
MODEL 3
REMARK VINA RESULT:    -4.648      1.242      1.644
REMARK INTER + INTRA:          -8.730
REMARK INTER:                  -8.014
REMARK INTRA:                  -0.716
REMARK UNBOUND:                -0.821
REMARK SMILES CCCCCCCCCCCCCC(=O)[O-]
REMARK SMILES IDX 8 1 9 2 10 3 11 4 12 5 13 6 14 7 15 8 16 9 7 10 6 11 5 12
REMARK SMILES IDX 4 13 3 14 2 15 1 16
REMARK H PARENT
REMARK Flexibility Score: inf
ROOT
ATOM      1  C   UNL     1      10.314   5.379  11.450  1.00  0.00     0.000 C 
ENDROOT
BRANCH   1   2
ATOM      2  C   UNL     1      11.482   6.329  11.785  1.00  0.00     0.000 C 
BRANCH   2   3
ATOM      3  C   UNL     1      11.814   7.366  10.696  1.00  0.00     0.000 C 
BRANCH   3   4
ATOM      4  C   UNL     1      11.574   8.812  11.153  1.00  0.00     0.000 C 
BRANCH   4   5
ATOM      5  C   UNL     1      12.178   9.811  10.155  1.00  0.00     0.006 C 
BRANCH   5   6
ATOM      6  C   UNL     1      12.424  11.186  10.788  1.00  0.00     0.053 C 
BRANCH   6   7
ATOM      7  C   UNL     1      12.363  12.285   9.771  1.00  0.00     0.041 C 
ATOM      8  O   UNL     1      12.810  12.099   8.609  1.00  0.00    -0.550 OA
ATOM      9  O   UNL     1      11.779  13.502  10.098  1.00  0.00    -0.550 OA
ENDBRANCH   6   7
ENDBRANCH   5   6
ENDBRANCH   4   5
ENDBRANCH   3   4
ENDBRANCH   2   3
ENDBRANCH   1   2
BRANCH   1  10
ATOM     10  C   UNL     1      10.522   4.503  10.202  1.00  0.00     0.000 C 
BRANCH  10  11
ATOM     11  C   UNL     1      10.818   3.019  10.492  1.00  0.00    -0.000 C 
BRANCH  11  12
ATOM     12  C   UNL     1      12.295   2.623  10.269  1.00  0.00    -0.000 C 
BRANCH  12  13
ATOM     13  C   UNL     1      13.198   3.022  11.450  1.00  0.00    -0.000 C 
BRANCH  13  14
ATOM     14  C   UNL     1      13.191   1.983  12.586  1.00  0.00    -0.000 C 
BRANCH  14  15
ATOM     15  C   UNL     1      12.765   2.530  13.960  1.00  0.00    -0.003 C 
ATOM     16  C   UNL     1      13.651   2.035  15.103  1.00  0.00     0.004 C 
ENDBRANCH  14  15
ENDBRANCH  13  14
ENDBRANCH  12  13
ENDBRANCH  11  12
ENDBRANCH  10  11
ENDBRANCH   1  10
TORSDOF 12
ENDMDL
MODEL 4
REMARK VINA RESULT:    -4.638      4.367      5.530
REMARK INTER + INTRA:          -8.713
REMARK INTER:                  -7.004
REMARK INTRA:                  -1.709
REMARK UNBOUND:                -0.821
REMARK SMILES CCCCCCCCCCCCCC(=O)[O-]
REMARK SMILES IDX 8 1 9 2 10 3 11 4 12 5 13 6 14 7 15 8 16 9 7 10 6 11 5 12
REMARK SMILES IDX 4 13 3 14 2 15 1 16
REMARK H PARENT
REMARK Flexibility Score: inf
ROOT
ATOM      1  C   UNL     1      10.113   6.130  13.005  1.00  0.00     0.000 C 
ENDROOT
BRANCH   1   2
ATOM      2  C   UNL     1      11.191   7.049  12.396  1.00  0.00     0.000 C 
BRANCH   2   3
ATOM      3  C   UNL     1      11.618   6.694  10.961  1.00  0.00     0.000 C 
BRANCH   3   4
ATOM      4  C   UNL     1      12.450   5.406  10.885  1.00  0.00     0.000 C 
BRANCH   4   5
ATOM      5  C   UNL     1      11.791   4.379   9.952  1.00  0.00     0.006 C 
BRANCH   5   6
ATOM      6  C   UNL     1      10.318   4.706   9.677  1.00  0.00     0.053 C 
BRANCH   6   7
ATOM      7  C   UNL     1       9.702   3.729   8.722  1.00  0.00     0.041 C 
ATOM      8  O   UNL     1       9.869   2.492   8.884  1.00  0.00    -0.550 OA
ATOM      9  O   UNL     1       8.915   4.186   7.673  1.00  0.00    -0.550 OA
ENDBRANCH   6   7
ENDBRANCH   5   6
ENDBRANCH   4   5
ENDBRANCH   3   4
ENDBRANCH   2   3
ENDBRANCH   1   2
BRANCH   1  10
ATOM     10  C   UNL     1      10.406   5.636  14.433  1.00  0.00     0.000 C 
BRANCH  10  11
ATOM     11  C   UNL     1      10.626   4.116  14.562  1.00  0.00    -0.000 C 
BRANCH  11  12
ATOM     12  C   UNL     1      10.193   3.316  13.314  1.00  0.00    -0.000 C 
BRANCH  12  13
ATOM     13  C   UNL     1      11.202   2.215  12.939  1.00  0.00    -0.000 C 
BRANCH  13  14
ATOM     14  C   UNL     1      12.658   2.613  13.234  1.00  0.00    -0.000 C 
BRANCH  14  15
ATOM     15  C   UNL     1      13.454   1.589  14.063  1.00  0.00    -0.003 C 
ATOM     16  C   UNL     1      13.354   1.830  15.568  1.00  0.00     0.004 C 
ENDBRANCH  14  15
ENDBRANCH  13  14
ENDBRANCH  12  13
ENDBRANCH  11  12
ENDBRANCH  10  11
ENDBRANCH   1  10
TORSDOF 12
ENDMDL
MODEL 5
REMARK VINA RESULT:    -4.562      2.080      3.688
REMARK INTER + INTRA:          -8.583
REMARK INTER:                  -7.409
REMARK INTRA:                  -1.174
REMARK UNBOUND:                -0.821
REMARK SMILES CCCCCCCCCCCCCC(=O)[O-]
REMARK SMILES IDX 8 1 9 2 10 3 11 4 12 5 13 6 14 7 15 8 16 9 7 10 6 11 5 12
REMARK SMILES IDX 4 13 3 14 2 15 1 16
REMARK H PARENT
REMARK Flexibility Score: inf
ROOT
ATOM      1  C   UNL     1      12.844   5.166  10.335  1.00  0.00     0.000 C 
ENDROOT
BRANCH   1   2
ATOM      2  C   UNL     1      11.697   6.197  10.360  1.00  0.00     0.000 C 
BRANCH   2   3
ATOM      3  C   UNL     1      10.971   6.335  11.710  1.00  0.00     0.000 C 
BRANCH   3   4
ATOM      4  C   UNL     1      11.091   7.741  12.314  1.00  0.00     0.000 C 
BRANCH   4   5
ATOM      5  C   UNL     1      11.540   8.758  11.254  1.00  0.00     0.006 C 
BRANCH   5   6
ATOM      6  C   UNL     1      11.392  10.206  11.739  1.00  0.00     0.053 C 
BRANCH   6   7
ATOM      7  C   UNL     1      12.284  11.140  10.979  1.00  0.00     0.041 C 
ATOM      8  O   UNL     1      12.616  12.246  11.477  1.00  0.00    -0.550 OA
ATOM      9  O   UNL     1      12.774  10.771   9.733  1.00  0.00    -0.550 OA
ENDBRANCH   6   7
ENDBRANCH   5   6
ENDBRANCH   4   5
ENDBRANCH   3   4
ENDBRANCH   2   3
ENDBRANCH   1   2
BRANCH   1  10
ATOM     10  C   UNL     1      12.797   4.108  11.453  1.00  0.00     0.000 C 
BRANCH  10  11
ATOM     11  C   UNL     1      12.798   2.647  10.966  1.00  0.00    -0.000 C 
BRANCH  11  12
ATOM     12  C   UNL     1      11.997   2.423   9.664  1.00  0.00    -0.000 C 
BRANCH  12  13
ATOM     13  C   UNL     1      10.548   1.978   9.931  1.00  0.00    -0.000 C 
BRANCH  13  14
ATOM     14  C   UNL     1       9.647   2.097   8.690  1.00  0.00    -0.000 C 
BRANCH  14  15
ATOM     15  C   UNL     1       9.189   3.529   8.358  1.00  0.00    -0.003 C 
ATOM     16  C   UNL     1       8.652   4.283   9.573  1.00  0.00     0.004 C 
ENDBRANCH  14  15
ENDBRANCH  13  14
ENDBRANCH  12  13
ENDBRANCH  11  12
ENDBRANCH  10  11
ENDBRANCH   1  10
TORSDOF 12
ENDMDL
MODEL 6
REMARK VINA RESULT:    -4.537      4.884      7.138
REMARK INTER + INTRA:          -8.541
REMARK INTER:                  -6.888
REMARK INTRA:                  -1.653
REMARK UNBOUND:                -0.821
REMARK SMILES CCCCCCCCCCCCCC(=O)[O-]
REMARK SMILES IDX 8 1 9 2 10 3 11 4 12 5 13 6 14 7 15 8 16 9 7 10 6 11 5 12
REMARK SMILES IDX 4 13 3 14 2 15 1 16
REMARK H PARENT
REMARK Flexibility Score: inf
ROOT
ATOM      1  C   UNL     1      10.501   6.104  12.023  1.00  0.00     0.000 C 
ENDROOT
BRANCH   1   2
ATOM      2  C   UNL     1      10.438   6.659  13.460  1.00  0.00     0.000 C 
BRANCH   2   3
ATOM      3  C   UNL     1      10.361   5.595  14.570  1.00  0.00     0.000 C 
BRANCH   3   4
ATOM      4  C   UNL     1      10.402   4.160  14.027  1.00  0.00     0.000 C 
BRANCH   4   5
ATOM      5  C   UNL     1      11.186   3.236  14.970  1.00  0.00     0.006 C 
BRANCH   5   6
ATOM      6  C   UNL     1      12.234   2.400  14.225  1.00  0.00     0.053 C 
BRANCH   6   7
ATOM      7  C   UNL     1      13.176   1.719  15.172  1.00  0.00     0.041 C 
ATOM      8  O   UNL     1      12.923   0.561  15.594  1.00  0.00    -0.550 OA
ATOM      9  O   UNL     1      14.349   2.353  15.559  1.00  0.00    -0.550 OA
ENDBRANCH   6   7
ENDBRANCH   5   6
ENDBRANCH   4   5
ENDBRANCH   3   4
ENDBRANCH   2   3
ENDBRANCH   1   2
BRANCH   1  10
ATOM     10  C   UNL     1      11.551   6.764  11.112  1.00  0.00     0.000 C 
BRANCH  10  11
ATOM     11  C   UNL     1      12.549   5.790  10.457  1.00  0.00    -0.000 C 
BRANCH  11  12
ATOM     12  C   UNL     1      12.725   4.465  11.230  1.00  0.00    -0.000 C 
BRANCH  12  13
ATOM     13  C   UNL     1      12.348   3.234  10.387  1.00  0.00    -0.000 C 
BRANCH  13  14
ATOM     14  C   UNL     1      10.863   2.854  10.513  1.00  0.00    -0.000 C 
BRANCH  14  15
ATOM     15  C   UNL     1      10.079   2.860   9.188  1.00  0.00    -0.003 C 
ATOM     16  C   UNL     1       9.665   4.262   8.744  1.00  0.00     0.004 C 
ENDBRANCH  14  15
ENDBRANCH  13  14
ENDBRANCH  12  13
ENDBRANCH  11  12
ENDBRANCH  10  11
ENDBRANCH   1  10
TORSDOF 12
ENDMDL
MODEL 7
REMARK VINA RESULT:    -4.513      1.833      3.013
REMARK INTER + INTRA:          -8.499
REMARK INTER:                  -7.421
REMARK INTRA:                  -1.078
REMARK UNBOUND:                -0.821
REMARK SMILES CCCCCCCCCCCCCC(=O)[O-]
REMARK SMILES IDX 8 1 9 2 10 3 11 4 12 5 13 6 14 7 15 8 16 9 7 10 6 11 5 12
REMARK SMILES IDX 4 13 3 14 2 15 1 16
REMARK H PARENT
REMARK Flexibility Score: inf
ROOT
ATOM      1  C   UNL     1       9.953   3.296   9.806  1.00  0.00     0.000 C 
ENDROOT
BRANCH   1   2
ATOM      2  C   UNL     1       9.632   4.538  10.663  1.00  0.00     0.000 C 
BRANCH   2   3
ATOM      3  C   UNL     1      10.840   5.434  10.992  1.00  0.00     0.000 C 
BRANCH   3   4
ATOM      4  C   UNL     1      10.761   6.052  12.395  1.00  0.00     0.000 C 
BRANCH   4   5
ATOM      5  C   UNL     1      11.139   7.541  12.362  1.00  0.00     0.006 C 
BRANCH   5   6
ATOM      6  C   UNL     1      11.582   7.996  10.967  1.00  0.00     0.053 C 
BRANCH   6   7
ATOM      7  C   UNL     1      11.840   9.472  10.921  1.00  0.00     0.041 C 
ATOM      8  O   UNL     1      12.385   9.990   9.911  1.00  0.00    -0.550 OA
ATOM      9  O   UNL     1      11.446  10.279  11.981  1.00  0.00    -0.550 OA
ENDBRANCH   6   7
ENDBRANCH   5   6
ENDBRANCH   4   5
ENDBRANCH   3   4
ENDBRANCH   2   3
ENDBRANCH   1   2
BRANCH   1  10
ATOM     10  C   UNL     1      11.439   3.115   9.446  1.00  0.00     0.000 C 
BRANCH  10  11
ATOM     11  C   UNL     1      11.974   1.679   9.597  1.00  0.00    -0.000 C 
BRANCH  11  12
ATOM     12  C   UNL     1      12.467   1.343  11.021  1.00  0.00    -0.000 C 
BRANCH  12  13
ATOM     13  C   UNL     1      13.126   2.548  11.718  1.00  0.00    -0.000 C 
BRANCH  13  14
ATOM     14  C   UNL     1      12.756   2.654  13.207  1.00  0.00    -0.000 C 
BRANCH  14  15
ATOM     15  C   UNL     1      13.504   1.675  14.131  1.00  0.00    -0.003 C 
ATOM     16  C   UNL     1      13.136   1.841  15.604  1.00  0.00     0.004 C 
ENDBRANCH  14  15
ENDBRANCH  13  14
ENDBRANCH  12  13
ENDBRANCH  11  12
ENDBRANCH  10  11
ENDBRANCH   1  10
TORSDOF 12
ENDMDL
MODEL 8
REMARK VINA RESULT:    -4.505      2.550      3.377
REMARK INTER + INTRA:          -8.487
REMARK INTER:                  -7.619
REMARK INTRA:                  -0.868
REMARK UNBOUND:                -0.821
REMARK SMILES CCCCCCCCCCCCCC(=O)[O-]
REMARK SMILES IDX 8 1 9 2 10 3 11 4 12 5 13 6 14 7 15 8 16 9 7 10 6 11 5 12
REMARK SMILES IDX 4 13 3 14 2 15 1 16
REMARK H PARENT
REMARK Flexibility Score: inf
ROOT
ATOM      1  C   UNL     1      11.107   6.158  11.555  1.00  0.00     0.000 C 
ENDROOT
BRANCH   1   2
ATOM      2  C   UNL     1      12.107   6.656  10.492  1.00  0.00     0.000 C 
BRANCH   2   3
ATOM      3  C   UNL     1      12.035   8.162  10.183  1.00  0.00     0.000 C 
BRANCH   3   4
ATOM      4  C   UNL     1      11.620   9.004  11.398  1.00  0.00     0.000 C 
BRANCH   4   5
ATOM      5  C   UNL     1      12.027  10.474  11.214  1.00  0.00     0.006 C 
BRANCH   5   6
ATOM      6  C   UNL     1      12.632  10.740   9.830  1.00  0.00     0.053 C 
BRANCH   6   7
ATOM      7  C   UNL     1      12.461  12.170   9.415  1.00  0.00     0.041 C 
ATOM      8  O   UNL     1      11.814  12.968  10.141  1.00  0.00    -0.550 OA
ATOM      9  O   UNL     1      13.046  12.627   8.241  1.00  0.00    -0.550 OA
ENDBRANCH   6   7
ENDBRANCH   5   6
ENDBRANCH   4   5
ENDBRANCH   3   4
ENDBRANCH   2   3
ENDBRANCH   1   2
BRANCH   1  10
ATOM     10  C   UNL     1      10.239   4.961  11.126  1.00  0.00     0.000 C 
BRANCH  10  11
ATOM     11  C   UNL     1      10.119   4.758   9.604  1.00  0.00    -0.000 C 
BRANCH  11  12
ATOM     12  C   UNL     1       8.748   4.205   9.155  1.00  0.00    -0.000 C 
BRANCH  12  13
ATOM     13  C   UNL     1       8.626   2.685   9.365  1.00  0.00    -0.000 C 
BRANCH  13  14
ATOM     14  C   UNL     1       9.773   1.896   8.710  1.00  0.00    -0.000 C 
BRANCH  14  15
ATOM     15  C   UNL     1      10.622   1.061   9.685  1.00  0.00    -0.003 C 
ATOM     16  C   UNL     1      12.037   1.610   9.869  1.00  0.00     0.004 C 
ENDBRANCH  14  15
ENDBRANCH  13  14
ENDBRANCH  12  13
ENDBRANCH  11  12
ENDBRANCH  10  11
ENDBRANCH   1  10
TORSDOF 12
ENDMDL
MODEL 9
REMARK VINA RESULT:    -4.500      4.398      8.039
REMARK INTER + INTRA:          -8.478
REMARK INTER:                  -7.392
REMARK INTRA:                  -1.087
REMARK UNBOUND:                -0.821
REMARK SMILES CCCCCCCCCCCCCC(=O)[O-]
REMARK SMILES IDX 8 1 9 2 10 3 11 4 12 5 13 6 14 7 15 8 16 9 7 10 6 11 5 12
REMARK SMILES IDX 4 13 3 14 2 15 1 16
REMARK H PARENT
REMARK Flexibility Score: inf
ROOT
ATOM      1  C   UNL     1      11.898   9.434  10.219  1.00  0.00     0.000 C 
ENDROOT
BRANCH   1   2
ATOM      2  C   UNL     1      11.506   8.660  11.494  1.00  0.00     0.000 C 
BRANCH   2   3
ATOM      3  C   UNL     1      11.562   7.127  11.372  1.00  0.00     0.000 C 
BRANCH   3   4
ATOM      4  C   UNL     1      10.486   6.419  12.207  1.00  0.00     0.000 C 
BRANCH   4   5
ATOM      5  C   UNL     1      10.199   5.014  11.658  1.00  0.00     0.006 C 
BRANCH   5   6
ATOM      6  C   UNL     1      10.499   4.904  10.158  1.00  0.00     0.053 C 
BRANCH   6   7
ATOM      7  C   UNL     1       9.470   4.081   9.444  1.00  0.00     0.041 C 
ATOM      8  O   UNL     1       8.258   4.420   9.469  1.00  0.00    -0.550 OA
ATOM      9  O   UNL     1       9.857   2.958   8.724  1.00  0.00    -0.550 OA
ENDBRANCH   6   7
ENDBRANCH   5   6
ENDBRANCH   4   5
ENDBRANCH   3   4
ENDBRANCH   2   3
ENDBRANCH   1   2
BRANCH   1  10
ATOM     10  C   UNL     1      12.734  10.704  10.456  1.00  0.00     0.000 C 
BRANCH  10  11
ATOM     11  C   UNL     1      12.345  11.910   9.581  1.00  0.00    -0.000 C 
BRANCH  11  12
ATOM     12  C   UNL     1      11.947  13.165  10.390  1.00  0.00    -0.000 C 
BRANCH  12  13
ATOM     13  C   UNL     1      12.476  13.129  11.835  1.00  0.00    -0.000 C 
BRANCH  13  14
ATOM     14  C   UNL     1      11.355  13.217  12.885  1.00  0.00    -0.000 C 
BRANCH  14  15
ATOM     15  C   UNL     1      10.794  11.860  13.348  1.00  0.00    -0.003 C 
ATOM     16  C   UNL     1       9.435  11.532  12.731  1.00  0.00     0.004 C 
ENDBRANCH  14  15
ENDBRANCH  13  14
ENDBRANCH  12  13
ENDBRANCH  11  12
ENDBRANCH  10  11
ENDBRANCH   1  10
TORSDOF 12
ENDMDL
