MODEL 1
REMARK VINA RESULT:    -4.796      0.000      0.000
REMARK INTER + INTRA:          -5.900
REMARK INTER:                  -5.637
REMARK INTRA:                  -0.263
REMARK UNBOUND:                -0.263
REMARK SMILES O=c1cc(-c2ccc(O)c(O)c2)oc2cc(O)cc(O)c12
REMARK SMILES IDX 4 1 3 2 2 3 1 4 21 5 19 6 18 7 16 8 15 9 14 10 13 11 5 12
REMARK SMILES IDX 6 13 7 14 8 15 12 16 10 17 9 18 11 20 20 22 17 24
REMARK H PARENT 9 19 11 21 20 23 17 25
REMARK Flexibility Score: inf
ROOT
ATOM      1  C   UNL     1     -44.570 -47.088  70.956  1.00  0.00     0.138 A 
ATOM      2  C   UNL     1     -43.943 -48.303  70.652  1.00  0.00     0.100 A 
ATOM      3  C   UNL     1     -44.715 -49.450  70.458  1.00  0.00     0.197 A 
ATOM      4  O   UNL     1     -44.128 -50.512  70.126  1.00  0.00    -0.289 OA
ATOM      5  C   UNL     1     -46.121 -49.382  70.601  1.00  0.00     0.107 A 
ATOM      6  C   UNL     1     -47.005 -50.494  70.467  1.00  0.00     0.134 A 
ATOM      7  C   UNL     1     -48.390 -50.285  70.513  1.00  0.00     0.093 A 
ATOM      8  C   UNL     1     -48.918 -49.013  70.751  1.00  0.00     0.123 A 
ATOM      9  C   UNL     1     -48.062 -47.931  70.937  1.00  0.00     0.094 A 
ATOM     10  C   UNL     1     -46.678 -48.101  70.860  1.00  0.00     0.146 A 
ATOM     11  O   UNL     1     -45.896 -47.040  71.030  1.00  0.00    -0.456 OA
ENDROOT
BRANCH   1  12
ATOM     12  C   UNL     1     -43.797 -45.839  71.173  1.00  0.00     0.021 A 
ATOM     13  C   UNL     1     -43.391 -45.434  72.459  1.00  0.00     0.016 A 
ATOM     14  C   UNL     1     -42.673 -44.248  72.634  1.00  0.00     0.051 A 
ATOM     15  C   UNL     1     -42.355 -43.443  71.534  1.00  0.00     0.157 A 
ATOM     16  C   UNL     1     -43.486 -45.018  70.074  1.00  0.00     0.062 A 
ATOM     17  C   UNL     1     -42.766 -43.829  70.248  1.00  0.00     0.158 A 
BRANCH  15  18
ATOM     18  O   UNL     1     -41.637 -42.262  71.714  1.00  0.00    -0.504 OA
ATOM     19  H   UNL     1     -41.967 -41.530  72.333  1.00  0.00     0.293 HD
ENDBRANCH  15  18
BRANCH  17  20
ATOM     20  O   UNL     1     -42.469 -43.048  69.132  1.00  0.00    -0.504 OA
ATOM     21  H   UNL     1     -41.653 -43.219  68.557  1.00  0.00     0.293 HD
ENDBRANCH  17  20
ENDBRANCH   1  12
BRANCH   6  22
ATOM     22  O   UNL     1     -46.580 -51.817  70.311  1.00  0.00    -0.507 OA
ATOM     23  H   UNL     1     -45.912 -52.282  70.907  1.00  0.00     0.293 HD
ENDBRANCH   6  22
BRANCH   8  24
ATOM     24  O   UNL     1     -50.297 -48.817  70.811  1.00  0.00    -0.508 OA
ATOM     25  H   UNL     1     -50.841 -49.119  71.611  1.00  0.00     0.293 HD
ENDBRANCH   8  24
TORSDOF 5
ENDMDL
MODEL 2
REMARK VINA RESULT:    -4.782      0.647      1.510
REMARK INTER + INTRA:          -5.884
REMARK INTER:                  -5.619
REMARK INTRA:                  -0.265
REMARK UNBOUND:                -0.263
REMARK SMILES O=c1cc(-c2ccc(O)c(O)c2)oc2cc(O)cc(O)c12
REMARK SMILES IDX 4 1 3 2 2 3 1 4 21 5 19 6 18 7 16 8 15 9 14 10 13 11 5 12
REMARK SMILES IDX 6 13 7 14 8 15 12 16 10 17 9 18 11 20 20 22 17 24
REMARK H PARENT 9 19 11 21 20 23 17 25
REMARK Flexibility Score: inf
ROOT
ATOM      1  C   UNL     1     -44.653 -47.099  70.930  1.00  0.00     0.138 A 
ATOM      2  C   UNL     1     -44.011 -48.309  70.637  1.00  0.00     0.100 A 
ATOM      3  C   UNL     1     -44.769 -49.466  70.450  1.00  0.00     0.197 A 
ATOM      4  O   UNL     1     -44.169 -50.524  70.128  1.00  0.00    -0.289 OA
ATOM      5  C   UNL     1     -46.176 -49.414  70.590  1.00  0.00     0.107 A 
ATOM      6  C   UNL     1     -47.047 -50.538  70.463  1.00  0.00     0.134 A 
ATOM      7  C   UNL     1     -48.434 -50.344  70.505  1.00  0.00     0.093 A 
ATOM      8  C   UNL     1     -48.978 -49.077  70.732  1.00  0.00     0.123 A 
ATOM      9  C   UNL     1     -48.135 -47.983  70.911  1.00  0.00     0.094 A 
ATOM     10  C   UNL     1     -46.749 -48.138  70.838  1.00  0.00     0.146 A 
ATOM     11  O   UNL     1     -45.979 -47.066  71.001  1.00  0.00    -0.456 OA
ENDROOT
BRANCH   1  12
ATOM     12  C   UNL     1     -43.895 -45.840  71.138  1.00  0.00     0.021 A 
ATOM     13  C   UNL     1     -43.489 -45.032  70.058  1.00  0.00     0.016 A 
ATOM     14  C   UNL     1     -42.768 -43.858  70.282  1.00  0.00     0.051 A 
ATOM     15  C   UNL     1     -42.432 -43.471  71.586  1.00  0.00     0.157 A 
ATOM     16  C   UNL     1     -43.541 -45.452  72.443  1.00  0.00     0.062 A 
ATOM     17  C   UNL     1     -42.819 -44.274  72.670  1.00  0.00     0.158 A 
BRANCH  15  18
ATOM     18  O   UNL     1     -41.713 -42.297  71.806  1.00  0.00    -0.504 OA
ATOM     19  H   UNL     1     -42.134 -41.385  71.676  1.00  0.00     0.293 HD
ENDBRANCH  15  18
BRANCH  17  20
ATOM     20  O   UNL     1     -42.496 -43.920  73.980  1.00  0.00    -0.504 OA
ATOM     21  H   UNL     1     -42.510 -44.592  74.738  1.00  0.00     0.293 HD
ENDBRANCH  17  20
ENDBRANCH   1  12
BRANCH   6  22
ATOM     22  O   UNL     1     -46.606 -51.856  70.319  1.00  0.00    -0.507 OA
ATOM     23  H   UNL     1     -46.515 -52.341  69.438  1.00  0.00     0.293 HD
ENDBRANCH   6  22
BRANCH   8  24
ATOM     24  O   UNL     1     -50.358 -48.897  70.788  1.00  0.00    -0.508 OA
ATOM     25  H   UNL     1     -50.837 -48.267  70.156  1.00  0.00     0.293 HD
ENDBRANCH   8  24
TORSDOF 5
ENDMDL
MODEL 3
REMARK VINA RESULT:    -4.718      1.731      7.161
REMARK INTER + INTRA:          -5.808
REMARK INTER:                  -5.523
REMARK INTRA:                  -0.285
REMARK UNBOUND:                -0.263
REMARK SMILES O=c1cc(-c2ccc(O)c(O)c2)oc2cc(O)cc(O)c12
REMARK SMILES IDX 4 1 3 2 2 3 1 4 21 5 19 6 18 7 16 8 15 9 14 10 13 11 5 12
REMARK SMILES IDX 6 13 7 14 8 15 12 16 10 17 9 18 11 20 20 22 17 24
REMARK H PARENT 9 19 11 21 20 23 17 25
REMARK Flexibility Score: inf
ROOT
ATOM      1  C   UNL     1     -43.799 -46.533  71.048  1.00  0.00     0.138 A 
ATOM      2  C   UNL     1     -42.703 -46.739  71.895  1.00  0.00     0.100 A 
ATOM      3  C   UNL     1     -41.715 -45.759  71.998  1.00  0.00     0.197 A 
ATOM      4  O   UNL     1     -40.775 -45.946  72.813  1.00  0.00    -0.289 OA
ATOM      5  C   UNL     1     -41.812 -44.580  71.222  1.00  0.00     0.107 A 
ATOM      6  C   UNL     1     -40.844 -43.531  71.214  1.00  0.00     0.134 A 
ATOM      7  C   UNL     1     -41.104 -42.357  70.494  1.00  0.00     0.093 A 
ATOM      8  C   UNL     1     -42.269 -42.222  69.734  1.00  0.00     0.123 A 
ATOM      9  C   UNL     1     -43.194 -43.261  69.693  1.00  0.00     0.094 A 
ATOM     10  C   UNL     1     -42.980 -44.430  70.428  1.00  0.00     0.146 A 
ATOM     11  O   UNL     1     -43.895 -45.393  70.372  1.00  0.00    -0.456 OA
ENDROOT
BRANCH   1  12
ATOM     12  C   UNL     1     -44.878 -47.542  70.901  1.00  0.00     0.021 A 
ATOM     13  C   UNL     1     -44.601 -48.873  70.530  1.00  0.00     0.016 A 
ATOM     14  C   UNL     1     -45.637 -49.799  70.389  1.00  0.00     0.051 A 
ATOM     15  C   UNL     1     -46.966 -49.415  70.607  1.00  0.00     0.157 A 
ATOM     16  C   UNL     1     -46.216 -47.161  71.104  1.00  0.00     0.062 A 
ATOM     17  C   UNL     1     -47.256 -48.088  70.964  1.00  0.00     0.158 A 
BRANCH  15  18
ATOM     18  O   UNL     1     -47.996 -50.343  70.467  1.00  0.00    -0.504 OA
ATOM     19  H   UNL     1     -48.867 -50.103  70.007  1.00  0.00     0.293 HD
ENDBRANCH  15  18
BRANCH  17  20
ATOM     20  O   UNL     1     -48.569 -47.672  71.183  1.00  0.00    -0.504 OA
ATOM     21  H   UNL     1     -48.791 -46.888  71.785  1.00  0.00     0.293 HD
ENDBRANCH  17  20
ENDBRANCH   1  12
BRANCH   6  22
ATOM     22  O   UNL     1     -39.611 -43.600  71.870  1.00  0.00    -0.507 OA
ATOM     23  H   UNL     1     -38.799 -43.052  71.629  1.00  0.00     0.293 HD
ENDBRANCH   6  22
BRANCH   8  24
ATOM     24  O   UNL     1     -42.511 -41.057  69.009  1.00  0.00    -0.508 OA
ATOM     25  H   UNL     1     -42.641 -40.164  69.468  1.00  0.00     0.293 HD
ENDBRANCH   8  24
TORSDOF 5
ENDMDL
MODEL 4
REMARK VINA RESULT:    -4.705      1.464      7.397
REMARK INTER + INTRA:          -5.793
REMARK INTER:                  -5.530
REMARK INTRA:                  -0.262
REMARK UNBOUND:                -0.263
REMARK SMILES O=c1cc(-c2ccc(O)c(O)c2)oc2cc(O)cc(O)c12
REMARK SMILES IDX 4 1 3 2 2 3 1 4 21 5 19 6 18 7 16 8 15 9 14 10 13 11 5 12
REMARK SMILES IDX 6 13 7 14 8 15 12 16 10 17 9 18 11 20 20 22 17 24
REMARK H PARENT 9 19 11 21 20 23 17 25
REMARK Flexibility Score: inf
ROOT
ATOM      1  C   UNL     1     -44.133 -46.016  71.373  1.00  0.00     0.138 A 
ATOM      2  C   UNL     1     -43.786 -45.672  72.686  1.00  0.00     0.100 A 
ATOM      3  C   UNL     1     -42.982 -44.555  72.918  1.00  0.00     0.197 A 
ATOM      4  O   UNL     1     -42.739 -44.235  74.110  1.00  0.00    -0.289 OA
ATOM      5  C   UNL     1     -42.499 -43.798  71.825  1.00  0.00     0.107 A 
ATOM      6  C   UNL     1     -41.640 -42.664  71.938  1.00  0.00     0.134 A 
ATOM      7  C   UNL     1     -41.320 -41.923  70.793  1.00  0.00     0.093 A 
ATOM      8  C   UNL     1     -41.780 -42.311  69.532  1.00  0.00     0.123 A 
ATOM      9  C   UNL     1     -42.575 -43.447  69.404  1.00  0.00     0.094 A 
ATOM     10  C   UNL     1     -42.940 -44.187  70.531  1.00  0.00     0.146 A 
ATOM     11  O   UNL     1     -43.712 -45.257  70.367  1.00  0.00    -0.456 OA
ENDROOT
BRANCH   1  12
ATOM     12  C   UNL     1     -44.985 -47.194  71.070  1.00  0.00     0.021 A 
ATOM     13  C   UNL     1     -44.431 -48.417  70.642  1.00  0.00     0.016 A 
ATOM     14  C   UNL     1     -45.257 -49.506  70.354  1.00  0.00     0.051 A 
ATOM     15  C   UNL     1     -46.647 -49.394  70.480  1.00  0.00     0.157 A 
ATOM     16  C   UNL     1     -46.382 -47.086  71.180  1.00  0.00     0.062 A 
ATOM     17  C   UNL     1     -47.212 -48.176  70.892  1.00  0.00     0.158 A 
BRANCH  15  18
ATOM     18  O   UNL     1     -47.468 -50.483  70.193  1.00  0.00    -0.504 OA
ATOM     19  H   UNL     1     -48.127 -50.845  70.873  1.00  0.00     0.293 HD
ENDBRANCH  15  18
BRANCH  17  20
ATOM     20  O   UNL     1     -48.592 -48.030  71.024  1.00  0.00    -0.504 OA
ATOM     21  H   UNL     1     -49.015 -47.162  71.332  1.00  0.00     0.293 HD
ENDBRANCH  17  20
ENDBRANCH   1  12
BRANCH   6  22
ATOM     22  O   UNL     1     -41.058 -42.241  73.137  1.00  0.00    -0.507 OA
ATOM     23  H   UNL     1     -41.291 -41.388  73.621  1.00  0.00     0.293 HD
ENDBRANCH   6  22
BRANCH   8  24
ATOM     24  O   UNL     1     -41.444 -41.576  68.397  1.00  0.00    -0.508 OA
ATOM     25  H   UNL     1     -40.483 -41.480  68.092  1.00  0.00     0.293 HD
ENDBRANCH   8  24
TORSDOF 5
ENDMDL
MODEL 5
REMARK VINA RESULT:    -4.663      1.590      7.207
REMARK INTER + INTRA:          -5.744
REMARK INTER:                  -5.473
REMARK INTRA:                  -0.271
REMARK UNBOUND:                -0.263
REMARK SMILES O=c1cc(-c2ccc(O)c(O)c2)oc2cc(O)cc(O)c12
REMARK SMILES IDX 4 1 3 2 2 3 1 4 21 5 19 6 18 7 16 8 15 9 14 10 13 11 5 12
REMARK SMILES IDX 6 13 7 14 8 15 12 16 10 17 9 18 11 20 20 22 17 24
REMARK H PARENT 9 19 11 21 20 23 17 25
REMARK Flexibility Score: inf
ROOT
ATOM      1  C   UNL     1     -44.347 -46.292  71.298  1.00  0.00     0.138 A 
ATOM      2  C   UNL     1     -43.601 -45.680  70.282  1.00  0.00     0.100 A 
ATOM      3  C   UNL     1     -42.781 -44.592  70.587  1.00  0.00     0.197 A 
ATOM      4  O   UNL     1     -42.076 -44.103  69.667  1.00  0.00    -0.289 OA
ATOM      5  C   UNL     1     -42.734 -44.097  71.912  1.00  0.00     0.107 A 
ATOM      6  C   UNL     1     -41.967 -42.969  72.331  1.00  0.00     0.134 A 
ATOM      7  C   UNL     1     -41.907 -42.643  73.692  1.00  0.00     0.093 A 
ATOM      8  C   UNL     1     -42.636 -43.366  74.639  1.00  0.00     0.123 A 
ATOM      9  C   UNL     1     -43.431 -44.435  74.233  1.00  0.00     0.094 A 
ATOM     10  C   UNL     1     -43.483 -44.808  72.888  1.00  0.00     0.146 A 
ATOM     11  O   UNL     1     -44.243 -45.843  72.544  1.00  0.00    -0.456 OA
ENDROOT
BRANCH   1  12
ATOM     12  C   UNL     1     -45.235 -47.451  71.028  1.00  0.00     0.021 A 
ATOM     13  C   UNL     1     -44.722 -48.698  70.619  1.00  0.00     0.016 A 
ATOM     14  C   UNL     1     -45.581 -49.768  70.362  1.00  0.00     0.051 A 
ATOM     15  C   UNL     1     -46.966 -49.613  70.501  1.00  0.00     0.157 A 
ATOM     16  C   UNL     1     -46.628 -47.300  71.151  1.00  0.00     0.062 A 
ATOM     17  C   UNL     1     -47.491 -48.372  70.895  1.00  0.00     0.158 A 
BRANCH  15  18
ATOM     18  O   UNL     1     -47.821 -50.684  70.245  1.00  0.00    -0.504 OA
ATOM     19  H   UNL     1     -47.916 -51.076  69.315  1.00  0.00     0.293 HD
ENDBRANCH  15  18
BRANCH  17  20
ATOM     20  O   UNL     1     -48.865 -48.184  71.038  1.00  0.00    -0.504 OA
ATOM     21  H   UNL     1     -49.506 -48.960  71.150  1.00  0.00     0.293 HD
ENDBRANCH  17  20
ENDBRANCH   1  12
BRANCH   6  22
ATOM     22  O   UNL     1     -41.270 -42.130  71.457  1.00  0.00    -0.507 OA
ATOM     23  H   UNL     1     -40.363 -41.729  71.643  1.00  0.00     0.293 HD
ENDBRANCH   6  22
BRANCH   8  24
ATOM     24  O   UNL     1     -42.582 -43.024  75.989  1.00  0.00    -0.508 OA
ATOM     25  H   UNL     1     -43.205 -43.445  76.668  1.00  0.00     0.293 HD
ENDBRANCH   8  24
TORSDOF 5
ENDMDL
MODEL 6
REMARK VINA RESULT:    -4.613      2.366      7.461
REMARK INTER + INTRA:          -5.685
REMARK INTER:                  -5.405
REMARK INTRA:                  -0.280
REMARK UNBOUND:                -0.263
REMARK SMILES O=c1cc(-c2ccc(O)c(O)c2)oc2cc(O)cc(O)c12
REMARK SMILES IDX 4 1 3 2 2 3 1 4 21 5 19 6 18 7 16 8 15 9 14 10 13 11 5 12
REMARK SMILES IDX 6 13 7 14 8 15 12 16 10 17 9 18 11 20 20 22 17 24
REMARK H PARENT 9 19 11 21 20 23 17 25
REMARK Flexibility Score: inf
ROOT
ATOM      1  C   UNL     1     -49.162 -49.270  70.871  1.00  0.00     0.138 A 
ATOM      2  C   UNL     1     -48.599 -50.524  70.600  1.00  0.00     0.100 A 
ATOM      3  C   UNL     1     -47.215 -50.644  70.461  1.00  0.00     0.197 A 
ATOM      4  O   UNL     1     -46.734 -51.792  70.280  1.00  0.00    -0.289 OA
ATOM      5  C   UNL     1     -46.397 -49.494  70.563  1.00  0.00     0.107 A 
ATOM      6  C   UNL     1     -44.979 -49.490  70.398  1.00  0.00     0.134 A 
ATOM      7  C   UNL     1     -44.260 -48.311  70.637  1.00  0.00     0.093 A 
ATOM      8  C   UNL     1     -44.915 -47.124  70.975  1.00  0.00     0.123 A 
ATOM      9  C   UNL     1     -46.303 -47.106  71.085  1.00  0.00     0.094 A 
ATOM     10  C   UNL     1     -47.045 -48.273  70.888  1.00  0.00     0.146 A 
ATOM     11  O   UNL     1     -48.367 -48.216  71.016  1.00  0.00    -0.456 OA
ENDROOT
BRANCH   1  12
ATOM     12  C   UNL     1     -50.627 -49.086  71.028  1.00  0.00     0.021 A 
ATOM     13  C   UNL     1     -51.529 -49.408  69.995  1.00  0.00     0.016 A 
ATOM     14  C   UNL     1     -52.901 -49.215  70.166  1.00  0.00     0.051 A 
ATOM     15  C   UNL     1     -53.399 -48.691  71.366  1.00  0.00     0.157 A 
ATOM     16  C   UNL     1     -51.134 -48.547  72.224  1.00  0.00     0.062 A 
ATOM     17  C   UNL     1     -52.509 -48.353  72.398  1.00  0.00     0.158 A 
BRANCH  15  18
ATOM     18  O   UNL     1     -54.769 -48.501  71.533  1.00  0.00    -0.504 OA
ATOM     19  H   UNL     1     -55.275 -48.930  72.299  1.00  0.00     0.293 HD
ENDBRANCH  15  18
BRANCH  17  20
ATOM     20  O   UNL     1     -52.972 -47.825  73.603  1.00  0.00    -0.504 OA
ATOM     21  H   UNL     1     -52.340 -47.500  74.326  1.00  0.00     0.293 HD
ENDBRANCH  17  20
ENDBRANCH   1  12
BRANCH   6  22
ATOM     22  O   UNL     1     -44.237 -50.598  69.981  1.00  0.00    -0.507 OA
ATOM     23  H   UNL     1     -43.543 -51.072  70.541  1.00  0.00     0.293 HD
ENDBRANCH   6  22
BRANCH   8  24
ATOM     24  O   UNL     1     -44.193 -45.953  71.196  1.00  0.00    -0.508 OA
ATOM     25  H   UNL     1     -44.520 -45.241  71.837  1.00  0.00     0.293 HD
ENDBRANCH   8  24
TORSDOF 5
ENDMDL
MODEL 7
REMARK VINA RESULT:    -4.589      2.893      5.738
REMARK INTER + INTRA:          -5.656
REMARK INTER:                  -5.386
REMARK INTRA:                  -0.270
REMARK UNBOUND:                -0.263
REMARK SMILES O=c1cc(-c2ccc(O)c(O)c2)oc2cc(O)cc(O)c12
REMARK SMILES IDX 4 1 3 2 2 3 1 4 21 5 19 6 18 7 16 8 15 9 14 10 13 11 5 12
REMARK SMILES IDX 6 13 7 14 8 15 12 16 10 17 9 18 11 20 20 22 17 24
REMARK H PARENT 9 19 11 21 20 23 17 25
REMARK Flexibility Score: inf
ROOT
ATOM      1  C   UNL     1     -49.112 -48.818  70.745  1.00  0.00     0.138 A 
ATOM      2  C   UNL     1     -49.730 -49.447  69.657  1.00  0.00     0.100 A 
ATOM      3  C   UNL     1     -51.108 -49.670  69.679  1.00  0.00     0.197 A 
ATOM      4  O   UNL     1     -51.644 -50.181  68.662  1.00  0.00    -0.289 OA
ATOM      5  C   UNL     1     -51.863 -49.288  70.813  1.00  0.00     0.107 A 
ATOM      6  C   UNL     1     -53.266 -49.502  70.964  1.00  0.00     0.134 A 
ATOM      7  C   UNL     1     -53.928 -48.976  72.081  1.00  0.00     0.093 A 
ATOM      8  C   UNL     1     -53.226 -48.297  73.081  1.00  0.00     0.123 A 
ATOM      9  C   UNL     1     -51.848 -48.130  72.969  1.00  0.00     0.094 A 
ATOM     10  C   UNL     1     -51.165 -48.612  71.850  1.00  0.00     0.146 A 
ATOM     11  O   UNL     1     -49.852 -48.420  71.774  1.00  0.00    -0.456 OA
ENDROOT
BRANCH   1  12
ATOM     12  C   UNL     1     -47.650 -48.557  70.774  1.00  0.00     0.021 A 
ATOM     13  C   UNL     1     -47.133 -47.266  70.996  1.00  0.00     0.016 A 
ATOM     14  C   UNL     1     -45.753 -47.048  71.007  1.00  0.00     0.051 A 
ATOM     15  C   UNL     1     -44.866 -48.110  70.789  1.00  0.00     0.157 A 
ATOM     16  C   UNL     1     -46.753 -49.615  70.541  1.00  0.00     0.062 A 
ATOM     17  C   UNL     1     -45.370 -49.399  70.552  1.00  0.00     0.158 A 
BRANCH  15  18
ATOM     18  O   UNL     1     -43.490 -47.888  70.802  1.00  0.00    -0.504 OA
ATOM     19  H   UNL     1     -42.829 -48.656  70.782  1.00  0.00     0.293 HD
ENDBRANCH  15  18
BRANCH  17  20
ATOM     20  O   UNL     1     -44.514 -50.477  70.327  1.00  0.00    -0.504 OA
ATOM     21  H   UNL     1     -44.669 -51.384  70.750  1.00  0.00     0.293 HD
ENDBRANCH  17  20
ENDBRANCH   1  12
BRANCH   6  22
ATOM     22  O   UNL     1     -54.045 -50.239  70.068  1.00  0.00    -0.507 OA
ATOM     23  H   UNL     1     -54.158 -51.241  70.090  1.00  0.00     0.293 HD
ENDBRANCH   6  22
BRANCH   8  24
ATOM     24  O   UNL     1     -53.891 -47.791  74.196  1.00  0.00    -0.508 OA
ATOM     25  H   UNL     1     -54.873 -47.548  74.163  1.00  0.00     0.293 HD
ENDBRANCH   8  24
TORSDOF 5
ENDMDL
MODEL 8
REMARK VINA RESULT:    -4.471      2.604      3.953
REMARK INTER + INTRA:          -5.518
REMARK INTER:                  -5.247
REMARK INTRA:                  -0.272
REMARK UNBOUND:                -0.263
REMARK SMILES O=c1cc(-c2ccc(O)c(O)c2)oc2cc(O)cc(O)c12
REMARK SMILES IDX 4 1 3 2 2 3 1 4 21 5 19 6 18 7 16 8 15 9 14 10 13 11 5 12
REMARK SMILES IDX 6 13 7 14 8 15 12 16 10 17 9 18 11 20 20 22 17 24
REMARK H PARENT 9 19 11 21 20 23 17 25
REMARK Flexibility Score: inf
ROOT
ATOM      1  C   UNL     1     -46.713 -48.361  70.114  1.00  0.00     0.138 A 
ATOM      2  C   UNL     1     -47.428 -49.386  70.747  1.00  0.00     0.100 A 
ATOM      3  C   UNL     1     -48.727 -49.683  70.328  1.00  0.00     0.197 A 
ATOM      4  O   UNL     1     -49.320 -50.649  70.874  1.00  0.00    -0.289 OA
ATOM      5  C   UNL     1     -49.320 -48.927  69.291  1.00  0.00     0.107 A 
ATOM      6  C   UNL     1     -50.651 -49.112  68.809  1.00  0.00     0.134 A 
ATOM      7  C   UNL     1     -51.091 -48.382  67.698  1.00  0.00     0.093 A 
ATOM      8  C   UNL     1     -50.269 -47.429  67.091  1.00  0.00     0.123 A 
ATOM      9  C   UNL     1     -48.988 -47.202  67.587  1.00  0.00     0.094 A 
ATOM     10  C   UNL     1     -48.508 -47.939  68.672  1.00  0.00     0.146 A 
ATOM     11  O   UNL     1     -47.274 -47.702  69.106  1.00  0.00    -0.456 OA
ENDROOT
BRANCH   1  12
ATOM     12  C   UNL     1     -45.331 -48.003  70.520  1.00  0.00     0.021 A 
ATOM     13  C   UNL     1     -44.256 -48.899  70.358  1.00  0.00     0.016 A 
ATOM     14  C   UNL     1     -42.967 -48.541  70.759  1.00  0.00     0.051 A 
ATOM     15  C   UNL     1     -42.728 -47.286  71.334  1.00  0.00     0.157 A 
ATOM     16  C   UNL     1     -45.084 -46.752  71.112  1.00  0.00     0.062 A 
ATOM     17  C   UNL     1     -43.793 -46.390  71.514  1.00  0.00     0.158 A 
BRANCH  15  18
ATOM     18  O   UNL     1     -41.440 -46.932  71.732  1.00  0.00    -0.504 OA
ATOM     19  H   UNL     1     -40.665 -47.581  71.661  1.00  0.00     0.293 HD
ENDBRANCH  15  18
BRANCH  17  20
ATOM     20  O   UNL     1     -43.589 -45.135  72.088  1.00  0.00    -0.504 OA
ATOM     21  H   UNL     1     -43.283 -45.026  73.048  1.00  0.00     0.293 HD
ENDBRANCH  17  20
ENDBRANCH   1  12
BRANCH   6  22
ATOM     22  O   UNL     1     -51.581 -49.976  69.395  1.00  0.00    -0.507 OA
ATOM     23  H   UNL     1     -52.167 -50.622  68.888  1.00  0.00     0.293 HD
ENDBRANCH   6  22
BRANCH   8  24
ATOM     24  O   UNL     1     -50.721 -46.696  65.995  1.00  0.00    -0.508 OA
ATOM     25  H   UNL     1     -50.097 -46.423  65.246  1.00  0.00     0.293 HD
ENDBRANCH   8  24
TORSDOF 5
ENDMDL
MODEL 9
REMARK VINA RESULT:    -4.378      5.042      7.563
REMARK INTER + INTRA:          -5.408
REMARK INTER:                  -5.097
REMARK INTRA:                  -0.311
REMARK UNBOUND:                -0.263
REMARK SMILES O=c1cc(-c2ccc(O)c(O)c2)oc2cc(O)cc(O)c12
REMARK SMILES IDX 4 1 3 2 2 3 1 4 21 5 19 6 18 7 16 8 15 9 14 10 13 11 5 12
REMARK SMILES IDX 6 13 7 14 8 15 12 16 10 17 9 18 11 20 20 22 17 24
REMARK H PARENT 9 19 11 21 20 23 17 25
REMARK Flexibility Score: inf
ROOT
ATOM      1  C   UNL     1     -49.850 -47.826  67.040  1.00  0.00     0.138 A 
ATOM      2  C   UNL     1     -50.764 -48.569  67.798  1.00  0.00     0.100 A 
ATOM      3  C   UNL     1     -50.323 -49.265  68.925  1.00  0.00     0.197 A 
ATOM      4  O   UNL     1     -51.177 -49.873  69.620  1.00  0.00    -0.289 OA
ATOM      5  C   UNL     1     -48.952 -49.240  69.273  1.00  0.00     0.107 A 
ATOM      6  C   UNL     1     -48.381 -49.945  70.376  1.00  0.00     0.134 A 
ATOM      7  C   UNL     1     -47.031 -49.751  70.694  1.00  0.00     0.093 A 
ATOM      8  C   UNL     1     -46.217 -48.927  69.911  1.00  0.00     0.123 A 
ATOM      9  C   UNL     1     -46.752 -48.278  68.802  1.00  0.00     0.094 A 
ATOM     10  C   UNL     1     -48.103 -48.423  68.480  1.00  0.00     0.146 A 
ATOM     11  O   UNL     1     -48.578 -47.775  67.420  1.00  0.00    -0.456 OA
ENDROOT
BRANCH   1  12
ATOM     12  C   UNL     1     -50.266 -47.068  65.833  1.00  0.00     0.021 A 
ATOM     13  C   UNL     1     -51.604 -46.682  65.626  1.00  0.00     0.016 A 
ATOM     14  C   UNL     1     -51.969 -45.979  64.475  1.00  0.00     0.051 A 
ATOM     15  C   UNL     1     -51.008 -45.655  63.509  1.00  0.00     0.157 A 
ATOM     16  C   UNL     1     -49.310 -46.752  64.851  1.00  0.00     0.062 A 
ATOM     17  C   UNL     1     -49.673 -46.046  63.697  1.00  0.00     0.158 A 
BRANCH  15  18
ATOM     18  O   UNL     1     -51.376 -44.952  62.363  1.00  0.00    -0.504 OA
ATOM     19  H   UNL     1     -52.057 -45.322  61.709  1.00  0.00     0.293 HD
ENDBRANCH  15  18
BRANCH  17  20
ATOM     20  O   UNL     1     -48.694 -45.743  62.752  1.00  0.00    -0.504 OA
ATOM     21  H   UNL     1     -48.042 -44.978  62.879  1.00  0.00     0.293 HD
ENDBRANCH  17  20
ENDBRANCH   1  12
BRANCH   6  22
ATOM     22  O   UNL     1     -49.084 -50.856  71.169  1.00  0.00    -0.507 OA
ATOM     23  H   UNL     1     -49.500 -50.641  72.063  1.00  0.00     0.293 HD
ENDBRANCH   6  22
BRANCH   8  24
ATOM     24  O   UNL     1     -44.871 -48.753  70.226  1.00  0.00    -0.508 OA
ATOM     25  H   UNL     1     -44.362 -49.437  70.774  1.00  0.00     0.293 HD
ENDBRANCH   8  24
TORSDOF 5
ENDMDL
