MODEL 1
REMARK VINA RESULT:    -6.437      0.000      0.000
REMARK INTER + INTRA:          -7.884
REMARK INTER:                  -7.566
REMARK INTRA:                  -0.318
REMARK UNBOUND:                -0.318
REMARK SMILES O=c1cc(-c2ccc(O)c(O)c2)oc2cc(O)cc(O)c12
REMARK SMILES IDX 4 1 3 2 2 3 1 4 21 5 19 6 18 7 16 8 15 9 14 10 13 11 5 12
REMARK SMILES IDX 6 13 7 14 8 15 12 16 10 17 9 18 11 20 20 22 17 24
REMARK H PARENT 9 19 11 21 20 23 17 25
REMARK Flexibility Score: inf
ROOT
ATOM      1  C   UNL     1      70.182 -47.479 -22.778  1.00  0.00     0.138 A 
ATOM      2  C   UNL     1      70.704 -48.753 -23.041  1.00  0.00     0.100 A 
ATOM      3  C   UNL     1      70.534 -49.321 -24.304  1.00  0.00     0.197 A 
ATOM      4  O   UNL     1      71.067 -50.439 -24.529  1.00  0.00    -0.289 OA
ATOM      5  C   UNL     1      69.810 -48.622 -25.298  1.00  0.00     0.107 A 
ATOM      6  C   UNL     1      69.539 -49.120 -26.608  1.00  0.00     0.134 A 
ATOM      7  C   UNL     1      68.912 -48.290 -27.546  1.00  0.00     0.093 A 
ATOM      8  C   UNL     1      68.494 -47.002 -27.203  1.00  0.00     0.123 A 
ATOM      9  C   UNL     1      68.706 -46.526 -25.912  1.00  0.00     0.094 A 
ATOM     10  C   UNL     1      69.359 -47.317 -24.964  1.00  0.00     0.146 A 
ATOM     11  O   UNL     1      69.555 -46.819 -23.746  1.00  0.00    -0.456 OA
ENDROOT
BRANCH   1  12
ATOM     12  C   UNL     1      70.333 -46.828 -21.452  1.00  0.00     0.021 A 
ATOM     13  C   UNL     1      70.941 -47.534 -20.400  1.00  0.00     0.016 A 
ATOM     14  C   UNL     1      71.100 -46.941 -19.145  1.00  0.00     0.051 A 
ATOM     15  C   UNL     1      70.667 -45.631 -18.922  1.00  0.00     0.157 A 
ATOM     16  C   UNL     1      69.909 -45.503 -21.226  1.00  0.00     0.062 A 
ATOM     17  C   UNL     1      70.072 -44.906 -19.966  1.00  0.00     0.158 A 
BRANCH  15  18
ATOM     18  O   UNL     1      70.839 -45.067 -17.658  1.00  0.00    -0.504 OA
ATOM     19  H   UNL     1      70.591 -45.561 -16.809  1.00  0.00     0.293 HD
ENDBRANCH  15  18
BRANCH  17  20
ATOM     20  O   UNL     1      69.647 -43.596 -19.753  1.00  0.00    -0.504 OA
ATOM     21  H   UNL     1      69.039 -43.121 -20.408  1.00  0.00     0.293 HD
ENDBRANCH  17  20
ENDBRANCH   1  12
BRANCH   6  22
ATOM     22  O   UNL     1      69.838 -50.419 -27.027  1.00  0.00    -0.507 OA
ATOM     23  H   UNL     1      70.590 -50.984 -26.662  1.00  0.00     0.293 HD
ENDBRANCH   6  22
BRANCH   8  24
ATOM     24  O   UNL     1      67.858 -46.188 -28.138  1.00  0.00    -0.508 OA
ATOM     25  H   UNL     1      67.304 -46.580 -28.892  1.00  0.00     0.293 HD
ENDBRANCH   8  24
TORSDOF 5
ENDMDL
MODEL 2
REMARK VINA RESULT:    -6.416     13.861     15.659
REMARK INTER + INTRA:          -7.859
REMARK INTER:                  -7.591
REMARK INTRA:                  -0.268
REMARK UNBOUND:                -0.318
REMARK SMILES O=c1cc(-c2ccc(O)c(O)c2)oc2cc(O)cc(O)c12
REMARK SMILES IDX 4 1 3 2 2 3 1 4 21 5 19 6 18 7 16 8 15 9 14 10 13 11 5 12
REMARK SMILES IDX 6 13 7 14 8 15 12 16 10 17 9 18 11 20 20 22 17 24
REMARK H PARENT 9 19 11 21 20 23 17 25
REMARK Flexibility Score: inf
ROOT
ATOM      1  C   UNL     1      57.578 -39.448 -20.396  1.00  0.00     0.138 A 
ATOM      2  C   UNL     1      56.276 -38.953 -20.230  1.00  0.00     0.100 A 
ATOM      3  C   UNL     1      55.912 -37.752 -20.841  1.00  0.00     0.197 A 
ATOM      4  O   UNL     1      54.721 -37.364 -20.725  1.00  0.00    -0.289 OA
ATOM      5  C   UNL     1      56.866 -37.029 -21.596  1.00  0.00     0.107 A 
ATOM      6  C   UNL     1      56.619 -35.775 -22.229  1.00  0.00     0.134 A 
ATOM      7  C   UNL     1      57.606 -35.208 -23.048  1.00  0.00     0.093 A 
ATOM      8  C   UNL     1      58.850 -35.824 -23.206  1.00  0.00     0.123 A 
ATOM      9  C   UNL     1      59.120 -37.021 -22.549  1.00  0.00     0.094 A 
ATOM     10  C   UNL     1      58.145 -37.628 -21.754  1.00  0.00     0.146 A 
ATOM     11  O   UNL     1      58.438 -38.778 -21.156  1.00  0.00    -0.456 OA
ENDROOT
BRANCH   1  12
ATOM     12  C   UNL     1      58.019 -40.719 -19.768  1.00  0.00     0.021 A 
ATOM     13  C   UNL     1      58.335 -40.741 -18.399  1.00  0.00     0.016 A 
ATOM     14  C   UNL     1      58.746 -41.926 -17.783  1.00  0.00     0.051 A 
ATOM     15  C   UNL     1      58.838 -43.110 -18.520  1.00  0.00     0.157 A 
ATOM     16  C   UNL     1      58.100 -41.919 -20.504  1.00  0.00     0.062 A 
ATOM     17  C   UNL     1      58.511 -43.109 -19.885  1.00  0.00     0.158 A 
BRANCH  15  18
ATOM     18  O   UNL     1      59.252 -44.277 -17.878  1.00  0.00    -0.504 OA
ATOM     19  H   UNL     1      59.388 -45.147 -18.377  1.00  0.00     0.293 HD
ENDBRANCH  15  18
BRANCH  17  20
ATOM     20  O   UNL     1      58.591 -44.290 -20.623  1.00  0.00    -0.504 OA
ATOM     21  H   UNL     1      57.762 -44.812 -20.881  1.00  0.00     0.293 HD
ENDBRANCH  17  20
ENDBRANCH   1  12
BRANCH   6  22
ATOM     22  O   UNL     1      55.444 -35.036 -22.069  1.00  0.00    -0.507 OA
ATOM     23  H   UNL     1      55.402 -34.086 -21.732  1.00  0.00     0.293 HD
ENDBRANCH   6  22
BRANCH   8  24
ATOM     24  O   UNL     1      59.831 -35.246 -24.010  1.00  0.00    -0.508 OA
ATOM     25  H   UNL     1      60.814 -35.460 -23.883  1.00  0.00     0.293 HD
ENDBRANCH   8  24
TORSDOF 5
ENDMDL
MODEL 3
REMARK VINA RESULT:    -6.364      2.563      8.204
REMARK INTER + INTRA:          -7.798
REMARK INTER:                  -7.486
REMARK INTRA:                  -0.311
REMARK UNBOUND:                -0.318
REMARK SMILES O=c1cc(-c2ccc(O)c(O)c2)oc2cc(O)cc(O)c12
REMARK SMILES IDX 4 1 3 2 2 3 1 4 21 5 19 6 18 7 16 8 15 9 14 10 13 11 5 12
REMARK SMILES IDX 6 13 7 14 8 15 12 16 10 17 9 18 11 20 20 22 17 24
REMARK H PARENT 9 19 11 21 20 23 17 25
REMARK Flexibility Score: inf
ROOT
ATOM      1  C   UNL     1      70.969 -45.242 -20.466  1.00  0.00     0.138 A 
ATOM      2  C   UNL     1      71.916 -44.245 -20.745  1.00  0.00     0.100 A 
ATOM      3  C   UNL     1      72.225 -43.295 -19.770  1.00  0.00     0.197 A 
ATOM      4  O   UNL     1      73.123 -42.452 -20.027  1.00  0.00    -0.289 OA
ATOM      5  C   UNL     1      71.558 -43.325 -18.523  1.00  0.00     0.107 A 
ATOM      6  C   UNL     1      71.762 -42.384 -17.470  1.00  0.00     0.134 A 
ATOM      7  C   UNL     1      71.131 -42.582 -16.235  1.00  0.00     0.093 A 
ATOM      8  C   UNL     1      70.258 -43.654 -16.036  1.00  0.00     0.123 A 
ATOM      9  C   UNL     1      70.010 -44.548 -17.074  1.00  0.00     0.094 A 
ATOM     10  C   UNL     1      70.651 -44.397 -18.306  1.00  0.00     0.146 A 
ATOM     11  O   UNL     1      70.399 -45.281 -19.267  1.00  0.00    -0.456 OA
ENDROOT
BRANCH   1  12
ATOM     12  C   UNL     1      70.603 -46.276 -21.466  1.00  0.00     0.021 A 
ATOM     13  C   UNL     1      70.838 -46.034 -22.830  1.00  0.00     0.016 A 
ATOM     14  C   UNL     1      70.507 -46.994 -23.790  1.00  0.00     0.051 A 
ATOM     15  C   UNL     1      69.947 -48.215 -23.405  1.00  0.00     0.157 A 
ATOM     16  C   UNL     1      70.050 -47.514 -21.081  1.00  0.00     0.062 A 
ATOM     17  C   UNL     1      69.720 -48.480 -22.045  1.00  0.00     0.158 A 
BRANCH  15  18
ATOM     18  O   UNL     1      69.627 -49.153 -24.386  1.00  0.00    -0.504 OA
ATOM     19  H   UNL     1      68.700 -49.552 -24.467  1.00  0.00     0.293 HD
ENDBRANCH  15  18
BRANCH  17  20
ATOM     20  O   UNL     1      69.172 -49.700 -21.653  1.00  0.00    -0.504 OA
ATOM     21  H   UNL     1      68.996 -49.916 -20.679  1.00  0.00     0.293 HD
ENDBRANCH  17  20
ENDBRANCH   1  12
BRANCH   6  22
ATOM     22  O   UNL     1      72.547 -41.233 -17.591  1.00  0.00    -0.507 OA
ATOM     23  H   UNL     1      72.246 -40.374 -18.024  1.00  0.00     0.293 HD
ENDBRANCH   6  22
BRANCH   8  24
ATOM     24  O   UNL     1      69.622 -43.835 -14.809  1.00  0.00    -0.508 OA
ATOM     25  H   UNL     1      68.615 -43.938 -14.744  1.00  0.00     0.293 HD
ENDBRANCH   8  24
TORSDOF 5
ENDMDL
MODEL 4
REMARK VINA RESULT:    -6.334     10.467     13.801
REMARK INTER + INTRA:          -7.763
REMARK INTER:                  -7.482
REMARK INTRA:                  -0.281
REMARK UNBOUND:                -0.318
REMARK SMILES O=c1cc(-c2ccc(O)c(O)c2)oc2cc(O)cc(O)c12
REMARK SMILES IDX 4 1 3 2 2 3 1 4 21 5 19 6 18 7 16 8 15 9 14 10 13 11 5 12
REMARK SMILES IDX 6 13 7 14 8 15 12 16 10 17 9 18 11 20 20 22 17 24
REMARK H PARENT 9 19 11 21 20 23 17 25
REMARK Flexibility Score: inf
ROOT
ATOM      1  C   UNL     1      69.754 -39.135 -13.581  1.00  0.00     0.138 A 
ATOM      2  C   UNL     1      70.838 -38.330 -13.206  1.00  0.00     0.100 A 
ATOM      3  C   UNL     1      70.793 -36.956 -13.447  1.00  0.00     0.197 A 
ATOM      4  O   UNL     1      71.754 -36.250 -13.044  1.00  0.00    -0.289 OA
ATOM      5  C   UNL     1      69.669 -36.392 -14.095  1.00  0.00     0.107 A 
ATOM      6  C   UNL     1      69.531 -35.012 -14.429  1.00  0.00     0.134 A 
ATOM      7  C   UNL     1      68.323 -34.549 -14.966  1.00  0.00     0.093 A 
ATOM      8  C   UNL     1      67.271 -35.428 -15.236  1.00  0.00     0.123 A 
ATOM      9  C   UNL     1      67.415 -36.785 -14.964  1.00  0.00     0.094 A 
ATOM     10  C   UNL     1      68.595 -37.272 -14.396  1.00  0.00     0.146 A 
ATOM     11  O   UNL     1      68.686 -38.573 -14.138  1.00  0.00    -0.456 OA
ENDROOT
BRANCH   1  12
ATOM     12  C   UNL     1      69.749 -40.602 -13.349  1.00  0.00     0.021 A 
ATOM     13  C   UNL     1      69.930 -41.097 -12.046  1.00  0.00     0.016 A 
ATOM     14  C   UNL     1      69.923 -42.472 -11.801  1.00  0.00     0.051 A 
ATOM     15  C   UNL     1      69.726 -43.376 -12.849  1.00  0.00     0.157 A 
ATOM     16  C   UNL     1      69.538 -41.517 -14.400  1.00  0.00     0.062 A 
ATOM     17  C   UNL     1      69.529 -42.898 -14.153  1.00  0.00     0.158 A 
BRANCH  15  18
ATOM     18  O   UNL     1      69.726 -44.743 -12.573  1.00  0.00    -0.504 OA
ATOM     19  H   UNL     1      69.808 -45.440 -13.303  1.00  0.00     0.293 HD
ENDBRANCH  15  18
BRANCH  17  20
ATOM     20  O   UNL     1      69.321 -43.794 -15.201  1.00  0.00    -0.504 OA
ATOM     21  H   UNL     1      69.336 -43.494 -16.168  1.00  0.00     0.293 HD
ENDBRANCH  17  20
ENDBRANCH   1  12
BRANCH   6  22
ATOM     22  O   UNL     1      70.549 -34.066 -14.280  1.00  0.00    -0.507 OA
ATOM     23  H   UNL     1      70.775 -33.594 -13.418  1.00  0.00     0.293 HD
ENDBRANCH   6  22
BRANCH   8  24
ATOM     24  O   UNL     1      66.077 -34.960 -15.784  1.00  0.00    -0.508 OA
ATOM     25  H   UNL     1      66.062 -34.180 -16.432  1.00  0.00     0.293 HD
ENDBRANCH   8  24
TORSDOF 5
ENDMDL
MODEL 5
REMARK VINA RESULT:    -6.273      2.495      4.325
REMARK INTER + INTRA:          -7.691
REMARK INTER:                  -7.425
REMARK INTRA:                  -0.266
REMARK UNBOUND:                -0.318
REMARK SMILES O=c1cc(-c2ccc(O)c(O)c2)oc2cc(O)cc(O)c12
REMARK SMILES IDX 4 1 3 2 2 3 1 4 21 5 19 6 18 7 16 8 15 9 14 10 13 11 5 12
REMARK SMILES IDX 6 13 7 14 8 15 12 16 10 17 9 18 11 20 20 22 17 24
REMARK H PARENT 9 19 11 21 20 23 17 25
REMARK Flexibility Score: inf
ROOT
ATOM      1  C   UNL     1      70.850 -45.421 -19.264  1.00  0.00     0.138 A 
ATOM      2  C   UNL     1      71.648 -46.572 -19.200  1.00  0.00     0.100 A 
ATOM      3  C   UNL     1      71.600 -47.505 -20.236  1.00  0.00     0.197 A 
ATOM      4  O   UNL     1      72.373 -48.496 -20.181  1.00  0.00    -0.289 OA
ATOM      5  C   UNL     1      70.723 -47.298 -21.328  1.00  0.00     0.107 A 
ATOM      6  C   UNL     1      70.560 -48.200 -22.421  1.00  0.00     0.134 A 
ATOM      7  C   UNL     1      69.749 -47.834 -23.503  1.00  0.00     0.093 A 
ATOM      8  C   UNL     1      69.049 -46.625 -23.502  1.00  0.00     0.123 A 
ATOM      9  C   UNL     1      69.160 -45.762 -22.416  1.00  0.00     0.094 A 
ATOM     10  C   UNL     1      69.988 -46.082 -21.338  1.00  0.00     0.146 A 
ATOM     11  O   UNL     1      70.077 -45.224 -20.327  1.00  0.00    -0.456 OA
ENDROOT
BRANCH   1  12
ATOM     12  C   UNL     1      70.861 -44.398 -18.189  1.00  0.00     0.021 A 
ATOM     13  C   UNL     1      71.661 -43.251 -18.333  1.00  0.00     0.016 A 
ATOM     14  C   UNL     1      71.684 -42.270 -17.339  1.00  0.00     0.051 A 
ATOM     15  C   UNL     1      70.902 -42.411 -16.188  1.00  0.00     0.157 A 
ATOM     16  C   UNL     1      70.065 -44.529 -17.033  1.00  0.00     0.062 A 
ATOM     17  C   UNL     1      70.087 -43.543 -16.035  1.00  0.00     0.158 A 
BRANCH  15  18
ATOM     18  O   UNL     1      70.947 -41.416 -15.213  1.00  0.00    -0.504 OA
ATOM     19  H   UNL     1      70.545 -40.499 -15.361  1.00  0.00     0.293 HD
ENDBRANCH  15  18
BRANCH  17  20
ATOM     20  O   UNL     1      69.296 -43.685 -14.895  1.00  0.00    -0.504 OA
ATOM     21  H   UNL     1      68.762 -44.527 -14.720  1.00  0.00     0.293 HD
ENDBRANCH  17  20
ENDBRANCH   1  12
BRANCH   6  22
ATOM     22  O   UNL     1      71.146 -49.468 -22.483  1.00  0.00    -0.507 OA
ATOM     23  H   UNL     1      72.029 -49.673 -22.923  1.00  0.00     0.293 HD
ENDBRANCH   6  22
BRANCH   8  24
ATOM     24  O   UNL     1      68.233 -46.276 -24.576  1.00  0.00    -0.508 OA
ATOM     25  H   UNL     1      67.776 -45.371 -24.623  1.00  0.00     0.293 HD
ENDBRANCH   8  24
TORSDOF 5
ENDMDL
MODEL 6
REMARK VINA RESULT:    -6.241      2.005      2.150
REMARK INTER + INTRA:          -7.653
REMARK INTER:                  -7.340
REMARK INTRA:                  -0.313
REMARK UNBOUND:                -0.318
REMARK SMILES O=c1cc(-c2ccc(O)c(O)c2)oc2cc(O)cc(O)c12
REMARK SMILES IDX 4 1 3 2 2 3 1 4 21 5 19 6 18 7 16 8 15 9 14 10 13 11 5 12
REMARK SMILES IDX 6 13 7 14 8 15 12 16 10 17 9 18 11 20 20 22 17 24
REMARK H PARENT 9 19 11 21 20 23 17 25
REMARK Flexibility Score: inf
ROOT
ATOM      1  C   UNL     1      69.676 -46.841 -22.091  1.00  0.00     0.138 A 
ATOM      2  C   UNL     1      69.050 -48.049 -21.749  1.00  0.00     0.100 A 
ATOM      3  C   UNL     1      68.301 -48.733 -22.706  1.00  0.00     0.197 A 
ATOM      4  O   UNL     1      67.804 -49.844 -22.388  1.00  0.00    -0.289 OA
ATOM      5  C   UNL     1      68.153 -48.189 -24.004  1.00  0.00     0.107 A 
ATOM      6  C   UNL     1      67.379 -48.779 -25.048  1.00  0.00     0.134 A 
ATOM      7  C   UNL     1      67.399 -48.209 -26.328  1.00  0.00     0.093 A 
ATOM      8  C   UNL     1      68.118 -47.039 -26.584  1.00  0.00     0.123 A 
ATOM      9  C   UNL     1      68.832 -46.426 -25.559  1.00  0.00     0.094 A 
ATOM     10  C   UNL     1      68.860 -46.989 -24.280  1.00  0.00     0.146 A 
ATOM     11  O   UNL     1      69.566 -46.380 -23.333  1.00  0.00    -0.456 OA
ENDROOT
BRANCH   1  12
ATOM     12  C   UNL     1      70.484 -46.071 -21.112  1.00  0.00     0.021 A 
ATOM     13  C   UNL     1      70.326 -46.319 -19.738  1.00  0.00     0.016 A 
ATOM     14  C   UNL     1      71.078 -45.612 -18.796  1.00  0.00     0.051 A 
ATOM     15  C   UNL     1      72.009 -44.655 -19.210  1.00  0.00     0.157 A 
ATOM     16  C   UNL     1      71.432 -45.114 -21.525  1.00  0.00     0.062 A 
ATOM     17  C   UNL     1      72.190 -44.405 -20.580  1.00  0.00     0.158 A 
BRANCH  15  18
ATOM     18  O   UNL     1      72.745 -43.965 -18.247  1.00  0.00    -0.504 OA
ATOM     19  H   UNL     1      72.360 -43.734 -17.339  1.00  0.00     0.293 HD
ENDBRANCH  15  18
BRANCH  17  20
ATOM     20  O   UNL     1      73.124 -43.459 -21.000  1.00  0.00    -0.504 OA
ATOM     21  H   UNL     1      74.099 -43.520 -20.733  1.00  0.00     0.293 HD
ENDBRANCH  17  20
ENDBRANCH   1  12
BRANCH   6  22
ATOM     22  O   UNL     1      66.560 -49.899 -24.878  1.00  0.00    -0.507 OA
ATOM     23  H   UNL     1      66.344 -50.570 -25.599  1.00  0.00     0.293 HD
ENDBRANCH   6  22
BRANCH   8  24
ATOM     24  O   UNL     1      68.121 -46.471 -27.857  1.00  0.00    -0.508 OA
ATOM     25  H   UNL     1      67.573 -46.865 -28.614  1.00  0.00     0.293 HD
ENDBRANCH   8  24
TORSDOF 5
ENDMDL
MODEL 7
REMARK VINA RESULT:    -6.184      1.814      6.765
REMARK INTER + INTRA:          -7.586
REMARK INTER:                  -7.315
REMARK INTRA:                  -0.271
REMARK UNBOUND:                -0.318
REMARK SMILES O=c1cc(-c2ccc(O)c(O)c2)oc2cc(O)cc(O)c12
REMARK SMILES IDX 4 1 3 2 2 3 1 4 21 5 19 6 18 7 16 8 15 9 14 10 13 11 5 12
REMARK SMILES IDX 6 13 7 14 8 15 12 16 10 17 9 18 11 20 20 22 17 24
REMARK H PARENT 9 19 11 21 20 23 17 25
REMARK Flexibility Score: inf
ROOT
ATOM      1  C   UNL     1      68.597 -46.891 -24.160  1.00  0.00     0.138 A 
ATOM      2  C   UNL     1      69.297 -48.103 -24.088  1.00  0.00     0.100 A 
ATOM      3  C   UNL     1      70.103 -48.370 -22.980  1.00  0.00     0.197 A 
ATOM      4  O   UNL     1      70.670 -49.491 -22.914  1.00  0.00    -0.289 OA
ATOM      5  C   UNL     1      70.232 -47.403 -21.955  1.00  0.00     0.107 A 
ATOM      6  C   UNL     1      71.057 -47.549 -20.800  1.00  0.00     0.134 A 
ATOM      7  C   UNL     1      71.015 -46.574 -19.794  1.00  0.00     0.093 A 
ATOM      8  C   UNL     1      70.223 -45.431 -19.931  1.00  0.00     0.123 A 
ATOM      9  C   UNL     1      69.456 -45.254 -21.079  1.00  0.00     0.094 A 
ATOM     10  C   UNL     1      69.449 -46.224 -22.084  1.00  0.00     0.146 A 
ATOM     11  O   UNL     1      68.691 -46.023 -23.158  1.00  0.00    -0.456 OA
ENDROOT
BRANCH   1  12
ATOM     12  C   UNL     1      67.727 -46.555 -25.315  1.00  0.00     0.021 A 
ATOM     13  C   UNL     1      66.383 -46.210 -25.092  1.00  0.00     0.016 A 
ATOM     14  C   UNL     1      65.545 -45.884 -26.161  1.00  0.00     0.051 A 
ATOM     15  C   UNL     1      66.036 -45.886 -27.470  1.00  0.00     0.157 A 
ATOM     16  C   UNL     1      68.221 -46.544 -26.635  1.00  0.00     0.062 A 
ATOM     17  C   UNL     1      67.380 -46.215 -27.709  1.00  0.00     0.158 A 
BRANCH  15  18
ATOM     18  O   UNL     1      65.176 -45.558 -28.517  1.00  0.00    -0.504 OA
ATOM     19  H   UNL     1      64.244 -45.195 -28.355  1.00  0.00     0.293 HD
ENDBRANCH  15  18
BRANCH  17  20
ATOM     20  O   UNL     1      67.879 -46.209 -29.011  1.00  0.00    -0.504 OA
ATOM     21  H   UNL     1      68.122 -47.066 -29.492  1.00  0.00     0.293 HD
ENDBRANCH  17  20
ENDBRANCH   1  12
BRANCH   6  22
ATOM     22  O   UNL     1      71.947 -48.608 -20.603  1.00  0.00    -0.507 OA
ATOM     23  H   UNL     1      71.745 -49.575 -20.806  1.00  0.00     0.293 HD
ENDBRANCH   6  22
BRANCH   8  24
ATOM     24  O   UNL     1      70.199 -44.459 -18.933  1.00  0.00    -0.508 OA
ATOM     25  H   UNL     1      69.327 -44.058 -18.605  1.00  0.00     0.293 HD
ENDBRANCH   8  24
TORSDOF 5
ENDMDL
MODEL 8
REMARK VINA RESULT:    -6.181      5.107     10.009
REMARK INTER + INTRA:          -7.583
REMARK INTER:                  -7.305
REMARK INTRA:                  -0.278
REMARK UNBOUND:                -0.318
REMARK SMILES O=c1cc(-c2ccc(O)c(O)c2)oc2cc(O)cc(O)c12
REMARK SMILES IDX 4 1 3 2 2 3 1 4 21 5 19 6 18 7 16 8 15 9 14 10 13 11 5 12
REMARK SMILES IDX 6 13 7 14 8 15 12 16 10 17 9 18 11 20 20 22 17 24
REMARK H PARENT 9 19 11 21 20 23 17 25
REMARK Flexibility Score: inf
ROOT
ATOM      1  C   UNL     1      70.211 -43.504 -16.987  1.00  0.00     0.138 A 
ATOM      2  C   UNL     1      70.405 -43.931 -15.666  1.00  0.00     0.100 A 
ATOM      3  C   UNL     1      69.842 -43.205 -14.616  1.00  0.00     0.197 A 
ATOM      4  O   UNL     1      69.981 -43.647 -13.446  1.00  0.00    -0.289 OA
ATOM      5  C   UNL     1      69.107 -42.027 -14.890  1.00  0.00     0.107 A 
ATOM      6  C   UNL     1      68.523 -41.185 -13.898  1.00  0.00     0.134 A 
ATOM      7  C   UNL     1      67.718 -40.107 -14.293  1.00  0.00     0.093 A 
ATOM      8  C   UNL     1      67.528 -39.809 -15.645  1.00  0.00     0.123 A 
ATOM      9  C   UNL     1      68.138 -40.593 -16.620  1.00  0.00     0.094 A 
ATOM     10  C   UNL     1      68.918 -41.694 -16.258  1.00  0.00     0.146 A 
ATOM     11  O   UNL     1      69.471 -42.426 -17.221  1.00  0.00    -0.456 OA
ENDROOT
BRANCH   1  12
ATOM     12  C   UNL     1      70.789 -44.238 -18.142  1.00  0.00     0.021 A 
ATOM     13  C   UNL     1      70.433 -45.581 -18.355  1.00  0.00     0.016 A 
ATOM     14  C   UNL     1      70.958 -46.291 -19.438  1.00  0.00     0.051 A 
ATOM     15  C   UNL     1      71.836 -45.671 -20.331  1.00  0.00     0.157 A 
ATOM     16  C   UNL     1      71.664 -43.614 -19.052  1.00  0.00     0.062 A 
ATOM     17  C   UNL     1      72.190 -44.326 -20.141  1.00  0.00     0.158 A 
BRANCH  15  18
ATOM     18  O   UNL     1      72.344 -46.407 -21.402  1.00  0.00    -0.504 OA
ATOM     19  H   UNL     1      72.574 -47.390 -21.319  1.00  0.00     0.293 HD
ENDBRANCH  15  18
BRANCH  17  20
ATOM     20  O   UNL     1      73.057 -43.699 -21.035  1.00  0.00    -0.504 OA
ATOM     21  H   UNL     1      72.936 -43.778 -22.037  1.00  0.00     0.293 HD
ENDBRANCH  17  20
ENDBRANCH   1  12
BRANCH   6  22
ATOM     22  O   UNL     1      68.719 -41.344 -12.523  1.00  0.00    -0.507 OA
ATOM     23  H   UNL     1      69.498 -40.968 -12.005  1.00  0.00     0.293 HD
ENDBRANCH   6  22
BRANCH   8  24
ATOM     24  O   UNL     1      66.739 -38.726 -16.029  1.00  0.00    -0.508 OA
ATOM     25  H   UNL     1      65.738 -38.717 -15.867  1.00  0.00     0.293 HD
ENDBRANCH   8  24
TORSDOF 5
ENDMDL
MODEL 9
REMARK VINA RESULT:    -6.133      8.565     12.706
REMARK INTER + INTRA:          -7.526
REMARK INTER:                  -7.233
REMARK INTRA:                  -0.293
REMARK UNBOUND:                -0.318
REMARK SMILES O=c1cc(-c2ccc(O)c(O)c2)oc2cc(O)cc(O)c12
REMARK SMILES IDX 4 1 3 2 2 3 1 4 21 5 19 6 18 7 16 8 15 9 14 10 13 11 5 12
REMARK SMILES IDX 6 13 7 14 8 15 12 16 10 17 9 18 11 20 20 22 17 24
REMARK H PARENT 9 19 11 21 20 23 17 25
REMARK Flexibility Score: inf
ROOT
ATOM      1  C   UNL     1      71.183 -39.124 -13.607  1.00  0.00     0.138 A 
ATOM      2  C   UNL     1      71.014 -39.977 -12.506  1.00  0.00     0.100 A 
ATOM      3  C   UNL     1      70.647 -41.307 -12.715  1.00  0.00     0.197 A 
ATOM      4  O   UNL     1      70.563 -42.063 -11.712  1.00  0.00    -0.289 OA
ATOM      5  C   UNL     1      70.419 -41.776 -14.030  1.00  0.00     0.107 A 
ATOM      6  C   UNL     1      70.003 -43.101 -14.359  1.00  0.00     0.134 A 
ATOM      7  C   UNL     1      69.921 -43.485 -15.704  1.00  0.00     0.093 A 
ATOM      8  C   UNL     1      70.184 -42.574 -16.730  1.00  0.00     0.123 A 
ATOM      9  C   UNL     1      70.539 -41.264 -16.420  1.00  0.00     0.094 A 
ATOM     10  C   UNL     1      70.662 -40.860 -15.088  1.00  0.00     0.146 A 
ATOM     11  O   UNL     1      71.018 -39.604 -14.835  1.00  0.00    -0.456 OA
ENDROOT
BRANCH   1  12
ATOM     12  C   UNL     1      71.571 -37.701 -13.443  1.00  0.00     0.021 A 
ATOM     13  C   UNL     1      71.369 -36.802 -14.504  1.00  0.00     0.016 A 
ATOM     14  C   UNL     1      71.719 -35.456 -14.373  1.00  0.00     0.051 A 
ATOM     15  C   UNL     1      72.267 -34.981 -13.178  1.00  0.00     0.157 A 
ATOM     16  C   UNL     1      72.112 -37.215 -12.236  1.00  0.00     0.062 A 
ATOM     17  C   UNL     1      72.462 -35.863 -12.102  1.00  0.00     0.158 A 
BRANCH  15  18
ATOM     18  O   UNL     1      72.608 -33.633 -13.077  1.00  0.00    -0.504 OA
ATOM     19  H   UNL     1      72.671 -33.159 -12.184  1.00  0.00     0.293 HD
ENDBRANCH  15  18
BRANCH  17  20
ATOM     20  O   UNL     1      72.998 -35.394 -10.904  1.00  0.00    -0.504 OA
ATOM     21  H   UNL     1      73.917 -34.970 -10.862  1.00  0.00     0.293 HD
ENDBRANCH  17  20
ENDBRANCH   1  12
BRANCH   6  22
ATOM     22  O   UNL     1      69.636 -44.063 -13.413  1.00  0.00    -0.507 OA
ATOM     23  H   UNL     1      69.611 -43.911 -12.417  1.00  0.00     0.293 HD
ENDBRANCH   6  22
BRANCH   8  24
ATOM     24  O   UNL     1      70.086 -42.960 -18.066  1.00  0.00    -0.508 OA
ATOM     25  H   UNL     1      70.903 -43.013 -18.663  1.00  0.00     0.293 HD
ENDBRANCH   8  24
TORSDOF 5
ENDMDL
