MODEL 1
REMARK VINA RESULT:    -2.062      0.000      0.000
REMARK INTER + INTRA:          -5.409
REMARK INTER:                  -3.991
REMARK INTRA:                  -1.418
REMARK UNBOUND:                -1.418
REMARK SMILES CCCCCCCCCCCCCCCCCC(=O)[O-]
REMARK SMILES IDX 10 1 11 2 12 3 13 4 14 5 15 6 16 7 17 8 18 9 19 10 20 11
REMARK SMILES IDX 9 12 8 13 7 14 6 15 5 16 4 17 3 18 2 19 1 20
REMARK H PARENT
REMARK Flexibility Score: inf
ROOT
ATOM      1  C   UNL     1       5.999 -35.312  21.135  1.00  0.00     0.000 C 
ENDROOT
BRANCH   1   2
ATOM      2  C   UNL     1       4.903 -35.166  22.206  1.00  0.00     0.000 C 
BRANCH   2   3
ATOM      3  C   UNL     1       5.305 -34.217  23.345  1.00  0.00     0.000 C 
BRANCH   3   4
ATOM      4  C   UNL     1       5.901 -34.998  24.525  1.00  0.00     0.000 C 
BRANCH   4   5
ATOM      5  C   UNL     1       6.125 -36.486  24.206  1.00  0.00     0.000 C 
BRANCH   5   6
ATOM      6  C   UNL     1       5.154 -37.457  24.907  1.00  0.00     0.000 C 
BRANCH   6   7
ATOM      7  C   UNL     1       5.112 -38.881  24.316  1.00  0.00     0.006 C 
BRANCH   7   8
ATOM      8  C   UNL     1       5.818 -39.027  22.960  1.00  0.00     0.053 C 
BRANCH   8   9
ATOM      9  C   UNL     1       5.846 -40.449  22.491  1.00  0.00     0.041 C 
ATOM     10  O   UNL     1       5.648 -41.389  23.306  1.00  0.00    -0.550 OA
ATOM     11  O   UNL     1       6.125 -40.739  21.161  1.00  0.00    -0.550 OA
ENDBRANCH   8   9
ENDBRANCH   7   8
ENDBRANCH   6   7
ENDBRANCH   5   6
ENDBRANCH   4   5
ENDBRANCH   3   4
ENDBRANCH   2   3
ENDBRANCH   1   2
BRANCH   1  12
ATOM     12  C   UNL     1       5.510 -35.849  19.775  1.00  0.00     0.000 C 
BRANCH  12  13
ATOM     13  C   UNL     1       5.377 -37.383  19.684  1.00  0.00    -0.000 C 
BRANCH  13  14
ATOM     14  C   UNL     1       3.951 -37.931  19.883  1.00  0.00    -0.000 C 
BRANCH  14  15
ATOM     15  C   UNL     1       2.863 -36.906  19.526  1.00  0.00    -0.000 C 
BRANCH  15  16
ATOM     16  C   UNL     1       1.803 -37.473  18.566  1.00  0.00    -0.000 C 
BRANCH  16  17
ATOM     17  C   UNL     1       1.838 -36.837  17.160  1.00  0.00    -0.000 C 
BRANCH  17  18
ATOM     18  C   UNL     1       2.892 -37.494  16.253  1.00  0.00    -0.000 C 
BRANCH  18  19
ATOM     19  C   UNL     1       2.947 -36.860  14.855  1.00  0.00    -0.003 C 
ATOM     20  C   UNL     1       4.048 -37.456  13.978  1.00  0.00     0.004 C 
ENDBRANCH  18  19
ENDBRANCH  17  18
ENDBRANCH  16  17
ENDBRANCH  15  16
ENDBRANCH  14  15
ENDBRANCH  13  14
ENDBRANCH  12  13
ENDBRANCH   1  12
TORSDOF 16
ENDMDL
MODEL 2
REMARK VINA RESULT:    -1.419      2.804      6.908
REMARK INTER + INTRA:          -4.165
REMARK INTER:                  -3.552
REMARK INTRA:                  -0.613
REMARK UNBOUND:                -1.418
REMARK SMILES CCCCCCCCCCCCCCCCCC(=O)[O-]
REMARK SMILES IDX 10 1 11 2 12 3 13 4 14 5 15 6 16 7 17 8 18 9 19 10 20 11
REMARK SMILES IDX 9 12 8 13 7 14 6 15 5 16 4 17 3 18 2 19 1 20
REMARK H PARENT
REMARK Flexibility Score: inf
ROOT
ATOM      1  C   UNL     1       5.066 -34.852  22.366  1.00  0.00     0.000 C 
ENDROOT
BRANCH   1   2
ATOM      2  C   UNL     1       6.118 -35.490  21.442  1.00  0.00     0.000 C 
BRANCH   2   3
ATOM      3  C   UNL     1       5.576 -36.700  20.667  1.00  0.00     0.000 C 
BRANCH   3   4
ATOM      4  C   UNL     1       4.238 -36.366  19.993  1.00  0.00     0.000 C 
BRANCH   4   5
ATOM      5  C   UNL     1       3.704 -37.515  19.118  1.00  0.00     0.000 C 
BRANCH   5   6
ATOM      6  C   UNL     1       2.197 -37.801  19.265  1.00  0.00     0.000 C 
BRANCH   6   7
ATOM      7  C   UNL     1       1.292 -37.088  18.239  1.00  0.00     0.006 C 
BRANCH   7   8
ATOM      8  C   UNL     1       1.589 -37.446  16.775  1.00  0.00     0.053 C 
BRANCH   8   9
ATOM      9  C   UNL     1       2.219 -36.306  16.035  1.00  0.00     0.041 C 
ATOM     10  O   UNL     1       1.623 -35.775  15.062  1.00  0.00    -0.550 OA
ATOM     11  O   UNL     1       3.481 -35.852  16.399  1.00  0.00    -0.550 OA
ENDBRANCH   8   9
ENDBRANCH   7   8
ENDBRANCH   6   7
ENDBRANCH   5   6
ENDBRANCH   4   5
ENDBRANCH   3   4
ENDBRANCH   2   3
ENDBRANCH   1   2
BRANCH   1  12
ATOM     12  C   UNL     1       5.615 -34.323  23.706  1.00  0.00     0.000 C 
BRANCH  12  13
ATOM     13  C   UNL     1       6.079 -35.407  24.700  1.00  0.00    -0.000 C 
BRANCH  13  14
ATOM     14  C   UNL     1       6.114 -36.841  24.137  1.00  0.00    -0.000 C 
BRANCH  14  15
ATOM     15  C   UNL     1       5.358 -37.847  25.019  1.00  0.00    -0.000 C 
BRANCH  15  16
ATOM     16  C   UNL     1       5.014 -39.149  24.275  1.00  0.00    -0.000 C 
BRANCH  16  17
ATOM     17  C   UNL     1       5.442 -39.148  22.792  1.00  0.00    -0.000 C 
BRANCH  17  18
ATOM     18  C   UNL     1       5.921 -40.534  22.326  1.00  0.00    -0.000 C 
BRANCH  18  19
ATOM     19  C   UNL     1       6.122 -41.512  23.493  1.00  0.00    -0.003 C 
ATOM     20  C   UNL     1       6.034 -42.975  23.059  1.00  0.00     0.004 C 
ENDBRANCH  18  19
ENDBRANCH  17  18
ENDBRANCH  16  17
ENDBRANCH  15  16
ENDBRANCH  14  15
ENDBRANCH  13  14
ENDBRANCH  12  13
ENDBRANCH   1  12
TORSDOF 16
ENDMDL
MODEL 3
REMARK VINA RESULT:    -1.289      2.076      3.554
REMARK INTER + INTRA:          -3.912
REMARK INTER:                  -2.806
REMARK INTRA:                  -1.106
REMARK UNBOUND:                -1.418
REMARK SMILES CCCCCCCCCCCCCCCCCC(=O)[O-]
REMARK SMILES IDX 10 1 11 2 12 3 13 4 14 5 15 6 16 7 17 8 18 9 19 10 20 11
REMARK SMILES IDX 9 12 8 13 7 14 6 15 5 16 4 17 3 18 2 19 1 20
REMARK H PARENT
REMARK Flexibility Score: inf
ROOT
ATOM      1  C   UNL     1       3.507 -36.222  19.899  1.00  0.00     0.000 C 
ENDROOT
BRANCH   1   2
ATOM      2  C   UNL     1       4.649 -35.394  19.285  1.00  0.00     0.000 C 
BRANCH   2   3
ATOM      3  C   UNL     1       6.025 -35.747  19.869  1.00  0.00     0.000 C 
BRANCH   3   4
ATOM      4  C   UNL     1       5.939 -35.951  21.388  1.00  0.00     0.000 C 
BRANCH   4   5
ATOM      5  C   UNL     1       6.038 -34.633  22.176  1.00  0.00     0.000 C 
BRANCH   5   6
ATOM      6  C   UNL     1       5.744 -34.751  23.685  1.00  0.00     0.000 C 
BRANCH   6   7
ATOM      7  C   UNL     1       5.969 -36.152  24.289  1.00  0.00     0.006 C 
BRANCH   7   8
ATOM      8  C   UNL     1       5.428 -36.321  25.717  1.00  0.00     0.053 C 
BRANCH   8   9
ATOM      9  C   UNL     1       4.590 -37.554  25.858  1.00  0.00     0.041 C 
ATOM     10  O   UNL     1       4.854 -38.580  25.178  1.00  0.00    -0.550 OA
ATOM     11  O   UNL     1       3.495 -37.558  26.713  1.00  0.00    -0.550 OA
ENDBRANCH   8   9
ENDBRANCH   7   8
ENDBRANCH   6   7
ENDBRANCH   5   6
ENDBRANCH   4   5
ENDBRANCH   3   4
ENDBRANCH   2   3
ENDBRANCH   1   2
BRANCH   1  12
ATOM     12  C   UNL     1       3.273 -37.595  19.240  1.00  0.00     0.000 C 
BRANCH  12  13
ATOM     13  C   UNL     1       3.126 -37.571  17.704  1.00  0.00    -0.000 C 
BRANCH  13  14
ATOM     14  C   UNL     1       1.789 -37.012  17.183  1.00  0.00    -0.000 C 
BRANCH  14  15
ATOM     15  C   UNL     1       1.973 -35.894  16.145  1.00  0.00    -0.000 C 
BRANCH  15  16
ATOM     16  C   UNL     1       1.802 -36.390  14.698  1.00  0.00    -0.000 C 
BRANCH  16  17
ATOM     17  C   UNL     1       3.114 -36.397  13.886  1.00  0.00    -0.000 C 
BRANCH  17  18
ATOM     18  C   UNL     1       4.253 -37.115  14.632  1.00  0.00    -0.000 C 
BRANCH  18  19
ATOM     19  C   UNL     1       4.762 -38.355  13.881  1.00  0.00    -0.003 C 
ATOM     20  C   UNL     1       4.468 -39.657  14.625  1.00  0.00     0.004 C 
ENDBRANCH  18  19
ENDBRANCH  17  18
ENDBRANCH  16  17
ENDBRANCH  15  16
ENDBRANCH  14  15
ENDBRANCH  13  14
ENDBRANCH  12  13
ENDBRANCH   1  12
TORSDOF 16
ENDMDL
MODEL 4
REMARK VINA RESULT:    -1.277      2.943      7.531
REMARK INTER + INTRA:          -3.888
REMARK INTER:                  -2.978
REMARK INTRA:                  -0.910
REMARK UNBOUND:                -1.418
REMARK SMILES CCCCCCCCCCCCCCCCCC(=O)[O-]
REMARK SMILES IDX 10 1 11 2 12 3 13 4 14 5 15 6 16 7 17 8 18 9 19 10 20 11
REMARK SMILES IDX 9 12 8 13 7 14 6 15 5 16 4 17 3 18 2 19 1 20
REMARK H PARENT
REMARK Flexibility Score: inf
ROOT
ATOM      1  C   UNL     1       6.015 -34.953  20.509  1.00  0.00     0.000 C 
ENDROOT
BRANCH   1   2
ATOM      2  C   UNL     1       5.070 -35.277  19.339  1.00  0.00     0.000 C 
BRANCH   2   3
ATOM      3  C   UNL     1       4.259 -36.561  19.564  1.00  0.00     0.000 C 
BRANCH   3   4
ATOM      4  C   UNL     1       3.729 -37.116  18.235  1.00  0.00     0.000 C 
BRANCH   4   5
ATOM      5  C   UNL     1       2.193 -37.097  18.147  1.00  0.00     0.000 C 
BRANCH   5   6
ATOM      6  C   UNL     1       1.622 -36.725  16.764  1.00  0.00     0.000 C 
BRANCH   6   7
ATOM      7  C   UNL     1       2.676 -36.466  15.669  1.00  0.00     0.006 C 
BRANCH   7   8
ATOM      8  C   UNL     1       2.795 -37.587  14.625  1.00  0.00     0.053 C 
BRANCH   8   9
ATOM      9  C   UNL     1       4.199 -37.745  14.128  1.00  0.00     0.041 C 
ATOM     10  O   UNL     1       4.900 -36.731  13.877  1.00  0.00    -0.550 OA
ATOM     11  O   UNL     1       4.721 -39.014  13.908  1.00  0.00    -0.550 OA
ENDBRANCH   8   9
ENDBRANCH   7   8
ENDBRANCH   6   7
ENDBRANCH   5   6
ENDBRANCH   4   5
ENDBRANCH   3   4
ENDBRANCH   2   3
ENDBRANCH   1   2
BRANCH   1  12
ATOM     12  C   UNL     1       6.048 -36.011  21.629  1.00  0.00     0.000 C 
BRANCH  12  13
ATOM     13  C   UNL     1       5.468 -35.553  22.983  1.00  0.00    -0.000 C 
BRANCH  13  14
ATOM     14  C   UNL     1       5.301 -36.666  24.035  1.00  0.00    -0.000 C 
BRANCH  14  15
ATOM     15  C   UNL     1       6.104 -37.932  23.697  1.00  0.00    -0.000 C 
BRANCH  15  16
ATOM     16  C   UNL     1       5.207 -39.130  23.344  1.00  0.00    -0.000 C 
BRANCH  16  17
ATOM     17  C   UNL     1       5.762 -40.485  23.835  1.00  0.00    -0.000 C 
BRANCH  17  18
ATOM     18  C   UNL     1       6.053 -41.447  22.670  1.00  0.00    -0.000 C 
BRANCH  18  19
ATOM     19  C   UNL     1       6.027 -42.921  23.101  1.00  0.00    -0.003 C 
ATOM     20  C   UNL     1       6.053 -43.094  24.619  1.00  0.00     0.004 C 
ENDBRANCH  18  19
ENDBRANCH  17  18
ENDBRANCH  16  17
ENDBRANCH  15  16
ENDBRANCH  14  15
ENDBRANCH  13  14
ENDBRANCH  12  13
ENDBRANCH   1  12
TORSDOF 16
ENDMDL
MODEL 5
REMARK VINA RESULT:    -1.020      2.417      3.771
REMARK INTER + INTRA:          -3.393
REMARK INTER:                  -1.829
REMARK INTRA:                  -1.563
REMARK UNBOUND:                -1.418
REMARK SMILES CCCCCCCCCCCCCCCCCC(=O)[O-]
REMARK SMILES IDX 10 1 11 2 12 3 13 4 14 5 15 6 16 7 17 8 18 9 19 10 20 11
REMARK SMILES IDX 9 12 8 13 7 14 6 15 5 16 4 17 3 18 2 19 1 20
REMARK H PARENT
REMARK Flexibility Score: inf
ROOT
ATOM      1  C   UNL     1       4.790 -34.752  21.776  1.00  0.00     0.000 C 
ENDROOT
BRANCH   1   2
ATOM      2  C   UNL     1       5.330 -35.225  23.137  1.00  0.00     0.000 C 
BRANCH   2   3
ATOM      3  C   UNL     1       6.125 -36.535  23.041  1.00  0.00     0.000 C 
BRANCH   3   4
ATOM      4  C   UNL     1       5.196 -37.719  22.738  1.00  0.00     0.000 C 
BRANCH   4   5
ATOM      5  C   UNL     1       5.685 -38.576  21.557  1.00  0.00     0.000 C 
BRANCH   5   6
ATOM      6  C   UNL     1       5.452 -37.960  20.163  1.00  0.00     0.000 C 
BRANCH   6   7
ATOM      7  C   UNL     1       4.043 -38.181  19.576  1.00  0.00     0.006 C 
BRANCH   7   8
ATOM      8  C   UNL     1       2.960 -37.265  20.167  1.00  0.00     0.053 C 
BRANCH   8   9
ATOM      9  C   UNL     1       1.609 -37.546  19.585  1.00  0.00     0.041 C 
ATOM     10  O   UNL     1       1.506 -38.116  18.467  1.00  0.00    -0.550 OA
ATOM     11  O   UNL     1       0.462 -37.146  20.261  1.00  0.00    -0.550 OA
ENDBRANCH   8   9
ENDBRANCH   7   8
ENDBRANCH   6   7
ENDBRANCH   5   6
ENDBRANCH   4   5
ENDBRANCH   3   4
ENDBRANCH   2   3
ENDBRANCH   1   2
BRANCH   1  12
ATOM     12  C   UNL     1       5.788 -34.866  20.607  1.00  0.00     0.000 C 
BRANCH  12  13
ATOM     13  C   UNL     1       5.367 -34.143  19.311  1.00  0.00    -0.000 C 
BRANCH  13  14
ATOM     14  C   UNL     1       5.303 -35.032  18.055  1.00  0.00    -0.000 C 
BRANCH  14  15
ATOM     15  C   UNL     1       3.874 -35.197  17.513  1.00  0.00    -0.000 C 
BRANCH  15  16
ATOM     16  C   UNL     1       3.738 -36.384  16.544  1.00  0.00    -0.000 C 
BRANCH  16  17
ATOM     17  C   UNL     1       2.454 -36.340  15.688  1.00  0.00    -0.000 C 
BRANCH  17  18
ATOM     18  C   UNL     1       2.719 -36.742  14.226  1.00  0.00    -0.000 C 
BRANCH  18  19
ATOM     19  C   UNL     1       4.175 -37.166  13.985  1.00  0.00    -0.003 C 
ATOM     20  C   UNL     1       4.353 -38.684  13.970  1.00  0.00     0.004 C 
ENDBRANCH  18  19
ENDBRANCH  17  18
ENDBRANCH  16  17
ENDBRANCH  15  16
ENDBRANCH  14  15
ENDBRANCH  13  14
ENDBRANCH  12  13
ENDBRANCH   1  12
TORSDOF 16
ENDMDL
MODEL 6
REMARK VINA RESULT:    -0.822      3.170      7.716
REMARK INTER + INTRA:          -3.009
REMARK INTER:                  -1.996
REMARK INTRA:                  -1.013
REMARK UNBOUND:                -1.418
REMARK SMILES CCCCCCCCCCCCCCCCCC(=O)[O-]
REMARK SMILES IDX 10 1 11 2 12 3 13 4 14 5 15 6 16 7 17 8 18 9 19 10 20 11
REMARK SMILES IDX 9 12 8 13 7 14 6 15 5 16 4 17 3 18 2 19 1 20
REMARK H PARENT
REMARK Flexibility Score: inf
ROOT
ATOM      1  C   UNL     1       2.954 -36.635  19.966  1.00  0.00     0.000 C 
ENDROOT
BRANCH   1   2
ATOM      2  C   UNL     1       1.572 -37.110  20.447  1.00  0.00     0.000 C 
BRANCH   2   3
ATOM      3  C   UNL     1       0.524 -37.132  19.325  1.00  0.00     0.000 C 
BRANCH   3   4
ATOM      4  C   UNL     1       0.756 -38.319  18.379  1.00  0.00     0.000 C 
BRANCH   4   5
ATOM      5  C   UNL     1       1.475 -37.917  17.079  1.00  0.00     0.000 C 
BRANCH   5   6
ATOM      6  C   UNL     1       1.415 -36.415  16.738  1.00  0.00     0.000 C 
BRANCH   6   7
ATOM      7  C   UNL     1       2.777 -35.754  16.447  1.00  0.00     0.006 C 
BRANCH   7   8
ATOM      8  C   UNL     1       3.857 -36.723  15.939  1.00  0.00     0.053 C 
BRANCH   8   9
ATOM      9  C   UNL     1       3.566 -37.211  14.553  1.00  0.00     0.041 C 
ATOM     10  O   UNL     1       2.643 -36.685  13.877  1.00  0.00    -0.550 OA
ATOM     11  O   UNL     1       4.290 -38.270  14.021  1.00  0.00    -0.550 OA
ENDBRANCH   8   9
ENDBRANCH   7   8
ENDBRANCH   6   7
ENDBRANCH   5   6
ENDBRANCH   4   5
ENDBRANCH   3   4
ENDBRANCH   2   3
ENDBRANCH   1   2
BRANCH   1  12
ATOM     12  C   UNL     1       3.915 -37.761  19.538  1.00  0.00     0.000 C 
BRANCH  12  13
ATOM     13  C   UNL     1       5.411 -37.479  19.787  1.00  0.00    -0.000 C 
BRANCH  13  14
ATOM     14  C   UNL     1       5.736 -36.056  20.277  1.00  0.00    -0.000 C 
BRANCH  14  15
ATOM     15  C   UNL     1       6.120 -36.010  21.765  1.00  0.00    -0.000 C 
BRANCH  15  16
ATOM     16  C   UNL     1       5.774 -34.665  22.428  1.00  0.00    -0.000 C 
BRANCH  16  17
ATOM     17  C   UNL     1       5.851 -34.696  23.969  1.00  0.00    -0.000 C 
BRANCH  17  18
ATOM     18  C   UNL     1       5.932 -36.132  24.515  1.00  0.00    -0.000 C 
BRANCH  18  19
ATOM     19  C   UNL     1       5.201 -36.296  25.857  1.00  0.00    -0.003 C 
ATOM     20  C   UNL     1       4.596 -37.689  26.034  1.00  0.00     0.004 C 
ENDBRANCH  18  19
ENDBRANCH  17  18
ENDBRANCH  16  17
ENDBRANCH  15  16
ENDBRANCH  14  15
ENDBRANCH  13  14
ENDBRANCH  12  13
ENDBRANCH   1  12
TORSDOF 16
ENDMDL
MODEL 7
REMARK VINA RESULT:    -0.638      2.184      6.667
REMARK INTER + INTRA:          -2.653
REMARK INTER:                  -2.189
REMARK INTRA:                  -0.464
REMARK UNBOUND:                -1.418
REMARK SMILES CCCCCCCCCCCCCCCCCC(=O)[O-]
REMARK SMILES IDX 10 1 11 2 12 3 13 4 14 5 15 6 16 7 17 8 18 9 19 10 20 11
REMARK SMILES IDX 9 12 8 13 7 14 6 15 5 16 4 17 3 18 2 19 1 20
REMARK H PARENT
REMARK Flexibility Score: inf
ROOT
ATOM      1  C   UNL     1       5.401 -35.862  20.451  1.00  0.00     0.000 C 
ENDROOT
BRANCH   1   2
ATOM      2  C   UNL     1       5.362 -34.888  19.260  1.00  0.00     0.000 C 
BRANCH   2   3
ATOM      3  C   UNL     1       5.195 -35.602  17.910  1.00  0.00     0.000 C 
BRANCH   3   4
ATOM      4  C   UNL     1       3.925 -35.128  17.192  1.00  0.00     0.000 C 
BRANCH   4   5
ATOM      5  C   UNL     1       3.563 -35.999  15.976  1.00  0.00     0.000 C 
BRANCH   5   6
ATOM      6  C   UNL     1       2.057 -36.263  15.786  1.00  0.00     0.000 C 
BRANCH   6   7
ATOM      7  C   UNL     1       1.351 -36.924  16.988  1.00  0.00     0.006 C 
BRANCH   7   8
ATOM      8  C   UNL     1       2.301 -37.607  17.983  1.00  0.00     0.053 C 
BRANCH   8   9
ATOM      9  C   UNL     1       1.773 -37.560  19.385  1.00  0.00     0.041 C 
ATOM     10  O   UNL     1       2.565 -37.615  20.362  1.00  0.00    -0.550 OA
ATOM     11  O   UNL     1       0.404 -37.491  19.611  1.00  0.00    -0.550 OA
ENDBRANCH   8   9
ENDBRANCH   7   8
ENDBRANCH   6   7
ENDBRANCH   5   6
ENDBRANCH   4   5
ENDBRANCH   3   4
ENDBRANCH   2   3
ENDBRANCH   1   2
BRANCH   1  12
ATOM     12  C   UNL     1       4.995 -35.248  21.805  1.00  0.00     0.000 C 
BRANCH  12  13
ATOM     13  C   UNL     1       6.106 -34.460  22.529  1.00  0.00    -0.000 C 
BRANCH  13  14
ATOM     14  C   UNL     1       6.076 -34.547  24.066  1.00  0.00    -0.000 C 
BRANCH  14  15
ATOM     15  C   UNL     1       5.280 -35.757  24.580  1.00  0.00    -0.000 C 
BRANCH  15  16
ATOM     16  C   UNL     1       6.099 -37.058  24.568  1.00  0.00    -0.000 C 
BRANCH  16  17
ATOM     17  C   UNL     1       5.896 -37.906  23.293  1.00  0.00    -0.000 C 
BRANCH  17  18
ATOM     18  C   UNL     1       5.387 -39.322  23.614  1.00  0.00    -0.000 C 
BRANCH  18  19
ATOM     19  C   UNL     1       5.630 -40.312  22.466  1.00  0.00    -0.003 C 
ATOM     20  C   UNL     1       5.810 -39.618  21.115  1.00  0.00     0.004 C 
ENDBRANCH  18  19
ENDBRANCH  17  18
ENDBRANCH  16  17
ENDBRANCH  15  16
ENDBRANCH  14  15
ENDBRANCH  13  14
ENDBRANCH  12  13
ENDBRANCH   1  12
TORSDOF 16
ENDMDL
MODEL 8
REMARK VINA RESULT:    -0.622      2.868      6.995
REMARK INTER + INTRA:          -2.622
REMARK INTER:                  -2.185
REMARK INTRA:                  -0.437
REMARK UNBOUND:                -1.418
REMARK SMILES CCCCCCCCCCCCCCCCCC(=O)[O-]
REMARK SMILES IDX 10 1 11 2 12 3 13 4 14 5 15 6 16 7 17 8 18 9 19 10 20 11
REMARK SMILES IDX 9 12 8 13 7 14 6 15 5 16 4 17 3 18 2 19 1 20
REMARK H PARENT
REMARK Flexibility Score: inf
ROOT
ATOM      1  C   UNL     1       6.099 -35.212  19.900  1.00  0.00     0.000 C 
ENDROOT
BRANCH   1   2
ATOM      2  C   UNL     1       4.866 -35.842  19.230  1.00  0.00     0.000 C 
BRANCH   2   3
ATOM      3  C   UNL     1       3.802 -36.293  20.241  1.00  0.00     0.000 C 
BRANCH   3   4
ATOM      4  C   UNL     1       3.045 -37.526  19.729  1.00  0.00     0.000 C 
BRANCH   4   5
ATOM      5  C   UNL     1       1.518 -37.330  19.717  1.00  0.00     0.000 C 
BRANCH   5   6
ATOM      6  C   UNL     1       0.798 -37.886  18.474  1.00  0.00     0.000 C 
BRANCH   6   7
ATOM      7  C   UNL     1       1.585 -37.770  17.153  1.00  0.00     0.006 C 
BRANCH   7   8
ATOM      8  C   UNL     1       1.586 -36.363  16.537  1.00  0.00     0.053 C 
BRANCH   8   9
ATOM      9  C   UNL     1       2.878 -36.053  15.846  1.00  0.00     0.041 C 
ATOM     10  O   UNL     1       3.085 -36.463  14.674  1.00  0.00    -0.550 OA
ATOM     11  O   UNL     1       3.870 -35.342  16.511  1.00  0.00    -0.550 OA
ENDBRANCH   8   9
ENDBRANCH   7   8
ENDBRANCH   6   7
ENDBRANCH   5   6
ENDBRANCH   4   5
ENDBRANCH   3   4
ENDBRANCH   2   3
ENDBRANCH   1   2
BRANCH   1  12
ATOM     12  C   UNL     1       6.090 -35.245  21.440  1.00  0.00     0.000 C 
BRANCH  12  13
ATOM     13  C   UNL     1       4.908 -34.511  22.107  1.00  0.00    -0.000 C 
BRANCH  13  14
ATOM     14  C   UNL     1       4.906 -34.535  23.647  1.00  0.00    -0.000 C 
BRANCH  14  15
ATOM     15  C   UNL     1       6.125 -35.265  24.234  1.00  0.00    -0.000 C 
BRANCH  15  16
ATOM     16  C   UNL     1       5.785 -36.066  25.503  1.00  0.00    -0.000 C 
BRANCH  16  17
ATOM     17  C   UNL     1       5.463 -37.551  25.230  1.00  0.00    -0.000 C 
BRANCH  17  18
ATOM     18  C   UNL     1       5.560 -37.899  23.735  1.00  0.00    -0.000 C 
BRANCH  18  19
ATOM     19  C   UNL     1       5.325 -39.392  23.459  1.00  0.00    -0.003 C 
ATOM     20  C   UNL     1       5.644 -39.784  22.016  1.00  0.00     0.004 C 
ENDBRANCH  18  19
ENDBRANCH  17  18
ENDBRANCH  16  17
ENDBRANCH  15  16
ENDBRANCH  14  15
ENDBRANCH  13  14
ENDBRANCH  12  13
ENDBRANCH   1  12
TORSDOF 16
ENDMDL
