MODEL 1
REMARK VINA RESULT:    -7.867      0.000      0.000
REMARK INTER + INTRA:          -9.542
REMARK INTER:                  -9.247
REMARK INTRA:                  -0.295
REMARK UNBOUND:                -0.295
REMARK SMILES O=c1cc(-c2ccc(O)c(O)c2)oc2cc(O)cc(O)c12
REMARK SMILES IDX 4 1 3 2 2 3 1 4 21 5 19 6 18 7 16 8 15 9 14 10 13 11 5 12
REMARK SMILES IDX 6 13 7 14 8 15 12 16 10 17 9 18 11 20 20 22 17 24
REMARK H PARENT 9 19 11 21 20 23 17 25
REMARK Flexibility Score: inf
ROOT
ATOM      1  C   UNL     1     131.925 135.507 152.161  1.00  0.00     0.138 A 
ATOM      2  C   UNL     1     132.941 135.571 151.196  1.00  0.00     0.100 A 
ATOM      3  C   UNL     1     132.968 134.636 150.161  1.00  0.00     0.197 A 
ATOM      4  O   UNL     1     133.855 134.755 149.276  1.00  0.00    -0.289 OA
ATOM      5  C   UNL     1     131.990 133.614 150.110  1.00  0.00     0.107 A 
ATOM      6  C   UNL     1     131.943 132.582 149.125  1.00  0.00     0.134 A 
ATOM      7  C   UNL     1     130.860 131.694 149.107  1.00  0.00     0.093 A 
ATOM      8  C   UNL     1     129.856 131.762 150.076  1.00  0.00     0.123 A 
ATOM      9  C   UNL     1     129.921 132.731 151.074  1.00  0.00     0.094 A 
ATOM     10  C   UNL     1     130.971 133.654 151.098  1.00  0.00     0.146 A 
ATOM     11  O   UNL     1     130.988 134.571 152.059  1.00  0.00    -0.456 OA
ENDROOT
BRANCH   1  12
ATOM     12  C   UNL     1     131.850 136.477 153.283  1.00  0.00     0.021 A 
ATOM     13  C   UNL     1     130.872 136.367 154.290  1.00  0.00     0.016 A 
ATOM     14  C   UNL     1     130.817 137.300 155.329  1.00  0.00     0.051 A 
ATOM     15  C   UNL     1     131.727 138.359 155.380  1.00  0.00     0.157 A 
ATOM     16  C   UNL     1     132.753 137.554 153.331  1.00  0.00     0.062 A 
ATOM     17  C   UNL     1     132.700 138.489 154.375  1.00  0.00     0.158 A 
BRANCH  15  18
ATOM     18  O   UNL     1     131.647 139.273 156.429  1.00  0.00    -0.504 OA
ATOM     19  H   UNL     1     131.661 140.274 156.274  1.00  0.00     0.293 HD
ENDBRANCH  15  18
BRANCH  17  20
ATOM     20  O   UNL     1     133.608 139.546 154.415  1.00  0.00    -0.504 OA
ATOM     21  H   UNL     1     134.533 139.436 154.815  1.00  0.00     0.293 HD
ENDBRANCH  17  20
ENDBRANCH   1  12
BRANCH   6  22
ATOM     22  O   UNL     1     132.936 132.374 148.165  1.00  0.00    -0.507 OA
ATOM     23  H   UNL     1     133.727 131.758 148.277  1.00  0.00     0.293 HD
ENDBRANCH   6  22
BRANCH   8  24
ATOM     24  O   UNL     1     128.791 130.864 150.060  1.00  0.00    -0.508 OA
ATOM     25  H   UNL     1     128.366 130.530 150.917  1.00  0.00     0.293 HD
ENDBRANCH   8  24
TORSDOF 5
ENDMDL
MODEL 2
REMARK VINA RESULT:    -7.639      2.574      4.867
REMARK INTER + INTRA:          -9.274
REMARK INTER:                  -9.004
REMARK INTRA:                  -0.270
REMARK UNBOUND:                -0.295
REMARK SMILES O=c1cc(-c2ccc(O)c(O)c2)oc2cc(O)cc(O)c12
REMARK SMILES IDX 4 1 3 2 2 3 1 4 21 5 19 6 18 7 16 8 15 9 14 10 13 11 5 12
REMARK SMILES IDX 6 13 7 14 8 15 12 16 10 17 9 18 11 20 20 22 17 24
REMARK H PARENT 9 19 11 21 20 23 17 25
REMARK Flexibility Score: inf
ROOT
ATOM      1  C   UNL     1     130.257 132.872 150.071  1.00  0.00     0.138 A 
ATOM      2  C   UNL     1     128.993 132.453 150.510  1.00  0.00     0.100 A 
ATOM      3  C   UNL     1     128.238 131.591 149.714  1.00  0.00     0.197 A 
ATOM      4  O   UNL     1     127.135 131.183 150.162  1.00  0.00    -0.289 OA
ATOM      5  C   UNL     1     128.738 131.173 148.458  1.00  0.00     0.107 A 
ATOM      6  C   UNL     1     128.039 130.329 147.544  1.00  0.00     0.134 A 
ATOM      7  C   UNL     1     128.683 129.886 146.382  1.00  0.00     0.093 A 
ATOM      8  C   UNL     1     129.978 130.307 146.071  1.00  0.00     0.123 A 
ATOM      9  C   UNL     1     130.649 131.175 146.929  1.00  0.00     0.094 A 
ATOM     10  C   UNL     1     130.047 131.606 148.114  1.00  0.00     0.146 A 
ATOM     11  O   UNL     1     130.727 132.421 148.913  1.00  0.00    -0.456 OA
ENDROOT
BRANCH   1  12
ATOM     12  C   UNL     1     131.102 133.789 150.878  1.00  0.00     0.021 A 
ATOM     13  C   UNL     1     131.660 134.958 150.326  1.00  0.00     0.016 A 
ATOM     14  C   UNL     1     132.461 135.797 151.106  1.00  0.00     0.051 A 
ATOM     15  C   UNL     1     132.726 135.483 152.441  1.00  0.00     0.157 A 
ATOM     16  C   UNL     1     131.385 133.471 152.218  1.00  0.00     0.062 A 
ATOM     17  C   UNL     1     132.187 134.313 153.001  1.00  0.00     0.158 A 
BRANCH  15  18
ATOM     18  O   UNL     1     133.528 136.340 153.194  1.00  0.00    -0.504 OA
ATOM     19  H   UNL     1     134.291 136.864 152.781  1.00  0.00     0.293 HD
ENDBRANCH  15  18
BRANCH  17  20
ATOM     20  O   UNL     1     132.452 133.990 154.332  1.00  0.00    -0.504 OA
ATOM     21  H   UNL     1     131.908 133.294 154.828  1.00  0.00     0.293 HD
ENDBRANCH  17  20
ENDBRANCH   1  12
BRANCH   6  22
ATOM     22  O   UNL     1     126.714 129.919 147.718  1.00  0.00    -0.507 OA
ATOM     23  H   UNL     1     125.939 130.214 147.144  1.00  0.00     0.293 HD
ENDBRANCH   6  22
BRANCH   8  24
ATOM     24  O   UNL     1     130.605 129.874 144.904  1.00  0.00    -0.508 OA
ATOM     25  H   UNL     1     131.591 130.036 144.741  1.00  0.00     0.293 HD
ENDBRANCH   8  24
TORSDOF 5
ENDMDL
MODEL 3
REMARK VINA RESULT:    -7.615      2.550      2.896
REMARK INTER + INTRA:          -9.245
REMARK INTER:                  -8.976
REMARK INTRA:                  -0.269
REMARK UNBOUND:                -0.295
REMARK SMILES O=c1cc(-c2ccc(O)c(O)c2)oc2cc(O)cc(O)c12
REMARK SMILES IDX 4 1 3 2 2 3 1 4 21 5 19 6 18 7 16 8 15 9 14 10 13 11 5 12
REMARK SMILES IDX 6 13 7 14 8 15 12 16 10 17 9 18 11 20 20 22 17 24
REMARK H PARENT 9 19 11 21 20 23 17 25
REMARK Flexibility Score: inf
ROOT
ATOM      1  C   UNL     1     131.571 135.571 153.886  1.00  0.00     0.138 A 
ATOM      2  C   UNL     1     131.902 135.344 152.543  1.00  0.00     0.100 A 
ATOM      3  C   UNL     1     131.928 134.038 152.050  1.00  0.00     0.197 A 
ATOM      4  O   UNL     1     132.168 133.870 150.826  1.00  0.00    -0.289 OA
ATOM      5  C   UNL     1     131.652 132.954 152.916  1.00  0.00     0.107 A 
ATOM      6  C   UNL     1     131.690 131.579 152.535  1.00  0.00     0.134 A 
ATOM      7  C   UNL     1     131.284 130.598 153.448  1.00  0.00     0.093 A 
ATOM      8  C   UNL     1     130.900 130.938 154.748  1.00  0.00     0.123 A 
ATOM      9  C   UNL     1     130.912 132.272 155.147  1.00  0.00     0.094 A 
ATOM     10  C   UNL     1     131.279 133.277 154.248  1.00  0.00     0.146 A 
ATOM     11  O   UNL     1     131.262 134.538 154.664  1.00  0.00    -0.456 OA
ENDROOT
BRANCH   1  12
ATOM     12  C   UNL     1     131.528 136.939 154.462  1.00  0.00     0.021 A 
ATOM     13  C   UNL     1     130.374 137.440 155.093  1.00  0.00     0.016 A 
ATOM     14  C   UNL     1     130.358 138.735 155.616  1.00  0.00     0.051 A 
ATOM     15  C   UNL     1     131.485 139.555 155.514  1.00  0.00     0.157 A 
ATOM     16  C   UNL     1     132.654 137.774 154.348  1.00  0.00     0.062 A 
ATOM     17  C   UNL     1     132.639 139.073 154.875  1.00  0.00     0.158 A 
BRANCH  15  18
ATOM     18  O   UNL     1     131.438 140.843 156.047  1.00  0.00    -0.504 OA
ATOM     19  H   UNL     1     130.962 141.049 156.916  1.00  0.00     0.293 HD
ENDBRANCH  15  18
BRANCH  17  20
ATOM     20  O   UNL     1     133.766 139.887 154.764  1.00  0.00    -0.504 OA
ATOM     21  H   UNL     1     133.787 140.821 155.157  1.00  0.00     0.293 HD
ENDBRANCH  17  20
ENDBRANCH   1  12
BRANCH   6  22
ATOM     22  O   UNL     1     132.137 131.126 151.291  1.00  0.00    -0.507 OA
ATOM     23  H   UNL     1     131.547 130.738 150.572  1.00  0.00     0.293 HD
ENDBRANCH   6  22
BRANCH   8  24
ATOM     24  O   UNL     1     130.513 129.953 155.655  1.00  0.00    -0.508 OA
ATOM     25  H   UNL     1     129.538 129.716 155.795  1.00  0.00     0.293 HD
ENDBRANCH   8  24
TORSDOF 5
ENDMDL
MODEL 4
REMARK VINA RESULT:    -7.437      1.550      2.964
REMARK INTER + INTRA:          -9.036
REMARK INTER:                  -8.772
REMARK INTRA:                  -0.264
REMARK UNBOUND:                -0.295
REMARK SMILES O=c1cc(-c2ccc(O)c(O)c2)oc2cc(O)cc(O)c12
REMARK SMILES IDX 4 1 3 2 2 3 1 4 21 5 19 6 18 7 16 8 15 9 14 10 13 11 5 12
REMARK SMILES IDX 6 13 7 14 8 15 12 16 10 17 9 18 11 20 20 22 17 24
REMARK H PARENT 9 19 11 21 20 23 17 25
REMARK Flexibility Score: inf
ROOT
ATOM      1  C   UNL     1     132.427 135.388 152.177  1.00  0.00     0.138 A 
ATOM      2  C   UNL     1     131.101 134.951 152.307  1.00  0.00     0.100 A 
ATOM      3  C   UNL     1     130.540 134.146 151.315  1.00  0.00     0.197 A 
ATOM      4  O   UNL     1     129.369 133.719 151.488  1.00  0.00    -0.289 OA
ATOM      5  C   UNL     1     131.302 133.802 150.173  1.00  0.00     0.107 A 
ATOM      6  C   UNL     1     130.821 133.022 149.079  1.00  0.00     0.134 A 
ATOM      7  C   UNL     1     131.703 132.648 148.058  1.00  0.00     0.093 A 
ATOM      8  C   UNL     1     133.033 133.077 148.060  1.00  0.00     0.123 A 
ATOM      9  C   UNL     1     133.498 133.885 149.095  1.00  0.00     0.094 A 
ATOM     10  C   UNL     1     132.651 134.246 150.146  1.00  0.00     0.146 A 
ATOM     11  O   UNL     1     133.138 135.005 151.122  1.00  0.00    -0.456 OA
ENDROOT
BRANCH   1  12
ATOM     12  C   UNL     1     133.073 136.246 153.203  1.00  0.00     0.021 A 
ATOM     13  C   UNL     1     134.088 135.755 154.046  1.00  0.00     0.016 A 
ATOM     14  C   UNL     1     134.670 136.582 155.009  1.00  0.00     0.051 A 
ATOM     15  C   UNL     1     134.249 137.906 155.155  1.00  0.00     0.157 A 
ATOM     16  C   UNL     1     132.643 137.575 153.365  1.00  0.00     0.062 A 
ATOM     17  C   UNL     1     133.229 138.406 154.330  1.00  0.00     0.158 A 
BRANCH  15  18
ATOM     18  O   UNL     1     134.851 138.707 156.126  1.00  0.00    -0.504 OA
ATOM     19  H   UNL     1     135.743 138.470 156.542  1.00  0.00     0.293 HD
ENDBRANCH  15  18
BRANCH  17  20
ATOM     20  O   UNL     1     132.799 139.725 154.473  1.00  0.00    -0.504 OA
ATOM     21  H   UNL     1     133.164 140.326 155.203  1.00  0.00     0.293 HD
ENDBRANCH  17  20
ENDBRANCH   1  12
BRANCH   6  22
ATOM     22  O   UNL     1     129.493 132.612 148.937  1.00  0.00    -0.507 OA
ATOM     23  H   UNL     1     128.709 133.017 149.426  1.00  0.00     0.293 HD
ENDBRANCH   6  22
BRANCH   8  24
ATOM     24  O   UNL     1     133.899 132.713 147.031  1.00  0.00    -0.508 OA
ATOM     25  H   UNL     1     133.813 131.823 146.556  1.00  0.00     0.293 HD
ENDBRANCH   8  24
TORSDOF 5
ENDMDL
MODEL 5
REMARK VINA RESULT:    -7.330      2.025      6.732
REMARK INTER + INTRA:          -8.911
REMARK INTER:                  -8.620
REMARK INTRA:                  -0.291
REMARK UNBOUND:                -0.295
REMARK SMILES O=c1cc(-c2ccc(O)c(O)c2)oc2cc(O)cc(O)c12
REMARK SMILES IDX 4 1 3 2 2 3 1 4 21 5 19 6 18 7 16 8 15 9 14 10 13 11 5 12
REMARK SMILES IDX 6 13 7 14 8 15 12 16 10 17 9 18 11 20 20 22 17 24
REMARK H PARENT 9 19 11 21 20 23 17 25
REMARK Flexibility Score: inf
ROOT
ATOM      1  C   UNL     1     131.249 135.910 153.108  1.00  0.00     0.138 A 
ATOM      2  C   UNL     1     132.025 136.896 153.734  1.00  0.00     0.100 A 
ATOM      3  C   UNL     1     131.508 137.588 154.831  1.00  0.00     0.197 A 
ATOM      4  O   UNL     1     132.251 138.423 155.409  1.00  0.00    -0.289 OA
ATOM      5  C   UNL     1     130.196 137.311 155.282  1.00  0.00     0.107 A 
ATOM      6  C   UNL     1     129.550 137.982 156.364  1.00  0.00     0.134 A 
ATOM      7  C   UNL     1     128.293 137.542 156.796  1.00  0.00     0.093 A 
ATOM      8  C   UNL     1     127.632 136.496 156.146  1.00  0.00     0.123 A 
ATOM      9  C   UNL     1     128.230 135.871 155.055  1.00  0.00     0.094 A 
ATOM     10  C   UNL     1     129.499 136.264 154.622  1.00  0.00     0.146 A 
ATOM     11  O   UNL     1     130.041 135.631 153.587  1.00  0.00    -0.456 OA
ENDROOT
BRANCH   1  12
ATOM     12  C   UNL     1     131.749 135.145 151.938  1.00  0.00     0.021 A 
ATOM     13  C   UNL     1     131.198 133.900 151.578  1.00  0.00     0.016 A 
ATOM     14  C   UNL     1     131.696 133.196 150.479  1.00  0.00     0.051 A 
ATOM     15  C   UNL     1     132.753 133.713 149.726  1.00  0.00     0.157 A 
ATOM     16  C   UNL     1     132.823 135.653 151.186  1.00  0.00     0.062 A 
ATOM     17  C   UNL     1     133.322 134.947 150.081  1.00  0.00     0.158 A 
BRANCH  15  18
ATOM     18  O   UNL     1     133.228 132.988 148.634  1.00  0.00    -0.504 OA
ATOM     19  H   UNL     1     134.183 133.070 148.307  1.00  0.00     0.293 HD
ENDBRANCH  15  18
BRANCH  17  20
ATOM     20  O   UNL     1     134.381 135.468 149.338  1.00  0.00    -0.504 OA
ATOM     21  H   UNL     1     134.776 134.964 148.552  1.00  0.00     0.293 HD
ENDBRANCH  17  20
ENDBRANCH   1  12
BRANCH   6  22
ATOM     22  O   UNL     1     130.085 139.090 157.025  1.00  0.00    -0.507 OA
ATOM     23  H   UNL     1     130.779 139.047 157.756  1.00  0.00     0.293 HD
ENDBRANCH   6  22
BRANCH   8  24
ATOM     24  O   UNL     1     126.374 136.076 156.574  1.00  0.00    -0.508 OA
ATOM     25  H   UNL     1     125.597 135.990 155.930  1.00  0.00     0.293 HD
ENDBRANCH   8  24
TORSDOF 5
ENDMDL
MODEL 6
REMARK VINA RESULT:    -7.310      1.976      3.114
REMARK INTER + INTRA:          -8.887
REMARK INTER:                  -8.599
REMARK INTRA:                  -0.288
REMARK UNBOUND:                -0.295
REMARK SMILES O=c1cc(-c2ccc(O)c(O)c2)oc2cc(O)cc(O)c12
REMARK SMILES IDX 4 1 3 2 2 3 1 4 21 5 19 6 18 7 16 8 15 9 14 10 13 11 5 12
REMARK SMILES IDX 6 13 7 14 8 15 12 16 10 17 9 18 11 20 20 22 17 24
REMARK H PARENT 9 19 11 21 20 23 17 25
REMARK Flexibility Score: inf
ROOT
ATOM      1  C   UNL     1     131.472 133.566 150.721  1.00  0.00     0.138 A 
ATOM      2  C   UNL     1     132.286 133.472 149.582  1.00  0.00     0.100 A 
ATOM      3  C   UNL     1     131.847 132.738 148.480  1.00  0.00     0.197 A 
ATOM      4  O   UNL     1     132.571 132.722 147.451  1.00  0.00    -0.289 OA
ATOM      5  C   UNL     1     130.601 132.070 148.531  1.00  0.00     0.107 A 
ATOM      6  C   UNL     1     130.070 131.258 147.483  1.00  0.00     0.134 A 
ATOM      7  C   UNL     1     128.773 130.742 147.600  1.00  0.00     0.093 A 
ATOM      8  C   UNL     1     128.013 130.956 148.752  1.00  0.00     0.123 A 
ATOM      9  C   UNL     1     128.543 131.701 149.803  1.00  0.00     0.094 A 
ATOM     10  C   UNL     1     129.820 132.259 149.702  1.00  0.00     0.146 A 
ATOM     11  O   UNL     1     130.282 132.975 150.721  1.00  0.00    -0.456 OA
ENDROOT
BRANCH   1  12
ATOM     12  C   UNL     1     131.890 134.334 151.921  1.00  0.00     0.021 A 
ATOM     13  C   UNL     1     132.389 135.648 151.822  1.00  0.00     0.016 A 
ATOM     14  C   UNL     1     132.785 136.343 152.968  1.00  0.00     0.051 A 
ATOM     15  C   UNL     1     132.700 135.742 154.226  1.00  0.00     0.157 A 
ATOM     16  C   UNL     1     131.822 133.730 153.189  1.00  0.00     0.062 A 
ATOM     17  C   UNL     1     132.218 134.428 154.339  1.00  0.00     0.158 A 
BRANCH  15  18
ATOM     18  O   UNL     1     133.103 136.462 155.351  1.00  0.00    -0.504 OA
ATOM     19  H   UNL     1     132.862 137.437 155.480  1.00  0.00     0.293 HD
ENDBRANCH  15  18
BRANCH  17  20
ATOM     20  O   UNL     1     132.135 133.820 155.591  1.00  0.00    -0.504 OA
ATOM     21  H   UNL     1     131.525 134.179 156.316  1.00  0.00     0.293 HD
ENDBRANCH  17  20
ENDBRANCH   1  12
BRANCH   6  22
ATOM     22  O   UNL     1     130.777 130.913 146.328  1.00  0.00    -0.507 OA
ATOM     23  H   UNL     1     131.531 131.452 145.931  1.00  0.00     0.293 HD
ENDBRANCH   6  22
BRANCH   8  24
ATOM     24  O   UNL     1     126.729 130.425 148.865  1.00  0.00    -0.508 OA
ATOM     25  H   UNL     1     126.456 129.867 149.665  1.00  0.00     0.293 HD
ENDBRANCH   8  24
TORSDOF 5
ENDMDL
MODEL 7
REMARK VINA RESULT:    -7.288      2.468      6.899
REMARK INTER + INTRA:          -8.861
REMARK INTER:                  -8.548
REMARK INTRA:                  -0.313
REMARK UNBOUND:                -0.295
REMARK SMILES O=c1cc(-c2ccc(O)c(O)c2)oc2cc(O)cc(O)c12
REMARK SMILES IDX 4 1 3 2 2 3 1 4 21 5 19 6 18 7 16 8 15 9 14 10 13 11 5 12
REMARK SMILES IDX 6 13 7 14 8 15 12 16 10 17 9 18 11 20 20 22 17 24
REMARK H PARENT 9 19 11 21 20 23 17 25
REMARK Flexibility Score: inf
ROOT
ATOM      1  C   UNL     1     130.309 133.815 150.845  1.00  0.00     0.138 A 
ATOM      2  C   UNL     1     131.370 134.613 150.394  1.00  0.00     0.100 A 
ATOM      3  C   UNL     1     132.280 135.134 151.316  1.00  0.00     0.197 A 
ATOM      4  O   UNL     1     133.256 135.795 150.876  1.00  0.00    -0.289 OA
ATOM      5  C   UNL     1     132.107 134.879 152.696  1.00  0.00     0.107 A 
ATOM      6  C   UNL     1     132.948 135.391 153.729  1.00  0.00     0.134 A 
ATOM      7  C   UNL     1     132.748 134.976 155.052  1.00  0.00     0.093 A 
ATOM      8  C   UNL     1     131.700 134.115 155.386  1.00  0.00     0.123 A 
ATOM      9  C   UNL     1     130.840 133.652 154.394  1.00  0.00     0.094 A 
ATOM     10  C   UNL     1     131.035 134.021 153.060  1.00  0.00     0.146 A 
ATOM     11  O   UNL     1     130.201 133.545 152.141  1.00  0.00    -0.456 OA
ENDROOT
BRANCH   1  12
ATOM     12  C   UNL     1     129.312 133.236 149.908  1.00  0.00     0.021 A 
ATOM     13  C   UNL     1     129.094 133.783 148.629  1.00  0.00     0.016 A 
ATOM     14  C   UNL     1     128.142 133.224 147.773  1.00  0.00     0.051 A 
ATOM     15  C   UNL     1     127.387 132.120 148.176  1.00  0.00     0.157 A 
ATOM     16  C   UNL     1     128.538 132.134 150.314  1.00  0.00     0.062 A 
ATOM     17  C   UNL     1     127.584 131.572 149.454  1.00  0.00     0.158 A 
BRANCH  15  18
ATOM     18  O   UNL     1     126.445 131.584 147.299  1.00  0.00    -0.504 OA
ATOM     19  H   UNL     1     125.450 131.739 147.417  1.00  0.00     0.293 HD
ENDBRANCH  15  18
BRANCH  17  20
ATOM     20  O   UNL     1     126.830 130.473 149.866  1.00  0.00    -0.504 OA
ATOM     21  H   UNL     1     125.824 130.447 149.752  1.00  0.00     0.293 HD
ENDBRANCH  17  20
ENDBRANCH   1  12
BRANCH   6  22
ATOM     22  O   UNL     1     133.969 136.321 153.515  1.00  0.00    -0.507 OA
ATOM     23  H   UNL     1     133.845 137.226 153.087  1.00  0.00     0.293 HD
ENDBRANCH   6  22
BRANCH   8  24
ATOM     24  O   UNL     1     131.500 133.719 156.708  1.00  0.00    -0.508 OA
ATOM     25  H   UNL     1     131.303 132.755 156.948  1.00  0.00     0.293 HD
ENDBRANCH   8  24
TORSDOF 5
ENDMDL
MODEL 8
REMARK VINA RESULT:    -7.229      1.719      2.043
REMARK INTER + INTRA:          -8.792
REMARK INTER:                  -8.526
REMARK INTRA:                  -0.266
REMARK UNBOUND:                -0.295
REMARK SMILES O=c1cc(-c2ccc(O)c(O)c2)oc2cc(O)cc(O)c12
REMARK SMILES IDX 4 1 3 2 2 3 1 4 21 5 19 6 18 7 16 8 15 9 14 10 13 11 5 12
REMARK SMILES IDX 6 13 7 14 8 15 12 16 10 17 9 18 11 20 20 22 17 24
REMARK H PARENT 9 19 11 21 20 23 17 25
REMARK Flexibility Score: inf
ROOT
ATOM      1  C   UNL     1     131.506 134.341 151.623  1.00  0.00     0.138 A 
ATOM      2  C   UNL     1     132.398 133.916 150.628  1.00  0.00     0.100 A 
ATOM      3  C   UNL     1     131.913 133.227 149.516  1.00  0.00     0.197 A 
ATOM      4  O   UNL     1     132.729 132.913 148.610  1.00  0.00    -0.289 OA
ATOM      5  C   UNL     1     130.533 132.935 149.416  1.00  0.00     0.107 A 
ATOM      6  C   UNL     1     129.932 132.202 148.349  1.00  0.00     0.134 A 
ATOM      7  C   UNL     1     128.538 132.075 148.297  1.00  0.00     0.093 A 
ATOM      8  C   UNL     1     127.729 132.602 149.308  1.00  0.00     0.123 A 
ATOM      9  C   UNL     1     128.309 133.271 150.382  1.00  0.00     0.094 A 
ATOM     10  C   UNL     1     129.694 133.444 150.443  1.00  0.00     0.146 A 
ATOM     11  O   UNL     1     130.207 134.102 151.478  1.00  0.00    -0.456 OA
ENDROOT
BRANCH   1  12
ATOM     12  C   UNL     1     131.968 135.078 152.827  1.00  0.00     0.021 A 
ATOM     13  C   UNL     1     132.037 134.460 154.090  1.00  0.00     0.016 A 
ATOM     14  C   UNL     1     132.465 135.181 155.208  1.00  0.00     0.051 A 
ATOM     15  C   UNL     1     132.823 136.526 155.090  1.00  0.00     0.157 A 
ATOM     16  C   UNL     1     132.315 136.436 152.717  1.00  0.00     0.062 A 
ATOM     17  C   UNL     1     132.747 137.159 153.839  1.00  0.00     0.158 A 
BRANCH  15  18
ATOM     18  O   UNL     1     133.247 137.218 156.224  1.00  0.00    -0.504 OA
ATOM     19  H   UNL     1     132.597 137.548 156.928  1.00  0.00     0.293 HD
ENDBRANCH  15  18
BRANCH  17  20
ATOM     20  O   UNL     1     133.098 138.502 153.713  1.00  0.00    -0.504 OA
ATOM     21  H   UNL     1     133.951 138.869 154.120  1.00  0.00     0.293 HD
ENDBRANCH  17  20
ENDBRANCH   1  12
BRANCH   6  22
ATOM     22  O   UNL     1     130.653 131.565 147.336  1.00  0.00    -0.507 OA
ATOM     23  H   UNL     1     131.361 132.005 146.767  1.00  0.00     0.293 HD
ENDBRANCH   6  22
BRANCH   8  24
ATOM     24  O   UNL     1     126.343 132.457 149.256  1.00  0.00    -0.508 OA
ATOM     25  H   UNL     1     125.768 132.566 150.083  1.00  0.00     0.293 HD
ENDBRANCH   8  24
TORSDOF 5
ENDMDL
MODEL 9
REMARK VINA RESULT:    -7.201      1.530      2.683
REMARK INTER + INTRA:          -8.759
REMARK INTER:                  -8.472
REMARK INTRA:                  -0.287
REMARK UNBOUND:                -0.295
REMARK SMILES O=c1cc(-c2ccc(O)c(O)c2)oc2cc(O)cc(O)c12
REMARK SMILES IDX 4 1 3 2 2 3 1 4 21 5 19 6 18 7 16 8 15 9 14 10 13 11 5 12
REMARK SMILES IDX 6 13 7 14 8 15 12 16 10 17 9 18 11 20 20 22 17 24
REMARK H PARENT 9 19 11 21 20 23 17 25
REMARK Flexibility Score: inf
ROOT
ATOM      1  C   UNL     1     131.535 135.277 153.399  1.00  0.00     0.138 A 
ATOM      2  C   UNL     1     131.258 134.107 154.120  1.00  0.00     0.100 A 
ATOM      3  C   UNL     1     131.270 132.875 153.466  1.00  0.00     0.197 A 
ATOM      4  O   UNL     1     131.079 131.837 154.152  1.00  0.00    -0.289 OA
ATOM      5  C   UNL     1     131.528 132.819 152.076  1.00  0.00     0.107 A 
ATOM      6  C   UNL     1     131.525 131.623 151.296  1.00  0.00     0.134 A 
ATOM      7  C   UNL     1     131.910 131.676 149.950  1.00  0.00     0.093 A 
ATOM      8  C   UNL     1     132.239 132.890 149.342  1.00  0.00     0.123 A 
ATOM      9  C   UNL     1     132.193 134.069 150.080  1.00  0.00     0.094 A 
ATOM     10  C   UNL     1     131.846 134.045 151.433  1.00  0.00     0.146 A 
ATOM     11  O   UNL     1     131.828 135.191 152.106  1.00  0.00    -0.456 OA
ENDROOT
BRANCH   1  12
ATOM     12  C   UNL     1     131.536 136.614 154.045  1.00  0.00     0.021 A 
ATOM     13  C   UNL     1     130.443 137.067 154.809  1.00  0.00     0.016 A 
ATOM     14  C   UNL     1     130.467 138.334 155.397  1.00  0.00     0.051 A 
ATOM     15  C   UNL     1     131.571 139.174 155.229  1.00  0.00     0.157 A 
ATOM     16  C   UNL     1     132.638 137.469 153.866  1.00  0.00     0.062 A 
ATOM     17  C   UNL     1     132.663 138.741 154.458  1.00  0.00     0.158 A 
BRANCH  15  18
ATOM     18  O   UNL     1     131.565 140.432 155.828  1.00  0.00    -0.504 OA
ATOM     19  H   UNL     1     132.188 140.668 156.592  1.00  0.00     0.293 HD
ENDBRANCH  15  18
BRANCH  17  20
ATOM     20  O   UNL     1     133.766 139.574 154.281  1.00  0.00    -0.504 OA
ATOM     21  H   UNL     1     133.862 140.444 154.792  1.00  0.00     0.293 HD
ENDBRANCH  17  20
ENDBRANCH   1  12
BRANCH   6  22
ATOM     22  O   UNL     1     131.132 130.374 151.784  1.00  0.00    -0.507 OA
ATOM     23  H   UNL     1     131.462 129.959 152.641  1.00  0.00     0.293 HD
ENDBRANCH   6  22
BRANCH   8  24
ATOM     24  O   UNL     1     132.606 132.934 147.998  1.00  0.00    -0.508 OA
ATOM     25  H   UNL     1     132.474 132.138 147.386  1.00  0.00     0.293 HD
ENDBRANCH   8  24
TORSDOF 5
ENDMDL
