MODEL 1
REMARK VINA RESULT:    -2.183      0.000      0.000
REMARK INTER + INTRA:          -3.982
REMARK INTER:                  -3.203
REMARK INTRA:                  -0.778
REMARK UNBOUND:                -0.778
REMARK SMILES O=c1c(O[C@H]2O[C@@H](CO)[C@H](O)[C@H](O)[C@@H]2O)c(-c2ccc(O)c(O)c2)oc2cc(O)cc(O)c12
REMARK SMILES IDX 4 1 3 2 16 3 25 4 2 5 26 6 1 7 33 8 27 9 31 10 28 11 30 12
REMARK SMILES IDX 17 13 18 14 19 15 20 16 24 17 22 18 21 19 23 21 32 23 29 25
REMARK SMILES IDX 5 27 14 28 6 29 12 30 7 31 10 32 15 33 13 35 8 37 9 38 11 40
REMARK H PARENT 21 20 23 22 32 24 29 26 15 34 13 36 9 39 11 41
REMARK Flexibility Score: inf
ROOT
ATOM      1  O   UNL     1       2.769  14.630  25.972  1.00  0.00    -0.454 OA
ENDROOT
BRANCH   1   2
ATOM      2  C   UNL     1       2.014  15.622  26.607  1.00  0.00     0.214 A 
ATOM      3  C   UNL     1       0.853  15.269  27.313  1.00  0.00     0.180 A 
ATOM      4  O   UNL     1       0.153  16.197  27.955  1.00  0.00    -0.452 OA
ATOM      5  C   UNL     1       2.383  16.974  26.546  1.00  0.00     0.239 A 
ATOM      6  C   UNL     1       0.472  17.486  27.937  1.00  0.00     0.146 A 
ATOM      7  O   UNL     1       3.396  17.311  25.873  1.00  0.00    -0.285 OA
ATOM      8  C   UNL     1       1.602  17.939  27.214  1.00  0.00     0.111 A 
ATOM      9  C   UNL     1      -0.338  18.401  28.619  1.00  0.00     0.094 A 
ATOM     10  C   UNL     1       1.884  19.326  27.169  1.00  0.00     0.134 A 
ATOM     11  C   UNL     1      -0.057  19.771  28.568  1.00  0.00     0.123 A 
ATOM     12  C   UNL     1       1.047  20.228  27.845  1.00  0.00     0.093 A 
BRANCH   3  13
ATOM     13  C   UNL     1       0.396  13.869  27.358  1.00  0.00     0.025 A 
ATOM     14  C   UNL     1      -0.689  13.454  26.572  1.00  0.00     0.016 A 
ATOM     15  C   UNL     1      -1.119  12.128  26.612  1.00  0.00     0.051 A 
ATOM     16  C   UNL     1      -0.460  11.198  27.428  1.00  0.00     0.157 A 
ATOM     17  C   UNL     1       1.057  12.940  28.177  1.00  0.00     0.062 A 
ATOM     18  C   UNL     1       0.646  11.603  28.202  1.00  0.00     0.158 A 
BRANCH  16  19
ATOM     19  O   UNL     1      -0.902   9.878  27.476  1.00  0.00    -0.504 OA
ATOM     20  H   UNL     1      -0.253   9.115  27.639  1.00  0.00     0.293 HD
ENDBRANCH  16  19
BRANCH  18  21
ATOM     21  O   UNL     1       1.342  10.691  28.992  1.00  0.00    -0.504 OA
ATOM     22  H   UNL     1       2.228  10.304  28.695  1.00  0.00     0.293 HD
ENDBRANCH  18  21
ENDBRANCH   3  13
BRANCH  10  23
ATOM     23  O   UNL     1       2.977  19.817  26.455  1.00  0.00    -0.507 OA
ATOM     24  H   UNL     1       3.070  19.672  25.458  1.00  0.00     0.293 HD
ENDBRANCH  10  23
BRANCH  11  25
ATOM     25  O   UNL     1      -0.875  20.688  29.222  1.00  0.00    -0.508 OA
ATOM     26  H   UNL     1      -0.766  20.876  30.214  1.00  0.00     0.293 HD
ENDBRANCH  11  25
ENDBRANCH   1   2
BRANCH   1  27
ATOM     27  C   UNL     1       4.149  14.402  26.256  1.00  0.00     0.339 C 
ATOM     28  C   UNL     1       4.820  13.722  25.035  1.00  0.00     0.214 C 
ATOM     29  O   UNL     1       4.249  13.681  27.482  1.00  0.00    -0.332 OA
ATOM     30  C   UNL     1       4.204  12.325  24.798  1.00  0.00     0.180 C 
ATOM     31  C   UNL     1       4.530  12.292  27.348  1.00  0.00     0.179 C 
ATOM     32  C   UNL     1       3.808  11.640  26.133  1.00  0.00     0.177 C 
BRANCH  28  33
ATOM     33  O   UNL     1       6.211  13.611  25.216  1.00  0.00    -0.384 OA
ATOM     34  H   UNL     1       6.644  13.967  24.399  1.00  0.00     0.211 HD
ENDBRANCH  28  33
BRANCH  30  35
ATOM     35  O   UNL     1       5.093  11.522  24.061  1.00  0.00    -0.387 OA
ATOM     36  H   UNL     1       5.995  11.670  24.451  1.00  0.00     0.211 HD
ENDBRANCH  30  35
BRANCH  31  37
ATOM     37  C   UNL     1       4.156  11.593  28.670  1.00  0.00     0.191 C 
BRANCH  37  38
ATOM     38  O   UNL     1       4.537  10.243  28.667  1.00  0.00    -0.394 OA
ATOM     39  H   UNL     1       4.596   9.959  29.617  1.00  0.00     0.210 HD
ENDBRANCH  37  38
ENDBRANCH  31  37
BRANCH  32  40
ATOM     40  O   UNL     1       4.034  10.250  26.086  1.00  0.00    -0.387 OA
ATOM     41  H   UNL     1       4.989  10.112  25.850  1.00  0.00     0.211 HD
ENDBRANCH  32  40
ENDBRANCH   1  27
TORSDOF 12
ENDMDL
MODEL 2
REMARK VINA RESULT:    -1.673      2.138      4.778
REMARK INTER + INTRA:          -3.234
REMARK INTER:                  -2.103
REMARK INTRA:                  -1.131
REMARK UNBOUND:                -0.778
REMARK SMILES O=c1c(O[C@H]2O[C@@H](CO)[C@H](O)[C@H](O)[C@@H]2O)c(-c2ccc(O)c(O)c2)oc2cc(O)cc(O)c12
REMARK SMILES IDX 4 1 3 2 16 3 25 4 2 5 26 6 1 7 33 8 27 9 31 10 28 11 30 12
REMARK SMILES IDX 17 13 18 14 19 15 20 16 24 17 22 18 21 19 23 21 32 23 29 25
REMARK SMILES IDX 5 27 14 28 6 29 12 30 7 31 10 32 15 33 13 35 8 37 9 38 11 40
REMARK H PARENT 21 20 23 22 32 24 29 26 15 34 13 36 9 39 11 41
REMARK Flexibility Score: inf
ROOT
ATOM      1  O   UNL     1       2.283  13.794  27.799  1.00  0.00    -0.454 OA
ENDROOT
BRANCH   1   2
ATOM      2  C   UNL     1       1.950  14.792  26.876  1.00  0.00     0.214 A 
ATOM      3  C   UNL     1       2.660  14.891  25.669  1.00  0.00     0.180 A 
ATOM      4  O   UNL     1       2.322  15.807  24.768  1.00  0.00    -0.452 OA
ATOM      5  C   UNL     1       0.924  15.712  27.135  1.00  0.00     0.239 A 
ATOM      6  C   UNL     1       1.350  16.690  24.964  1.00  0.00     0.146 A 
ATOM      7  O   UNL     1       0.312  15.667  28.237  1.00  0.00    -0.285 OA
ATOM      8  C   UNL     1       0.609  16.693  26.171  1.00  0.00     0.111 A 
ATOM      9  C   UNL     1       1.079  17.639  23.973  1.00  0.00     0.094 A 
ATOM     10  C   UNL     1      -0.384  17.682  26.370  1.00  0.00     0.134 A 
ATOM     11  C   UNL     1       0.099  18.617  24.177  1.00  0.00     0.123 A 
ATOM     12  C   UNL     1      -0.626  18.636  25.371  1.00  0.00     0.093 A 
BRANCH   3  13
ATOM     13  C   UNL     1       3.782  13.981  25.379  1.00  0.00     0.025 A 
ATOM     14  C   UNL     1       5.104  14.441  25.459  1.00  0.00     0.016 A 
ATOM     15  C   UNL     1       6.165  13.578  25.188  1.00  0.00     0.051 A 
ATOM     16  C   UNL     1       5.917  12.242  24.847  1.00  0.00     0.157 A 
ATOM     17  C   UNL     1       3.531  12.643  25.036  1.00  0.00     0.062 A 
ATOM     18  C   UNL     1       4.593  11.767  24.788  1.00  0.00     0.158 A 
BRANCH  16  19
ATOM     19  O   UNL     1       6.981  11.388  24.563  1.00  0.00    -0.504 OA
ATOM     20  H   UNL     1       7.493  10.926  25.307  1.00  0.00     0.293 HD
ENDBRANCH  16  19
BRANCH  18  21
ATOM     21  O   UNL     1       4.320  10.433  24.488  1.00  0.00    -0.504 OA
ATOM     22  H   UNL     1       3.674   9.890  25.043  1.00  0.00     0.293 HD
ENDBRANCH  18  21
ENDBRANCH   3  13
BRANCH  10  23
ATOM     23  O   UNL     1      -1.125  17.731  27.552  1.00  0.00    -0.507 OA
ATOM     24  H   UNL     1      -0.760  17.372  28.424  1.00  0.00     0.293 HD
ENDBRANCH  10  23
BRANCH  11  25
ATOM     25  O   UNL     1      -0.156  19.581  23.205  1.00  0.00    -0.508 OA
ATOM     26  H   UNL     1      -1.016  19.570  22.666  1.00  0.00     0.293 HD
ENDBRANCH  11  25
ENDBRANCH   1   2
BRANCH   1  27
ATOM     27  C   UNL     1       1.528  12.593  27.952  1.00  0.00     0.339 C 
ATOM     28  C   UNL     1       1.047  12.472  29.420  1.00  0.00     0.214 C 
ATOM     29  O   UNL     1       2.311  11.499  27.478  1.00  0.00    -0.332 OA
ATOM     30  C   UNL     1       2.259  12.329  30.369  1.00  0.00     0.180 C 
ATOM     31  C   UNL     1       2.909  10.697  28.491  1.00  0.00     0.179 C 
ATOM     32  C   UNL     1       3.412  11.528  29.706  1.00  0.00     0.177 C 
BRANCH  28  33
ATOM     33  O   UNL     1       0.178  11.377  29.582  1.00  0.00    -0.384 OA
ATOM     34  H   UNL     1       0.324  11.016  30.493  1.00  0.00     0.211 HD
ENDBRANCH  28  33
BRANCH  30  35
ATOM     35  O   UNL     1       1.860  11.734  31.579  1.00  0.00    -0.387 OA
ATOM     36  H   UNL     1       1.313  12.412  32.058  1.00  0.00     0.211 HD
ENDBRANCH  30  35
BRANCH  31  37
ATOM     37  C   UNL     1       4.050   9.882  27.851  1.00  0.00     0.191 C 
BRANCH  37  38
ATOM     38  O   UNL     1       5.272  10.568  27.911  1.00  0.00    -0.394 OA
ATOM     39  H   UNL     1       5.703  10.466  27.022  1.00  0.00     0.210 HD
ENDBRANCH  37  38
ENDBRANCH  31  37
BRANCH  32  40
ATOM     40  O   UNL     1       4.080  10.715  30.644  1.00  0.00    -0.387 OA
ATOM     41  H   UNL     1       4.446   9.933  30.152  1.00  0.00     0.211 HD
ENDBRANCH  32  40
ENDBRANCH   1  27
TORSDOF 12
ENDMDL
