MODEL 1
REMARK VINA RESULT:    -3.543      0.000      0.000
REMARK INTER + INTRA:          -9.140
REMARK INTER:                  -6.649
REMARK INTRA:                  -2.490
REMARK UNBOUND:                -2.490
REMARK SMILES CCCCCCCCC=CCCCCCCCC(=O)[O-]
REMARK SMILES IDX 10 1 9 2 11 3 12 4 13 5 14 6 15 7 16 8 17 9 18 10 19 11
REMARK SMILES IDX 20 12 8 13 7 14 6 15 5 16 4 17 3 18 2 19 1 20
REMARK H PARENT
REMARK Flexibility Score: inf
ROOT
ATOM      1  C   UNL     1      61.019  32.327  60.699  1.00  0.00    -0.031 C 
ATOM      2  C   UNL     1      60.919  32.893  59.486  1.00  0.00    -0.031 C 
ENDROOT
BRANCH   1   3
ATOM      3  C   UNL     1      60.736  30.866  60.910  1.00  0.00     0.027 C 
BRANCH   3   4
ATOM      4  C   UNL     1      61.749  30.241  61.879  1.00  0.00     0.004 C 
BRANCH   4   5
ATOM      5  C   UNL     1      63.018  29.742  61.167  1.00  0.00     0.000 C 
BRANCH   5   6
ATOM      6  C   UNL     1      62.856  28.325  60.594  1.00  0.00     0.000 C 
BRANCH   6   7
ATOM      7  C   UNL     1      62.126  27.379  61.572  1.00  0.00     0.000 C 
BRANCH   7   8
ATOM      8  C   UNL     1      61.029  26.531  60.901  1.00  0.00     0.006 C 
BRANCH   8   9
ATOM      9  C   UNL     1      59.930  27.359  60.218  1.00  0.00     0.053 C 
BRANCH   9  10
ATOM     10  C   UNL     1      58.692  27.441  61.060  1.00  0.00     0.041 C 
ATOM     11  O   UNL     1      58.333  26.458  61.761  1.00  0.00    -0.550 OA
ATOM     12  O   UNL     1      57.924  28.598  61.055  1.00  0.00    -0.550 OA
ENDBRANCH   9  10
ENDBRANCH   8   9
ENDBRANCH   7   8
ENDBRANCH   6   7
ENDBRANCH   5   6
ENDBRANCH   4   5
ENDBRANCH   3   4
ENDBRANCH   1   3
BRANCH   2  13
ATOM     13  C   UNL     1      61.259  34.341  59.257  1.00  0.00     0.027 C 
BRANCH  13  14
ATOM     14  C   UNL     1      61.084  35.170  60.537  1.00  0.00     0.004 C 
BRANCH  14  15
ATOM     15  C   UNL     1      62.320  36.036  60.837  1.00  0.00     0.000 C 
BRANCH  15  16
ATOM     16  C   UNL     1      63.615  35.436  60.268  1.00  0.00     0.000 C 
BRANCH  16  17
ATOM     17  C   UNL     1      64.319  34.490  61.258  1.00  0.00    -0.000 C 
BRANCH  17  18
ATOM     18  C   UNL     1      64.510  33.074  60.673  1.00  0.00    -0.000 C 
BRANCH  18  19
ATOM     19  C   UNL     1      64.682  33.060  59.144  1.00  0.00    -0.003 C 
ATOM     20  C   UNL     1      64.510  31.669  58.536  1.00  0.00     0.004 C 
ENDBRANCH  18  19
ENDBRANCH  17  18
ENDBRANCH  16  17
ENDBRANCH  15  16
ENDBRANCH  14  15
ENDBRANCH  13  14
ENDBRANCH   2  13
TORSDOF 15
ENDMDL
MODEL 2
REMARK VINA RESULT:    -3.483      1.293      3.054
REMARK INTER + INTRA:          -9.027
REMARK INTER:                  -6.261
REMARK INTRA:                  -2.766
REMARK UNBOUND:                -2.490
REMARK SMILES CCCCCCCCC=CCCCCCCCC(=O)[O-]
REMARK SMILES IDX 10 1 9 2 11 3 12 4 13 5 14 6 15 7 16 8 17 9 18 10 19 11
REMARK SMILES IDX 20 12 8 13 7 14 6 15 5 16 4 17 3 18 2 19 1 20
REMARK H PARENT
REMARK Flexibility Score: inf
ROOT
ATOM      1  C   UNL     1      64.599  33.201  59.824  1.00  0.00    -0.031 C 
ATOM      2  C   UNL     1      64.596  33.684  61.077  1.00  0.00    -0.031 C 
ENDROOT
BRANCH   1   3
ATOM      3  C   UNL     1      64.675  31.724  59.554  1.00  0.00     0.027 C 
BRANCH   3   4
ATOM      4  C   UNL     1      64.294  30.914  60.801  1.00  0.00     0.004 C 
BRANCH   4   5
ATOM      5  C   UNL     1      62.896  30.284  60.693  1.00  0.00     0.000 C 
BRANCH   5   6
ATOM      6  C   UNL     1      61.939  30.775  61.792  1.00  0.00     0.000 C 
BRANCH   6   7
ATOM      7  C   UNL     1      60.456  30.615  61.389  1.00  0.00     0.000 C 
BRANCH   7   8
ATOM      8  C   UNL     1      60.256  29.803  60.096  1.00  0.00     0.006 C 
BRANCH   8   9
ATOM      9  C   UNL     1      58.920  29.048  60.032  1.00  0.00     0.053 C 
BRANCH   9  10
ATOM     10  C   UNL     1      58.989  27.736  60.754  1.00  0.00     0.041 C 
ATOM     11  O   UNL     1      60.078  27.107  60.830  1.00  0.00    -0.550 OA
ATOM     12  O   UNL     1      57.844  27.196  61.326  1.00  0.00    -0.550 OA
ENDBRANCH   9  10
ENDBRANCH   8   9
ENDBRANCH   7   8
ENDBRANCH   6   7
ENDBRANCH   5   6
ENDBRANCH   4   5
ENDBRANCH   3   4
ENDBRANCH   1   3
BRANCH   2  13
ATOM     13  C   UNL     1      64.461  35.157  61.357  1.00  0.00     0.027 C 
BRANCH  13  14
ATOM     14  C   UNL     1      63.509  35.834  60.361  1.00  0.00     0.004 C 
BRANCH  14  15
ATOM     15  C   UNL     1      62.180  36.242  61.020  1.00  0.00     0.000 C 
BRANCH  15  16
ATOM     16  C   UNL     1      60.961  35.602  60.337  1.00  0.00     0.000 C 
BRANCH  16  17
ATOM     17  C   UNL     1      61.038  34.066  60.296  1.00  0.00    -0.000 C 
BRANCH  17  18
ATOM     18  C   UNL     1      60.386  33.484  59.023  1.00  0.00    -0.000 C 
BRANCH  18  19
ATOM     19  C   UNL     1      61.388  32.797  58.079  1.00  0.00    -0.003 C 
ATOM     20  C   UNL     1      62.121  33.779  57.167  1.00  0.00     0.004 C 
ENDBRANCH  18  19
ENDBRANCH  17  18
ENDBRANCH  16  17
ENDBRANCH  15  16
ENDBRANCH  14  15
ENDBRANCH  13  14
ENDBRANCH   2  13
TORSDOF 15
ENDMDL
MODEL 3
REMARK VINA RESULT:    -3.441     10.438     12.474
REMARK INTER + INTRA:          -8.949
REMARK INTER:                  -6.252
REMARK INTRA:                  -2.698
REMARK UNBOUND:                -2.490
REMARK SMILES CCCCCCCCC=CCCCCCCCC(=O)[O-]
REMARK SMILES IDX 10 1 9 2 11 3 12 4 13 5 14 6 15 7 16 8 17 9 18 10 19 11
REMARK SMILES IDX 20 12 8 13 7 14 6 15 5 16 4 17 3 18 2 19 1 20
REMARK H PARENT
REMARK Flexibility Score: inf
ROOT
ATOM      1  C   UNL     1      57.265  28.876  52.290  1.00  0.00    -0.031 C 
ATOM      2  C   UNL     1      56.169  29.341  51.670  1.00  0.00    -0.031 C 
ENDROOT
BRANCH   1   3
ATOM      3  C   UNL     1      58.606  28.867  51.612  1.00  0.00     0.027 C 
BRANCH   3   4
ATOM      4  C   UNL     1      58.495  29.360  50.162  1.00  0.00     0.004 C 
BRANCH   4   5
ATOM      5  C   UNL     1      59.225  28.442  49.168  1.00  0.00     0.000 C 
BRANCH   5   6
ATOM      6  C   UNL     1      59.576  27.073  49.773  1.00  0.00     0.000 C 
BRANCH   6   7
ATOM      7  C   UNL     1      61.093  26.913  50.017  1.00  0.00     0.000 C 
BRANCH   7   8
ATOM      8  C   UNL     1      61.463  25.600  50.732  1.00  0.00     0.006 C 
BRANCH   8   9
ATOM      9  C   UNL     1      60.305  24.968  51.517  1.00  0.00     0.053 C 
BRANCH   9  10
ATOM     10  C   UNL     1      60.155  23.509  51.208  1.00  0.00     0.041 C 
ATOM     11  O   UNL     1      59.648  22.728  52.056  1.00  0.00    -0.550 OA
ATOM     12  O   UNL     1      60.594  23.008  49.989  1.00  0.00    -0.550 OA
ENDBRANCH   9  10
ENDBRANCH   8   9
ENDBRANCH   7   8
ENDBRANCH   6   7
ENDBRANCH   5   6
ENDBRANCH   4   5
ENDBRANCH   3   4
ENDBRANCH   1   3
BRANCH   2  13
ATOM     13  C   UNL     1      54.835  29.408  52.363  1.00  0.00     0.027 C 
BRANCH  13  14
ATOM     14  C   UNL     1      53.785  28.545  51.651  1.00  0.00     0.004 C 
BRANCH  14  15
ATOM     15  C   UNL     1      54.261  28.087  50.262  1.00  0.00     0.000 C 
BRANCH  15  16
ATOM     16  C   UNL     1      53.615  26.764  49.822  1.00  0.00     0.000 C 
BRANCH  16  17
ATOM     17  C   UNL     1      54.575  25.565  49.932  1.00  0.00    -0.000 C 
BRANCH  17  18
ATOM     18  C   UNL     1      56.028  26.008  50.206  1.00  0.00    -0.000 C 
BRANCH  18  19
ATOM     19  C   UNL     1      56.668  25.299  51.412  1.00  0.00    -0.003 C 
ATOM     20  C   UNL     1      55.860  25.458  52.698  1.00  0.00     0.004 C 
ENDBRANCH  18  19
ENDBRANCH  17  18
ENDBRANCH  16  17
ENDBRANCH  15  16
ENDBRANCH  14  15
ENDBRANCH  13  14
ENDBRANCH   2  13
TORSDOF 15
ENDMDL
MODEL 4
REMARK VINA RESULT:    -3.369     10.190     12.394
REMARK INTER + INTRA:          -8.814
REMARK INTER:                  -6.032
REMARK INTRA:                  -2.781
REMARK UNBOUND:                -2.490
REMARK SMILES CCCCCCCCC=CCCCCCCCC(=O)[O-]
REMARK SMILES IDX 10 1 9 2 11 3 12 4 13 5 14 6 15 7 16 8 17 9 18 10 19 11
REMARK SMILES IDX 20 12 8 13 7 14 6 15 5 16 4 17 3 18 2 19 1 20
REMARK H PARENT
REMARK Flexibility Score: inf
ROOT
ATOM      1  C   UNL     1      60.480  27.365  49.527  1.00  0.00    -0.031 C 
ATOM      2  C   UNL     1      61.613  27.821  50.085  1.00  0.00    -0.031 C 
ENDROOT
BRANCH   1   3
ATOM      3  C   UNL     1      59.232  28.202  49.489  1.00  0.00     0.027 C 
BRANCH   3   4
ATOM      4  C   UNL     1      59.262  29.288  50.573  1.00  0.00     0.004 C 
BRANCH   4   5
ATOM      5  C   UNL     1      57.967  29.336  51.399  1.00  0.00     0.000 C 
BRANCH   5   6
ATOM      6  C   UNL     1      56.704  29.289  50.523  1.00  0.00     0.000 C 
BRANCH   6   7
ATOM      7  C   UNL     1      55.659  28.284  51.057  1.00  0.00     0.000 C 
BRANCH   7   8
ATOM      8  C   UNL     1      56.242  26.886  51.340  1.00  0.00     0.006 C 
BRANCH   8   9
ATOM      9  C   UNL     1      56.033  25.880  50.200  1.00  0.00     0.053 C 
BRANCH   9  10
ATOM     10  C   UNL     1      54.648  25.307  50.211  1.00  0.00     0.041 C 
ATOM     11  O   UNL     1      54.044  25.081  49.128  1.00  0.00    -0.550 OA
ATOM     12  O   UNL     1      54.015  25.041  51.418  1.00  0.00    -0.550 OA
ENDBRANCH   9  10
ENDBRANCH   8   9
ENDBRANCH   7   8
ENDBRANCH   6   7
ENDBRANCH   5   6
ENDBRANCH   4   5
ENDBRANCH   3   4
ENDBRANCH   1   3
BRANCH   2  13
ATOM     13  C   UNL     1      62.882  27.012  50.074  1.00  0.00     0.027 C 
BRANCH  13  14
ATOM     14  C   UNL     1      62.874  25.936  51.167  1.00  0.00     0.004 C 
BRANCH  14  15
ATOM     15  C   UNL     1      62.760  24.519  50.582  1.00  0.00     0.000 C 
BRANCH  15  16
ATOM     16  C   UNL     1      61.673  23.678  51.270  1.00  0.00     0.000 C 
BRANCH  16  17
ATOM     17  C   UNL     1      60.367  23.613  50.459  1.00  0.00    -0.000 C 
BRANCH  17  18
ATOM     18  C   UNL     1      59.265  24.512  51.059  1.00  0.00    -0.000 C 
BRANCH  18  19
ATOM     19  C   UNL     1      59.434  24.767  52.567  1.00  0.00    -0.003 C 
ATOM     20  C   UNL     1      59.529  26.250  52.916  1.00  0.00     0.004 C 
ENDBRANCH  18  19
ENDBRANCH  17  18
ENDBRANCH  16  17
ENDBRANCH  15  16
ENDBRANCH  14  15
ENDBRANCH  13  14
ENDBRANCH   2  13
TORSDOF 15
ENDMDL
MODEL 5
REMARK VINA RESULT:    -3.330      3.383      6.154
REMARK INTER + INTRA:          -8.741
REMARK INTER:                  -5.422
REMARK INTRA:                  -3.319
REMARK UNBOUND:                -2.490
REMARK SMILES CCCCCCCCC=CCCCCCCCC(=O)[O-]
REMARK SMILES IDX 10 1 9 2 11 3 12 4 13 5 14 6 15 7 16 8 17 9 18 10 19 11
REMARK SMILES IDX 20 12 8 13 7 14 6 15 5 16 4 17 3 18 2 19 1 20
REMARK H PARENT
REMARK Flexibility Score: inf
ROOT
ATOM      1  C   UNL     1      62.963  31.425  58.020  1.00  0.00    -0.031 C 
ATOM      2  C   UNL     1      61.651  31.351  57.748  1.00  0.00    -0.031 C 
ENDROOT
BRANCH   1   3
ATOM      3  C   UNL     1      63.835  32.481  57.400  1.00  0.00     0.027 C 
BRANCH   3   4
ATOM      4  C   UNL     1      64.624  33.246  58.473  1.00  0.00     0.004 C 
BRANCH   4   5
ATOM      5  C   UNL     1      64.552  32.573  59.853  1.00  0.00     0.000 C 
BRANCH   5   6
ATOM      6  C   UNL     1      64.118  33.544  60.963  1.00  0.00     0.000 C 
BRANCH   6   7
ATOM      7  C   UNL     1      63.244  34.697  60.421  1.00  0.00     0.000 C 
BRANCH   7   8
ATOM      8  C   UNL     1      61.732  34.434  60.555  1.00  0.00     0.006 C 
BRANCH   8   9
ATOM      9  C   UNL     1      60.954  34.580  59.239  1.00  0.00     0.053 C 
BRANCH   9  10
ATOM     10  C   UNL     1      60.742  36.019  58.875  1.00  0.00     0.041 C 
ATOM     11  O   UNL     1      61.434  36.554  57.969  1.00  0.00    -0.550 OA
ATOM     12  O   UNL     1      59.793  36.775  59.551  1.00  0.00    -0.550 OA
ENDBRANCH   9  10
ENDBRANCH   8   9
ENDBRANCH   7   8
ENDBRANCH   6   7
ENDBRANCH   5   6
ENDBRANCH   4   5
ENDBRANCH   3   4
ENDBRANCH   1   3
BRANCH   2  13
ATOM     13  C   UNL     1      60.760  30.335  58.411  1.00  0.00     0.027 C 
BRANCH  13  14
ATOM     14  C   UNL     1      59.945  30.960  59.551  1.00  0.00     0.004 C 
BRANCH  14  15
ATOM     15  C   UNL     1      60.252  30.302  60.907  1.00  0.00     0.000 C 
BRANCH  15  16
ATOM     16  C   UNL     1      61.466  30.931  61.608  1.00  0.00     0.000 C 
BRANCH  16  17
ATOM     17  C   UNL     1      62.675  29.981  61.674  1.00  0.00    -0.000 C 
BRANCH  17  18
ATOM     18  C   UNL     1      62.286  28.522  61.352  1.00  0.00    -0.000 C 
BRANCH  18  19
ATOM     19  C   UNL     1      63.063  27.928  60.164  1.00  0.00    -0.003 C 
ATOM     20  C   UNL     1      64.343  28.697  59.842  1.00  0.00     0.004 C 
ENDBRANCH  18  19
ENDBRANCH  17  18
ENDBRANCH  16  17
ENDBRANCH  15  16
ENDBRANCH  14  15
ENDBRANCH  13  14
ENDBRANCH   2  13
TORSDOF 15
ENDMDL
MODEL 6
REMARK VINA RESULT:    -3.326      3.528      6.760
REMARK INTER + INTRA:          -8.733
REMARK INTER:                  -5.987
REMARK INTRA:                  -2.746
REMARK UNBOUND:                -2.490
REMARK SMILES CCCCCCCCC=CCCCCCCCC(=O)[O-]
REMARK SMILES IDX 10 1 9 2 11 3 12 4 13 5 14 6 15 7 16 8 17 9 18 10 19 11
REMARK SMILES IDX 20 12 8 13 7 14 6 15 5 16 4 17 3 18 2 19 1 20
REMARK H PARENT
REMARK Flexibility Score: inf
ROOT
ATOM      1  C   UNL     1      64.091  33.460  60.819  1.00  0.00    -0.031 C 
ATOM      2  C   UNL     1      64.562  32.419  60.112  1.00  0.00    -0.031 C 
ENDROOT
BRANCH   1   3
ATOM      3  C   UNL     1      64.810  34.780  60.844  1.00  0.00     0.027 C 
BRANCH   3   4
ATOM      4  C   UNL     1      63.949  35.864  61.508  1.00  0.00     0.004 C 
BRANCH   4   5
ATOM      5  C   UNL     1      62.966  36.522  60.526  1.00  0.00     0.000 C 
BRANCH   5   6
ATOM      6  C   UNL     1      61.498  36.199  60.852  1.00  0.00     0.000 C 
BRANCH   6   7
ATOM      7  C   UNL     1      61.005  34.927  60.128  1.00  0.00     0.000 C 
BRANCH   7   8
ATOM      8  C   UNL     1      61.057  35.037  58.592  1.00  0.00     0.006 C 
BRANCH   8   9
ATOM      9  C   UNL     1      61.908  33.952  57.917  1.00  0.00     0.053 C 
BRANCH   9  10
ATOM     10  C   UNL     1      63.150  34.523  57.302  1.00  0.00     0.041 C 
ATOM     11  O   UNL     1      63.277  35.769  57.164  1.00  0.00    -0.550 OA
ATOM     12  O   UNL     1      64.161  33.677  56.861  1.00  0.00    -0.550 OA
ENDBRANCH   9  10
ENDBRANCH   8   9
ENDBRANCH   7   8
ENDBRANCH   6   7
ENDBRANCH   5   6
ENDBRANCH   4   5
ENDBRANCH   3   4
ENDBRANCH   1   3
BRANCH   2  13
ATOM     13  C   UNL     1      63.817  31.114  60.034  1.00  0.00     0.027 C 
BRANCH  13  14
ATOM     14  C   UNL     1      63.768  30.410  61.397  1.00  0.00     0.004 C 
BRANCH  14  15
ATOM     15  C   UNL     1      62.365  29.870  61.717  1.00  0.00     0.000 C 
BRANCH  15  16
ATOM     16  C   UNL     1      61.269  30.937  61.560  1.00  0.00     0.000 C 
BRANCH  16  17
ATOM     17  C   UNL     1      60.066  30.439  60.741  1.00  0.00    -0.000 C 
BRANCH  17  18
ATOM     18  C   UNL     1      59.957  31.151  59.375  1.00  0.00    -0.000 C 
BRANCH  18  19
ATOM     19  C   UNL     1      60.683  30.410  58.238  1.00  0.00    -0.003 C 
ATOM     20  C   UNL     1      60.726  28.897  58.441  1.00  0.00     0.004 C 
ENDBRANCH  18  19
ENDBRANCH  17  18
ENDBRANCH  16  17
ENDBRANCH  15  16
ENDBRANCH  14  15
ENDBRANCH  13  14
ENDBRANCH   2  13
TORSDOF 15
ENDMDL
MODEL 7
REMARK VINA RESULT:    -3.313      2.757      6.346
REMARK INTER + INTRA:          -8.709
REMARK INTER:                  -6.266
REMARK INTRA:                  -2.443
REMARK UNBOUND:                -2.490
REMARK SMILES CCCCCCCCC=CCCCCCCCC(=O)[O-]
REMARK SMILES IDX 10 1 9 2 11 3 12 4 13 5 14 6 15 7 16 8 17 9 18 10 19 11
REMARK SMILES IDX 20 12 8 13 7 14 6 15 5 16 4 17 3 18 2 19 1 20
REMARK H PARENT
REMARK Flexibility Score: inf
ROOT
ATOM      1  C   UNL     1      63.150  33.004  59.811  1.00  0.00    -0.031 C 
ATOM      2  C   UNL     1      62.225  32.661  60.721  1.00  0.00    -0.031 C 
ENDROOT
BRANCH   1   3
ATOM      3  C   UNL     1      64.500  33.523  60.221  1.00  0.00     0.027 C 
BRANCH   3   4
ATOM      4  C   UNL     1      64.365  34.737  61.150  1.00  0.00     0.004 C 
BRANCH   4   5
ATOM      5  C   UNL     1      63.897  36.000  60.410  1.00  0.00     0.000 C 
BRANCH   5   6
ATOM      6  C   UNL     1      62.803  36.763  61.174  1.00  0.00     0.000 C 
BRANCH   6   7
ATOM      7  C   UNL     1      61.390  36.214  60.876  1.00  0.00     0.000 C 
BRANCH   7   8
ATOM      8  C   UNL     1      61.120  36.002  59.374  1.00  0.00     0.006 C 
BRANCH   8   9
ATOM      9  C   UNL     1      59.630  35.943  59.010  1.00  0.00     0.053 C 
BRANCH   9  10
ATOM     10  C   UNL     1      59.352  34.899  57.970  1.00  0.00     0.041 C 
ATOM     11  O   UNL     1      58.647  33.894  58.251  1.00  0.00    -0.550 OA
ATOM     12  O   UNL     1      59.890  35.026  56.696  1.00  0.00    -0.550 OA
ENDBRANCH   9  10
ENDBRANCH   8   9
ENDBRANCH   7   8
ENDBRANCH   6   7
ENDBRANCH   5   6
ENDBRANCH   4   5
ENDBRANCH   3   4
ENDBRANCH   1   3
BRANCH   2  13
ATOM     13  C   UNL     1      60.894  32.085  60.320  1.00  0.00     0.027 C 
BRANCH  13  14
ATOM     14  C   UNL     1      60.613  30.760  61.041  1.00  0.00     0.004 C 
BRANCH  14  15
ATOM     15  C   UNL     1      61.870  30.197  61.725  1.00  0.00     0.000 C 
BRANCH  15  16
ATOM     16  C   UNL     1      62.303  28.842  61.144  1.00  0.00     0.000 C 
BRANCH  16  17
ATOM     17  C   UNL     1      62.180  28.784  59.611  1.00  0.00    -0.000 C 
BRANCH  17  18
ATOM     18  C   UNL     1      63.509  29.129  58.907  1.00  0.00    -0.000 C 
BRANCH  18  19
ATOM     19  C   UNL     1      64.753  28.822  59.759  1.00  0.00    -0.003 C 
ATOM     20  C   UNL     1      65.645  30.042  59.977  1.00  0.00     0.004 C 
ENDBRANCH  18  19
ENDBRANCH  17  18
ENDBRANCH  16  17
ENDBRANCH  15  16
ENDBRANCH  14  15
ENDBRANCH  13  14
ENDBRANCH   2  13
TORSDOF 15
ENDMDL
MODEL 8
REMARK VINA RESULT:    -3.296     10.066     12.262
REMARK INTER + INTRA:          -8.678
REMARK INTER:                  -6.089
REMARK INTRA:                  -2.589
REMARK UNBOUND:                -2.490
REMARK SMILES CCCCCCCCC=CCCCCCCCC(=O)[O-]
REMARK SMILES IDX 10 1 9 2 11 3 12 4 13 5 14 6 15 7 16 8 17 9 18 10 19 11
REMARK SMILES IDX 20 12 8 13 7 14 6 15 5 16 4 17 3 18 2 19 1 20
REMARK H PARENT
REMARK Flexibility Score: inf
ROOT
ATOM      1  C   UNL     1      59.083  25.833  49.841  1.00  0.00    -0.031 C 
ATOM      2  C   UNL     1      59.388  27.089  50.204  1.00  0.00    -0.031 C 
ENDROOT
BRANCH   1   3
ATOM      3  C   UNL     1      59.258  24.679  50.787  1.00  0.00     0.027 C 
BRANCH   3   4
ATOM      4  C   UNL     1      60.714  24.189  50.797  1.00  0.00     0.004 C 
BRANCH   4   5
ATOM      5  C   UNL     1      61.445  24.532  52.105  1.00  0.00     0.000 C 
BRANCH   5   6
ATOM      6  C   UNL     1      62.669  25.435  51.879  1.00  0.00     0.000 C 
BRANCH   6   7
ATOM      7  C   UNL     1      62.892  25.753  50.384  1.00  0.00     0.000 C 
BRANCH   7   8
ATOM      8  C   UNL     1      62.998  27.261  50.088  1.00  0.00     0.006 C 
BRANCH   8   9
ATOM      9  C   UNL     1      63.104  28.139  51.343  1.00  0.00     0.053 C 
BRANCH   9  10
ATOM     10  C   UNL     1      62.177  29.315  51.279  1.00  0.00     0.041 C 
ATOM     11  O   UNL     1      61.290  29.475  52.160  1.00  0.00    -0.550 OA
ATOM     12  O   UNL     1      62.278  30.224  50.234  1.00  0.00    -0.550 OA
ENDBRANCH   9  10
ENDBRANCH   8   9
ENDBRANCH   7   8
ENDBRANCH   6   7
ENDBRANCH   5   6
ENDBRANCH   4   5
ENDBRANCH   3   4
ENDBRANCH   1   3
BRANCH   2  13
ATOM     13  C   UNL     1      59.159  28.257  49.283  1.00  0.00     0.027 C 
BRANCH  13  14
ATOM     14  C   UNL     1      58.372  29.377  49.977  1.00  0.00     0.004 C 
BRANCH  14  15
ATOM     15  C   UNL     1      57.903  28.966  51.383  1.00  0.00     0.000 C 
BRANCH  15  16
ATOM     16  C   UNL     1      56.377  29.052  51.546  1.00  0.00     0.000 C 
BRANCH  16  17
ATOM     17  C   UNL     1      55.620  28.142  50.562  1.00  0.00    -0.000 C 
BRANCH  17  18
ATOM     18  C   UNL     1      55.497  26.695  51.085  1.00  0.00    -0.000 C 
BRANCH  18  19
ATOM     19  C   UNL     1      55.440  25.641  49.966  1.00  0.00    -0.003 C 
ATOM     20  C   UNL     1      54.038  25.454  49.390  1.00  0.00     0.004 C 
ENDBRANCH  18  19
ENDBRANCH  17  18
ENDBRANCH  16  17
ENDBRANCH  15  16
ENDBRANCH  14  15
ENDBRANCH  13  14
ENDBRANCH   2  13
TORSDOF 15
ENDMDL
MODEL 9
REMARK VINA RESULT:    -3.239      3.954      6.859
REMARK INTER + INTRA:          -8.570
REMARK INTER:                  -5.664
REMARK INTRA:                  -2.906
REMARK UNBOUND:                -2.490
REMARK SMILES CCCCCCCCC=CCCCCCCCC(=O)[O-]
REMARK SMILES IDX 10 1 9 2 11 3 12 4 13 5 14 6 15 7 16 8 17 9 18 10 19 11
REMARK SMILES IDX 20 12 8 13 7 14 6 15 5 16 4 17 3 18 2 19 1 20
REMARK H PARENT
REMARK Flexibility Score: inf
ROOT
ATOM      1  C   UNL     1      60.224  32.348  57.823  1.00  0.00    -0.031 C 
ATOM      2  C   UNL     1      61.533  32.454  57.545  1.00  0.00    -0.031 C 
ENDROOT
BRANCH   1   3
ATOM      3  C   UNL     1      59.329  33.556  57.859  1.00  0.00     0.027 C 
BRANCH   3   4
ATOM      4  C   UNL     1      60.134  34.831  58.150  1.00  0.00     0.004 C 
BRANCH   4   5
ATOM      5  C   UNL     1      59.756  35.475  59.493  1.00  0.00     0.000 C 
BRANCH   5   6
ATOM      6  C   UNL     1      60.969  35.676  60.416  1.00  0.00     0.000 C 
BRANCH   6   7
ATOM      7  C   UNL     1      61.812  34.390  60.560  1.00  0.00     0.000 C 
BRANCH   7   8
ATOM      8  C   UNL     1      63.273  34.560  60.101  1.00  0.00     0.006 C 
BRANCH   8   9
ATOM      9  C   UNL     1      64.303  34.427  61.233  1.00  0.00     0.053 C 
BRANCH   9  10
ATOM     10  C   UNL     1      65.181  35.638  61.330  1.00  0.00     0.041 C 
ATOM     11  O   UNL     1      65.187  36.338  62.377  1.00  0.00    -0.550 OA
ATOM     12  O   UNL     1      65.980  36.005  60.254  1.00  0.00    -0.550 OA
ENDBRANCH   9  10
ENDBRANCH   8   9
ENDBRANCH   7   8
ENDBRANCH   6   7
ENDBRANCH   5   6
ENDBRANCH   4   5
ENDBRANCH   3   4
ENDBRANCH   1   3
BRANCH   2  13
ATOM     13  C   UNL     1      62.422  31.244  57.449  1.00  0.00     0.027 C 
BRANCH  13  14
ATOM     14  C   UNL     1      63.624  31.351  58.398  1.00  0.00     0.004 C 
BRANCH  14  15
ATOM     15  C   UNL     1      63.589  30.275  59.496  1.00  0.00     0.000 C 
BRANCH  15  16
ATOM     16  C   UNL     1      63.374  30.867  60.898  1.00  0.00     0.000 C 
BRANCH  16  17
ATOM     17  C   UNL     1      62.159  30.261  61.621  1.00  0.00    -0.000 C 
BRANCH  17  18
ATOM     18  C   UNL     1      60.835  30.934  61.199  1.00  0.00    -0.000 C 
BRANCH  18  19
ATOM     19  C   UNL     1      59.745  29.935  60.776  1.00  0.00    -0.003 C 
ATOM     20  C   UNL     1      60.151  29.079  59.578  1.00  0.00     0.004 C 
ENDBRANCH  18  19
ENDBRANCH  17  18
ENDBRANCH  16  17
ENDBRANCH  15  16
ENDBRANCH  14  15
ENDBRANCH  13  14
ENDBRANCH   2  13
TORSDOF 15
ENDMDL
