MODEL 1
REMARK VINA RESULT:    13.899      0.000      0.000
REMARK INTER + INTRA:          16.421
REMARK INTER:                  16.743
REMARK INTRA:                  -0.323
REMARK UNBOUND:                -0.323
REMARK SMILES O=c1c(O)c(-c2ccc(O)c(O)c2)oc2cc(O)cc(O)c12
REMARK SMILES IDX 5 1 3 2 2 3 1 4 22 5 20 6 19 7 17 8 16 9 15 10 14 11 6 12
REMARK SMILES IDX 7 13 8 14 9 15 13 16 11 17 10 18 12 20 4 22 21 24 18 26
REMARK H PARENT 10 19 12 21 4 23 21 25 18 27
REMARK Flexibility Score: inf
ROOT
ATOM      1  C   UNL     1     133.628 128.796 128.080  1.00  0.00     0.180 A 
ATOM      2  C   UNL     1     132.541 127.978 127.712  1.00  0.00     0.208 A 
ATOM      3  C   UNL     1     131.599 128.473 126.798  1.00  0.00     0.238 A 
ATOM      4  O   UNL     1     130.628 127.745 126.453  1.00  0.00    -0.285 OA
ATOM      5  C   UNL     1     131.745 129.777 126.282  1.00  0.00     0.111 A 
ATOM      6  C   UNL     1     130.837 130.351 125.360  1.00  0.00     0.134 A 
ATOM      7  C   UNL     1     131.047 131.660 124.901  1.00  0.00     0.093 A 
ATOM      8  C   UNL     1     132.142 132.404 125.346  1.00  0.00     0.123 A 
ATOM      9  C   UNL     1     133.042 131.842 126.256  1.00  0.00     0.094 A 
ATOM     10  C   UNL     1     132.851 130.539 126.724  1.00  0.00     0.146 A 
ATOM     11  O   UNL     1     133.724 130.027 127.585  1.00  0.00    -0.452 OA
ENDROOT
BRANCH   1  12
ATOM     12  C   UNL     1     134.672 128.340 129.024  1.00  0.00     0.025 A 
ATOM     13  C   UNL     1     134.487 128.529 130.403  1.00  0.00     0.016 A 
ATOM     14  C   UNL     1     135.470 128.125 131.311  1.00  0.00     0.051 A 
ATOM     15  C   UNL     1     136.658 127.541 130.853  1.00  0.00     0.157 A 
ATOM     16  C   UNL     1     135.875 127.771 128.568  1.00  0.00     0.062 A 
ATOM     17  C   UNL     1     136.862 127.368 129.474  1.00  0.00     0.158 A 
BRANCH  15  18
ATOM     18  O   UNL     1     137.635 127.137 131.761  1.00  0.00    -0.504 OA
ATOM     19  H   UNL     1     138.598 126.999 131.479  1.00  0.00     0.293 HD
ENDBRANCH  15  18
BRANCH  17  20
ATOM     20  O   UNL     1     138.039 126.803 128.986  1.00  0.00    -0.504 OA
ATOM     21  H   UNL     1     138.723 126.371 129.597  1.00  0.00     0.293 HD
ENDBRANCH  17  20
ENDBRANCH   1  12
BRANCH   2  22
ATOM     22  O   UNL     1     132.393 126.708 128.275  1.00  0.00    -0.502 OA
ATOM     23  H   UNL     1     132.682 126.497 129.222  1.00  0.00     0.293 HD
ENDBRANCH   2  22
BRANCH   6  24
ATOM     24  O   UNL     1     129.733 129.634 124.897  1.00  0.00    -0.507 OA
ATOM     25  H   UNL     1     128.815 129.740 125.315  1.00  0.00     0.293 HD
ENDBRANCH   6  24
BRANCH   8  26
ATOM     26  O   UNL     1     132.326 133.702 124.875  1.00  0.00    -0.508 OA
ATOM     27  H   UNL     1     133.160 133.967 124.362  1.00  0.00     0.293 HD
ENDBRANCH   8  26
TORSDOF 6
ENDMDL
MODEL 2
REMARK VINA RESULT:    14.436      2.094      7.422
REMARK INTER + INTRA:          17.067
REMARK INTER:                  17.062
REMARK INTRA:                   0.005
REMARK UNBOUND:                -0.323
REMARK SMILES O=c1c(O)c(-c2ccc(O)c(O)c2)oc2cc(O)cc(O)c12
REMARK SMILES IDX 5 1 3 2 2 3 1 4 22 5 20 6 19 7 17 8 16 9 15 10 14 11 6 12
REMARK SMILES IDX 7 13 8 14 9 15 13 16 11 17 10 18 12 20 4 22 21 24 18 26
REMARK H PARENT 10 19 12 21 4 23 21 25 18 27
REMARK Flexibility Score: inf
ROOT
ATOM      1  C   UNL     1     135.654 128.270 129.420  1.00  0.00     0.180 A 
ATOM      2  C   UNL     1     135.503 127.801 130.741  1.00  0.00     0.208 A 
ATOM      3  C   UNL     1     136.649 127.607 131.527  1.00  0.00     0.238 A 
ATOM      4  O   UNL     1     136.525 127.199 132.714  1.00  0.00    -0.285 OA
ATOM      5  C   UNL     1     137.922 127.865 130.980  1.00  0.00     0.111 A 
ATOM      6  C   UNL     1     139.127 127.692 131.704  1.00  0.00     0.134 A 
ATOM      7  C   UNL     1     140.356 127.960 131.085  1.00  0.00     0.093 A 
ATOM      8  C   UNL     1     140.405 128.396 129.759  1.00  0.00     0.123 A 
ATOM      9  C   UNL     1     139.219 128.570 129.038  1.00  0.00     0.094 A 
ATOM     10  C   UNL     1     137.984 128.309 129.638  1.00  0.00     0.146 A 
ATOM     11  O   UNL     1     136.873 128.487 128.933  1.00  0.00    -0.452 OA
ENDROOT
BRANCH   1  12
ATOM     12  C   UNL     1     134.494 128.516 128.535  1.00  0.00     0.025 A 
ATOM     13  C   UNL     1     133.548 127.498 128.336  1.00  0.00     0.016 A 
ATOM     14  C   UNL     1     132.457 127.701 127.488  1.00  0.00     0.051 A 
ATOM     15  C   UNL     1     132.303 128.920 126.814  1.00  0.00     0.157 A 
ATOM     16  C   UNL     1     134.347 129.730 127.840  1.00  0.00     0.062 A 
ATOM     17  C   UNL     1     133.257 129.936 126.988  1.00  0.00     0.158 A 
BRANCH  15  18
ATOM     18  O   UNL     1     131.212 129.120 125.970  1.00  0.00    -0.504 OA
ATOM     19  H   UNL     1     130.279 128.822 126.229  1.00  0.00     0.293 HD
ENDBRANCH  15  18
BRANCH  17  20
ATOM     20  O   UNL     1     133.140 131.154 126.319  1.00  0.00    -0.504 OA
ATOM     21  H   UNL     1     132.628 131.936 126.710  1.00  0.00     0.293 HD
ENDBRANCH  17  20
ENDBRANCH   1  12
BRANCH   2  22
ATOM     22  O   UNL     1     134.233 127.507 131.243  1.00  0.00    -0.502 OA
ATOM     23  H   UNL     1     133.473 128.175 131.220  1.00  0.00     0.293 HD
ENDBRANCH   2  22
BRANCH   6  24
ATOM     24  O   UNL     1     139.110 127.256 133.030  1.00  0.00    -0.507 OA
ATOM     25  H   UNL     1     139.185 127.905 133.805  1.00  0.00     0.293 HD
ENDBRANCH   6  24
BRANCH   8  26
ATOM     26  O   UNL     1     141.639 128.655 129.167  1.00  0.00    -0.508 OA
ATOM     27  H   UNL     1     142.258 127.904 128.880  1.00  0.00     0.293 HD
ENDBRANCH   8  26
TORSDOF 6
ENDMDL
MODEL 3
REMARK VINA RESULT:    15.936      2.004      7.647
REMARK INTER + INTRA:          18.873
REMARK INTER:                  18.840
REMARK INTRA:                   0.033
REMARK UNBOUND:                -0.323
REMARK SMILES O=c1c(O)c(-c2ccc(O)c(O)c2)oc2cc(O)cc(O)c12
REMARK SMILES IDX 5 1 3 2 2 3 1 4 22 5 20 6 19 7 17 8 16 9 15 10 14 11 6 12
REMARK SMILES IDX 7 13 8 14 9 15 13 16 11 17 10 18 12 20 4 22 21 24 18 26
REMARK H PARENT 10 19 12 21 4 23 21 25 18 27
REMARK Flexibility Score: inf
ROOT
ATOM      1  C   UNL     1     135.810 128.441 128.816  1.00  0.00     0.180 A 
ATOM      2  C   UNL     1     136.971 128.730 128.072  1.00  0.00     0.208 A 
ATOM      3  C   UNL     1     138.224 128.590 128.688  1.00  0.00     0.238 A 
ATOM      4  O   UNL     1     139.270 128.835 128.028  1.00  0.00    -0.285 OA
ATOM      5  C   UNL     1     138.296 128.184 130.036  1.00  0.00     0.111 A 
ATOM      6  C   UNL     1     139.519 128.022 130.732  1.00  0.00     0.134 A 
ATOM      7  C   UNL     1     139.506 127.624 132.077  1.00  0.00     0.093 A 
ATOM      8  C   UNL     1     138.300 127.386 132.738  1.00  0.00     0.123 A 
ATOM      9  C   UNL     1     137.089 127.543 132.057  1.00  0.00     0.094 A 
ATOM     10  C   UNL     1     137.080 127.938 130.716  1.00  0.00     0.146 A 
ATOM     11  O   UNL     1     135.916 128.075 130.090  1.00  0.00    -0.452 OA
ENDROOT
BRANCH   1  12
ATOM     12  C   UNL     1     134.454 128.548 128.232  1.00  0.00     0.025 A 
ATOM     13  C   UNL     1     133.565 127.466 128.346  1.00  0.00     0.016 A 
ATOM     14  C   UNL     1     132.288 127.537 127.784  1.00  0.00     0.051 A 
ATOM     15  C   UNL     1     131.886 128.684 127.086  1.00  0.00     0.157 A 
ATOM     16  C   UNL     1     134.053 129.688 127.513  1.00  0.00     0.062 A 
ATOM     17  C   UNL     1     132.776 129.762 126.946  1.00  0.00     0.158 A 
BRANCH  15  18
ATOM     18  O   UNL     1     130.611 128.753 126.528  1.00  0.00    -0.504 OA
ATOM     19  H   UNL     1     130.157 129.641 126.347  1.00  0.00     0.293 HD
ENDBRANCH  15  18
BRANCH  17  20
ATOM     20  O   UNL     1     132.410 130.910 126.246  1.00  0.00    -0.504 OA
ATOM     21  H   UNL     1     132.833 131.813 126.432  1.00  0.00     0.293 HD
ENDBRANCH  17  20
ENDBRANCH   1  12
BRANCH   2  22
ATOM     22  O   UNL     1     136.870 129.178 126.752  1.00  0.00    -0.502 OA
ATOM     23  H   UNL     1     137.650 129.595 126.260  1.00  0.00     0.293 HD
ENDBRANCH   2  22
BRANCH   6  24
ATOM     24  O   UNL     1     140.741 128.253 130.099  1.00  0.00    -0.507 OA
ATOM     25  H   UNL     1     140.798 128.740 129.212  1.00  0.00     0.293 HD
ENDBRANCH   6  24
BRANCH   8  26
ATOM     26  O   UNL     1     138.316 126.993 134.074  1.00  0.00    -0.508 OA
ATOM     27  H   UNL     1     138.332 127.672 134.827  1.00  0.00     0.293 HD
ENDBRANCH   8  26
TORSDOF 6
ENDMDL
