MODEL 1
REMARK VINA RESULT:    39.426      0.000      0.000
REMARK INTER + INTRA:          47.289
REMARK INTER:                  47.492
REMARK INTRA:                  -0.203
REMARK UNBOUND:                -0.203
REMARK SMILES Oc1cc(O)c2cc(O)c(-c3ccc(O)c(O)c3)[o+]c2c1.[Cl-]
REMARK SMILES IDX 10 1 19 2 20 3 21 4 2 5 3 6 4 7 6 8 7 9 8 10 11 11 12 12
REMARK SMILES IDX 13 13 14 14 18 15 16 16 15 17 17 19 9 21 1 23 5 25
REMARK H PARENT 15 18 17 20 9 22 1 24 5 26
REMARK Flexibility Score: inf
ROOT
ATOM      1  C   UNL     1      -9.799  23.029 -22.621  1.00  0.00     0.402 A 
ATOM      2  O   UNL     1      -9.165  23.829 -23.473  1.00  0.00    -0.202 OA
ATOM      3  C   UNL     1      -9.758  24.829 -24.117  1.00  0.00     0.368 A 
ATOM      4  C   UNL     1      -9.006  25.616 -24.991  1.00  0.00     0.162 A 
ATOM      5  C   UNL     1      -9.606  26.676 -25.679  1.00  0.00     0.128 A 
ATOM      6  C   UNL     1     -10.962  26.949 -25.491  1.00  0.00     0.093 A 
ATOM      7  C   UNL     1     -11.738  26.174 -24.619  1.00  0.00     0.136 A 
ATOM      8  C   UNL     1     -11.134  25.096 -23.921  1.00  0.00     0.125 A 
ATOM      9  C   UNL     1     -11.837  24.259 -23.039  1.00  0.00     0.078 A 
ATOM     10  C   UNL     1     -11.176  23.211 -22.390  1.00  0.00     0.223 A 
ENDROOT
BRANCH   1  11
ATOM     11  C   UNL     1      -9.025  21.956 -21.957  1.00  0.00     0.087 A 
ATOM     12  C   UNL     1      -9.291  20.614 -22.277  1.00  0.00     0.022 A 
ATOM     13  C   UNL     1      -8.558  19.585 -21.680  1.00  0.00     0.051 A 
ATOM     14  C   UNL     1      -7.539  19.884 -20.765  1.00  0.00     0.157 A 
ATOM     15  C   UNL     1      -7.987  22.251 -21.055  1.00  0.00     0.068 A 
ATOM     16  C   UNL     1      -7.250  21.218 -20.456  1.00  0.00     0.158 A 
BRANCH  14  17
ATOM     17  O   UNL     1      -6.807  18.861 -20.165  1.00  0.00    -0.504 OA
ATOM     18  H   UNL     1      -5.867  19.015 -19.819  1.00  0.00     0.293 HD
ENDBRANCH  14  17
BRANCH  16  19
ATOM     19  O   UNL     1      -6.226  21.512 -19.557  1.00  0.00    -0.504 OA
ATOM     20  H   UNL     1      -5.825  20.798 -18.960  1.00  0.00     0.293 HD
ENDBRANCH  16  19
ENDBRANCH   1  11
BRANCH  10  21
ATOM     21  O   UNL     1     -11.884  22.350 -21.552  1.00  0.00    -0.500 OA
ATOM     22  H   UNL     1     -12.880  22.450 -21.405  1.00  0.00     0.294 HD
ENDBRANCH  10  21
BRANCH   5  23
ATOM     23  O   UNL     1      -8.861  27.466 -26.553  1.00  0.00    -0.507 OA
ATOM     24  H   UNL     1      -8.207  28.162 -26.213  1.00  0.00     0.293 HD
ENDBRANCH   5  23
BRANCH   7  25
ATOM     25  O   UNL     1     -13.086  26.515 -24.483  1.00  0.00    -0.507 OA
ATOM     26  H   UNL     1     -13.544  27.251 -25.000  1.00  0.00     0.293 HD
ENDBRANCH   7  25
TORSDOF 6
ENDMDL
MODEL 2
REMARK VINA RESULT:    40.069      7.894     12.602
REMARK INTER + INTRA:          48.064
REMARK INTER:                  48.232
REMARK INTRA:                  -0.168
REMARK UNBOUND:                -0.203
REMARK SMILES Oc1cc(O)c2cc(O)c(-c3ccc(O)c(O)c3)[o+]c2c1.[Cl-]
REMARK SMILES IDX 10 1 19 2 20 3 21 4 2 5 3 6 4 7 6 8 7 9 8 10 11 11 12 12
REMARK SMILES IDX 13 13 14 14 18 15 16 16 15 17 17 19 9 21 1 23 5 25
REMARK H PARENT 15 18 17 20 9 22 1 24 5 26
REMARK Flexibility Score: inf
ROOT
ATOM      1  C   UNL     1      -2.909  15.870 -19.125  1.00  0.00     0.402 A 
ATOM      2  O   UNL     1      -2.541  15.100 -20.146  1.00  0.00    -0.202 OA
ATOM      3  C   UNL     1      -1.311  14.617 -20.290  1.00  0.00     0.368 A 
ATOM      4  C   UNL     1      -1.022  13.813 -21.395  1.00  0.00     0.162 A 
ATOM      5  C   UNL     1       0.263  13.290 -21.569  1.00  0.00     0.128 A 
ATOM      6  C   UNL     1       1.261  13.571 -20.634  1.00  0.00     0.093 A 
ATOM      7  C   UNL     1       0.996  14.374 -19.517  1.00  0.00     0.136 A 
ATOM      8  C   UNL     1      -0.307  14.909 -19.337  1.00  0.00     0.125 A 
ATOM      9  C   UNL     1      -0.659  15.733 -18.256  1.00  0.00     0.078 A 
ATOM     10  C   UNL     1      -1.962  16.229 -18.148  1.00  0.00     0.223 A 
ENDROOT
BRANCH   1  11
ATOM     11  C   UNL     1      -4.313  16.338 -19.072  1.00  0.00     0.087 A 
ATOM     12  C   UNL     1      -5.117  15.985 -17.976  1.00  0.00     0.022 A 
ATOM     13  C   UNL     1      -6.438  16.432 -17.893  1.00  0.00     0.051 A 
ATOM     14  C   UNL     1      -6.969  17.251 -18.898  1.00  0.00     0.157 A 
ATOM     15  C   UNL     1      -4.845  17.177 -20.067  1.00  0.00     0.068 A 
ATOM     16  C   UNL     1      -6.170  17.628 -19.984  1.00  0.00     0.158 A 
BRANCH  14  17
ATOM     17  O   UNL     1      -8.287  17.698 -18.821  1.00  0.00    -0.504 OA
ATOM     18  H   UNL     1      -8.527  18.671 -18.975  1.00  0.00     0.293 HD
ENDBRANCH  14  17
BRANCH  16  19
ATOM     19  O   UNL     1      -6.698  18.455 -20.975  1.00  0.00    -0.504 OA
ATOM     20  H   UNL     1      -7.523  19.019 -20.809  1.00  0.00     0.293 HD
ENDBRANCH  16  19
ENDBRANCH   1  11
BRANCH  10  21
ATOM     21  O   UNL     1      -2.300  17.087 -17.102  1.00  0.00    -0.500 OA
ATOM     22  H   UNL     1      -3.262  17.234 -16.824  1.00  0.00     0.294 HD
ENDBRANCH  10  21
BRANCH   5  23
ATOM     23  O   UNL     1       0.559  12.488 -22.669  1.00  0.00    -0.507 OA
ATOM     24  H   UNL     1      -0.129  11.861 -23.069  1.00  0.00     0.293 HD
ENDBRANCH   5  23
BRANCH   7  25
ATOM     25  O   UNL     1       2.047  14.604 -18.625  1.00  0.00    -0.507 OA
ATOM     26  H   UNL     1       1.939  15.012 -17.708  1.00  0.00     0.293 HD
ENDBRANCH   7  25
TORSDOF 6
ENDMDL
