MODEL 1
REMARK VINA RESULT:    -4.213      0.000      0.000
REMARK INTER + INTRA:         -13.657
REMARK INTER:                  -9.631
REMARK INTRA:                  -4.026
REMARK UNBOUND:                -4.026
REMARK SMILES CCCCCCCCCCCCCCCCCCCCCCCC(=O)[O-]
REMARK SMILES IDX 13 1 14 2 15 3 16 4 17 5 18 6 19 7 20 8 21 9 22 10 23 11
REMARK SMILES IDX 24 12 25 13 26 14 12 15 11 16 10 17 9 18 8 19 7 20 6 21 5 22
REMARK SMILES IDX 4 23 3 24 2 25 1 26
REMARK H PARENT
REMARK Flexibility Score: inf
ROOT
ATOM      1  C   UNL     1     -21.610  14.055  14.484  1.00  0.00     0.000 C 
ENDROOT
BRANCH   1   2
ATOM      2  C   UNL     1     -22.818  14.643  15.233  1.00  0.00     0.000 C 
BRANCH   2   3
ATOM      3  C   UNL     1     -22.931  14.114  16.672  1.00  0.00     0.000 C 
BRANCH   3   4
ATOM      4  C   UNL     1     -23.726  15.085  17.553  1.00  0.00     0.000 C 
BRANCH   4   5
ATOM      5  C   UNL     1     -23.289  16.537  17.302  1.00  0.00     0.000 C 
BRANCH   5   6
ATOM      6  C   UNL     1     -22.187  16.998  18.274  1.00  0.00     0.000 C 
BRANCH   6   7
ATOM      7  C   UNL     1     -21.030  17.767  17.595  1.00  0.00     0.000 C 
BRANCH   7   8
ATOM      8  C   UNL     1     -20.142  16.886  16.697  1.00  0.00     0.000 C 
BRANCH   8   9
ATOM      9  C   UNL     1     -19.350  17.650  15.618  1.00  0.00     0.000 C 
BRANCH   9  10
ATOM     10  C   UNL     1     -18.674  16.764  14.555  1.00  0.00     0.006 C 
BRANCH  10  11
ATOM     11  C   UNL     1     -19.452  16.710  13.234  1.00  0.00     0.053 C 
BRANCH  11  12
ATOM     12  C   UNL     1     -18.959  17.762  12.291  1.00  0.00     0.041 C 
ATOM     13  O   UNL     1     -17.864  18.346  12.507  1.00  0.00    -0.550 OA
ATOM     14  O   UNL     1     -19.696  18.077  11.157  1.00  0.00    -0.550 OA
ENDBRANCH  11  12
ENDBRANCH  10  11
ENDBRANCH   9  10
ENDBRANCH   8   9
ENDBRANCH   7   8
ENDBRANCH   6   7
ENDBRANCH   5   6
ENDBRANCH   4   5
ENDBRANCH   3   4
ENDBRANCH   2   3
ENDBRANCH   1   2
BRANCH   1  15
ATOM     15  C   UNL     1     -20.713  13.204  15.398  1.00  0.00     0.000 C 
BRANCH  15  16
ATOM     16  C   UNL     1     -19.216  13.413  15.121  1.00  0.00     0.000 C 
BRANCH  16  17
ATOM     17  C   UNL     1     -18.348  13.265  16.380  1.00  0.00     0.000 C 
BRANCH  17  18
ATOM     18  C   UNL     1     -19.184  13.483  17.650  1.00  0.00    -0.000 C 
BRANCH  18  19
ATOM     19  C   UNL     1     -19.074  12.315  18.645  1.00  0.00    -0.000 C 
BRANCH  19  20
ATOM     20  C   UNL     1     -19.989  11.112  18.339  1.00  0.00    -0.000 C 
BRANCH  20  21
ATOM     21  C   UNL     1     -19.265   9.852  17.823  1.00  0.00    -0.000 C 
BRANCH  21  22
ATOM     22  C   UNL     1     -19.785   9.301  16.483  1.00  0.00    -0.000 C 
BRANCH  22  23
ATOM     23  C   UNL     1     -18.958   9.780  15.278  1.00  0.00    -0.000 C 
BRANCH  23  24
ATOM     24  C   UNL     1     -19.751   9.722  13.962  1.00  0.00    -0.000 C 
BRANCH  24  25
ATOM     25  C   UNL     1     -19.150  10.619  12.871  1.00  0.00    -0.003 C 
ATOM     26  C   UNL     1     -17.637  10.740  13.031  1.00  0.00     0.004 C 
ENDBRANCH  24  25
ENDBRANCH  23  24
ENDBRANCH  22  23
ENDBRANCH  21  22
ENDBRANCH  20  21
ENDBRANCH  19  20
ENDBRANCH  18  19
ENDBRANCH  17  18
ENDBRANCH  16  17
ENDBRANCH  15  16
ENDBRANCH   1  15
TORSDOF 22
ENDMDL
MODEL 2
REMARK VINA RESULT:    -4.207      3.934      7.600
REMARK INTER + INTRA:         -13.643
REMARK INTER:                  -9.551
REMARK INTRA:                  -4.092
REMARK UNBOUND:                -4.026
REMARK SMILES CCCCCCCCCCCCCCCCCCCCCCCC(=O)[O-]
REMARK SMILES IDX 13 1 14 2 15 3 16 4 17 5 18 6 19 7 20 8 21 9 22 10 23 11
REMARK SMILES IDX 24 12 25 13 26 14 12 15 11 16 10 17 9 18 8 19 7 20 6 21 5 22
REMARK SMILES IDX 4 23 3 24 2 25 1 26
REMARK H PARENT
REMARK Flexibility Score: inf
ROOT
ATOM      1  C   UNL     1     -18.682  10.705  13.282  1.00  0.00     0.000 C 
ENDROOT
BRANCH   1   2
ATOM      2  C   UNL     1     -19.928  10.279  12.487  1.00  0.00     0.000 C 
BRANCH   2   3
ATOM      3  C   UNL     1     -20.557   8.986  13.030  1.00  0.00     0.000 C 
BRANCH   3   4
ATOM      4  C   UNL     1     -20.210   8.786  14.511  1.00  0.00     0.000 C 
BRANCH   4   5
ATOM      5  C   UNL     1     -21.326   8.016  15.235  1.00  0.00     0.000 C 
BRANCH   5   6
ATOM      6  C   UNL     1     -22.375   8.951  15.864  1.00  0.00     0.000 C 
BRANCH   6   7
ATOM      7  C   UNL     1     -21.784  10.242  16.475  1.00  0.00     0.000 C 
BRANCH   7   8
ATOM      8  C   UNL     1     -21.451  10.124  17.974  1.00  0.00     0.000 C 
BRANCH   8   9
ATOM      9  C   UNL     1     -19.978  10.399  18.336  1.00  0.00     0.000 C 
BRANCH   9  10
ATOM     10  C   UNL     1     -18.982   9.312  17.890  1.00  0.00     0.006 C 
BRANCH  10  11
ATOM     11  C   UNL     1     -19.252   7.948  18.539  1.00  0.00     0.053 C 
BRANCH  11  12
ATOM     12  C   UNL     1     -17.977   7.340  19.033  1.00  0.00     0.041 C 
ATOM     13  O   UNL     1     -17.992   6.522  19.991  1.00  0.00    -0.550 OA
ATOM     14  O   UNL     1     -16.773   7.657  18.417  1.00  0.00    -0.550 OA
ENDBRANCH  11  12
ENDBRANCH  10  11
ENDBRANCH   9  10
ENDBRANCH   8   9
ENDBRANCH   7   8
ENDBRANCH   6   7
ENDBRANCH   5   6
ENDBRANCH   4   5
ENDBRANCH   3   4
ENDBRANCH   2   3
ENDBRANCH   1   2
BRANCH   1  15
ATOM     15  C   UNL     1     -18.726  12.189  13.687  1.00  0.00     0.000 C 
BRANCH  15  16
ATOM     16  C   UNL     1     -19.425  12.414  15.037  1.00  0.00     0.000 C 
BRANCH  16  17
ATOM     17  C   UNL     1     -18.500  13.037  16.094  1.00  0.00     0.000 C 
BRANCH  17  18
ATOM     18  C   UNL     1     -19.311  13.806  17.146  1.00  0.00    -0.000 C 
BRANCH  18  19
ATOM     19  C   UNL     1     -20.782  14.004  16.738  1.00  0.00    -0.000 C 
BRANCH  19  20
ATOM     20  C   UNL     1     -21.270  15.466  16.753  1.00  0.00    -0.000 C 
BRANCH  20  21
ATOM     21  C   UNL     1     -20.385  16.444  17.552  1.00  0.00    -0.000 C 
BRANCH  21  22
ATOM     22  C   UNL     1     -19.660  17.509  16.709  1.00  0.00    -0.000 C 
BRANCH  22  23
ATOM     23  C   UNL     1     -19.945  17.374  15.203  1.00  0.00    -0.000 C 
BRANCH  23  24
ATOM     24  C   UNL     1     -18.663  17.165  14.380  1.00  0.00    -0.000 C 
BRANCH  24  25
ATOM     25  C   UNL     1     -18.710  15.889  13.528  1.00  0.00    -0.003 C 
ATOM     26  C   UNL     1     -20.144  15.544  13.135  1.00  0.00     0.004 C 
ENDBRANCH  24  25
ENDBRANCH  23  24
ENDBRANCH  22  23
ENDBRANCH  21  22
ENDBRANCH  20  21
ENDBRANCH  19  20
ENDBRANCH  18  19
ENDBRANCH  17  18
ENDBRANCH  16  17
ENDBRANCH  15  16
ENDBRANCH   1  15
TORSDOF 22
ENDMDL
MODEL 3
REMARK VINA RESULT:    -4.158      2.311      5.940
REMARK INTER + INTRA:         -13.532
REMARK INTER:                  -9.286
REMARK INTRA:                  -4.246
REMARK UNBOUND:                -4.026
REMARK SMILES CCCCCCCCCCCCCCCCCCCCCCCC(=O)[O-]
REMARK SMILES IDX 13 1 14 2 15 3 16 4 17 5 18 6 19 7 20 8 21 9 22 10 23 11
REMARK SMILES IDX 24 12 25 13 26 14 12 15 11 16 10 17 9 18 8 19 7 20 6 21 5 22
REMARK SMILES IDX 4 23 3 24 2 25 1 26
REMARK H PARENT
REMARK Flexibility Score: inf
ROOT
ATOM      1  C   UNL     1     -18.378  15.290  14.431  1.00  0.00     0.000 C 
ENDROOT
BRANCH   1   2
ATOM      2  C   UNL     1     -18.698  13.944  15.102  1.00  0.00     0.000 C 
BRANCH   2   3
ATOM      3  C   UNL     1     -20.190  13.798  15.442  1.00  0.00     0.000 C 
BRANCH   3   4
ATOM      4  C   UNL     1     -20.385  13.447  16.922  1.00  0.00     0.000 C 
BRANCH   4   5
ATOM      5  C   UNL     1     -19.032  13.369  17.649  1.00  0.00     0.000 C 
BRANCH   5   6
ATOM      6  C   UNL     1     -19.016  12.292  18.750  1.00  0.00     0.000 C 
BRANCH   6   7
ATOM      7  C   UNL     1     -19.968  11.104  18.483  1.00  0.00     0.000 C 
BRANCH   7   8
ATOM      8  C   UNL     1     -19.327   9.964  17.670  1.00  0.00     0.000 C 
BRANCH   8   9
ATOM      9  C   UNL     1     -19.975   9.702  16.297  1.00  0.00     0.000 C 
BRANCH   9  10
ATOM     10  C   UNL     1     -19.127  10.128  15.084  1.00  0.00     0.006 C 
BRANCH  10  11
ATOM     11  C   UNL     1     -19.737   9.697  13.743  1.00  0.00     0.053 C 
BRANCH  11  12
ATOM     12  C   UNL     1     -19.437  10.708  12.681  1.00  0.00     0.041 C 
ATOM     13  O   UNL     1     -18.536  10.485  11.829  1.00  0.00    -0.550 OA
ATOM     14  O   UNL     1     -20.171  11.885  12.616  1.00  0.00    -0.550 OA
ENDBRANCH  11  12
ENDBRANCH  10  11
ENDBRANCH   9  10
ENDBRANCH   8   9
ENDBRANCH   7   8
ENDBRANCH   6   7
ENDBRANCH   5   6
ENDBRANCH   4   5
ENDBRANCH   3   4
ENDBRANCH   2   3
ENDBRANCH   1   2
BRANCH   1  15
ATOM     15  C   UNL     1     -19.530  16.300  14.565  1.00  0.00     0.000 C 
BRANCH  15  16
ATOM     16  C   UNL     1     -19.059  17.675  15.064  1.00  0.00     0.000 C 
BRANCH  16  17
ATOM     17  C   UNL     1     -19.870  18.186  16.265  1.00  0.00     0.000 C 
BRANCH  17  18
ATOM     18  C   UNL     1     -20.043  17.081  17.317  1.00  0.00    -0.000 C 
BRANCH  18  19
ATOM     19  C   UNL     1     -21.461  17.044  17.915  1.00  0.00    -0.000 C 
BRANCH  19  20
ATOM     20  C   UNL     1     -22.527  16.381  17.020  1.00  0.00    -0.000 C 
BRANCH  20  21
ATOM     21  C   UNL     1     -23.566  15.519  17.766  1.00  0.00    -0.000 C 
BRANCH  21  22
ATOM     22  C   UNL     1     -24.464  14.653  16.865  1.00  0.00    -0.000 C 
BRANCH  22  23
ATOM     23  C   UNL     1     -24.795  13.285  17.487  1.00  0.00    -0.000 C 
BRANCH  23  24
ATOM     24  C   UNL     1     -23.537  12.442  17.754  1.00  0.00    -0.000 C 
BRANCH  24  25
ATOM     25  C   UNL     1     -23.529  11.128  16.962  1.00  0.00    -0.003 C 
ATOM     26  C   UNL     1     -23.149  11.367  15.503  1.00  0.00     0.004 C 
ENDBRANCH  24  25
ENDBRANCH  23  24
ENDBRANCH  22  23
ENDBRANCH  21  22
ENDBRANCH  20  21
ENDBRANCH  19  20
ENDBRANCH  18  19
ENDBRANCH  17  18
ENDBRANCH  16  17
ENDBRANCH  15  16
ENDBRANCH   1  15
TORSDOF 22
ENDMDL
MODEL 4
REMARK VINA RESULT:    -4.142      4.308      7.252
REMARK INTER + INTRA:         -13.495
REMARK INTER:                  -9.114
REMARK INTRA:                  -4.381
REMARK UNBOUND:                -4.026
REMARK SMILES CCCCCCCCCCCCCCCCCCCCCCCC(=O)[O-]
REMARK SMILES IDX 13 1 14 2 15 3 16 4 17 5 18 6 19 7 20 8 21 9 22 10 23 11
REMARK SMILES IDX 24 12 25 13 26 14 12 15 11 16 10 17 9 18 8 19 7 20 6 21 5 22
REMARK SMILES IDX 4 23 3 24 2 25 1 26
REMARK H PARENT
REMARK Flexibility Score: inf
ROOT
ATOM      1  C   UNL     1     -19.326  13.859  15.857  1.00  0.00     0.000 C 
ENDROOT
BRANCH   1   2
ATOM      2  C   UNL     1     -20.013  13.492  17.183  1.00  0.00     0.000 C 
BRANCH   2   3
ATOM      3  C   UNL     1     -19.088  12.707  18.126  1.00  0.00     0.000 C 
BRANCH   3   4
ATOM      4  C   UNL     1     -19.831  11.529  18.768  1.00  0.00     0.000 C 
BRANCH   4   5
ATOM      5  C   UNL     1     -20.977  11.046  17.865  1.00  0.00     0.000 C 
BRANCH   5   6
ATOM      6  C   UNL     1     -22.290  10.833  18.641  1.00  0.00     0.000 C 
BRANCH   6   7
ATOM      7  C   UNL     1     -22.694   9.350  18.801  1.00  0.00     0.000 C 
BRANCH   7   8
ATOM      8  C   UNL     1     -22.241   8.453  17.633  1.00  0.00     0.000 C 
BRANCH   8   9
ATOM      9  C   UNL     1     -21.484   7.177  18.050  1.00  0.00     0.000 C 
BRANCH   9  10
ATOM     10  C   UNL     1     -20.000   7.135  17.638  1.00  0.00     0.006 C 
BRANCH  10  11
ATOM     11  C   UNL     1     -19.111   8.040  18.500  1.00  0.00     0.053 C 
BRANCH  11  12
ATOM     12  C   UNL     1     -17.884   7.305  18.940  1.00  0.00     0.041 C 
ATOM     13  O   UNL     1     -16.803   7.438  18.307  1.00  0.00    -0.550 OA
ATOM     14  O   UNL     1     -17.928   6.493  20.066  1.00  0.00    -0.550 OA
ENDBRANCH  11  12
ENDBRANCH  10  11
ENDBRANCH   9  10
ENDBRANCH   8   9
ENDBRANCH   7   8
ENDBRANCH   6   7
ENDBRANCH   5   6
ENDBRANCH   4   5
ENDBRANCH   3   4
ENDBRANCH   2   3
ENDBRANCH   1   2
BRANCH   1  15
ATOM     15  C   UNL     1     -17.859  13.397  15.812  1.00  0.00     0.000 C 
BRANCH  15  16
ATOM     16  C   UNL     1     -17.560  12.489  14.608  1.00  0.00     0.000 C 
BRANCH  16  17
ATOM     17  C   UNL     1     -18.755  11.609  14.212  1.00  0.00     0.000 C 
BRANCH  17  18
ATOM     18  C   UNL     1     -18.697  10.252  14.929  1.00  0.00    -0.000 C 
BRANCH  18  19
ATOM     19  C   UNL     1     -20.006   9.453  14.801  1.00  0.00    -0.000 C 
BRANCH  19  20
ATOM     20  C   UNL     1     -21.009  10.008  13.770  1.00  0.00    -0.000 C 
BRANCH  20  21
ATOM     21  C   UNL     1     -22.489   9.960  14.202  1.00  0.00    -0.000 C 
BRANCH  21  22
ATOM     22  C   UNL     1     -22.991  11.205  14.954  1.00  0.00    -0.000 C 
BRANCH  22  23
ATOM     23  C   UNL     1     -23.490  12.313  14.010  1.00  0.00    -0.000 C 
BRANCH  23  24
ATOM     24  C   UNL     1     -22.626  13.583  14.088  1.00  0.00    -0.000 C 
BRANCH  24  25
ATOM     25  C   UNL     1     -21.554  13.634  12.990  1.00  0.00    -0.003 C 
ATOM     26  C   UNL     1     -21.024  15.053  12.806  1.00  0.00     0.004 C 
ENDBRANCH  24  25
ENDBRANCH  23  24
ENDBRANCH  22  23
ENDBRANCH  21  22
ENDBRANCH  20  21
ENDBRANCH  19  20
ENDBRANCH  18  19
ENDBRANCH  17  18
ENDBRANCH  16  17
ENDBRANCH  15  16
ENDBRANCH   1  15
TORSDOF 22
ENDMDL
MODEL 5
REMARK VINA RESULT:    -4.109      4.031      7.889
REMARK INTER + INTRA:         -13.420
REMARK INTER:                  -9.871
REMARK INTRA:                  -3.548
REMARK UNBOUND:                -4.026
REMARK SMILES CCCCCCCCCCCCCCCCCCCCCCCC(=O)[O-]
REMARK SMILES IDX 13 1 14 2 15 3 16 4 17 5 18 6 19 7 20 8 21 9 22 10 23 11
REMARK SMILES IDX 24 12 25 13 26 14 12 15 11 16 10 17 9 18 8 19 7 20 6 21 5 22
REMARK SMILES IDX 4 23 3 24 2 25 1 26
REMARK H PARENT
REMARK Flexibility Score: inf
ROOT
ATOM      1  C   UNL     1     -20.598  15.119  13.367  1.00  0.00     0.000 C 
ENDROOT
BRANCH   1   2
ATOM      2  C   UNL     1     -19.645  13.995  13.807  1.00  0.00     0.000 C 
BRANCH   2   3
ATOM      3  C   UNL     1     -18.430  14.525  14.584  1.00  0.00     0.000 C 
BRANCH   3   4
ATOM      4  C   UNL     1     -17.793  13.417  15.431  1.00  0.00     0.000 C 
BRANCH   4   5
ATOM      5  C   UNL     1     -18.865  12.635  16.206  1.00  0.00     0.000 C 
BRANCH   5   6
ATOM      6  C   UNL     1     -18.960  13.067  17.681  1.00  0.00     0.000 C 
BRANCH   6   7
ATOM      7  C   UNL     1     -19.406  11.939  18.640  1.00  0.00     0.000 C 
BRANCH   7   8
ATOM      8  C   UNL     1     -20.685  11.210  18.189  1.00  0.00     0.000 C 
BRANCH   8   9
ATOM      9  C   UNL     1     -20.584   9.673  18.167  1.00  0.00     0.000 C 
BRANCH   9  10
ATOM     10  C   UNL     1     -19.158   9.111  18.324  1.00  0.00     0.006 C 
BRANCH  10  11
ATOM     11  C   UNL     1     -19.115   7.578  18.351  1.00  0.00     0.053 C 
BRANCH  11  12
ATOM     12  C   UNL     1     -17.847   7.099  18.986  1.00  0.00     0.041 C 
ATOM     13  O   UNL     1     -17.874   6.530  20.109  1.00  0.00    -0.550 OA
ATOM     14  O   UNL     1     -16.637   7.258  18.322  1.00  0.00    -0.550 OA
ENDBRANCH  11  12
ENDBRANCH  10  11
ENDBRANCH   9  10
ENDBRANCH   8   9
ENDBRANCH   7   8
ENDBRANCH   6   7
ENDBRANCH   5   6
ENDBRANCH   4   5
ENDBRANCH   3   4
ENDBRANCH   2   3
ENDBRANCH   1   2
BRANCH   1  15
ATOM     15  C   UNL     1     -19.997  16.517  13.593  1.00  0.00     0.000 C 
BRANCH  15  16
ATOM     16  C   UNL     1     -21.066  17.580  13.893  1.00  0.00     0.000 C 
BRANCH  16  17
ATOM     17  C   UNL     1     -20.522  19.015  13.811  1.00  0.00     0.000 C 
BRANCH  17  18
ATOM     18  C   UNL     1     -20.962  19.837  15.030  1.00  0.00    -0.000 C 
BRANCH  18  19
ATOM     19  C   UNL     1     -19.981  19.723  16.212  1.00  0.00    -0.000 C 
BRANCH  19  20
ATOM     20  C   UNL     1     -20.640  19.734  17.606  1.00  0.00    -0.000 C 
BRANCH  20  21
ATOM     21  C   UNL     1     -20.566  18.400  18.377  1.00  0.00    -0.000 C 
BRANCH  21  22
ATOM     22  C   UNL     1     -19.729  17.299  17.699  1.00  0.00    -0.000 C 
BRANCH  22  23
ATOM     23  C   UNL     1     -20.575  16.095  17.251  1.00  0.00    -0.000 C 
BRANCH  23  24
ATOM     24  C   UNL     1     -22.082  16.398  17.269  1.00  0.00    -0.000 C 
BRANCH  24  25
ATOM     25  C   UNL     1     -22.885  15.449  16.368  1.00  0.00    -0.003 C 
ATOM     26  C   UNL     1     -22.364  14.019  16.474  1.00  0.00     0.004 C 
ENDBRANCH  24  25
ENDBRANCH  23  24
ENDBRANCH  22  23
ENDBRANCH  21  22
ENDBRANCH  20  21
ENDBRANCH  19  20
ENDBRANCH  18  19
ENDBRANCH  17  18
ENDBRANCH  16  17
ENDBRANCH  15  16
ENDBRANCH   1  15
TORSDOF 22
ENDMDL
MODEL 6
REMARK VINA RESULT:    -4.107      5.172      8.977
REMARK INTER + INTRA:         -13.416
REMARK INTER:                 -10.268
REMARK INTRA:                  -3.148
REMARK UNBOUND:                -4.026
REMARK SMILES CCCCCCCCCCCCCCCCCCCCCCCC(=O)[O-]
REMARK SMILES IDX 13 1 14 2 15 3 16 4 17 5 18 6 19 7 20 8 21 9 22 10 23 11
REMARK SMILES IDX 24 12 25 13 26 14 12 15 11 16 10 17 9 18 8 19 7 20 6 21 5 22
REMARK SMILES IDX 4 23 3 24 2 25 1 26
REMARK H PARENT
REMARK Flexibility Score: inf
ROOT
ATOM      1  C   UNL     1     -19.168   9.478  18.026  1.00  0.00     0.000 C 
ENDROOT
BRANCH   1   2
ATOM      2  C   UNL     1     -20.039   8.217  17.899  1.00  0.00     0.000 C 
BRANCH   2   3
ATOM      3  C   UNL     1     -21.536   8.545  17.786  1.00  0.00     0.000 C 
BRANCH   3   4
ATOM      4  C   UNL     1     -22.333   7.323  17.315  1.00  0.00     0.000 C 
BRANCH   4   5
ATOM      5  C   UNL     1     -21.834   6.044  18.006  1.00  0.00     0.000 C 
BRANCH   5   6
ATOM      6  C   UNL     1     -22.760   5.591  19.149  1.00  0.00     0.000 C 
BRANCH   6   7
ATOM      7  C   UNL     1     -22.097   4.616  20.148  1.00  0.00     0.000 C 
BRANCH   7   8
ATOM      8  C   UNL     1     -20.569   4.780  20.255  1.00  0.00     0.000 C 
BRANCH   8   9
ATOM      9  C   UNL     1     -19.760   3.489  20.021  1.00  0.00     0.000 C 
BRANCH   9  10
ATOM     10  C   UNL     1     -18.305   3.706  19.565  1.00  0.00     0.006 C 
BRANCH  10  11
ATOM     11  C   UNL     1     -18.135   4.932  18.660  1.00  0.00     0.053 C 
BRANCH  11  12
ATOM     12  C   UNL     1     -17.063   5.833  19.190  1.00  0.00     0.041 C 
ATOM     13  O   UNL     1     -16.733   6.870  18.556  1.00  0.00    -0.550 OA
ATOM     14  O   UNL     1     -16.448   5.540  20.401  1.00  0.00    -0.550 OA
ENDBRANCH  11  12
ENDBRANCH  10  11
ENDBRANCH   9  10
ENDBRANCH   8   9
ENDBRANCH   7   8
ENDBRANCH   6   7
ENDBRANCH   5   6
ENDBRANCH   4   5
ENDBRANCH   3   4
ENDBRANCH   2   3
ENDBRANCH   1   2
BRANCH   1  15
ATOM     15  C   UNL     1     -19.979  10.705  18.477  1.00  0.00     0.000 C 
BRANCH  15  16
ATOM     16  C   UNL     1     -19.272  12.032  18.159  1.00  0.00     0.000 C 
BRANCH  16  17
ATOM     17  C   UNL     1     -20.020  12.872  17.111  1.00  0.00     0.000 C 
BRANCH  17  18
ATOM     18  C   UNL     1     -19.074  13.879  16.441  1.00  0.00    -0.000 C 
BRANCH  18  19
ATOM     19  C   UNL     1     -18.791  13.541  14.966  1.00  0.00    -0.000 C 
BRANCH  19  20
ATOM     20  C   UNL     1     -17.563  12.639  14.730  1.00  0.00    -0.000 C 
BRANCH  20  21
ATOM     21  C   UNL     1     -17.852  11.320  13.984  1.00  0.00    -0.000 C 
BRANCH  21  22
ATOM     22  C   UNL     1     -18.595  10.253  14.808  1.00  0.00    -0.000 C 
BRANCH  22  23
ATOM     23  C   UNL     1     -20.048  10.045  14.345  1.00  0.00    -0.000 C 
BRANCH  23  24
ATOM     24  C   UNL     1     -20.389   8.560  14.134  1.00  0.00    -0.000 C 
BRANCH  24  25
ATOM     25  C   UNL     1     -20.978   8.282  12.744  1.00  0.00    -0.003 C 
ATOM     26  C   UNL     1     -20.465   9.290  11.719  1.00  0.00     0.004 C 
ENDBRANCH  24  25
ENDBRANCH  23  24
ENDBRANCH  22  23
ENDBRANCH  21  22
ENDBRANCH  20  21
ENDBRANCH  19  20
ENDBRANCH  18  19
ENDBRANCH  17  18
ENDBRANCH  16  17
ENDBRANCH  15  16
ENDBRANCH   1  15
TORSDOF 22
ENDMDL
MODEL 7
REMARK VINA RESULT:    -4.090      4.033      7.051
REMARK INTER + INTRA:         -13.377
REMARK INTER:                  -9.603
REMARK INTRA:                  -3.774
REMARK UNBOUND:                -4.026
REMARK SMILES CCCCCCCCCCCCCCCCCCCCCCCC(=O)[O-]
REMARK SMILES IDX 13 1 14 2 15 3 16 4 17 5 18 6 19 7 20 8 21 9 22 10 23 11
REMARK SMILES IDX 24 12 25 13 26 14 12 15 11 16 10 17 9 18 8 19 7 20 6 21 5 22
REMARK SMILES IDX 4 23 3 24 2 25 1 26
REMARK H PARENT
REMARK Flexibility Score: inf
ROOT
ATOM      1  C   UNL     1     -20.732  10.817  13.700  1.00  0.00     0.000 C 
ENDROOT
BRANCH   1   2
ATOM      2  C   UNL     1     -21.682  10.902  14.906  1.00  0.00     0.000 C 
BRANCH   2   3
ATOM      3  C   UNL     1     -22.528  12.185  14.899  1.00  0.00     0.000 C 
BRANCH   3   4
ATOM      4  C   UNL     1     -23.235  12.385  16.245  1.00  0.00     0.000 C 
BRANCH   4   5
ATOM      5  C   UNL     1     -23.748  11.046  16.798  1.00  0.00     0.000 C 
BRANCH   5   6
ATOM      6  C   UNL     1     -23.970  11.082  18.321  1.00  0.00     0.000 C 
BRANCH   6   7
ATOM      7  C   UNL     1     -22.752  10.609  19.147  1.00  0.00     0.000 C 
BRANCH   7   8
ATOM      8  C   UNL     1     -21.728   9.796  18.332  1.00  0.00     0.000 C 
BRANCH   8   9
ATOM      9  C   UNL     1     -20.286  10.337  18.378  1.00  0.00     0.000 C 
BRANCH   9  10
ATOM     10  C   UNL     1     -19.208   9.367  17.857  1.00  0.00     0.006 C 
BRANCH  10  11
ATOM     11  C   UNL     1     -19.403   7.929  18.355  1.00  0.00     0.053 C 
BRANCH  11  12
ATOM     12  C   UNL     1     -18.134   7.404  18.951  1.00  0.00     0.041 C 
ATOM     13  O   UNL     1     -18.171   6.641  19.953  1.00  0.00    -0.550 OA
ATOM     14  O   UNL     1     -16.911   7.735  18.382  1.00  0.00    -0.550 OA
ENDBRANCH  11  12
ENDBRANCH  10  11
ENDBRANCH   9  10
ENDBRANCH   8   9
ENDBRANCH   7   8
ENDBRANCH   6   7
ENDBRANCH   5   6
ENDBRANCH   4   5
ENDBRANCH   3   4
ENDBRANCH   2   3
ENDBRANCH   1   2
BRANCH   1  15
ATOM     15  C   UNL     1     -19.419  10.091  14.039  1.00  0.00     0.000 C 
BRANCH  15  16
ATOM     16  C   UNL     1     -18.372  11.023  14.669  1.00  0.00     0.000 C 
BRANCH  16  17
ATOM     17  C   UNL     1     -18.519  12.483  14.212  1.00  0.00     0.000 C 
BRANCH  17  18
ATOM     18  C   UNL     1     -17.966  13.446  15.273  1.00  0.00    -0.000 C 
BRANCH  18  19
ATOM     19  C   UNL     1     -18.440  13.102  16.696  1.00  0.00    -0.000 C 
BRANCH  19  20
ATOM     20  C   UNL     1     -19.855  13.604  17.049  1.00  0.00    -0.000 C 
BRANCH  20  21
ATOM     21  C   UNL     1     -20.020  15.138  17.070  1.00  0.00    -0.000 C 
BRANCH  21  22
ATOM     22  C   UNL     1     -21.077  15.695  16.098  1.00  0.00    -0.000 C 
BRANCH  22  23
ATOM     23  C   UNL     1     -20.728  17.099  15.576  1.00  0.00    -0.000 C 
BRANCH  23  24
ATOM     24  C   UNL     1     -19.233  17.425  15.723  1.00  0.00    -0.000 C 
BRANCH  24  25
ATOM     25  C   UNL     1     -18.570  17.772  14.383  1.00  0.00    -0.003 C 
ATOM     26  C   UNL     1     -18.610  16.583  13.426  1.00  0.00     0.004 C 
ENDBRANCH  24  25
ENDBRANCH  23  24
ENDBRANCH  22  23
ENDBRANCH  21  22
ENDBRANCH  20  21
ENDBRANCH  19  20
ENDBRANCH  18  19
ENDBRANCH  17  18
ENDBRANCH  16  17
ENDBRANCH  15  16
ENDBRANCH   1  15
TORSDOF 22
ENDMDL
MODEL 8
REMARK VINA RESULT:    -4.083      1.340      2.726
REMARK INTER + INTRA:         -13.360
REMARK INTER:                  -9.550
REMARK INTRA:                  -3.810
REMARK UNBOUND:                -4.026
REMARK SMILES CCCCCCCCCCCCCCCCCCCCCCCC(=O)[O-]
REMARK SMILES IDX 13 1 14 2 15 3 16 4 17 5 18 6 19 7 20 8 21 9 22 10 23 11
REMARK SMILES IDX 24 12 25 13 26 14 12 15 11 16 10 17 9 18 8 19 7 20 6 21 5 22
REMARK SMILES IDX 4 23 3 24 2 25 1 26
REMARK H PARENT
REMARK Flexibility Score: inf
ROOT
ATOM      1  C   UNL     1     -22.974  10.829  17.098  1.00  0.00     0.000 C 
ENDROOT
BRANCH   1   2
ATOM      2  C   UNL     1     -22.839  12.294  16.648  1.00  0.00     0.000 C 
BRANCH   2   3
ATOM      3  C   UNL     1     -23.793  13.231  17.406  1.00  0.00     0.000 C 
BRANCH   3   4
ATOM      4  C   UNL     1     -23.260  14.669  17.413  1.00  0.00     0.000 C 
BRANCH   4   5
ATOM      5  C   UNL     1     -22.902  15.127  15.990  1.00  0.00     0.000 C 
BRANCH   5   6
ATOM      6  C   UNL     1     -22.132  16.460  15.976  1.00  0.00     0.000 C 
BRANCH   6   7
ATOM      7  C   UNL     1     -21.624  16.909  17.366  1.00  0.00     0.000 C 
BRANCH   7   8
ATOM      8  C   UNL     1     -20.173  17.425  17.360  1.00  0.00     0.000 C 
BRANCH   8   9
ATOM      9  C   UNL     1     -19.463  17.352  15.993  1.00  0.00     0.000 C 
BRANCH   9  10
ATOM     10  C   UNL     1     -19.371  18.689  15.234  1.00  0.00     0.006 C 
BRANCH  10  11
ATOM     11  C   UNL     1     -19.714  18.559  13.745  1.00  0.00     0.053 C 
BRANCH  11  12
ATOM     12  C   UNL     1     -18.539  18.036  12.979  1.00  0.00     0.041 C 
ATOM     13  O   UNL     1     -18.452  16.809  12.709  1.00  0.00    -0.550 OA
ATOM     14  O   UNL     1     -17.552  18.910  12.540  1.00  0.00    -0.550 OA
ENDBRANCH  11  12
ENDBRANCH  10  11
ENDBRANCH   9  10
ENDBRANCH   8   9
ENDBRANCH   7   8
ENDBRANCH   6   7
ENDBRANCH   5   6
ENDBRANCH   4   5
ENDBRANCH   3   4
ENDBRANCH   2   3
ENDBRANCH   1   2
BRANCH   1  15
ATOM     15  C   UNL     1     -22.124  10.518  18.342  1.00  0.00     0.000 C 
BRANCH  15  16
ATOM     16  C   UNL     1     -20.937   9.593  18.032  1.00  0.00     0.000 C 
BRANCH  16  17
ATOM     17  C   UNL     1     -19.576  10.264  18.277  1.00  0.00     0.000 C 
BRANCH  17  18
ATOM     18  C   UNL     1     -19.756  11.646  18.922  1.00  0.00    -0.000 C 
BRANCH  18  19
ATOM     19  C   UNL     1     -18.833  12.715  18.310  1.00  0.00    -0.000 C 
BRANCH  19  20
ATOM     20  C   UNL     1     -19.559  13.834  17.537  1.00  0.00    -0.000 C 
BRANCH  20  21
ATOM     21  C   UNL     1     -19.481  13.727  16.000  1.00  0.00    -0.000 C 
BRANCH  21  22
ATOM     22  C   UNL     1     -18.298  12.902  15.461  1.00  0.00    -0.000 C 
BRANCH  22  23
ATOM     23  C   UNL     1     -18.534  12.380  14.034  1.00  0.00    -0.000 C 
BRANCH  23  24
ATOM     24  C   UNL     1     -18.068  10.926  13.856  1.00  0.00    -0.000 C 
BRANCH  24  25
ATOM     25  C   UNL     1     -18.742   9.966  14.846  1.00  0.00    -0.003 C 
ATOM     26  C   UNL     1     -20.218   9.776  14.510  1.00  0.00     0.004 C 
ENDBRANCH  24  25
ENDBRANCH  23  24
ENDBRANCH  22  23
ENDBRANCH  21  22
ENDBRANCH  20  21
ENDBRANCH  19  20
ENDBRANCH  18  19
ENDBRANCH  17  18
ENDBRANCH  16  17
ENDBRANCH  15  16
ENDBRANCH   1  15
TORSDOF 22
ENDMDL
MODEL 9
REMARK VINA RESULT:    -4.072      5.802      9.566
REMARK INTER + INTRA:         -13.335
REMARK INTER:                 -10.172
REMARK INTRA:                  -3.163
REMARK UNBOUND:                -4.026
REMARK SMILES CCCCCCCCCCCCCCCCCCCCCCCC(=O)[O-]
REMARK SMILES IDX 13 1 14 2 15 3 16 4 17 5 18 6 19 7 20 8 21 9 22 10 23 11
REMARK SMILES IDX 24 12 25 13 26 14 12 15 11 16 10 17 9 18 8 19 7 20 6 21 5 22
REMARK SMILES IDX 4 23 3 24 2 25 1 26
REMARK H PARENT
REMARK Flexibility Score: inf
ROOT
ATOM      1  C   UNL     1     -23.631   7.075  17.729  1.00  0.00     0.000 C 
ENDROOT
BRANCH   1   2
ATOM      2  C   UNL     1     -23.258   6.579  19.136  1.00  0.00     0.000 C 
BRANCH   2   3
ATOM      3  C   UNL     1     -23.110   5.050  19.200  1.00  0.00     0.000 C 
BRANCH   3   4
ATOM      4  C   UNL     1     -21.811   4.653  19.912  1.00  0.00     0.000 C 
BRANCH   4   5
ATOM      5  C   UNL     1     -20.589   5.251  19.196  1.00  0.00     0.000 C 
BRANCH   5   6
ATOM      6  C   UNL     1     -19.329   5.250  20.080  1.00  0.00     0.000 C 
BRANCH   6   7
ATOM      7  C   UNL     1     -18.391   6.456  19.842  1.00  0.00     0.000 C 
BRANCH   7   8
ATOM      8  C   UNL     1     -16.959   6.059  19.438  1.00  0.00     0.000 C 
BRANCH   8   9
ATOM      9  C   UNL     1     -16.376   4.859  20.209  1.00  0.00     0.000 C 
BRANCH   9  10
ATOM     10  C   UNL     1     -15.418   3.965  19.398  1.00  0.00     0.006 C 
BRANCH  10  11
ATOM     11  C   UNL     1     -15.969   3.594  18.015  1.00  0.00     0.053 C 
BRANCH  11  12
ATOM     12  C   UNL     1     -15.055   4.087  16.937  1.00  0.00     0.041 C 
ATOM     13  O   UNL     1     -15.396   4.003  15.727  1.00  0.00    -0.550 OA
ATOM     14  O   UNL     1     -13.837   4.666  17.271  1.00  0.00    -0.550 OA
ENDBRANCH  11  12
ENDBRANCH  10  11
ENDBRANCH   9  10
ENDBRANCH   8   9
ENDBRANCH   7   8
ENDBRANCH   6   7
ENDBRANCH   5   6
ENDBRANCH   4   5
ENDBRANCH   3   4
ENDBRANCH   2   3
ENDBRANCH   1   2
BRANCH   1  15
ATOM     15  C   UNL     1     -22.424   7.658  16.975  1.00  0.00     0.000 C 
BRANCH  15  16
ATOM     16  C   UNL     1     -21.626   8.664  17.821  1.00  0.00     0.000 C 
BRANCH  16  17
ATOM     17  C   UNL     1     -20.111   8.578  17.581  1.00  0.00     0.000 C 
BRANCH  17  18
ATOM     18  C   UNL     1     -19.410   9.863  18.046  1.00  0.00    -0.000 C 
BRANCH  18  19
ATOM     19  C   UNL     1     -20.397  10.933  18.545  1.00  0.00    -0.000 C 
BRANCH  19  20
ATOM     20  C   UNL     1     -20.421  12.232  17.715  1.00  0.00    -0.000 C 
BRANCH  20  21
ATOM     21  C   UNL     1     -19.088  13.008  17.672  1.00  0.00    -0.000 C 
BRANCH  21  22
ATOM     22  C   UNL     1     -18.496  13.211  16.265  1.00  0.00    -0.000 C 
BRANCH  22  23
ATOM     23  C   UNL     1     -19.246  12.421  15.180  1.00  0.00    -0.000 C 
BRANCH  23  24
ATOM     24  C   UNL     1     -18.441  11.214  14.671  1.00  0.00    -0.000 C 
BRANCH  24  25
ATOM     25  C   UNL     1     -19.338  10.040  14.255  1.00  0.00    -0.003 C 
ATOM     26  C   UNL     1     -20.814  10.398  14.400  1.00  0.00     0.004 C 
ENDBRANCH  24  25
ENDBRANCH  23  24
ENDBRANCH  22  23
ENDBRANCH  21  22
ENDBRANCH  20  21
ENDBRANCH  19  20
ENDBRANCH  18  19
ENDBRANCH  17  18
ENDBRANCH  16  17
ENDBRANCH  15  16
ENDBRANCH   1  15
TORSDOF 22
ENDMDL
