MODEL 1
REMARK VINA RESULT:    -7.099      0.000      0.000
REMARK INTER + INTRA:          -8.483
REMARK INTER:                  -8.344
REMARK INTRA:                  -0.138
REMARK UNBOUND:                -0.138
REMARK SMILES O=c1c(O)c(-c2ccc(O)cc2)oc2cc(O)cc(O)c12
REMARK SMILES IDX 5 1 3 2 2 3 1 4 21 5 19 6 18 7 16 8 15 9 14 10 13 11 6 12
REMARK SMILES IDX 7 13 8 14 9 15 12 16 11 17 10 18 4 20 20 22 17 24
REMARK H PARENT 10 19 4 21 20 23 17 25
REMARK Flexibility Score: inf
ROOT
ATOM      1  C   UNL     1      38.073 -57.241 325.478  1.00  0.00     0.180 A 
ATOM      2  C   UNL     1      38.474 -56.293 326.433  1.00  0.00     0.208 A 
ATOM      3  C   UNL     1      37.606 -55.235 326.750  1.00  0.00     0.238 A 
ATOM      4  O   UNL     1      37.948 -54.420 327.646  1.00  0.00    -0.285 OA
ATOM      5  C   UNL     1      36.356 -55.130 326.093  1.00  0.00     0.111 A 
ATOM      6  C   UNL     1      35.416 -54.077 326.305  1.00  0.00     0.134 A 
ATOM      7  C   UNL     1      34.155 -54.145 325.698  1.00  0.00     0.093 A 
ATOM      8  C   UNL     1      33.826 -55.190 324.837  1.00  0.00     0.123 A 
ATOM      9  C   UNL     1      34.759 -56.194 324.576  1.00  0.00     0.094 A 
ATOM     10  C   UNL     1      36.012 -56.174 325.195  1.00  0.00     0.146 A 
ATOM     11  O   UNL     1      36.868 -57.152 324.927  1.00  0.00    -0.452 OA
ENDROOT
BRANCH   1  12
ATOM     12  C   UNL     1      38.943 -58.370 325.074  1.00  0.00     0.021 A 
ATOM     13  C   UNL     1      38.608 -59.701 325.382  1.00  0.00     0.016 A 
ATOM     14  C   UNL     1      39.458 -60.747 325.011  1.00  0.00     0.047 A 
ATOM     15  C   UNL     1      40.658 -60.477 324.340  1.00  0.00     0.115 A 
ATOM     16  C   UNL     1      40.158 -58.105 324.419  1.00  0.00     0.016 A 
ATOM     17  C   UNL     1      41.006 -59.154 324.048  1.00  0.00     0.047 A 
BRANCH  15  18
ATOM     18  O   UNL     1      41.511 -61.512 323.964  1.00  0.00    -0.508 OA
ATOM     19  H   UNL     1      41.168 -62.330 323.475  1.00  0.00     0.293 HD
ENDBRANCH  15  18
ENDBRANCH   1  12
BRANCH   2  20
ATOM     20  O   UNL     1      39.703 -56.428 327.085  1.00  0.00    -0.502 OA
ATOM     21  H   UNL     1      40.556 -56.666 326.594  1.00  0.00     0.293 HD
ENDBRANCH   2  20
BRANCH   6  22
ATOM     22  O   UNL     1      35.677 -52.940 327.074  1.00  0.00    -0.507 OA
ATOM     23  H   UNL     1      35.020 -52.512 327.708  1.00  0.00     0.293 HD
ENDBRANCH   6  22
BRANCH   8  24
ATOM     24  O   UNL     1      32.568 -55.217 324.238  1.00  0.00    -0.508 OA
ATOM     25  H   UNL     1      32.069 -56.088 324.091  1.00  0.00     0.293 HD
ENDBRANCH   8  24
TORSDOF 5
ENDMDL
MODEL 2
REMARK VINA RESULT:    -7.035      0.133      1.065
REMARK INTER + INTRA:          -8.407
REMARK INTER:                  -8.243
REMARK INTRA:                  -0.164
REMARK UNBOUND:                -0.138
REMARK SMILES O=c1c(O)c(-c2ccc(O)cc2)oc2cc(O)cc(O)c12
REMARK SMILES IDX 5 1 3 2 2 3 1 4 21 5 19 6 18 7 16 8 15 9 14 10 13 11 6 12
REMARK SMILES IDX 7 13 8 14 9 15 12 16 11 17 10 18 4 20 20 22 17 24
REMARK H PARENT 10 19 4 21 20 23 17 25
REMARK Flexibility Score: inf
ROOT
ATOM      1  C   UNL     1      38.114 -57.283 325.445  1.00  0.00     0.180 A 
ATOM      2  C   UNL     1      38.476 -56.315 326.397  1.00  0.00     0.208 A 
ATOM      3  C   UNL     1      37.569 -55.287 326.701  1.00  0.00     0.238 A 
ATOM      4  O   UNL     1      37.876 -54.454 327.594  1.00  0.00    -0.285 OA
ATOM      5  C   UNL     1      36.320 -55.230 326.036  1.00  0.00     0.111 A 
ATOM      6  C   UNL     1      35.342 -54.210 326.235  1.00  0.00     0.134 A 
ATOM      7  C   UNL     1      34.088 -54.326 325.622  1.00  0.00     0.093 A 
ATOM      8  C   UNL     1      33.802 -55.387 324.765  1.00  0.00     0.123 A 
ATOM      9  C   UNL     1      34.772 -56.359 324.517  1.00  0.00     0.094 A 
ATOM     10  C   UNL     1      36.019 -56.291 325.142  1.00  0.00     0.146 A 
ATOM     11  O   UNL     1      36.910 -57.240 324.887  1.00  0.00    -0.452 OA
ENDROOT
BRANCH   1  12
ATOM     12  C   UNL     1      39.027 -58.383 325.053  1.00  0.00     0.021 A 
ATOM     13  C   UNL     1      40.242 -58.127 324.392  1.00  0.00     0.016 A 
ATOM     14  C   UNL     1      41.075 -59.184 324.011  1.00  0.00     0.047 A 
ATOM     15  C   UNL     1      40.699 -60.508 324.274  1.00  0.00     0.115 A 
ATOM     16  C   UNL     1      38.647 -59.714 325.294  1.00  0.00     0.016 A 
ATOM     17  C   UNL     1      39.483 -60.769 324.913  1.00  0.00     0.047 A 
BRANCH  15  18
ATOM     18  O   UNL     1      41.522 -61.567 323.901  1.00  0.00    -0.508 OA
ATOM     19  H   UNL     1      42.076 -62.073 324.582  1.00  0.00     0.293 HD
ENDBRANCH  15  18
ENDBRANCH   1  12
BRANCH   2  20
ATOM     20  O   UNL     1      39.705 -56.402 327.057  1.00  0.00    -0.502 OA
ATOM     21  H   UNL     1      40.584 -56.189 326.601  1.00  0.00     0.293 HD
ENDBRANCH   2  20
BRANCH   6  22
ATOM     22  O   UNL     1      35.559 -53.059 326.998  1.00  0.00    -0.507 OA
ATOM     23  H   UNL     1      35.401 -52.117 326.674  1.00  0.00     0.293 HD
ENDBRANCH   6  22
BRANCH   8  24
ATOM     24  O   UNL     1      32.550 -55.463 324.159  1.00  0.00    -0.508 OA
ATOM     25  H   UNL     1      32.266 -54.804 323.443  1.00  0.00     0.293 HD
ENDBRANCH   8  24
TORSDOF 5
ENDMDL
MODEL 3
REMARK VINA RESULT:    -6.821     13.270     15.958
REMARK INTER + INTRA:          -8.156
REMARK INTER:                  -7.856
REMARK INTRA:                  -0.300
REMARK UNBOUND:                -0.138
REMARK SMILES O=c1c(O)c(-c2ccc(O)cc2)oc2cc(O)cc(O)c12
REMARK SMILES IDX 5 1 3 2 2 3 1 4 21 5 19 6 18 7 16 8 15 9 14 10 13 11 6 12
REMARK SMILES IDX 7 13 8 14 9 15 12 16 11 17 10 18 4 20 20 22 17 24
REMARK H PARENT 10 19 4 21 20 23 17 25
REMARK Flexibility Score: inf
ROOT
ATOM      1  C   UNL     1      47.712 -62.138 334.397  1.00  0.00     0.180 A 
ATOM      2  C   UNL     1      48.191 -63.441 334.616  1.00  0.00     0.208 A 
ATOM      3  C   UNL     1      48.500 -63.841 335.926  1.00  0.00     0.238 A 
ATOM      4  O   UNL     1      48.877 -65.026 336.123  1.00  0.00    -0.285 OA
ATOM      5  C   UNL     1      48.343 -62.928 336.997  1.00  0.00     0.111 A 
ATOM      6  C   UNL     1      48.665 -63.213 338.358  1.00  0.00     0.134 A 
ATOM      7  C   UNL     1      48.346 -62.281 339.353  1.00  0.00     0.093 A 
ATOM      8  C   UNL     1      47.780 -61.049 339.030  1.00  0.00     0.123 A 
ATOM      9  C   UNL     1      47.516 -60.736 337.696  1.00  0.00     0.094 A 
ATOM     10  C   UNL     1      47.788 -61.660 336.684  1.00  0.00     0.146 A 
ATOM     11  O   UNL     1      47.514 -61.327 335.429  1.00  0.00    -0.452 OA
ENDROOT
BRANCH   1  12
ATOM     12  C   UNL     1      47.388 -61.635 333.041  1.00  0.00     0.021 A 
ATOM     13  C   UNL     1      48.363 -61.020 332.236  1.00  0.00     0.016 A 
ATOM     14  C   UNL     1      48.027 -60.531 330.969  1.00  0.00     0.047 A 
ATOM     15  C   UNL     1      46.712 -60.640 330.497  1.00  0.00     0.115 A 
ATOM     16  C   UNL     1      46.067 -61.721 332.570  1.00  0.00     0.016 A 
ATOM     17  C   UNL     1      45.735 -61.233 331.302  1.00  0.00     0.047 A 
BRANCH  15  18
ATOM     18  O   UNL     1      46.368 -60.158 329.237  1.00  0.00    -0.508 OA
ATOM     19  H   UNL     1      45.412 -59.911 329.008  1.00  0.00     0.293 HD
ENDBRANCH  15  18
ENDBRANCH   1  12
BRANCH   2  20
ATOM     20  O   UNL     1      48.317 -64.332 333.548  1.00  0.00    -0.502 OA
ATOM     21  H   UNL     1      48.190 -65.332 333.655  1.00  0.00     0.293 HD
ENDBRANCH   2  20
BRANCH   6  22
ATOM     22  O   UNL     1      49.317 -64.376 338.779  1.00  0.00    -0.507 OA
ATOM     23  H   UNL     1      49.379 -65.227 338.241  1.00  0.00     0.293 HD
ENDBRANCH   6  22
BRANCH   8  24
ATOM     24  O   UNL     1      47.490 -60.138 340.043  1.00  0.00    -0.508 OA
ATOM     25  H   UNL     1      47.313 -59.160 339.843  1.00  0.00     0.293 HD
ENDBRANCH   8  24
TORSDOF 5
ENDMDL
MODEL 4
REMARK VINA RESULT:    -6.801      1.562      2.011
REMARK INTER + INTRA:          -8.132
REMARK INTER:                  -7.940
REMARK INTRA:                  -0.193
REMARK UNBOUND:                -0.138
REMARK SMILES O=c1c(O)c(-c2ccc(O)cc2)oc2cc(O)cc(O)c12
REMARK SMILES IDX 5 1 3 2 2 3 1 4 21 5 19 6 18 7 16 8 15 9 14 10 13 11 6 12
REMARK SMILES IDX 7 13 8 14 9 15 12 16 11 17 10 18 4 20 20 22 17 24
REMARK H PARENT 10 19 4 21 20 23 17 25
REMARK Flexibility Score: inf
ROOT
ATOM      1  C   UNL     1      37.240 -55.741 325.795  1.00  0.00     0.180 A 
ATOM      2  C   UNL     1      37.474 -54.505 326.420  1.00  0.00     0.208 A 
ATOM      3  C   UNL     1      36.380 -53.679 326.728  1.00  0.00     0.238 A 
ATOM      4  O   UNL     1      36.591 -52.598 327.337  1.00  0.00    -0.285 OA
ATOM      5  C   UNL     1      35.069 -54.092 326.390  1.00  0.00     0.111 A 
ATOM      6  C   UNL     1      33.892 -53.318 326.617  1.00  0.00     0.134 A 
ATOM      7  C   UNL     1      32.635 -53.882 326.363  1.00  0.00     0.093 A 
ATOM      8  C   UNL     1      32.515 -55.163 325.829  1.00  0.00     0.123 A 
ATOM      9  C   UNL     1      33.662 -55.907 325.547  1.00  0.00     0.094 A 
ATOM     10  C   UNL     1      34.929 -55.387 325.824  1.00  0.00     0.146 A 
ATOM     11  O   UNL     1      35.994 -56.129 325.550  1.00  0.00    -0.452 OA
ENDROOT
BRANCH   1  12
ATOM     12  C   UNL     1      38.343 -56.654 325.417  1.00  0.00     0.021 A 
ATOM     13  C   UNL     1      39.080 -57.354 326.389  1.00  0.00     0.016 A 
ATOM     14  C   UNL     1      40.133 -58.192 326.009  1.00  0.00     0.047 A 
ATOM     15  C   UNL     1      40.471 -58.331 324.656  1.00  0.00     0.115 A 
ATOM     16  C   UNL     1      38.701 -56.783 324.064  1.00  0.00     0.016 A 
ATOM     17  C   UNL     1      39.754 -57.622 323.687  1.00  0.00     0.047 A 
BRANCH  15  18
ATOM     18  O   UNL     1      41.516 -59.165 324.266  1.00  0.00    -0.508 OA
ATOM     19  H   UNL     1      42.227 -59.465 324.923  1.00  0.00     0.293 HD
ENDBRANCH  15  18
ENDBRANCH   1  12
BRANCH   2  20
ATOM     20  O   UNL     1      38.774 -54.126 326.765  1.00  0.00    -0.502 OA
ATOM     21  H   UNL     1      39.206 -54.396 327.640  1.00  0.00     0.293 HD
ENDBRANCH   2  20
BRANCH   6  22
ATOM     22  O   UNL     1      33.902 -51.993 327.063  1.00  0.00    -0.507 OA
ATOM     23  H   UNL     1      33.275 -51.616 327.758  1.00  0.00     0.293 HD
ENDBRANCH   6  22
BRANCH   8  24
ATOM     24  O   UNL     1      31.250 -55.687 325.573  1.00  0.00    -0.508 OA
ATOM     25  H   UNL     1      30.422 -55.320 326.029  1.00  0.00     0.293 HD
ENDBRANCH   8  24
TORSDOF 5
ENDMDL
MODEL 5
REMARK VINA RESULT:    -6.737     11.705     14.394
REMARK INTER + INTRA:          -8.058
REMARK INTER:                  -7.784
REMARK INTRA:                  -0.273
REMARK UNBOUND:                -0.138
REMARK SMILES O=c1c(O)c(-c2ccc(O)cc2)oc2cc(O)cc(O)c12
REMARK SMILES IDX 5 1 3 2 2 3 1 4 21 5 19 6 18 7 16 8 15 9 14 10 13 11 6 12
REMARK SMILES IDX 7 13 8 14 9 15 12 16 11 17 10 18 4 20 20 22 17 24
REMARK H PARENT 10 19 4 21 20 23 17 25
REMARK Flexibility Score: inf
ROOT
ATOM      1  C   UNL     1      46.950 -62.067 334.446  1.00  0.00     0.180 A 
ATOM      2  C   UNL     1      47.651 -63.128 333.850  1.00  0.00     0.208 A 
ATOM      3  C   UNL     1      47.220 -63.617 332.606  1.00  0.00     0.238 A 
ATOM      4  O   UNL     1      47.884 -64.531 332.052  1.00  0.00    -0.285 OA
ATOM      5  C   UNL     1      46.081 -63.049 331.983  1.00  0.00     0.111 A 
ATOM      6  C   UNL     1      45.532 -63.493 330.743  1.00  0.00     0.134 A 
ATOM      7  C   UNL     1      44.483 -62.773 330.156  1.00  0.00     0.093 A 
ATOM      8  C   UNL     1      43.922 -61.668 330.794  1.00  0.00     0.123 A 
ATOM      9  C   UNL     1      44.414 -61.262 332.036  1.00  0.00     0.094 A 
ATOM     10  C   UNL     1      45.483 -61.937 332.630  1.00  0.00     0.146 A 
ATOM     11  O   UNL     1      45.927 -61.513 333.806  1.00  0.00    -0.452 OA
ENDROOT
BRANCH   1  12
ATOM     12  C   UNL     1      47.329 -61.514 335.767  1.00  0.00     0.021 A 
ATOM     13  C   UNL     1      48.153 -60.379 335.878  1.00  0.00     0.016 A 
ATOM     14  C   UNL     1      48.518 -59.891 337.137  1.00  0.00     0.047 A 
ATOM     15  C   UNL     1      48.075 -60.537 338.299  1.00  0.00     0.115 A 
ATOM     16  C   UNL     1      46.907 -62.169 336.937  1.00  0.00     0.016 A 
ATOM     17  C   UNL     1      47.272 -61.677 338.194  1.00  0.00     0.047 A 
BRANCH  15  18
ATOM     18  O   UNL     1      48.431 -60.058 339.557  1.00  0.00    -0.508 OA
ATOM     19  H   UNL     1      47.979 -60.395 340.399  1.00  0.00     0.293 HD
ENDBRANCH  15  18
ENDBRANCH   1  12
BRANCH   2  20
ATOM     20  O   UNL     1      48.784 -63.659 334.472  1.00  0.00    -0.502 OA
ATOM     21  H   UNL     1      48.935 -63.599 335.472  1.00  0.00     0.293 HD
ENDBRANCH   2  20
BRANCH   6  22
ATOM     22  O   UNL     1      45.957 -64.639 330.066  1.00  0.00    -0.507 OA
ATOM     23  H   UNL     1      45.537 -64.995 329.220  1.00  0.00     0.293 HD
ENDBRANCH   6  22
BRANCH   8  24
ATOM     24  O   UNL     1      42.870 -60.985 330.189  1.00  0.00    -0.508 OA
ATOM     25  H   UNL     1      42.891 -60.743 329.205  1.00  0.00     0.293 HD
ENDBRANCH   8  24
TORSDOF 5
ENDMDL
MODEL 6
REMARK VINA RESULT:    -6.489     11.720     14.767
REMARK INTER + INTRA:          -7.765
REMARK INTER:                  -7.631
REMARK INTRA:                  -0.134
REMARK UNBOUND:                -0.138
REMARK SMILES O=c1c(O)c(-c2ccc(O)cc2)oc2cc(O)cc(O)c12
REMARK SMILES IDX 5 1 3 2 2 3 1 4 21 5 19 6 18 7 16 8 15 9 14 10 13 11 6 12
REMARK SMILES IDX 7 13 8 14 9 15 12 16 11 17 10 18 4 20 20 22 17 24
REMARK H PARENT 10 19 4 21 20 23 17 25
REMARK Flexibility Score: inf
ROOT
ATOM      1  C   UNL     1      46.965 -62.454 332.821  1.00  0.00     0.180 A 
ATOM      2  C   UNL     1      47.557 -63.712 333.022  1.00  0.00     0.208 A 
ATOM      3  C   UNL     1      48.093 -64.019 334.283  1.00  0.00     0.238 A 
ATOM      4  O   UNL     1      48.573 -65.167 334.474  1.00  0.00    -0.285 OA
ATOM      5  C   UNL     1      48.046 -63.056 335.322  1.00  0.00     0.111 A 
ATOM      6  C   UNL     1      48.594 -63.244 336.625  1.00  0.00     0.134 A 
ATOM      7  C   UNL     1      48.374 -62.276 337.614  1.00  0.00     0.093 A 
ATOM      8  C   UNL     1      47.685 -61.099 337.327  1.00  0.00     0.123 A 
ATOM      9  C   UNL     1      47.195 -60.879 336.039  1.00  0.00     0.094 A 
ATOM     10  C   UNL     1      47.366 -61.842 335.041  1.00  0.00     0.146 A 
ATOM     11  O   UNL     1      46.878 -61.598 333.832  1.00  0.00    -0.452 OA
ENDROOT
BRANCH   1  12
ATOM     12  C   UNL     1      46.401 -62.049 331.512  1.00  0.00     0.021 A 
ATOM     13  C   UNL     1      46.952 -60.986 330.774  1.00  0.00     0.016 A 
ATOM     14  C   UNL     1      46.387 -60.606 329.552  1.00  0.00     0.047 A 
ATOM     15  C   UNL     1      45.258 -61.274 329.060  1.00  0.00     0.115 A 
ATOM     16  C   UNL     1      45.257 -62.700 331.022  1.00  0.00     0.016 A 
ATOM     17  C   UNL     1      44.695 -62.319 329.799  1.00  0.00     0.047 A 
BRANCH  15  18
ATOM     18  O   UNL     1      44.689 -60.906 327.844  1.00  0.00    -0.508 OA
ATOM     19  H   UNL     1      44.530 -61.583 327.107  1.00  0.00     0.293 HD
ENDBRANCH  15  18
ENDBRANCH   1  12
BRANCH   2  20
ATOM     20  O   UNL     1      47.573 -64.655 331.991  1.00  0.00    -0.502 OA
ATOM     21  H   UNL     1      47.359 -64.415 331.030  1.00  0.00     0.293 HD
ENDBRANCH   2  20
BRANCH   6  22
ATOM     22  O   UNL     1      49.379 -64.341 336.992  1.00  0.00    -0.507 OA
ATOM     23  H   UNL     1      49.124 -65.306 336.842  1.00  0.00     0.293 HD
ENDBRANCH   6  22
BRANCH   8  24
ATOM     24  O   UNL     1      47.497 -60.150 338.329  1.00  0.00    -0.508 OA
ATOM     25  H   UNL     1      47.575 -60.392 339.311  1.00  0.00     0.293 HD
ENDBRANCH   8  24
TORSDOF 5
ENDMDL
MODEL 7
REMARK VINA RESULT:    -6.370      1.353      3.118
REMARK INTER + INTRA:          -7.625
REMARK INTER:                  -7.363
REMARK INTRA:                  -0.263
REMARK UNBOUND:                -0.138
REMARK SMILES O=c1c(O)c(-c2ccc(O)cc2)oc2cc(O)cc(O)c12
REMARK SMILES IDX 5 1 3 2 2 3 1 4 21 5 19 6 18 7 16 8 15 9 14 10 13 11 6 12
REMARK SMILES IDX 7 13 8 14 9 15 12 16 11 17 10 18 4 20 20 22 17 24
REMARK H PARENT 10 19 4 21 20 23 17 25
REMARK Flexibility Score: inf
ROOT
ATOM      1  C   UNL     1      38.056 -57.706 325.479  1.00  0.00     0.180 A 
ATOM      2  C   UNL     1      36.803 -57.796 324.850  1.00  0.00     0.208 A 
ATOM      3  C   UNL     1      35.899 -56.729 324.974  1.00  0.00     0.238 A 
ATOM      4  O   UNL     1      34.800 -56.792 324.363  1.00  0.00    -0.285 OA
ATOM      5  C   UNL     1      36.253 -55.592 325.741  1.00  0.00     0.111 A 
ATOM      6  C   UNL     1      35.400 -54.471 325.969  1.00  0.00     0.134 A 
ATOM      7  C   UNL     1      35.903 -53.344 326.633  1.00  0.00     0.093 A 
ATOM      8  C   UNL     1      37.203 -53.326 327.136  1.00  0.00     0.123 A 
ATOM      9  C   UNL     1      38.026 -54.440 326.971  1.00  0.00     0.094 A 
ATOM     10  C   UNL     1      37.566 -55.564 326.280  1.00  0.00     0.146 A 
ATOM     11  O   UNL     1      38.383 -56.600 326.136  1.00  0.00    -0.452 OA
ENDROOT
BRANCH   1  12
ATOM     12  C   UNL     1      39.051 -58.801 325.414  1.00  0.00     0.021 A 
ATOM     13  C   UNL     1      40.108 -58.777 324.486  1.00  0.00     0.016 A 
ATOM     14  C   UNL     1      41.021 -59.834 324.427  1.00  0.00     0.047 A 
ATOM     15  C   UNL     1      40.883 -60.933 325.285  1.00  0.00     0.115 A 
ATOM     16  C   UNL     1      38.907 -59.916 326.256  1.00  0.00     0.016 A 
ATOM     17  C   UNL     1      39.823 -60.971 326.196  1.00  0.00     0.047 A 
BRANCH  15  18
ATOM     18  O   UNL     1      41.788 -61.990 325.236  1.00  0.00    -0.508 OA
ATOM     19  H   UNL     1      42.736 -61.892 325.580  1.00  0.00     0.293 HD
ENDBRANCH  15  18
ENDBRANCH   1  12
BRANCH   2  20
ATOM     20  O   UNL     1      36.482 -58.917 324.080  1.00  0.00    -0.502 OA
ATOM     21  H   UNL     1      36.999 -59.786 324.141  1.00  0.00     0.293 HD
ENDBRANCH   2  20
BRANCH   6  22
ATOM     22  O   UNL     1      34.056 -54.422 325.590  1.00  0.00    -0.507 OA
ATOM     23  H   UNL     1      33.604 -55.094 324.988  1.00  0.00     0.293 HD
ENDBRANCH   6  22
BRANCH   8  24
ATOM     24  O   UNL     1      37.665 -52.195 327.806  1.00  0.00    -0.508 OA
ATOM     25  H   UNL     1      37.611 -52.117 328.815  1.00  0.00     0.293 HD
ENDBRANCH   8  24
TORSDOF 5
ENDMDL
MODEL 8
REMARK VINA RESULT:    -6.280     10.370     13.977
REMARK INTER + INTRA:          -7.519
REMARK INTER:                  -7.596
REMARK INTRA:                   0.076
REMARK UNBOUND:                -0.138
REMARK SMILES O=c1c(O)c(-c2ccc(O)cc2)oc2cc(O)cc(O)c12
REMARK SMILES IDX 5 1 3 2 2 3 1 4 21 5 19 6 18 7 16 8 15 9 14 10 13 11 6 12
REMARK SMILES IDX 7 13 8 14 9 15 12 16 11 17 10 18 4 20 20 22 17 24
REMARK H PARENT 10 19 4 21 20 23 17 25
REMARK Flexibility Score: inf
ROOT
ATOM      1  C   UNL     1      45.825 -63.134 331.558  1.00  0.00     0.180 A 
ATOM      2  C   UNL     1      46.264 -64.468 331.595  1.00  0.00     0.208 A 
ATOM      3  C   UNL     1      47.117 -64.875 332.634  1.00  0.00     0.238 A 
ATOM      4  O   UNL     1      47.464 -66.084 332.694  1.00  0.00    -0.285 OA
ATOM      5  C   UNL     1      47.534 -63.938 333.611  1.00  0.00     0.111 A 
ATOM      6  C   UNL     1      48.429 -64.230 334.683  1.00  0.00     0.134 A 
ATOM      7  C   UNL     1      48.669 -63.261 335.666  1.00  0.00     0.093 A 
ATOM      8  C   UNL     1      48.099 -61.992 335.580  1.00  0.00     0.123 A 
ATOM      9  C   UNL     1      47.269 -61.676 334.504  1.00  0.00     0.094 A 
ATOM     10  C   UNL     1      46.982 -62.633 333.527  1.00  0.00     0.146 A 
ATOM     11  O   UNL     1      46.180 -62.296 332.524  1.00  0.00    -0.452 OA
ENDROOT
BRANCH   1  12
ATOM     12  C   UNL     1      44.944 -62.624 330.480  1.00  0.00     0.021 A 
ATOM     13  C   UNL     1      45.187 -62.930 329.129  1.00  0.00     0.016 A 
ATOM     14  C   UNL     1      44.357 -62.417 328.128  1.00  0.00     0.047 A 
ATOM     15  C   UNL     1      43.281 -61.584 328.463  1.00  0.00     0.115 A 
ATOM     16  C   UNL     1      43.876 -61.771 330.806  1.00  0.00     0.016 A 
ATOM     17  C   UNL     1      43.046 -61.261 329.803  1.00  0.00     0.047 A 
BRANCH  15  18
ATOM     18  O   UNL     1      42.446 -61.070 327.474  1.00  0.00    -0.508 OA
ATOM     19  H   UNL     1      42.398 -60.075 327.286  1.00  0.00     0.293 HD
ENDBRANCH  15  18
ENDBRANCH   1  12
BRANCH   2  20
ATOM     20  O   UNL     1      45.823 -65.381 330.634  1.00  0.00    -0.502 OA
ATOM     21  H   UNL     1      46.020 -65.269 329.647  1.00  0.00     0.293 HD
ENDBRANCH   2  20
BRANCH   6  22
ATOM     22  O   UNL     1      49.124 -65.436 334.814  1.00  0.00    -0.507 OA
ATOM     23  H   UNL     1      49.700 -65.848 334.096  1.00  0.00     0.293 HD
ENDBRANCH   6  22
BRANCH   8  24
ATOM     24  O   UNL     1      48.372 -61.047 336.567  1.00  0.00    -0.508 OA
ATOM     25  H   UNL     1      47.720 -60.301 336.781  1.00  0.00     0.293 HD
ENDBRANCH   8  24
TORSDOF 5
ENDMDL
MODEL 9
REMARK VINA RESULT:    -6.129      9.787     12.846
REMARK INTER + INTRA:          -7.342
REMARK INTER:                  -7.212
REMARK INTRA:                  -0.130
REMARK UNBOUND:                -0.138
REMARK SMILES O=c1c(O)c(-c2ccc(O)cc2)oc2cc(O)cc(O)c12
REMARK SMILES IDX 5 1 3 2 2 3 1 4 21 5 19 6 18 7 16 8 15 9 14 10 13 11 6 12
REMARK SMILES IDX 7 13 8 14 9 15 12 16 11 17 10 18 4 20 20 22 17 24
REMARK H PARENT 10 19 4 21 20 23 17 25
REMARK Flexibility Score: inf
ROOT
ATOM      1  C   UNL     1      45.888 -62.377 331.617  1.00  0.00     0.180 A 
ATOM      2  C   UNL     1      44.871 -61.598 331.039  1.00  0.00     0.208 A 
ATOM      3  C   UNL     1      44.331 -61.990 329.804  1.00  0.00     0.238 A 
ATOM      4  O   UNL     1      43.383 -61.319 329.318  1.00  0.00    -0.285 OA
ATOM      5  C   UNL     1      44.826 -63.147 329.154  1.00  0.00     0.111 A 
ATOM      6  C   UNL     1      44.380 -63.614 327.882  1.00  0.00     0.134 A 
ATOM      7  C   UNL     1      44.846 -64.842 327.395  1.00  0.00     0.093 A 
ATOM      8  C   UNL     1      45.789 -65.585 328.102  1.00  0.00     0.123 A 
ATOM      9  C   UNL     1      46.276 -65.109 329.319  1.00  0.00     0.094 A 
ATOM     10  C   UNL     1      45.804 -63.906 329.849  1.00  0.00     0.146 A 
ATOM     11  O   UNL     1      46.285 -63.492 331.015  1.00  0.00    -0.452 OA
ENDROOT
BRANCH   1  12
ATOM     12  C   UNL     1      46.524 -62.014 332.904  1.00  0.00     0.021 A 
ATOM     13  C   UNL     1      47.888 -61.676 332.978  1.00  0.00     0.016 A 
ATOM     14  C   UNL     1      48.472 -61.360 334.209  1.00  0.00     0.047 A 
ATOM     15  C   UNL     1      47.705 -61.390 335.382  1.00  0.00     0.115 A 
ATOM     16  C   UNL     1      45.767 -62.062 334.087  1.00  0.00     0.016 A 
ATOM     17  C   UNL     1      46.354 -61.745 335.316  1.00  0.00     0.047 A 
BRANCH  15  18
ATOM     18  O   UNL     1      48.276 -61.076 336.612  1.00  0.00    -0.508 OA
ATOM     19  H   UNL     1      47.726 -60.678 337.365  1.00  0.00     0.293 HD
ENDBRANCH  15  18
ENDBRANCH   1  12
BRANCH   2  20
ATOM     20  O   UNL     1      44.383 -60.472 331.708  1.00  0.00    -0.502 OA
ATOM     21  H   UNL     1      44.650 -60.245 332.658  1.00  0.00     0.293 HD
ENDBRANCH   2  20
BRANCH   6  22
ATOM     22  O   UNL     1      43.509 -62.904 327.050  1.00  0.00    -0.507 OA
ATOM     23  H   UNL     1      42.512 -63.056 326.999  1.00  0.00     0.293 HD
ENDBRANCH   6  22
BRANCH   8  24
ATOM     24  O   UNL     1      46.243 -66.795 327.580  1.00  0.00    -0.508 OA
ATOM     25  H   UNL     1      45.613 -67.446 327.126  1.00  0.00     0.293 HD
ENDBRANCH   8  24
TORSDOF 5
ENDMDL
