MODEL 1
REMARK VINA RESULT:    -5.029      0.000      0.000
REMARK INTER + INTRA:         -19.053
REMARK INTER:                 -13.261
REMARK INTRA:                  -5.791
REMARK UNBOUND:                -5.791
REMARK SMILES CCCCCCCCCCCCCCCCCCCCCCCCCCCCCC(=O)[O-]
REMARK SMILES IDX 16 1 17 2 18 3 19 4 20 5 21 6 22 7 23 8 24 9 25 10 26 11
REMARK SMILES IDX 27 12 28 13 29 14 30 15 31 16 32 17 15 18 14 19 13 20 12 21
REMARK SMILES IDX 11 22 10 23 9 24 8 25 7 26 6 27 5 28 4 29 3 30 2 31 1 32
REMARK H PARENT
REMARK Flexibility Score: inf
ROOT
ATOM      1  C   UNL     1      15.209 -30.209  23.109  1.00  0.00     0.000 C 
ENDROOT
BRANCH   1   2
ATOM      2  C   UNL     1      16.457 -30.711  23.858  1.00  0.00     0.000 C 
BRANCH   2   3
ATOM      3  C   UNL     1      17.677 -30.868  22.925  1.00  0.00     0.000 C 
BRANCH   3   4
ATOM      4  C   UNL     1      17.336 -30.785  21.427  1.00  0.00     0.000 C 
BRANCH   4   5
ATOM      5  C   UNL     1      17.835 -32.001  20.631  1.00  0.00     0.000 C 
BRANCH   5   6
ATOM      6  C   UNL     1      18.768 -32.906  21.451  1.00  0.00     0.000 C 
BRANCH   6   7
ATOM      7  C   UNL     1      20.027 -33.322  20.670  1.00  0.00     0.000 C 
BRANCH   7   8
ATOM      8  C   UNL     1      21.308 -32.677  21.223  1.00  0.00     0.000 C 
BRANCH   8   9
ATOM      9  C   UNL     1      21.075 -31.949  22.557  1.00  0.00     0.000 C 
BRANCH   9  10
ATOM     10  C   UNL     1      21.305 -30.432  22.446  1.00  0.00     0.000 C 
BRANCH  10  11
ATOM     11  C   UNL     1      20.930 -29.879  21.060  1.00  0.00     0.000 C 
BRANCH  11  12
ATOM     12  C   UNL     1      21.278 -28.390  20.905  1.00  0.00     0.000 C 
BRANCH  12  13
ATOM     13  C   UNL     1      20.029 -27.510  20.732  1.00  0.00     0.006 C 
BRANCH  13  14
ATOM     14  C   UNL     1      20.418 -26.066  20.399  1.00  0.00     0.053 C 
BRANCH  14  15
ATOM     15  C   UNL     1      21.240 -25.470  21.500  1.00  0.00     0.041 C 
ATOM     16  O   UNL     1      22.387 -25.005  21.257  1.00  0.00    -0.550 OA
ATOM     17  O   UNL     1      20.737 -25.418  22.795  1.00  0.00    -0.550 OA
ENDBRANCH  14  15
ENDBRANCH  13  14
ENDBRANCH  12  13
ENDBRANCH  11  12
ENDBRANCH  10  11
ENDBRANCH   9  10
ENDBRANCH   8   9
ENDBRANCH   7   8
ENDBRANCH   6   7
ENDBRANCH   5   6
ENDBRANCH   4   5
ENDBRANCH   3   4
ENDBRANCH   2   3
ENDBRANCH   1   2
BRANCH   1  18
ATOM     18  C   UNL     1      13.948 -31.039  23.411  1.00  0.00     0.000 C 
BRANCH  18  19
ATOM     19  C   UNL     1      13.082 -31.386  22.185  1.00  0.00     0.000 C 
BRANCH  19  20
ATOM     20  C   UNL     1      13.842 -32.028  21.008  1.00  0.00     0.000 C 
BRANCH  20  21
ATOM     21  C   UNL     1      14.522 -33.374  21.327  1.00  0.00     0.000 C 
BRANCH  21  22
ATOM     22  C   UNL     1      14.838 -34.255  20.102  1.00  0.00     0.000 C 
BRANCH  22  23
ATOM     23  C   UNL     1      15.804 -35.422  20.372  1.00  0.00     0.000 C 
BRANCH  23  24
ATOM     24  C   UNL     1      16.994 -35.456  19.399  1.00  0.00    -0.000 C 
BRANCH  24  25
ATOM     25  C   UNL     1      18.115 -36.414  19.864  1.00  0.00    -0.000 C 
BRANCH  25  26
ATOM     26  C   UNL     1      17.859 -37.044  21.246  1.00  0.00    -0.000 C 
BRANCH  26  27
ATOM     27  C   UNL     1      18.694 -36.441  22.390  1.00  0.00    -0.000 C 
BRANCH  27  28
ATOM     28  C   UNL     1      17.911 -36.287  23.714  1.00  0.00    -0.000 C 
BRANCH  28  29
ATOM     29  C   UNL     1      16.946 -35.092  23.694  1.00  0.00    -0.000 C 
BRANCH  29  30
ATOM     30  C   UNL     1      17.160 -34.128  24.873  1.00  0.00    -0.000 C 
BRANCH  30  31
ATOM     31  C   UNL     1      18.629 -33.754  25.143  1.00  0.00    -0.003 C 
ATOM     32  C   UNL     1      18.778 -32.603  26.138  1.00  0.00     0.004 C 
ENDBRANCH  30  31
ENDBRANCH  29  30
ENDBRANCH  28  29
ENDBRANCH  27  28
ENDBRANCH  26  27
ENDBRANCH  25  26
ENDBRANCH  24  25
ENDBRANCH  23  24
ENDBRANCH  22  23
ENDBRANCH  21  22
ENDBRANCH  20  21
ENDBRANCH  19  20
ENDBRANCH  18  19
ENDBRANCH   1  18
TORSDOF 28
ENDMDL
MODEL 2
REMARK VINA RESULT:    -4.663      2.736      4.557
REMARK INTER + INTRA:         -18.087
REMARK INTER:                 -11.455
REMARK INTRA:                  -6.632
REMARK UNBOUND:                -5.791
REMARK SMILES CCCCCCCCCCCCCCCCCCCCCCCCCCCCCC(=O)[O-]
REMARK SMILES IDX 16 1 17 2 18 3 19 4 20 5 21 6 22 7 23 8 24 9 25 10 26 11
REMARK SMILES IDX 27 12 28 13 29 14 30 15 31 16 32 17 15 18 14 19 13 20 12 21
REMARK SMILES IDX 11 22 10 23 9 24 8 25 7 26 6 27 5 28 4 29 3 30 2 31 1 32
REMARK H PARENT
REMARK Flexibility Score: inf
ROOT
ATOM      1  C   UNL     1      14.271 -31.288  24.248  1.00  0.00     0.000 C 
ENDROOT
BRANCH   1   2
ATOM      2  C   UNL     1      13.918 -32.751  24.568  1.00  0.00     0.000 C 
BRANCH   2   3
ATOM      3  C   UNL     1      15.079 -33.718  24.251  1.00  0.00     0.000 C 
BRANCH   3   4
ATOM      4  C   UNL     1      16.401 -33.016  23.898  1.00  0.00     0.000 C 
BRANCH   4   5
ATOM      5  C   UNL     1      17.491 -33.991  23.425  1.00  0.00     0.000 C 
BRANCH   5   6
ATOM      6  C   UNL     1      17.125 -35.461  23.685  1.00  0.00     0.000 C 
BRANCH   6   7
ATOM      7  C   UNL     1      18.361 -36.375  23.754  1.00  0.00     0.000 C 
BRANCH   7   8
ATOM      8  C   UNL     1      19.681 -35.601  23.609  1.00  0.00     0.000 C 
BRANCH   8   9
ATOM      9  C   UNL     1      20.532 -35.640  24.889  1.00  0.00     0.000 C 
BRANCH   9  10
ATOM     10  C   UNL     1      21.728 -34.673  24.828  1.00  0.00     0.000 C 
BRANCH  10  11
ATOM     11  C   UNL     1      21.499 -33.515  23.841  1.00  0.00     0.000 C 
BRANCH  11  12
ATOM     12  C   UNL     1      22.232 -32.230  24.260  1.00  0.00     0.000 C 
BRANCH  12  13
ATOM     13  C   UNL     1      21.301 -31.219  24.948  1.00  0.00     0.006 C 
BRANCH  13  14
ATOM     14  C   UNL     1      19.833 -31.628  24.785  1.00  0.00     0.053 C 
BRANCH  14  15
ATOM     15  C   UNL     1      19.177 -31.798  26.121  1.00  0.00     0.041 C 
ATOM     16  O   UNL     1      18.958 -30.795  26.854  1.00  0.00    -0.550 OA
ATOM     17  O   UNL     1      18.800 -33.063  26.556  1.00  0.00    -0.550 OA
ENDBRANCH  14  15
ENDBRANCH  13  14
ENDBRANCH  12  13
ENDBRANCH  11  12
ENDBRANCH  10  11
ENDBRANCH   9  10
ENDBRANCH   8   9
ENDBRANCH   7   8
ENDBRANCH   6   7
ENDBRANCH   5   6
ENDBRANCH   4   5
ENDBRANCH   3   4
ENDBRANCH   2   3
ENDBRANCH   1   2
BRANCH   1  18
ATOM     18  C   UNL     1      13.267 -30.619  23.291  1.00  0.00     0.000 C 
BRANCH  18  19
ATOM     19  C   UNL     1      12.881 -31.457  22.057  1.00  0.00     0.000 C 
BRANCH  19  20
ATOM     20  C   UNL     1      14.019 -31.696  21.046  1.00  0.00     0.000 C 
BRANCH  20  21
ATOM     21  C   UNL     1      14.068 -33.114  20.443  1.00  0.00     0.000 C 
BRANCH  21  22
ATOM     22  C   UNL     1      15.448 -33.799  20.494  1.00  0.00     0.000 C 
BRANCH  22  23
ATOM     23  C   UNL     1      15.409 -35.338  20.529  1.00  0.00     0.000 C 
BRANCH  23  24
ATOM     24  C   UNL     1      16.663 -35.986  19.920  1.00  0.00    -0.000 C 
BRANCH  24  25
ATOM     25  C   UNL     1      17.728 -34.947  19.506  1.00  0.00    -0.000 C 
BRANCH  25  26
ATOM     26  C   UNL     1      19.142 -35.265  20.028  1.00  0.00    -0.000 C 
BRANCH  26  27
ATOM     27  C   UNL     1      20.017 -34.029  20.302  1.00  0.00    -0.000 C 
BRANCH  27  28
ATOM     28  C   UNL     1      19.204 -32.749  20.603  1.00  0.00    -0.000 C 
BRANCH  28  29
ATOM     29  C   UNL     1      20.097 -31.558  20.984  1.00  0.00    -0.000 C 
BRANCH  29  30
ATOM     30  C   UNL     1      19.299 -30.358  21.523  1.00  0.00    -0.000 C 
BRANCH  30  31
ATOM     31  C   UNL     1      17.803 -30.362  21.159  1.00  0.00    -0.003 C 
ATOM     32  C   UNL     1      16.931 -29.685  22.216  1.00  0.00     0.004 C 
ENDBRANCH  30  31
ENDBRANCH  29  30
ENDBRANCH  28  29
ENDBRANCH  27  28
ENDBRANCH  26  27
ENDBRANCH  25  26
ENDBRANCH  24  25
ENDBRANCH  23  24
ENDBRANCH  22  23
ENDBRANCH  21  22
ENDBRANCH  20  21
ENDBRANCH  19  20
ENDBRANCH  18  19
ENDBRANCH   1  18
TORSDOF 28
ENDMDL
MODEL 3
REMARK VINA RESULT:    -4.638      4.238      7.652
REMARK INTER + INTRA:         -18.021
REMARK INTER:                 -12.182
REMARK INTRA:                  -5.839
REMARK UNBOUND:                -5.791
REMARK SMILES CCCCCCCCCCCCCCCCCCCCCCCCCCCCCC(=O)[O-]
REMARK SMILES IDX 16 1 17 2 18 3 19 4 20 5 21 6 22 7 23 8 24 9 25 10 26 11
REMARK SMILES IDX 27 12 28 13 29 14 30 15 31 16 32 17 15 18 14 19 13 20 12 21
REMARK SMILES IDX 11 22 10 23 9 24 8 25 7 26 6 27 5 28 4 29 3 30 2 31 1 32
REMARK H PARENT
REMARK Flexibility Score: inf
ROOT
ATOM      1  C   UNL     1      15.510 -34.192  24.006  1.00  0.00     0.000 C 
ENDROOT
BRANCH   1   2
ATOM      2  C   UNL     1      16.010 -34.620  22.615  1.00  0.00     0.000 C 
BRANCH   2   3
ATOM      3  C   UNL     1      15.025 -34.232  21.492  1.00  0.00     0.000 C 
BRANCH   3   4
ATOM      4  C   UNL     1      15.394 -34.796  20.110  1.00  0.00     0.000 C 
BRANCH   4   5
ATOM      5  C   UNL     1      16.821 -34.427  19.673  1.00  0.00     0.000 C 
BRANCH   5   6
ATOM      6  C   UNL     1      17.689 -35.660  19.377  1.00  0.00     0.000 C 
BRANCH   6   7
ATOM      7  C   UNL     1      17.005 -36.978  19.781  1.00  0.00     0.000 C 
BRANCH   7   8
ATOM      8  C   UNL     1      17.934 -37.910  20.576  1.00  0.00     0.000 C 
BRANCH   8   9
ATOM      9  C   UNL     1      18.883 -37.141  21.510  1.00  0.00     0.000 C 
BRANCH   9  10
ATOM     10  C   UNL     1      18.722 -37.557  22.982  1.00  0.00     0.000 C 
BRANCH  10  11
ATOM     11  C   UNL     1      19.027 -36.406  23.957  1.00  0.00     0.000 C 
BRANCH  11  12
ATOM     12  C   UNL     1      19.438 -36.908  25.351  1.00  0.00     0.000 C 
BRANCH  12  13
ATOM     13  C   UNL     1      18.526 -38.034  25.863  1.00  0.00     0.006 C 
BRANCH  13  14
ATOM     14  C   UNL     1      17.263 -37.462  26.515  1.00  0.00     0.053 C 
BRANCH  14  15
ATOM     15  C   UNL     1      17.343 -37.563  28.007  1.00  0.00     0.041 C 
ATOM     16  O   UNL     1      16.343 -37.268  28.718  1.00  0.00    -0.550 OA
ATOM     17  O   UNL     1      18.518 -37.988  28.615  1.00  0.00    -0.550 OA
ENDBRANCH  14  15
ENDBRANCH  13  14
ENDBRANCH  12  13
ENDBRANCH  11  12
ENDBRANCH  10  11
ENDBRANCH   9  10
ENDBRANCH   8   9
ENDBRANCH   7   8
ENDBRANCH   6   7
ENDBRANCH   5   6
ENDBRANCH   4   5
ENDBRANCH   3   4
ENDBRANCH   2   3
ENDBRANCH   1   2
BRANCH   1  18
ATOM     18  C   UNL     1      16.619 -34.190  25.073  1.00  0.00     0.000 C 
BRANCH  18  19
ATOM     19  C   UNL     1      17.566 -32.976  25.032  1.00  0.00     0.000 C 
BRANCH  19  20
ATOM     20  C   UNL     1      18.705 -32.998  26.070  1.00  0.00     0.000 C 
BRANCH  20  21
ATOM     21  C   UNL     1      20.118 -33.189  25.484  1.00  0.00     0.000 C 
BRANCH  21  22
ATOM     22  C   UNL     1      20.412 -32.377  24.206  1.00  0.00     0.000 C 
BRANCH  22  23
ATOM     23  C   UNL     1      20.663 -33.220  22.944  1.00  0.00     0.000 C 
BRANCH  23  24
ATOM     24  C   UNL     1      19.441 -33.290  22.013  1.00  0.00    -0.000 C 
BRANCH  24  25
ATOM     25  C   UNL     1      19.430 -32.158  20.961  1.00  0.00    -0.000 C 
BRANCH  25  26
ATOM     26  C   UNL     1      18.118 -31.352  20.929  1.00  0.00    -0.000 C 
BRANCH  26  27
ATOM     27  C   UNL     1      17.902 -30.432  22.143  1.00  0.00    -0.000 C 
BRANCH  27  28
ATOM     28  C   UNL     1      16.509 -30.582  22.795  1.00  0.00    -0.000 C 
BRANCH  28  29
ATOM     29  C   UNL     1      15.365 -30.501  21.771  1.00  0.00    -0.000 C 
BRANCH  29  30
ATOM     30  C   UNL     1      13.990 -30.823  22.381  1.00  0.00    -0.000 C 
BRANCH  30  31
ATOM     31  C   UNL     1      13.898 -30.628  23.906  1.00  0.00    -0.003 C 
ATOM     32  C   UNL     1      12.996 -29.459  24.303  1.00  0.00     0.004 C 
ENDBRANCH  30  31
ENDBRANCH  29  30
ENDBRANCH  28  29
ENDBRANCH  27  28
ENDBRANCH  26  27
ENDBRANCH  25  26
ENDBRANCH  24  25
ENDBRANCH  23  24
ENDBRANCH  22  23
ENDBRANCH  21  22
ENDBRANCH  20  21
ENDBRANCH  19  20
ENDBRANCH  18  19
ENDBRANCH   1  18
TORSDOF 28
ENDMDL
MODEL 4
REMARK VINA RESULT:    -4.631      2.994      5.392
REMARK INTER + INTRA:         -18.002
REMARK INTER:                 -12.573
REMARK INTRA:                  -5.429
REMARK UNBOUND:                -5.791
REMARK SMILES CCCCCCCCCCCCCCCCCCCCCCCCCCCCCC(=O)[O-]
REMARK SMILES IDX 16 1 17 2 18 3 19 4 20 5 21 6 22 7 23 8 24 9 25 10 26 11
REMARK SMILES IDX 27 12 28 13 29 14 30 15 31 16 32 17 15 18 14 19 13 20 12 21
REMARK SMILES IDX 11 22 10 23 9 24 8 25 7 26 6 27 5 28 4 29 3 30 2 31 1 32
REMARK H PARENT
REMARK Flexibility Score: inf
ROOT
ATOM      1  C   UNL     1      17.951 -31.050  22.625  1.00  0.00     0.000 C 
ENDROOT
BRANCH   1   2
ATOM      2  C   UNL     1      18.790 -31.997  21.748  1.00  0.00     0.000 C 
BRANCH   2   3
ATOM      3  C   UNL     1      18.020 -32.475  20.498  1.00  0.00     0.000 C 
BRANCH   3   4
ATOM      4  C   UNL     1      18.318 -33.929  20.095  1.00  0.00     0.000 C 
BRANCH   4   5
ATOM      5  C   UNL     1      17.204 -34.555  19.242  1.00  0.00     0.000 C 
BRANCH   5   6
ATOM      6  C   UNL     1      16.744 -35.921  19.775  1.00  0.00     0.000 C 
BRANCH   6   7
ATOM      7  C   UNL     1      17.708 -37.060  19.398  1.00  0.00     0.000 C 
BRANCH   7   8
ATOM      8  C   UNL     1      18.002 -38.004  20.576  1.00  0.00     0.000 C 
BRANCH   8   9
ATOM      9  C   UNL     1      18.311 -37.245  21.878  1.00  0.00     0.000 C 
BRANCH   9  10
ATOM     10  C   UNL     1      19.561 -37.788  22.590  1.00  0.00     0.000 C 
BRANCH  10  11
ATOM     11  C   UNL     1      20.220 -36.740  23.504  1.00  0.00     0.000 C 
BRANCH  11  12
ATOM     12  C   UNL     1      20.287 -35.349  22.854  1.00  0.00     0.000 C 
BRANCH  12  13
ATOM     13  C   UNL     1      21.486 -34.525  23.351  1.00  0.00     0.006 C 
BRANCH  13  14
ATOM     14  C   UNL     1      22.100 -33.708  22.209  1.00  0.00     0.053 C 
BRANCH  14  15
ATOM     15  C   UNL     1      23.565 -33.495  22.437  1.00  0.00     0.041 C 
ATOM     16  O   UNL     1      24.405 -34.328  21.998  1.00  0.00    -0.550 OA
ATOM     17  O   UNL     1      24.007 -32.372  23.128  1.00  0.00    -0.550 OA
ENDBRANCH  14  15
ENDBRANCH  13  14
ENDBRANCH  12  13
ENDBRANCH  11  12
ENDBRANCH  10  11
ENDBRANCH   9  10
ENDBRANCH   8   9
ENDBRANCH   7   8
ENDBRANCH   6   7
ENDBRANCH   5   6
ENDBRANCH   4   5
ENDBRANCH   3   4
ENDBRANCH   2   3
ENDBRANCH   1   2
BRANCH   1  18
ATOM     18  C   UNL     1      17.136 -30.031  21.807  1.00  0.00     0.000 C 
BRANCH  18  19
ATOM     19  C   UNL     1      15.685 -29.823  22.279  1.00  0.00     0.000 C 
BRANCH  19  20
ATOM     20  C   UNL     1      15.322 -30.516  23.607  1.00  0.00     0.000 C 
BRANCH  20  21
ATOM     21  C   UNL     1      14.221 -31.590  23.503  1.00  0.00     0.000 C 
BRANCH  21  22
ATOM     22  C   UNL     1      14.113 -32.287  22.132  1.00  0.00     0.000 C 
BRANCH  22  23
ATOM     23  C   UNL     1      14.874 -33.620  22.017  1.00  0.00     0.000 C 
BRANCH  23  24
ATOM     24  C   UNL     1      15.283 -34.199  23.382  1.00  0.00    -0.000 C 
BRANCH  24  25
ATOM     25  C   UNL     1      16.787 -34.545  23.454  1.00  0.00    -0.000 C 
BRANCH  25  26
ATOM     26  C   UNL     1      17.470 -34.078  24.753  1.00  0.00    -0.000 C 
BRANCH  26  27
ATOM     27  C   UNL     1      17.185 -34.962  25.980  1.00  0.00    -0.000 C 
BRANCH  27  28
ATOM     28  C   UNL     1      17.140 -36.473  25.658  1.00  0.00    -0.000 C 
BRANCH  28  29
ATOM     29  C   UNL     1      17.870 -37.323  26.710  1.00  0.00    -0.000 C 
BRANCH  29  30
ATOM     30  C   UNL     1      17.258 -38.725  26.878  1.00  0.00    -0.000 C 
BRANCH  30  31
ATOM     31  C   UNL     1      16.462 -38.930  28.179  1.00  0.00    -0.003 C 
ATOM     32  C   UNL     1      16.137 -37.618  28.893  1.00  0.00     0.004 C 
ENDBRANCH  30  31
ENDBRANCH  29  30
ENDBRANCH  28  29
ENDBRANCH  27  28
ENDBRANCH  26  27
ENDBRANCH  25  26
ENDBRANCH  24  25
ENDBRANCH  23  24
ENDBRANCH  22  23
ENDBRANCH  21  22
ENDBRANCH  20  21
ENDBRANCH  19  20
ENDBRANCH  18  19
ENDBRANCH   1  18
TORSDOF 28
ENDMDL
MODEL 5
REMARK VINA RESULT:    -4.624      4.419      7.208
REMARK INTER + INTRA:         -17.984
REMARK INTER:                 -11.686
REMARK INTRA:                  -6.299
REMARK UNBOUND:                -5.791
REMARK SMILES CCCCCCCCCCCCCCCCCCCCCCCCCCCCCC(=O)[O-]
REMARK SMILES IDX 16 1 17 2 18 3 19 4 20 5 21 6 22 7 23 8 24 9 25 10 26 11
REMARK SMILES IDX 27 12 28 13 29 14 30 15 31 16 32 17 15 18 14 19 13 20 12 21
REMARK SMILES IDX 11 22 10 23 9 24 8 25 7 26 6 27 5 28 4 29 3 30 2 31 1 32
REMARK H PARENT
REMARK Flexibility Score: inf
ROOT
ATOM      1  C   UNL     1      16.208 -34.740  22.289  1.00  0.00     0.000 C 
ENDROOT
BRANCH   1   2
ATOM      2  C   UNL     1      15.402 -35.017  21.007  1.00  0.00     0.000 C 
BRANCH   2   3
ATOM      3  C   UNL     1      16.195 -34.669  19.729  1.00  0.00     0.000 C 
BRANCH   3   4
ATOM      4  C   UNL     1      17.369 -35.620  19.441  1.00  0.00     0.000 C 
BRANCH   4   5
ATOM      5  C   UNL     1      16.947 -37.098  19.399  1.00  0.00     0.000 C 
BRANCH   5   6
ATOM      6  C   UNL     1      17.726 -37.967  20.398  1.00  0.00     0.000 C 
BRANCH   6   7
ATOM      7  C   UNL     1      18.813 -37.177  21.149  1.00  0.00     0.000 C 
BRANCH   7   8
ATOM      8  C   UNL     1      19.232 -37.849  22.467  1.00  0.00     0.000 C 
BRANCH   8   9
ATOM      9  C   UNL     1      20.466 -37.186  23.101  1.00  0.00     0.000 C 
BRANCH   9  10
ATOM     10  C   UNL     1      20.150 -36.540  24.461  1.00  0.00     0.000 C 
BRANCH  10  11
ATOM     11  C   UNL     1      18.747 -35.907  24.501  1.00  0.00     0.000 C 
BRANCH  11  12
ATOM     12  C   UNL     1      18.177 -35.828  25.926  1.00  0.00     0.000 C 
BRANCH  12  13
ATOM     13  C   UNL     1      17.003 -36.797  26.144  1.00  0.00     0.006 C 
BRANCH  13  14
ATOM     14  C   UNL     1      17.467 -38.064  26.870  1.00  0.00     0.053 C 
BRANCH  14  15
ATOM     15  C   UNL     1      17.542 -37.832  28.348  1.00  0.00     0.041 C 
ATOM     16  O   UNL     1      18.618 -38.048  28.971  1.00  0.00    -0.550 OA
ATOM     17  O   UNL     1      16.428 -37.372  29.039  1.00  0.00    -0.550 OA
ENDBRANCH  14  15
ENDBRANCH  13  14
ENDBRANCH  12  13
ENDBRANCH  11  12
ENDBRANCH  10  11
ENDBRANCH   9  10
ENDBRANCH   8   9
ENDBRANCH   7   8
ENDBRANCH   6   7
ENDBRANCH   5   6
ENDBRANCH   4   5
ENDBRANCH   3   4
ENDBRANCH   2   3
ENDBRANCH   1   2
BRANCH   1  18
ATOM     18  C   UNL     1      15.318 -34.450  23.511  1.00  0.00     0.000 C 
BRANCH  18  19
ATOM     19  C   UNL     1      15.522 -33.065  24.155  1.00  0.00     0.000 C 
BRANCH  19  20
ATOM     20  C   UNL     1      16.986 -32.594  24.244  1.00  0.00     0.000 C 
BRANCH  20  21
ATOM     21  C   UNL     1      17.217 -31.113  23.882  1.00  0.00     0.000 C 
BRANCH  21  22
ATOM     22  C   UNL     1      16.472 -30.622  22.625  1.00  0.00     0.000 C 
BRANCH  22  23
ATOM     23  C   UNL     1      16.882 -31.315  21.313  1.00  0.00     0.000 C 
BRANCH  23  24
ATOM     24  C   UNL     1      18.392 -31.234  21.036  1.00  0.00    -0.000 C 
BRANCH  24  25
ATOM     25  C   UNL     1      19.002 -32.604  20.662  1.00  0.00    -0.000 C 
BRANCH  25  26
ATOM     26  C   UNL     1      19.587 -33.372  21.863  1.00  0.00    -0.000 C 
BRANCH  26  27
ATOM     27  C   UNL     1      21.010 -33.917  21.644  1.00  0.00    -0.000 C 
BRANCH  27  28
ATOM     28  C   UNL     1      22.043 -33.378  22.659  1.00  0.00    -0.000 C 
BRANCH  28  29
ATOM     29  C   UNL     1      21.609 -32.047  23.293  1.00  0.00    -0.000 C 
BRANCH  29  30
ATOM     30  C   UNL     1      21.618 -32.084  24.831  1.00  0.00    -0.000 C 
BRANCH  30  31
ATOM     31  C   UNL     1      20.475 -32.900  25.463  1.00  0.00    -0.003 C 
ATOM     32  C   UNL     1      19.844 -32.205  26.670  1.00  0.00     0.004 C 
ENDBRANCH  30  31
ENDBRANCH  29  30
ENDBRANCH  28  29
ENDBRANCH  27  28
ENDBRANCH  26  27
ENDBRANCH  25  26
ENDBRANCH  24  25
ENDBRANCH  23  24
ENDBRANCH  22  23
ENDBRANCH  21  22
ENDBRANCH  20  21
ENDBRANCH  19  20
ENDBRANCH  18  19
ENDBRANCH   1  18
TORSDOF 28
ENDMDL
MODEL 6
REMARK VINA RESULT:    -4.583      3.583      7.115
REMARK INTER + INTRA:         -17.877
REMARK INTER:                 -12.050
REMARK INTRA:                  -5.828
REMARK UNBOUND:                -5.791
REMARK SMILES CCCCCCCCCCCCCCCCCCCCCCCCCCCCCC(=O)[O-]
REMARK SMILES IDX 16 1 17 2 18 3 19 4 20 5 21 6 22 7 23 8 24 9 25 10 26 11
REMARK SMILES IDX 27 12 28 13 29 14 30 15 31 16 32 17 15 18 14 19 13 20 12 21
REMARK SMILES IDX 11 22 10 23 9 24 8 25 7 26 6 27 5 28 4 29 3 30 2 31 1 32
REMARK H PARENT
REMARK Flexibility Score: inf
ROOT
ATOM      1  C   UNL     1      16.864 -35.681  19.728  1.00  0.00     0.000 C 
ENDROOT
BRANCH   1   2
ATOM      2  C   UNL     1      18.400 -35.781  19.765  1.00  0.00     0.000 C 
BRANCH   2   3
ATOM      3  C   UNL     1      19.069 -34.416  20.032  1.00  0.00     0.000 C 
BRANCH   3   4
ATOM      4  C   UNL     1      20.322 -34.494  20.921  1.00  0.00     0.000 C 
BRANCH   4   5
ATOM      5  C   UNL     1      20.971 -33.123  21.165  1.00  0.00     0.000 C 
BRANCH   5   6
ATOM      6  C   UNL     1      21.724 -33.052  22.503  1.00  0.00     0.000 C 
BRANCH   6   7
ATOM      7  C   UNL     1      20.827 -33.389  23.707  1.00  0.00     0.000 C 
BRANCH   7   8
ATOM      8  C   UNL     1      19.578 -32.496  23.784  1.00  0.00     0.000 C 
BRANCH   8   9
ATOM      9  C   UNL     1      18.800 -32.681  25.098  1.00  0.00     0.000 C 
BRANCH   9  10
ATOM     10  C   UNL     1      17.445 -33.376  24.884  1.00  0.00     0.000 C 
BRANCH  10  11
ATOM     11  C   UNL     1      17.321 -34.009  23.487  1.00  0.00     0.000 C 
BRANCH  11  12
ATOM     12  C   UNL     1      16.961 -35.502  23.546  1.00  0.00     0.000 C 
BRANCH  12  13
ATOM     13  C   UNL     1      17.973 -36.318  24.367  1.00  0.00     0.006 C 
BRANCH  13  14
ATOM     14  C   UNL     1      19.144 -36.778  23.493  1.00  0.00     0.053 C 
BRANCH  14  15
ATOM     15  C   UNL     1      19.720 -38.060  24.009  1.00  0.00     0.041 C 
ATOM     16  O   UNL     1      19.056 -38.782  24.803  1.00  0.00    -0.550 OA
ATOM     17  O   UNL     1      20.988 -38.466  23.609  1.00  0.00    -0.550 OA
ENDBRANCH  14  15
ENDBRANCH  13  14
ENDBRANCH  12  13
ENDBRANCH  11  12
ENDBRANCH  10  11
ENDBRANCH   9  10
ENDBRANCH   8   9
ENDBRANCH   7   8
ENDBRANCH   6   7
ENDBRANCH   5   6
ENDBRANCH   4   5
ENDBRANCH   3   4
ENDBRANCH   2   3
ENDBRANCH   1   2
BRANCH   1  18
ATOM     18  C   UNL     1      16.342 -34.265  20.032  1.00  0.00     0.000 C 
BRANCH  18  19
ATOM     19  C   UNL     1      14.811 -34.140  20.139  1.00  0.00     0.000 C 
BRANCH  19  20
ATOM     20  C   UNL     1      14.306 -33.218  21.267  1.00  0.00     0.000 C 
BRANCH  20  21
ATOM     21  C   UNL     1      13.518 -31.981  20.793  1.00  0.00     0.000 C 
BRANCH  21  22
ATOM     22  C   UNL     1      12.416 -31.498  21.758  1.00  0.00     0.000 C 
BRANCH  22  23
ATOM     23  C   UNL     1      12.888 -30.515  22.844  1.00  0.00     0.000 C 
BRANCH  23  24
ATOM     24  C   UNL     1      13.732 -31.187  23.939  1.00  0.00    -0.000 C 
BRANCH  24  25
ATOM     25  C   UNL     1      15.212 -30.745  23.904  1.00  0.00    -0.000 C 
BRANCH  25  26
ATOM     26  C   UNL     1      15.442 -29.399  23.189  1.00  0.00    -0.000 C 
BRANCH  26  27
ATOM     27  C   UNL     1      16.265 -29.494  21.893  1.00  0.00    -0.000 C 
BRANCH  27  28
ATOM     28  C   UNL     1      16.954 -30.864  21.696  1.00  0.00    -0.000 C 
BRANCH  28  29
ATOM     29  C   UNL     1      18.251 -30.760  20.877  1.00  0.00    -0.000 C 
BRANCH  29  30
ATOM     30  C   UNL     1      19.018 -29.451  21.131  1.00  0.00    -0.000 C 
BRANCH  30  31
ATOM     31  C   UNL     1      20.483 -29.635  21.564  1.00  0.00    -0.003 C 
ATOM     32  C   UNL     1      21.438 -28.671  20.860  1.00  0.00     0.004 C 
ENDBRANCH  30  31
ENDBRANCH  29  30
ENDBRANCH  28  29
ENDBRANCH  27  28
ENDBRANCH  26  27
ENDBRANCH  25  26
ENDBRANCH  24  25
ENDBRANCH  23  24
ENDBRANCH  22  23
ENDBRANCH  21  22
ENDBRANCH  20  21
ENDBRANCH  19  20
ENDBRANCH  18  19
ENDBRANCH   1  18
TORSDOF 28
ENDMDL
MODEL 7
REMARK VINA RESULT:    -4.580      2.064      3.776
REMARK INTER + INTRA:         -17.869
REMARK INTER:                 -12.883
REMARK INTRA:                  -4.986
REMARK UNBOUND:                -5.791
REMARK SMILES CCCCCCCCCCCCCCCCCCCCCCCCCCCCCC(=O)[O-]
REMARK SMILES IDX 16 1 17 2 18 3 19 4 20 5 21 6 22 7 23 8 24 9 25 10 26 11
REMARK SMILES IDX 27 12 28 13 29 14 30 15 31 16 32 17 15 18 14 19 13 20 12 21
REMARK SMILES IDX 11 22 10 23 9 24 8 25 7 26 6 27 5 28 4 29 3 30 2 31 1 32
REMARK H PARENT
REMARK Flexibility Score: inf
ROOT
ATOM      1  C   UNL     1      14.190 -33.114  24.258  1.00  0.00     0.000 C 
ENDROOT
BRANCH   1   2
ATOM      2  C   UNL     1      15.071 -34.100  23.469  1.00  0.00     0.000 C 
BRANCH   2   3
ATOM      3  C   UNL     1      14.985 -33.873  21.945  1.00  0.00     0.000 C 
BRANCH   3   4
ATOM      4  C   UNL     1      16.342 -33.603  21.274  1.00  0.00     0.000 C 
BRANCH   4   5
ATOM      5  C   UNL     1      17.368 -34.718  21.525  1.00  0.00     0.000 C 
BRANCH   5   6
ATOM      6  C   UNL     1      18.737 -34.178  21.967  1.00  0.00     0.000 C 
BRANCH   6   7
ATOM      7  C   UNL     1      19.511 -33.511  20.816  1.00  0.00     0.000 C 
BRANCH   7   8
ATOM      8  C   UNL     1      19.587 -31.982  20.959  1.00  0.00     0.000 C 
BRANCH   8   9
ATOM      9  C   UNL     1      20.670 -31.536  21.956  1.00  0.00     0.000 C 
BRANCH   9  10
ATOM     10  C   UNL     1      20.924 -30.019  21.906  1.00  0.00     0.000 C 
BRANCH  10  11
ATOM     11  C   UNL     1      20.028 -29.305  20.878  1.00  0.00     0.000 C 
BRANCH  11  12
ATOM     12  C   UNL     1      19.739 -27.845  21.262  1.00  0.00     0.000 C 
BRANCH  12  13
ATOM     13  C   UNL     1      20.519 -26.844  20.394  1.00  0.00     0.006 C 
BRANCH  13  14
ATOM     14  C   UNL     1      21.686 -26.234  21.176  1.00  0.00     0.053 C 
BRANCH  14  15
ATOM     15  C   UNL     1      22.924 -27.062  21.018  1.00  0.00     0.041 C 
ATOM     16  O   UNL     1      23.572 -27.438  22.033  1.00  0.00    -0.550 OA
ATOM     17  O   UNL     1      23.361 -27.427  19.749  1.00  0.00    -0.550 OA
ENDBRANCH  14  15
ENDBRANCH  13  14
ENDBRANCH  12  13
ENDBRANCH  11  12
ENDBRANCH  10  11
ENDBRANCH   9  10
ENDBRANCH   8   9
ENDBRANCH   7   8
ENDBRANCH   6   7
ENDBRANCH   5   6
ENDBRANCH   4   5
ENDBRANCH   3   4
ENDBRANCH   2   3
ENDBRANCH   1   2
BRANCH   1  18
ATOM     18  C   UNL     1      13.640 -31.968  23.390  1.00  0.00     0.000 C 
BRANCH  18  19
ATOM     19  C   UNL     1      13.600 -30.589  24.075  1.00  0.00     0.000 C 
BRANCH  19  20
ATOM     20  C   UNL     1      14.675 -29.591  23.601  1.00  0.00     0.000 C 
BRANCH  20  21
ATOM     21  C   UNL     1      15.665 -30.147  22.558  1.00  0.00     0.000 C 
BRANCH  21  22
ATOM     22  C   UNL     1      17.110 -30.335  23.062  1.00  0.00     0.000 C 
BRANCH  22  23
ATOM     23  C   UNL     1      17.312 -31.509  24.036  1.00  0.00     0.000 C 
BRANCH  23  24
ATOM     24  C   UNL     1      18.508 -31.310  24.982  1.00  0.00    -0.000 C 
BRANCH  24  25
ATOM     25  C   UNL     1      19.076 -32.645  25.512  1.00  0.00    -0.000 C 
BRANCH  25  26
ATOM     26  C   UNL     1      18.017 -33.753  25.666  1.00  0.00    -0.000 C 
BRANCH  26  27
ATOM     27  C   UNL     1      18.583 -35.185  25.664  1.00  0.00    -0.000 C 
BRANCH  27  28
ATOM     28  C   UNL     1      17.627 -36.227  25.041  1.00  0.00    -0.000 C 
BRANCH  28  29
ATOM     29  C   UNL     1      16.826 -37.001  26.099  1.00  0.00    -0.000 C 
BRANCH  29  30
ATOM     30  C   UNL     1      17.705 -37.545  27.238  1.00  0.00    -0.000 C 
BRANCH  30  31
ATOM     31  C   UNL     1      17.078 -38.698  28.043  1.00  0.00    -0.003 C 
ATOM     32  C   UNL     1      15.623 -38.969  27.662  1.00  0.00     0.004 C 
ENDBRANCH  30  31
ENDBRANCH  29  30
ENDBRANCH  28  29
ENDBRANCH  27  28
ENDBRANCH  26  27
ENDBRANCH  25  26
ENDBRANCH  24  25
ENDBRANCH  23  24
ENDBRANCH  22  23
ENDBRANCH  21  22
ENDBRANCH  20  21
ENDBRANCH  19  20
ENDBRANCH  18  19
ENDBRANCH   1  18
TORSDOF 28
ENDMDL
MODEL 8
REMARK VINA RESULT:    -4.578      3.181      5.756
REMARK INTER + INTRA:         -17.863
REMARK INTER:                 -12.991
REMARK INTRA:                  -4.872
REMARK UNBOUND:                -5.791
REMARK SMILES CCCCCCCCCCCCCCCCCCCCCCCCCCCCCC(=O)[O-]
REMARK SMILES IDX 16 1 17 2 18 3 19 4 20 5 21 6 22 7 23 8 24 9 25 10 26 11
REMARK SMILES IDX 27 12 28 13 29 14 30 15 31 16 32 17 15 18 14 19 13 20 12 21
REMARK SMILES IDX 11 22 10 23 9 24 8 25 7 26 6 27 5 28 4 29 3 30 2 31 1 32
REMARK H PARENT
REMARK Flexibility Score: inf
ROOT
ATOM      1  C   UNL     1      18.350 -37.361  22.005  1.00  0.00     0.000 C 
ENDROOT
BRANCH   1   2
ATOM      2  C   UNL     1      19.764 -37.686  22.521  1.00  0.00     0.000 C 
BRANCH   2   3
ATOM      3  C   UNL     1      20.617 -36.417  22.732  1.00  0.00     0.000 C 
BRANCH   3   4
ATOM      4  C   UNL     1      20.131 -35.194  21.936  1.00  0.00     0.000 C 
BRANCH   4   5
ATOM      5  C   UNL     1      21.131 -34.027  21.958  1.00  0.00     0.000 C 
BRANCH   5   6
ATOM      6  C   UNL     1      21.177 -33.311  23.317  1.00  0.00     0.000 C 
BRANCH   6   7
ATOM      7  C   UNL     1      20.928 -31.797  23.197  1.00  0.00     0.000 C 
BRANCH   7   8
ATOM      8  C   UNL     1      20.962 -31.303  21.741  1.00  0.00     0.000 C 
BRANCH   8   9
ATOM      9  C   UNL     1      19.654 -30.612  21.321  1.00  0.00     0.000 C 
BRANCH   9  10
ATOM     10  C   UNL     1      18.516 -31.615  21.066  1.00  0.00     0.000 C 
BRANCH  10  11
ATOM     11  C   UNL     1      17.124 -30.981  21.234  1.00  0.00     0.000 C 
BRANCH  11  12
ATOM     12  C   UNL     1      16.942 -30.312  22.606  1.00  0.00     0.000 C 
BRANCH  12  13
ATOM     13  C   UNL     1      15.555 -29.670  22.767  1.00  0.00     0.006 C 
BRANCH  13  14
ATOM     14  C   UNL     1      14.447 -30.717  22.623  1.00  0.00     0.053 C 
BRANCH  14  15
ATOM     15  C   UNL     1      13.804 -30.997  23.946  1.00  0.00     0.041 C 
ATOM     16  O   UNL     1      13.816 -32.164  24.425  1.00  0.00    -0.550 OA
ATOM     17  O   UNL     1      13.196 -29.968  24.658  1.00  0.00    -0.550 OA
ENDBRANCH  14  15
ENDBRANCH  13  14
ENDBRANCH  12  13
ENDBRANCH  11  12
ENDBRANCH  10  11
ENDBRANCH   9  10
ENDBRANCH   8   9
ENDBRANCH   7   8
ENDBRANCH   6   7
ENDBRANCH   5   6
ENDBRANCH   4   5
ENDBRANCH   3   4
ENDBRANCH   2   3
ENDBRANCH   1   2
BRANCH   1  18
ATOM     18  C   UNL     1      18.040 -38.009  20.643  1.00  0.00     0.000 C 
BRANCH  18  19
ATOM     19  C   UNL     1      17.066 -37.219  19.748  1.00  0.00     0.000 C 
BRANCH  19  20
ATOM     20  C   UNL     1      17.638 -35.920  19.146  1.00  0.00     0.000 C 
BRANCH  20  21
ATOM     21  C   UNL     1      17.113 -34.619  19.784  1.00  0.00     0.000 C 
BRANCH  21  22
ATOM     22  C   UNL     1      15.598 -34.595  20.069  1.00  0.00     0.000 C 
BRANCH  22  23
ATOM     23  C   UNL     1      15.212 -34.186  21.502  1.00  0.00     0.000 C 
BRANCH  23  24
ATOM     24  C   UNL     1      16.069 -34.875  22.577  1.00  0.00    -0.000 C 
BRANCH  24  25
ATOM     25  C   UNL     1      16.769 -33.867  23.515  1.00  0.00    -0.000 C 
BRANCH  25  26
ATOM     26  C   UNL     1      16.990 -34.398  24.944  1.00  0.00    -0.000 C 
BRANCH  26  27
ATOM     27  C   UNL     1      17.414 -35.876  25.019  1.00  0.00    -0.000 C 
BRANCH  27  28
ATOM     28  C   UNL     1      17.409 -36.450  26.454  1.00  0.00    -0.000 C 
BRANCH  28  29
ATOM     29  C   UNL     1      17.290 -37.982  26.477  1.00  0.00    -0.000 C 
BRANCH  29  30
ATOM     30  C   UNL     1      16.104 -38.478  27.323  1.00  0.00    -0.000 C 
BRANCH  30  31
ATOM     31  C   UNL     1      16.039 -37.899  28.748  1.00  0.00    -0.003 C 
ATOM     32  C   UNL     1      17.153 -38.422  29.655  1.00  0.00     0.004 C 
ENDBRANCH  30  31
ENDBRANCH  29  30
ENDBRANCH  28  29
ENDBRANCH  27  28
ENDBRANCH  26  27
ENDBRANCH  25  26
ENDBRANCH  24  25
ENDBRANCH  23  24
ENDBRANCH  22  23
ENDBRANCH  21  22
ENDBRANCH  20  21
ENDBRANCH  19  20
ENDBRANCH  18  19
ENDBRANCH   1  18
TORSDOF 28
ENDMDL
MODEL 9
REMARK VINA RESULT:    -4.563      1.416      2.502
REMARK INTER + INTRA:         -17.823
REMARK INTER:                 -13.200
REMARK INTRA:                  -4.623
REMARK UNBOUND:                -5.791
REMARK SMILES CCCCCCCCCCCCCCCCCCCCCCCCCCCCCC(=O)[O-]
REMARK SMILES IDX 16 1 17 2 18 3 19 4 20 5 21 6 22 7 23 8 24 9 25 10 26 11
REMARK SMILES IDX 27 12 28 13 29 14 30 15 31 16 32 17 15 18 14 19 13 20 12 21
REMARK SMILES IDX 11 22 10 23 9 24 8 25 7 26 6 27 5 28 4 29 3 30 2 31 1 32
REMARK H PARENT
REMARK Flexibility Score: inf
ROOT
ATOM      1  C   UNL     1      15.288 -30.475  23.708  1.00  0.00     0.000 C 
ENDROOT
BRANCH   1   2
ATOM      2  C   UNL     1      15.351 -29.808  22.322  1.00  0.00     0.000 C 
BRANCH   2   3
ATOM      3  C   UNL     1      16.772 -29.842  21.719  1.00  0.00     0.000 C 
BRANCH   3   4
ATOM      4  C   UNL     1      17.574 -31.105  22.075  1.00  0.00     0.000 C 
BRANCH   4   5
ATOM      5  C   UNL     1      18.242 -31.755  20.853  1.00  0.00     0.000 C 
BRANCH   5   6
ATOM      6  C   UNL     1      19.774 -31.644  20.884  1.00  0.00     0.000 C 
BRANCH   6   7
ATOM      7  C   UNL     1      20.303 -31.124  22.232  1.00  0.00     0.000 C 
BRANCH   7   8
ATOM      8  C   UNL     1      21.184 -29.873  22.081  1.00  0.00     0.000 C 
BRANCH   8   9
ATOM      9  C   UNL     1      20.859 -29.071  20.810  1.00  0.00     0.000 C 
BRANCH   9  10
ATOM     10  C   UNL     1      19.907 -27.894  21.086  1.00  0.00     0.000 C 
BRANCH  10  11
ATOM     11  C   UNL     1      20.367 -26.593  20.406  1.00  0.00     0.000 C 
BRANCH  11  12
ATOM     12  C   UNL     1      20.858 -25.542  21.415  1.00  0.00     0.000 C 
BRANCH  12  13
ATOM     13  C   UNL     1      22.242 -25.881  21.991  1.00  0.00     0.006 C 
BRANCH  13  14
ATOM     14  C   UNL     1      23.245 -26.172  20.870  1.00  0.00     0.053 C 
BRANCH  14  15
ATOM     15  C   UNL     1      23.626 -24.911  20.157  1.00  0.00     0.041 C 
ATOM     16  O   UNL     1      23.939 -23.880  20.813  1.00  0.00    -0.550 OA
ATOM     17  O   UNL     1      23.643 -24.873  18.768  1.00  0.00    -0.550 OA
ENDBRANCH  14  15
ENDBRANCH  13  14
ENDBRANCH  12  13
ENDBRANCH  11  12
ENDBRANCH  10  11
ENDBRANCH   9  10
ENDBRANCH   8   9
ENDBRANCH   7   8
ENDBRANCH   6   7
ENDBRANCH   5   6
ENDBRANCH   4   5
ENDBRANCH   3   4
ENDBRANCH   2   3
ENDBRANCH   1   2
BRANCH   1  18
ATOM     18  C   UNL     1      13.911 -31.088  24.021  1.00  0.00     0.000 C 
BRANCH  18  19
ATOM     19  C   UNL     1      13.909 -32.612  24.252  1.00  0.00     0.000 C 
BRANCH  19  20
ATOM     20  C   UNL     1      15.259 -33.312  24.004  1.00  0.00     0.000 C 
BRANCH  20  21
ATOM     21  C   UNL     1      15.342 -34.123  22.696  1.00  0.00     0.000 C 
BRANCH  21  22
ATOM     22  C   UNL     1      14.591 -33.510  21.497  1.00  0.00     0.000 C 
BRANCH  22  23
ATOM     23  C   UNL     1      15.006 -34.058  20.120  1.00  0.00     0.000 C 
BRANCH  23  24
ATOM     24  C   UNL     1      15.812 -35.365  20.209  1.00  0.00    -0.000 C 
BRANCH  24  25
ATOM     25  C   UNL     1      17.109 -35.322  19.371  1.00  0.00    -0.000 C 
BRANCH  25  26
ATOM     26  C   UNL     1      18.278 -36.107  19.995  1.00  0.00    -0.000 C 
BRANCH  26  27
ATOM     27  C   UNL     1      19.418 -35.230  20.544  1.00  0.00    -0.000 C 
BRANCH  27  28
ATOM     28  C   UNL     1      19.410 -35.096  22.083  1.00  0.00    -0.000 C 
BRANCH  28  29
ATOM     29  C   UNL     1      19.017 -36.403  22.789  1.00  0.00    -0.000 C 
BRANCH  29  30
ATOM     30  C   UNL     1      17.717 -36.279  23.602  1.00  0.00    -0.000 C 
BRANCH  30  31
ATOM     31  C   UNL     1      17.862 -36.592  25.102  1.00  0.00    -0.003 C 
ATOM     32  C   UNL     1      17.971 -35.335  25.965  1.00  0.00     0.004 C 
ENDBRANCH  30  31
ENDBRANCH  29  30
ENDBRANCH  28  29
ENDBRANCH  27  28
ENDBRANCH  26  27
ENDBRANCH  25  26
ENDBRANCH  24  25
ENDBRANCH  23  24
ENDBRANCH  22  23
ENDBRANCH  21  22
ENDBRANCH  20  21
ENDBRANCH  19  20
ENDBRANCH  18  19
ENDBRANCH   1  18
TORSDOF 28
ENDMDL
