MODEL 1
REMARK VINA RESULT:    -2.432      0.000      0.000
REMARK INTER + INTRA:          -3.236
REMARK INTER:                  -2.929
REMARK INTRA:                  -0.307
REMARK UNBOUND:                -0.307
REMARK SMILES O=c1c(O)c(-c2ccc(O)c(O)c2)oc2cc(O)cc(O)c12
REMARK SMILES IDX 5 1 3 2 2 3 1 4 22 5 20 6 19 7 17 8 16 9 15 10 14 11 6 12
REMARK SMILES IDX 7 13 8 14 9 15 13 16 11 17 10 18 12 20 4 22 21 24 18 26
REMARK H PARENT 10 19 12 21 4 23 21 25 18 27
REMARK Flexibility Score: inf
ROOT
ATOM      1  C   UNL     1      54.747  68.100  58.088  1.00  0.00     0.180 A 
ATOM      2  C   UNL     1      55.508  68.681  57.059  1.00  0.00     0.208 A 
ATOM      3  C   UNL     1      56.303  67.853  56.250  1.00  0.00     0.238 A 
ATOM      4  O   UNL     1      56.941  68.372  55.297  1.00  0.00    -0.285 OA
ATOM      5  C   UNL     1      56.339  66.458  56.489  1.00  0.00     0.111 A 
ATOM      6  C   UNL     1      57.140  65.530  55.757  1.00  0.00     0.134 A 
ATOM      7  C   UNL     1      56.997  64.158  55.993  1.00  0.00     0.093 A 
ATOM      8  C   UNL     1      56.131  63.684  56.982  1.00  0.00     0.123 A 
ATOM      9  C   UNL     1      55.389  64.585  57.742  1.00  0.00     0.094 A 
ATOM     10  C   UNL     1      55.482  65.959  57.504  1.00  0.00     0.146 A 
ATOM     11  O   UNL     1      54.751  66.781  58.244  1.00  0.00    -0.452 OA
ENDROOT
BRANCH   1  12
ATOM     12  C   UNL     1      53.904  68.909  58.998  1.00  0.00     0.025 A 
ATOM     13  C   UNL     1      54.462  69.614  60.079  1.00  0.00     0.016 A 
ATOM     14  C   UNL     1      53.646  70.352  60.939  1.00  0.00     0.051 A 
ATOM     15  C   UNL     1      52.259  70.386  60.741  1.00  0.00     0.157 A 
ATOM     16  C   UNL     1      52.512  68.930  58.816  1.00  0.00     0.062 A 
ATOM     17  C   UNL     1      51.690  69.668  59.676  1.00  0.00     0.158 A 
BRANCH  15  18
ATOM     18  O   UNL     1      51.447  71.125  61.600  1.00  0.00    -0.504 OA
ATOM     19  H   UNL     1      50.832  71.852  61.255  1.00  0.00     0.293 HD
ENDBRANCH  15  18
BRANCH  17  20
ATOM     20  O   UNL     1      50.313  69.676  59.456  1.00  0.00    -0.504 OA
ATOM     21  H   UNL     1      49.712  68.928  59.779  1.00  0.00     0.293 HD
ENDBRANCH  17  20
ENDBRANCH   1  12
BRANCH   2  22
ATOM     22  O   UNL     1      55.442  70.057  56.826  1.00  0.00    -0.502 OA
ATOM     23  H   UNL     1      55.449  70.453  55.894  1.00  0.00     0.293 HD
ENDBRANCH   2  22
BRANCH   6  24
ATOM     24  O   UNL     1      58.101  65.905  54.814  1.00  0.00    -0.507 OA
ATOM     25  H   UNL     1      59.076  65.649  54.854  1.00  0.00     0.293 HD
ENDBRANCH   6  24
BRANCH   8  26
ATOM     26  O   UNL     1      56.006  62.317  57.222  1.00  0.00    -0.508 OA
ATOM     27  H   UNL     1      56.436  61.630  56.612  1.00  0.00     0.293 HD
ENDBRANCH   8  26
TORSDOF 6
ENDMDL
MODEL 2
REMARK VINA RESULT:    -1.539     13.787     17.298
REMARK INTER + INTRA:          -2.162
REMARK INTER:                  -2.015
REMARK INTRA:                  -0.147
REMARK UNBOUND:                -0.307
REMARK SMILES O=c1c(O)c(-c2ccc(O)c(O)c2)oc2cc(O)cc(O)c12
REMARK SMILES IDX 5 1 3 2 2 3 1 4 22 5 20 6 19 7 17 8 16 9 15 10 14 11 6 12
REMARK SMILES IDX 7 13 8 14 9 15 13 16 11 17 10 18 12 20 4 22 21 24 18 26
REMARK H PARENT 10 19 12 21 4 23 21 25 18 27
REMARK Flexibility Score: inf
ROOT
ATOM      1  C   UNL     1      52.469  52.143  52.661  1.00  0.00     0.180 A 
ATOM      2  C   UNL     1      51.104  51.886  52.867  1.00  0.00     0.208 A 
ATOM      3  C   UNL     1      50.309  51.508  51.772  1.00  0.00     0.238 A 
ATOM      4  O   UNL     1      49.099  51.227  51.972  1.00  0.00    -0.285 OA
ATOM      5  C   UNL     1      50.887  51.408  50.483  1.00  0.00     0.111 A 
ATOM      6  C   UNL     1      50.168  51.073  49.296  1.00  0.00     0.134 A 
ATOM      7  C   UNL     1      50.866  50.875  48.099  1.00  0.00     0.093 A 
ATOM      8  C   UNL     1      52.249  51.065  48.032  1.00  0.00     0.123 A 
ATOM      9  C   UNL     1      52.951  51.450  49.172  1.00  0.00     0.094 A 
ATOM     10  C   UNL     1      52.287  51.619  50.389  1.00  0.00     0.146 A 
ATOM     11  O   UNL     1      52.995  51.977  51.453  1.00  0.00    -0.452 OA
ENDROOT
BRANCH   1  12
ATOM     12  C   UNL     1      53.365  52.570  53.760  1.00  0.00     0.025 A 
ATOM     13  C   UNL     1      53.625  51.733  54.860  1.00  0.00     0.016 A 
ATOM     14  C   UNL     1      54.455  52.166  55.897  1.00  0.00     0.051 A 
ATOM     15  C   UNL     1      55.027  53.444  55.858  1.00  0.00     0.157 A 
ATOM     16  C   UNL     1      53.925  53.858  53.736  1.00  0.00     0.062 A 
ATOM     17  C   UNL     1      54.757  54.294  54.773  1.00  0.00     0.158 A 
BRANCH  15  18
ATOM     18  O   UNL     1      55.857  53.872  56.894  1.00  0.00    -0.504 OA
ATOM     19  H   UNL     1      55.573  53.803  57.864  1.00  0.00     0.293 HD
ENDBRANCH  15  18
BRANCH  17  20
ATOM     20  O   UNL     1      55.306  55.575  54.708  1.00  0.00    -0.504 OA
ATOM     21  H   UNL     1      55.078  56.221  53.961  1.00  0.00     0.293 HD
ENDBRANCH  17  20
ENDBRANCH   1  12
BRANCH   2  22
ATOM     22  O   UNL     1      50.557  51.969  54.151  1.00  0.00    -0.502 OA
ATOM     23  H   UNL     1      49.735  51.448  54.428  1.00  0.00     0.293 HD
ENDBRANCH   2  22
BRANCH   6  24
ATOM     24  O   UNL     1      48.777  50.951  49.236  1.00  0.00    -0.507 OA
ATOM     25  H   UNL     1      48.285  50.239  48.719  1.00  0.00     0.293 HD
ENDBRANCH   6  24
BRANCH   8  26
ATOM     26  O   UNL     1      52.934  50.881  46.832  1.00  0.00    -0.508 OA
ATOM     27  H   UNL     1      53.939  50.755  46.810  1.00  0.00     0.293 HD
ENDBRANCH   8  26
TORSDOF 6
ENDMDL
MODEL 3
REMARK VINA RESULT:    -1.263      2.661      7.967
REMARK INTER + INTRA:          -1.829
REMARK INTER:                  -1.494
REMARK INTRA:                  -0.334
REMARK UNBOUND:                -0.307
REMARK SMILES O=c1c(O)c(-c2ccc(O)c(O)c2)oc2cc(O)cc(O)c12
REMARK SMILES IDX 5 1 3 2 2 3 1 4 22 5 20 6 19 7 17 8 16 9 15 10 14 11 6 12
REMARK SMILES IDX 7 13 8 14 9 15 13 16 11 17 10 18 12 20 4 22 21 24 18 26
REMARK H PARENT 10 19 12 21 4 23 21 25 18 27
REMARK Flexibility Score: inf
ROOT
ATOM      1  C   UNL     1      52.789  70.073  60.374  1.00  0.00     0.180 A 
ATOM      2  C   UNL     1      53.255  70.310  61.678  1.00  0.00     0.208 A 
ATOM      3  C   UNL     1      52.323  70.505  62.710  1.00  0.00     0.238 A 
ATOM      4  O   UNL     1      52.746  70.663  63.885  1.00  0.00    -0.285 OA
ATOM      5  C   UNL     1      50.937  70.475  62.422  1.00  0.00     0.111 A 
ATOM      6  C   UNL     1      49.905  70.699  63.382  1.00  0.00     0.134 A 
ATOM      7  C   UNL     1      48.567  70.515  63.013  1.00  0.00     0.093 A 
ATOM      8  C   UNL     1      48.221  70.181  61.701  1.00  0.00     0.123 A 
ATOM      9  C   UNL     1      49.218  70.019  60.743  1.00  0.00     0.094 A 
ATOM     10  C   UNL     1      50.565  70.159  61.090  1.00  0.00     0.146 A 
ATOM     11  O   UNL     1      51.483  69.985  60.148  1.00  0.00    -0.452 OA
ENDROOT
BRANCH   1  12
ATOM     12  C   UNL     1      53.710  69.884  59.230  1.00  0.00     0.025 A 
ATOM     13  C   UNL     1      54.188  70.978  58.486  1.00  0.00     0.016 A 
ATOM     14  C   UNL     1      55.037  70.775  57.395  1.00  0.00     0.051 A 
ATOM     15  C   UNL     1      55.410  69.477  57.023  1.00  0.00     0.157 A 
ATOM     16  C   UNL     1      54.071  68.585  58.839  1.00  0.00     0.062 A 
ATOM     17  C   UNL     1      54.921  68.377  57.747  1.00  0.00     0.158 A 
BRANCH  15  18
ATOM     18  O   UNL     1      56.259  69.278  55.935  1.00  0.00    -0.504 OA
ATOM     19  H   UNL     1      57.168  69.722  55.882  1.00  0.00     0.293 HD
ENDBRANCH  15  18
BRANCH  17  20
ATOM     20  O   UNL     1      55.269  67.072  57.398  1.00  0.00    -0.504 OA
ATOM     21  H   UNL     1      55.320  66.327  58.083  1.00  0.00     0.293 HD
ENDBRANCH  17  20
ENDBRANCH   1  12
BRANCH   2  22
ATOM     22  O   UNL     1      54.627  70.315  61.945  1.00  0.00    -0.502 OA
ATOM     23  H   UNL     1      55.268  70.960  61.497  1.00  0.00     0.293 HD
ENDBRANCH   2  22
BRANCH   6  24
ATOM     24  O   UNL     1      50.138  71.124  64.693  1.00  0.00    -0.507 OA
ATOM     25  H   UNL     1      50.198  72.088  64.982  1.00  0.00     0.293 HD
ENDBRANCH   6  24
BRANCH   8  26
ATOM     26  O   UNL     1      46.886  70.016  61.338  1.00  0.00    -0.508 OA
ATOM     27  H   UNL     1      46.527  70.372  60.460  1.00  0.00     0.293 HD
ENDBRANCH   8  26
TORSDOF 6
ENDMDL
MODEL 4
REMARK VINA RESULT:    -1.160     14.592     17.581
REMARK INTER + INTRA:          -1.704
REMARK INTER:                  -1.455
REMARK INTRA:                  -0.249
REMARK UNBOUND:                -0.307
REMARK SMILES O=c1c(O)c(-c2ccc(O)c(O)c2)oc2cc(O)cc(O)c12
REMARK SMILES IDX 5 1 3 2 2 3 1 4 22 5 20 6 19 7 17 8 16 9 15 10 14 11 6 12
REMARK SMILES IDX 7 13 8 14 9 15 13 16 11 17 10 18 12 20 4 22 21 24 18 26
REMARK H PARENT 10 19 12 21 4 23 21 25 18 27
REMARK Flexibility Score: inf
ROOT
ATOM      1  C   UNL     1      60.546  51.772  59.077  1.00  0.00     0.180 A 
ATOM      2  C   UNL     1      60.483  51.598  60.469  1.00  0.00     0.208 A 
ATOM      3  C   UNL     1      61.678  51.436  61.190  1.00  0.00     0.238 A 
ATOM      4  O   UNL     1      61.618  51.335  62.444  1.00  0.00    -0.285 OA
ATOM      5  C   UNL     1      62.918  51.436  60.508  1.00  0.00     0.111 A 
ATOM      6  C   UNL     1      64.187  51.241  61.132  1.00  0.00     0.134 A 
ATOM      7  C   UNL     1      65.358  51.390  60.379  1.00  0.00     0.093 A 
ATOM      8  C   UNL     1      65.303  51.663  59.009  1.00  0.00     0.123 A 
ATOM      9  C   UNL     1      64.068  51.796  58.379  1.00  0.00     0.094 A 
ATOM     10  C   UNL     1      62.883  51.689  59.112  1.00  0.00     0.146 A 
ATOM     11  O   UNL     1      61.728  51.833  58.474  1.00  0.00    -0.452 OA
ENDROOT
BRANCH   1  12
ATOM     12  C   UNL     1      59.330  51.923  58.246  1.00  0.00     0.025 A 
ATOM     13  C   UNL     1      58.890  50.892  57.398  1.00  0.00     0.016 A 
ATOM     14  C   UNL     1      57.753  51.065  56.605  1.00  0.00     0.051 A 
ATOM     15  C   UNL     1      57.047  52.274  56.636  1.00  0.00     0.157 A 
ATOM     16  C   UNL     1      58.631  53.141  58.257  1.00  0.00     0.062 A 
ATOM     17  C   UNL     1      57.491  53.318  57.464  1.00  0.00     0.158 A 
BRANCH  15  18
ATOM     18  O   UNL     1      55.912  52.443  55.845  1.00  0.00    -0.504 OA
ATOM     19  H   UNL     1      55.514  53.359  55.676  1.00  0.00     0.293 HD
ENDBRANCH  15  18
BRANCH  17  20
ATOM     20  O   UNL     1      56.814  54.537  57.513  1.00  0.00    -0.504 OA
ATOM     21  H   UNL     1      55.935  54.684  57.031  1.00  0.00     0.293 HD
ENDBRANCH  17  20
ENDBRANCH   1  12
BRANCH   2  22
ATOM     22  O   UNL     1      59.250  51.623  61.127  1.00  0.00    -0.502 OA
ATOM     23  H   UNL     1      58.809  52.485  61.425  1.00  0.00     0.293 HD
ENDBRANCH   2  22
BRANCH   6  24
ATOM     24  O   UNL     1      64.349  50.875  62.471  1.00  0.00    -0.507 OA
ATOM     25  H   UNL     1      63.594  50.659  63.104  1.00  0.00     0.293 HD
ENDBRANCH   6  24
BRANCH   8  26
ATOM     26  O   UNL     1      66.472  51.795  58.264  1.00  0.00    -0.508 OA
ATOM     27  H   UNL     1      66.723  51.123  57.547  1.00  0.00     0.293 HD
ENDBRANCH   8  26
TORSDOF 6
ENDMDL
MODEL 5
REMARK VINA RESULT:    -0.402      3.309      7.279
REMARK INTER + INTRA:          -0.791
REMARK INTER:                  -0.484
REMARK INTRA:                  -0.308
REMARK UNBOUND:                -0.307
REMARK SMILES O=c1c(O)c(-c2ccc(O)c(O)c2)oc2cc(O)cc(O)c12
REMARK SMILES IDX 5 1 3 2 2 3 1 4 22 5 20 6 19 7 17 8 16 9 15 10 14 11 6 12
REMARK SMILES IDX 7 13 8 14 9 15 13 16 11 17 10 18 12 20 4 22 21 24 18 26
REMARK H PARENT 10 19 12 21 4 23 21 25 18 27
REMARK Flexibility Score: inf
ROOT
ATOM      1  C   UNL     1      57.694  68.389  55.223  1.00  0.00     0.180 A 
ATOM      2  C   UNL     1      57.664  66.986  55.287  1.00  0.00     0.208 A 
ATOM      3  C   UNL     1      56.759  66.363  56.163  1.00  0.00     0.238 A 
ATOM      4  O   UNL     1      56.700  65.106  56.177  1.00  0.00    -0.285 OA
ATOM      5  C   UNL     1      55.908  67.152  56.974  1.00  0.00     0.111 A 
ATOM      6  C   UNL     1      54.981  66.628  57.925  1.00  0.00     0.134 A 
ATOM      7  C   UNL     1      54.097  67.495  58.578  1.00  0.00     0.093 A 
ATOM      8  C   UNL     1      54.151  68.875  58.362  1.00  0.00     0.123 A 
ATOM      9  C   UNL     1      55.092  69.401  57.479  1.00  0.00     0.094 A 
ATOM     10  C   UNL     1      55.963  68.557  56.786  1.00  0.00     0.146 A 
ATOM     11  O   UNL     1      56.837  69.099  55.947  1.00  0.00    -0.452 OA
ENDROOT
BRANCH   1  12
ATOM     12  C   UNL     1      58.636  69.118  54.343  1.00  0.00     0.025 A 
ATOM     13  C   UNL     1      58.355  69.326  52.982  1.00  0.00     0.016 A 
ATOM     14  C   UNL     1      59.269  69.996  52.165  1.00  0.00     0.051 A 
ATOM     15  C   UNL     1      60.483  70.455  52.692  1.00  0.00     0.157 A 
ATOM     16  C   UNL     1      59.864  69.561  54.862  1.00  0.00     0.062 A 
ATOM     17  C   UNL     1      60.782  70.233  54.047  1.00  0.00     0.158 A 
BRANCH  15  18
ATOM     18  O   UNL     1      61.393  71.125  51.875  1.00  0.00    -0.504 OA
ATOM     19  H   UNL     1      62.389  70.954  51.939  1.00  0.00     0.293 HD
ENDBRANCH  15  18
BRANCH  17  20
ATOM     20  O   UNL     1      61.985  70.672  54.600  1.00  0.00    -0.504 OA
ATOM     21  H   UNL     1      62.036  71.069  55.531  1.00  0.00     0.293 HD
ENDBRANCH  17  20
ENDBRANCH   1  12
BRANCH   2  22
ATOM     22  O   UNL     1      58.498  66.225  54.463  1.00  0.00    -0.502 OA
ATOM     23  H   UNL     1      59.074  65.471  54.817  1.00  0.00     0.293 HD
ENDBRANCH   2  22
BRANCH   6  24
ATOM     24  O   UNL     1      54.909  65.279  58.282  1.00  0.00    -0.507 OA
ATOM     25  H   UNL     1      55.167  64.511  57.681  1.00  0.00     0.293 HD
ENDBRANCH   6  24
BRANCH   8  26
ATOM     26  O   UNL     1      53.278  69.733  59.027  1.00  0.00    -0.508 OA
ATOM     27  H   UNL     1      52.443  70.092  58.578  1.00  0.00     0.293 HD
ENDBRANCH   8  26
TORSDOF 6
ENDMDL
MODEL 6
REMARK VINA RESULT:    -0.292      2.495      7.585
REMARK INTER + INTRA:          -0.659
REMARK INTER:                  -0.456
REMARK INTRA:                  -0.203
REMARK UNBOUND:                -0.307
REMARK SMILES O=c1c(O)c(-c2ccc(O)c(O)c2)oc2cc(O)cc(O)c12
REMARK SMILES IDX 5 1 3 2 2 3 1 4 22 5 20 6 19 7 17 8 16 9 15 10 14 11 6 12
REMARK SMILES IDX 7 13 8 14 9 15 13 16 11 17 10 18 12 20 4 22 21 24 18 26
REMARK H PARENT 10 19 12 21 4 23 21 25 18 27
REMARK Flexibility Score: inf
ROOT
ATOM      1  C   UNL     1      52.456  69.602  60.002  1.00  0.00     0.180 A 
ATOM      2  C   UNL     1      52.586  70.387  61.160  1.00  0.00     0.208 A 
ATOM      3  C   UNL     1      51.512  70.452  62.063  1.00  0.00     0.238 A 
ATOM      4  O   UNL     1      51.655  71.113  63.124  1.00  0.00    -0.285 OA
ATOM      5  C   UNL     1      50.317  69.744  61.789  1.00  0.00     0.111 A 
ATOM      6  C   UNL     1      49.153  69.770  62.614  1.00  0.00     0.134 A 
ATOM      7  C   UNL     1      48.075  68.928  62.314  1.00  0.00     0.093 A 
ATOM      8  C   UNL     1      48.094  68.110  61.181  1.00  0.00     0.123 A 
ATOM      9  C   UNL     1      49.202  68.121  60.338  1.00  0.00     0.094 A 
ATOM     10  C   UNL     1      50.308  68.924  60.631  1.00  0.00     0.146 A 
ATOM     11  O   UNL     1      51.347  68.897  59.806  1.00  0.00    -0.452 OA
ENDROOT
BRANCH   1  12
ATOM     12  C   UNL     1      53.533  69.503  58.991  1.00  0.00     0.025 A 
ATOM     13  C   UNL     1      53.925  70.618  58.228  1.00  0.00     0.016 A 
ATOM     14  C   UNL     1      54.928  70.496  57.263  1.00  0.00     0.051 A 
ATOM     15  C   UNL     1      55.544  69.259  57.036  1.00  0.00     0.157 A 
ATOM     16  C   UNL     1      54.139  68.261  58.744  1.00  0.00     0.062 A 
ATOM     17  C   UNL     1      55.144  68.136  57.779  1.00  0.00     0.158 A 
BRANCH  15  18
ATOM     18  O   UNL     1      56.546  69.141  56.073  1.00  0.00    -0.504 OA
ATOM     19  H   UNL     1      56.342  68.829  55.131  1.00  0.00     0.293 HD
ENDBRANCH  15  18
BRANCH  17  20
ATOM     20  O   UNL     1      55.734  66.888  57.572  1.00  0.00    -0.504 OA
ATOM     21  H   UNL     1      55.554  66.340  56.739  1.00  0.00     0.293 HD
ENDBRANCH  17  20
ENDBRANCH   1  12
BRANCH   2  22
ATOM     22  O   UNL     1      53.782  71.061  61.422  1.00  0.00    -0.502 OA
ATOM     23  H   UNL     1      54.652  70.828  60.959  1.00  0.00     0.293 HD
ENDBRANCH   2  22
BRANCH   6  24
ATOM     24  O   UNL     1      48.995  70.617  63.714  1.00  0.00    -0.507 OA
ATOM     25  H   UNL     1      48.472  70.389  64.546  1.00  0.00     0.293 HD
ENDBRANCH   6  24
BRANCH   8  26
ATOM     26  O   UNL     1      47.011  67.286  60.881  1.00  0.00    -0.508 OA
ATOM     27  H   UNL     1      46.224  67.193  61.514  1.00  0.00     0.293 HD
ENDBRANCH   8  26
TORSDOF 6
ENDMDL
MODEL 7
REMARK VINA RESULT:    -0.226      1.977      7.478
REMARK INTER + INTRA:          -0.579
REMARK INTER:                  -0.406
REMARK INTRA:                  -0.173
REMARK UNBOUND:                -0.307
REMARK SMILES O=c1c(O)c(-c2ccc(O)c(O)c2)oc2cc(O)cc(O)c12
REMARK SMILES IDX 5 1 3 2 2 3 1 4 22 5 20 6 19 7 17 8 16 9 15 10 14 11 6 12
REMARK SMILES IDX 7 13 8 14 9 15 13 16 11 17 10 18 12 20 4 22 21 24 18 26
REMARK H PARENT 10 19 12 21 4 23 21 25 18 27
REMARK Flexibility Score: inf
ROOT
ATOM      1  C   UNL     1      53.771  69.331  59.571  1.00  0.00     0.180 A 
ATOM      2  C   UNL     1      52.428  69.661  59.326  1.00  0.00     0.208 A 
ATOM      3  C   UNL     1      51.655  70.192  60.371  1.00  0.00     0.238 A 
ATOM      4  O   UNL     1      50.468  70.535  60.130  1.00  0.00    -0.285 OA
ATOM      5  C   UNL     1      52.231  70.372  61.652  1.00  0.00     0.111 A 
ATOM      6  C   UNL     1      51.529  70.864  62.794  1.00  0.00     0.134 A 
ATOM      7  C   UNL     1      52.232  71.125  63.976  1.00  0.00     0.093 A 
ATOM      8  C   UNL     1      53.598  70.848  64.078  1.00  0.00     0.123 A 
ATOM      9  C   UNL     1      54.279  70.312  62.987  1.00  0.00     0.094 A 
ATOM     10  C   UNL     1      53.612  70.075  61.782  1.00  0.00     0.146 A 
ATOM     11  O   UNL     1      54.300  69.573  60.765  1.00  0.00    -0.452 OA
ENDROOT
BRANCH   1  12
ATOM     12  C   UNL     1      54.642  68.744  58.527  1.00  0.00     0.025 A 
ATOM     13  C   UNL     1      55.002  69.471  57.379  1.00  0.00     0.016 A 
ATOM     14  C   UNL     1      55.806  68.889  56.396  1.00  0.00     0.051 A 
ATOM     15  C   UNL     1      56.250  67.568  56.538  1.00  0.00     0.157 A 
ATOM     16  C   UNL     1      55.073  67.413  58.654  1.00  0.00     0.062 A 
ATOM     17  C   UNL     1      55.878  66.826  57.671  1.00  0.00     0.158 A 
BRANCH  15  18
ATOM     18  O   UNL     1      57.053  66.990  55.556  1.00  0.00    -0.504 OA
ATOM     19  H   UNL     1      57.569  67.555  54.891  1.00  0.00     0.293 HD
ENDBRANCH  15  18
BRANCH  17  20
ATOM     20  O   UNL     1      56.298  65.507  57.838  1.00  0.00    -0.504 OA
ATOM     21  H   UNL     1      56.134  64.994  58.697  1.00  0.00     0.293 HD
ENDBRANCH  17  20
ENDBRANCH   1  12
BRANCH   2  22
ATOM     22  O   UNL     1      51.885  69.495  58.049  1.00  0.00    -0.502 OA
ATOM     23  H   UNL     1      50.898  69.324  57.894  1.00  0.00     0.293 HD
ENDBRANCH   2  22
BRANCH   6  24
ATOM     24  O   UNL     1      50.150  71.086  62.826  1.00  0.00    -0.507 OA
ATOM     25  H   UNL     1      49.545  70.836  63.593  1.00  0.00     0.293 HD
ENDBRANCH   6  24
BRANCH   8  26
ATOM     26  O   UNL     1      54.287  71.096  65.263  1.00  0.00    -0.508 OA
ATOM     27  H   UNL     1      55.028  71.786  65.311  1.00  0.00     0.293 HD
ENDBRANCH   8  26
TORSDOF 6
ENDMDL
MODEL 8
REMARK VINA RESULT:     0.168     12.601     15.790
REMARK INTER + INTRA:          -0.104
REMARK INTER:                   0.166
REMARK INTRA:                  -0.271
REMARK UNBOUND:                -0.307
REMARK SMILES O=c1c(O)c(-c2ccc(O)c(O)c2)oc2cc(O)cc(O)c12
REMARK SMILES IDX 5 1 3 2 2 3 1 4 22 5 20 6 19 7 17 8 16 9 15 10 14 11 6 12
REMARK SMILES IDX 7 13 8 14 9 15 13 16 11 17 10 18 12 20 4 22 21 24 18 26
REMARK H PARENT 10 19 12 21 4 23 21 25 18 27
REMARK Flexibility Score: inf
ROOT
ATOM      1  C   UNL     1      53.349  53.266  54.055  1.00  0.00     0.180 A 
ATOM      2  C   UNL     1      53.506  52.215  53.136  1.00  0.00     0.208 A 
ATOM      3  C   UNL     1      52.391  51.780  52.401  1.00  0.00     0.238 A 
ATOM      4  O   UNL     1      52.550  50.875  51.541  1.00  0.00    -0.285 OA
ATOM      5  C   UNL     1      51.130  52.390  52.606  1.00  0.00     0.111 A 
ATOM      6  C   UNL     1      49.925  52.003  51.946  1.00  0.00     0.134 A 
ATOM      7  C   UNL     1      48.763  52.762  52.129  1.00  0.00     0.093 A 
ATOM      8  C   UNL     1      48.747  53.855  53.000  1.00  0.00     0.123 A 
ATOM      9  C   UNL     1      49.903  54.205  53.694  1.00  0.00     0.094 A 
ATOM     10  C   UNL     1      51.087  53.489  53.504  1.00  0.00     0.146 A 
ATOM     11  O   UNL     1      52.168  53.862  54.177  1.00  0.00    -0.452 OA
ENDROOT
BRANCH   1  12
ATOM     12  C   UNL     1      54.471  53.762  54.884  1.00  0.00     0.025 A 
ATOM     13  C   UNL     1      54.961  53.020  55.973  1.00  0.00     0.016 A 
ATOM     14  C   UNL     1      56.005  53.519  56.756  1.00  0.00     0.051 A 
ATOM     15  C   UNL     1      56.565  54.771  56.472  1.00  0.00     0.157 A 
ATOM     16  C   UNL     1      55.021  55.026  54.617  1.00  0.00     0.062 A 
ATOM     17  C   UNL     1      56.067  55.529  55.399  1.00  0.00     0.158 A 
BRANCH  15  18
ATOM     18  O   UNL     1      57.608  55.265  57.255  1.00  0.00    -0.504 OA
ATOM     19  H   UNL     1      57.458  56.001  57.935  1.00  0.00     0.293 HD
ENDBRANCH  15  18
BRANCH  17  20
ATOM     20  O   UNL     1      56.599  56.783  55.095  1.00  0.00    -0.504 OA
ATOM     21  H   UNL     1      57.462  57.116  55.509  1.00  0.00     0.293 HD
ENDBRANCH  17  20
ENDBRANCH   1  12
BRANCH   2  22
ATOM     22  O   UNL     1      54.764  51.640  52.932  1.00  0.00    -0.502 OA
ATOM     23  H   UNL     1      55.549  52.163  52.563  1.00  0.00     0.293 HD
ENDBRANCH   2  22
BRANCH   6  24
ATOM     24  O   UNL     1      49.812  50.875  51.129  1.00  0.00    -0.507 OA
ATOM     25  H   UNL     1      49.107  50.160  51.230  1.00  0.00     0.293 HD
ENDBRANCH   6  24
BRANCH   8  26
ATOM     26  O   UNL     1      47.582  54.596  53.188  1.00  0.00    -0.508 OA
ATOM     27  H   UNL     1      46.904  54.346  53.899  1.00  0.00     0.293 HD
ENDBRANCH   8  26
TORSDOF 6
ENDMDL
MODEL 9
REMARK VINA RESULT:     0.384      2.939      6.138
REMARK INTER + INTRA:           0.155
REMARK INTER:                   0.246
REMARK INTRA:                  -0.091
REMARK UNBOUND:                -0.307
REMARK SMILES O=c1c(O)c(-c2ccc(O)c(O)c2)oc2cc(O)cc(O)c12
REMARK SMILES IDX 5 1 3 2 2 3 1 4 22 5 20 6 19 7 17 8 16 9 15 10 14 11 6 12
REMARK SMILES IDX 7 13 8 14 9 15 13 16 11 17 10 18 12 20 4 22 21 24 18 26
REMARK H PARENT 10 19 12 21 4 23 21 25 18 27
REMARK Flexibility Score: inf
ROOT
ATOM      1  C   UNL     1      57.218  67.683  55.762  1.00  0.00     0.180 A 
ATOM      2  C   UNL     1      56.302  68.165  56.711  1.00  0.00     0.208 A 
ATOM      3  C   UNL     1      55.507  67.249  57.419  1.00  0.00     0.238 A 
ATOM      4  O   UNL     1      54.727  67.684  58.305  1.00  0.00    -0.285 OA
ATOM      5  C   UNL     1      55.627  65.863  57.156  1.00  0.00     0.111 A 
ATOM      6  C   UNL     1      54.844  64.848  57.785  1.00  0.00     0.134 A 
ATOM      7  C   UNL     1      55.138  63.501  57.545  1.00  0.00     0.093 A 
ATOM      8  C   UNL     1      56.145  63.132  56.648  1.00  0.00     0.123 A 
ATOM      9  C   UNL     1      56.875  64.116  55.985  1.00  0.00     0.094 A 
ATOM     10  C   UNL     1      56.629  65.469  56.232  1.00  0.00     0.146 A 
ATOM     11  O   UNL     1      57.354  66.373  55.586  1.00  0.00    -0.452 OA
ENDROOT
BRANCH   1  12
ATOM     12  C   UNL     1      58.073  68.587  54.960  1.00  0.00     0.025 A 
ATOM     13  C   UNL     1      58.034  68.575  53.554  1.00  0.00     0.016 A 
ATOM     14  C   UNL     1      58.866  69.420  52.816  1.00  0.00     0.051 A 
ATOM     15  C   UNL     1      59.758  70.281  53.470  1.00  0.00     0.157 A 
ATOM     16  C   UNL     1      58.983  69.436  55.609  1.00  0.00     0.062 A 
ATOM     17  C   UNL     1      59.818  70.285  54.874  1.00  0.00     0.158 A 
BRANCH  15  18
ATOM     18  O   UNL     1      60.586  71.125  52.731  1.00  0.00    -0.504 OA
ATOM     19  H   UNL     1      60.777  72.074  53.028  1.00  0.00     0.293 HD
ENDBRANCH  15  18
BRANCH  17  20
ATOM     20  O   UNL     1      60.700  71.125  55.554  1.00  0.00    -0.504 OA
ATOM     21  H   UNL     1      61.022  72.001  55.159  1.00  0.00     0.293 HD
ENDBRANCH  17  20
ENDBRANCH   1  12
BRANCH   2  22
ATOM     22  O   UNL     1      56.214  69.536  56.971  1.00  0.00    -0.502 OA
ATOM     23  H   UNL     1      56.877  70.023  57.562  1.00  0.00     0.293 HD
ENDBRANCH   2  22
BRANCH   6  24
ATOM     24  O   UNL     1      53.758  65.110  58.624  1.00  0.00    -0.507 OA
ATOM     25  H   UNL     1      53.409  66.030  58.843  1.00  0.00     0.293 HD
ENDBRANCH   6  24
BRANCH   8  26
ATOM     26  O   UNL     1      56.421  61.789  56.403  1.00  0.00    -0.508 OA
ATOM     27  H   UNL     1      55.835  61.050  56.776  1.00  0.00     0.293 HD
ENDBRANCH   8  26
TORSDOF 6
ENDMDL
