MODEL 1
REMARK VINA RESULT:    -4.948      0.000      0.000
REMARK INTER + INTRA:         -15.796
REMARK INTER:                 -12.468
REMARK INTRA:                  -3.328
REMARK UNBOUND:                -3.328
REMARK SMILES CCCCCCCCCCCCCCCCCCCCCCCCCCCC(=O)[O-]
REMARK SMILES IDX 15 1 16 2 17 3 18 4 19 5 20 6 21 7 22 8 23 9 24 10 25 11
REMARK SMILES IDX 26 12 27 13 28 14 29 15 30 16 14 17 13 18 12 19 11 20 10 21
REMARK SMILES IDX 9 22 8 23 7 24 6 25 5 26 4 27 3 28 2 29 1 30
REMARK H PARENT
REMARK Flexibility Score: inf
ROOT
ATOM      1  C   UNL     1      22.232  -0.427  47.162  1.00  0.00     0.000 C 
ENDROOT
BRANCH   1   2
ATOM      2  C   UNL     1      23.602  -0.781  47.762  1.00  0.00     0.000 C 
BRANCH   2   3
ATOM      3  C   UNL     1      23.891  -0.036  49.075  1.00  0.00     0.000 C 
BRANCH   3   4
ATOM      4  C   UNL     1      25.011  -0.728  49.868  1.00  0.00     0.000 C 
BRANCH   4   5
ATOM      5  C   UNL     1      25.343  -2.129  49.328  1.00  0.00     0.000 C 
BRANCH   5   6
ATOM      6  C   UNL     1      26.799  -2.252  48.848  1.00  0.00     0.000 C 
BRANCH   6   7
ATOM      7  C   UNL     1      27.395  -0.896  48.434  1.00  0.00     0.000 C 
BRANCH   7   8
ATOM      8  C   UNL     1      27.297  -0.643  46.919  1.00  0.00     0.000 C 
BRANCH   8   9
ATOM      9  C   UNL     1      27.009   0.830  46.589  1.00  0.00     0.000 C 
BRANCH   9  10
ATOM     10  C   UNL     1      26.884   1.703  47.850  1.00  0.00     0.000 C 
BRANCH  10  11
ATOM     11  C   UNL     1      25.806   2.794  47.717  1.00  0.00     0.000 C 
BRANCH  11  12
ATOM     12  C   UNL     1      24.735   2.521  46.640  1.00  0.00     0.006 C 
BRANCH  12  13
ATOM     13  C   UNL     1      24.411   3.725  45.740  1.00  0.00     0.053 C 
BRANCH  13  14
ATOM     14  C   UNL     1      23.455   3.366  44.642  1.00  0.00     0.041 C 
ATOM     15  O   UNL     1      23.554   3.915  43.512  1.00  0.00    -0.550 OA
ATOM     16  O   UNL     1      22.487   2.393  44.852  1.00  0.00    -0.550 OA
ENDBRANCH  13  14
ENDBRANCH  12  13
ENDBRANCH  11  12
ENDBRANCH  10  11
ENDBRANCH   9  10
ENDBRANCH   8   9
ENDBRANCH   7   8
ENDBRANCH   6   7
ENDBRANCH   5   6
ENDBRANCH   4   5
ENDBRANCH   3   4
ENDBRANCH   2   3
ENDBRANCH   1   2
BRANCH   1  17
ATOM     17  C   UNL     1      21.610   0.826  47.803  1.00  0.00     0.000 C 
BRANCH  17  18
ATOM     18  C   UNL     1      20.144   0.613  48.218  1.00  0.00     0.000 C 
BRANCH  18  19
ATOM     19  C   UNL     1      19.355  -0.172  47.156  1.00  0.00     0.000 C 
BRANCH  19  20
ATOM     20  C   UNL     1      18.149  -0.920  47.749  1.00  0.00     0.000 C 
BRANCH  20  21
ATOM     21  C   UNL     1      16.869  -0.732  46.911  1.00  0.00     0.000 C 
BRANCH  21  22
ATOM     22  C   UNL     1      16.377   0.730  46.888  1.00  0.00    -0.000 C 
BRANCH  22  23
ATOM     23  C   UNL     1      15.748   1.198  48.220  1.00  0.00    -0.000 C 
BRANCH  23  24
ATOM     24  C   UNL     1      14.206   1.245  48.238  1.00  0.00    -0.000 C 
BRANCH  24  25
ATOM     25  C   UNL     1      13.571   1.398  46.844  1.00  0.00    -0.000 C 
BRANCH  25  26
ATOM     26  C   UNL     1      12.755   0.154  46.437  1.00  0.00    -0.000 C 
BRANCH  26  27
ATOM     27  C   UNL     1      13.128  -0.372  45.040  1.00  0.00    -0.000 C 
BRANCH  27  28
ATOM     28  C   UNL     1      12.039  -0.062  43.998  1.00  0.00    -0.000 C 
BRANCH  28  29
ATOM     29  C   UNL     1      12.444   1.067  43.037  1.00  0.00    -0.003 C 
ATOM     30  C   UNL     1      11.850   2.422  43.424  1.00  0.00     0.004 C 
ENDBRANCH  28  29
ENDBRANCH  27  28
ENDBRANCH  26  27
ENDBRANCH  25  26
ENDBRANCH  24  25
ENDBRANCH  23  24
ENDBRANCH  22  23
ENDBRANCH  21  22
ENDBRANCH  20  21
ENDBRANCH  19  20
ENDBRANCH  18  19
ENDBRANCH  17  18
ENDBRANCH   1  17
TORSDOF 26
ENDMDL
MODEL 2
REMARK VINA RESULT:    -4.942      4.353      7.717
REMARK INTER + INTRA:         -15.781
REMARK INTER:                 -11.290
REMARK INTRA:                  -4.490
REMARK UNBOUND:                -3.328
REMARK SMILES CCCCCCCCCCCCCCCCCCCCCCCCCCCC(=O)[O-]
REMARK SMILES IDX 15 1 16 2 17 3 18 4 19 5 20 6 21 7 22 8 23 9 24 10 25 11
REMARK SMILES IDX 26 12 27 13 28 14 29 15 30 16 14 17 13 18 12 19 11 20 10 21
REMARK SMILES IDX 9 22 8 23 7 24 6 25 5 26 4 27 3 28 2 29 1 30
REMARK H PARENT
REMARK Flexibility Score: inf
ROOT
ATOM      1  C   UNL     1      22.851   2.228  44.725  1.00  0.00     0.000 C 
ENDROOT
BRANCH   1   2
ATOM      2  C   UNL     1      24.072   1.308  44.559  1.00  0.00     0.000 C 
BRANCH   2   3
ATOM      3  C   UNL     1      23.932   0.334  43.379  1.00  0.00     0.000 C 
BRANCH   3   4
ATOM      4  C   UNL     1      22.561   0.482  42.699  1.00  0.00     0.000 C 
BRANCH   4   5
ATOM      5  C   UNL     1      22.366  -0.504  41.535  1.00  0.00     0.000 C 
BRANCH   5   6
ATOM      6  C   UNL     1      22.162   0.202  40.184  1.00  0.00     0.000 C 
BRANCH   6   7
ATOM      7  C   UNL     1      23.425   0.941  39.713  1.00  0.00     0.000 C 
BRANCH   7   8
ATOM      8  C   UNL     1      23.238   2.468  39.670  1.00  0.00     0.000 C 
BRANCH   8   9
ATOM      9  C   UNL     1      24.559   3.215  39.430  1.00  0.00     0.000 C 
BRANCH   9  10
ATOM     10  C   UNL     1      25.029   3.994  40.670  1.00  0.00     0.000 C 
BRANCH  10  11
ATOM     11  C   UNL     1      24.035   3.909  41.842  1.00  0.00     0.000 C 
BRANCH  11  12
ATOM     12  C   UNL     1      23.504   5.269  42.344  1.00  0.00     0.006 C 
BRANCH  12  13
ATOM     13  C   UNL     1      24.582   6.202  42.922  1.00  0.00     0.053 C 
BRANCH  13  14
ATOM     14  C   UNL     1      24.628   7.519  42.208  1.00  0.00     0.041 C 
ATOM     15  O   UNL     1      24.322   7.588  40.988  1.00  0.00    -0.550 OA
ATOM     16  O   UNL     1      24.963   8.676  42.901  1.00  0.00    -0.550 OA
ENDBRANCH  13  14
ENDBRANCH  12  13
ENDBRANCH  11  12
ENDBRANCH  10  11
ENDBRANCH   9  10
ENDBRANCH   8   9
ENDBRANCH   7   8
ENDBRANCH   6   7
ENDBRANCH   5   6
ENDBRANCH   4   5
ENDBRANCH   3   4
ENDBRANCH   2   3
ENDBRANCH   1   2
BRANCH   1  17
ATOM     17  C   UNL     1      22.912   3.065  46.014  1.00  0.00     0.000 C 
BRANCH  17  18
ATOM     18  C   UNL     1      23.811   4.306  45.871  1.00  0.00     0.000 C 
BRANCH  18  19
ATOM     19  C   UNL     1      25.104   4.178  46.694  1.00  0.00     0.000 C 
BRANCH  19  20
ATOM     20  C   UNL     1      25.057   3.008  47.690  1.00  0.00     0.000 C 
BRANCH  20  21
ATOM     21  C   UNL     1      26.384   2.224  47.742  1.00  0.00     0.000 C 
BRANCH  21  22
ATOM     22  C   UNL     1      26.212   0.795  48.297  1.00  0.00    -0.000 C 
BRANCH  22  23
ATOM     23  C   UNL     1      24.832   0.537  48.941  1.00  0.00    -0.000 C 
BRANCH  23  24
ATOM     24  C   UNL     1      24.079  -0.701  48.412  1.00  0.00    -0.000 C 
BRANCH  24  25
ATOM     25  C   UNL     1      22.812  -0.362  47.605  1.00  0.00    -0.000 C 
BRANCH  25  26
ATOM     26  C   UNL     1      21.965   0.732  48.287  1.00  0.00    -0.000 C 
BRANCH  26  27
ATOM     27  C   UNL     1      20.505   0.746  47.799  1.00  0.00    -0.000 C 
BRANCH  27  28
ATOM     28  C   UNL     1      20.131  -0.553  47.063  1.00  0.00    -0.000 C 
BRANCH  28  29
ATOM     29  C   UNL     1      20.173  -0.400  45.535  1.00  0.00    -0.003 C 
ATOM     30  C   UNL     1      20.554  -1.695  44.816  1.00  0.00     0.004 C 
ENDBRANCH  28  29
ENDBRANCH  27  28
ENDBRANCH  26  27
ENDBRANCH  25  26
ENDBRANCH  24  25
ENDBRANCH  23  24
ENDBRANCH  22  23
ENDBRANCH  21  22
ENDBRANCH  20  21
ENDBRANCH  19  20
ENDBRANCH  18  19
ENDBRANCH  17  18
ENDBRANCH   1  17
TORSDOF 26
ENDMDL
MODEL 3
REMARK VINA RESULT:    -4.842      2.936     10.003
REMARK INTER + INTRA:         -15.529
REMARK INTER:                 -12.605
REMARK INTRA:                  -2.925
REMARK UNBOUND:                -3.328
REMARK SMILES CCCCCCCCCCCCCCCCCCCCCCCCCCCC(=O)[O-]
REMARK SMILES IDX 15 1 16 2 17 3 18 4 19 5 20 6 21 7 22 8 23 9 24 10 25 11
REMARK SMILES IDX 26 12 27 13 28 14 29 15 30 16 14 17 13 18 12 19 11 20 10 21
REMARK SMILES IDX 9 22 8 23 7 24 6 25 5 26 4 27 3 28 2 29 1 30
REMARK H PARENT
REMARK Flexibility Score: inf
ROOT
ATOM      1  C   UNL     1      22.515   0.245  47.605  1.00  0.00     0.000 C 
ENDROOT
BRANCH   1   2
ATOM      2  C   UNL     1      21.281   1.030  48.079  1.00  0.00     0.000 C 
BRANCH   2   3
ATOM      3  C   UNL     1      19.966   0.263  47.871  1.00  0.00     0.000 C 
BRANCH   3   4
ATOM      4  C   UNL     1      20.027  -0.602  46.601  1.00  0.00     0.000 C 
BRANCH   4   5
ATOM      5  C   UNL     1      18.671  -1.239  46.252  1.00  0.00     0.000 C 
BRANCH   5   6
ATOM      6  C   UNL     1      17.753  -1.392  47.477  1.00  0.00     0.000 C 
BRANCH   6   7
ATOM      7  C   UNL     1      16.264  -1.427  47.093  1.00  0.00     0.000 C 
BRANCH   7   8
ATOM      8  C   UNL     1      15.385  -0.601  48.049  1.00  0.00     0.000 C 
BRANCH   8   9
ATOM      9  C   UNL     1      15.691   0.904  47.974  1.00  0.00     0.000 C 
BRANCH   9  10
ATOM     10  C   UNL     1      14.449   1.771  48.243  1.00  0.00     0.000 C 
BRANCH  10  11
ATOM     11  C   UNL     1      13.195   1.264  47.507  1.00  0.00     0.000 C 
BRANCH  11  12
ATOM     12  C   UNL     1      13.212   1.469  45.977  1.00  0.00     0.006 C 
BRANCH  12  13
ATOM     13  C   UNL     1      12.555   0.335  45.172  1.00  0.00     0.053 C 
BRANCH  13  14
ATOM     14  C   UNL     1      12.414   0.684  43.721  1.00  0.00     0.041 C 
ATOM     15  O   UNL     1      12.500   1.883  43.347  1.00  0.00    -0.550 OA
ATOM     16  O   UNL     1      12.234  -0.321  42.778  1.00  0.00    -0.550 OA
ENDBRANCH  13  14
ENDBRANCH  12  13
ENDBRANCH  11  12
ENDBRANCH  10  11
ENDBRANCH   9  10
ENDBRANCH   8   9
ENDBRANCH   7   8
ENDBRANCH   6   7
ENDBRANCH   5   6
ENDBRANCH   4   5
ENDBRANCH   3   4
ENDBRANCH   2   3
ENDBRANCH   1   2
BRANCH   1  17
ATOM     17  C   UNL     1      23.549   0.033  48.726  1.00  0.00     0.000 C 
BRANCH  17  18
ATOM     18  C   UNL     1      24.372  -1.253  48.535  1.00  0.00     0.000 C 
BRANCH  18  19
ATOM     19  C   UNL     1      25.517  -1.360  49.558  1.00  0.00     0.000 C 
BRANCH  19  20
ATOM     20  C   UNL     1      26.897  -1.465  48.890  1.00  0.00     0.000 C 
BRANCH  20  21
ATOM     21  C   UNL     1      27.060  -0.484  47.713  1.00  0.00     0.000 C 
BRANCH  21  22
ATOM     22  C   UNL     1      27.940   0.734  48.066  1.00  0.00    -0.000 C 
BRANCH  22  23
ATOM     23  C   UNL     1      27.192   2.084  48.000  1.00  0.00    -0.000 C 
BRANCH  23  24
ATOM     24  C   UNL     1      25.885   2.074  47.180  1.00  0.00    -0.000 C 
BRANCH  24  25
ATOM     25  C   UNL     1      24.916   3.216  47.539  1.00  0.00    -0.000 C 
BRANCH  25  26
ATOM     26  C   UNL     1      24.380   3.939  46.286  1.00  0.00    -0.000 C 
BRANCH  26  27
ATOM     27  C   UNL     1      23.144   3.249  45.683  1.00  0.00    -0.000 C 
BRANCH  27  28
ATOM     28  C   UNL     1      23.461   2.569  44.339  1.00  0.00    -0.000 C 
BRANCH  28  29
ATOM     29  C   UNL     1      23.013   1.099  44.300  1.00  0.00    -0.003 C 
ATOM     30  C   UNL     1      22.601   0.639  42.902  1.00  0.00     0.004 C 
ENDBRANCH  28  29
ENDBRANCH  27  28
ENDBRANCH  26  27
ENDBRANCH  25  26
ENDBRANCH  24  25
ENDBRANCH  23  24
ENDBRANCH  22  23
ENDBRANCH  21  22
ENDBRANCH  20  21
ENDBRANCH  19  20
ENDBRANCH  18  19
ENDBRANCH  17  18
ENDBRANCH   1  17
TORSDOF 26
ENDMDL
MODEL 4
REMARK VINA RESULT:    -4.811      3.769      9.125
REMARK INTER + INTRA:         -15.450
REMARK INTER:                 -12.179
REMARK INTRA:                  -3.271
REMARK UNBOUND:                -3.328
REMARK SMILES CCCCCCCCCCCCCCCCCCCCCCCCCCCC(=O)[O-]
REMARK SMILES IDX 15 1 16 2 17 3 18 4 19 5 20 6 21 7 22 8 23 9 24 10 25 11
REMARK SMILES IDX 26 12 27 13 28 14 29 15 30 16 14 17 13 18 12 19 11 20 10 21
REMARK SMILES IDX 9 22 8 23 7 24 6 25 5 26 4 27 3 28 2 29 1 30
REMARK H PARENT
REMARK Flexibility Score: inf
ROOT
ATOM      1  C   UNL     1      23.074   3.246  45.771  1.00  0.00     0.000 C 
ENDROOT
BRANCH   1   2
ATOM      2  C   UNL     1      24.348   4.059  46.055  1.00  0.00     0.000 C 
BRANCH   2   3
ATOM      3  C   UNL     1      25.413   3.256  46.819  1.00  0.00     0.000 C 
BRANCH   3   4
ATOM      4  C   UNL     1      24.812   2.590  48.068  1.00  0.00     0.000 C 
BRANCH   4   5
ATOM      5  C   UNL     1      25.120   1.085  48.144  1.00  0.00     0.000 C 
BRANCH   5   6
ATOM      6  C   UNL     1      24.002   0.283  48.831  1.00  0.00     0.000 C 
BRANCH   6   7
ATOM      7  C   UNL     1      22.779   0.083  47.920  1.00  0.00     0.000 C 
BRANCH   7   8
ATOM      8  C   UNL     1      21.617   1.028  48.272  1.00  0.00     0.000 C 
BRANCH   8   9
ATOM      9  C   UNL     1      20.247   0.432  47.912  1.00  0.00     0.000 C 
BRANCH   9  10
ATOM     10  C   UNL     1      20.348  -0.679  46.851  1.00  0.00     0.000 C 
BRANCH  10  11
ATOM     11  C   UNL     1      19.013  -1.410  46.622  1.00  0.00     0.000 C 
BRANCH  11  12
ATOM     12  C   UNL     1      18.098  -1.495  47.862  1.00  0.00     0.006 C 
BRANCH  12  13
ATOM     13  C   UNL     1      16.593  -1.509  47.547  1.00  0.00     0.053 C 
BRANCH  13  14
ATOM     14  C   UNL     1      15.956  -0.173  47.784  1.00  0.00     0.041 C 
ATOM     15  O   UNL     1      16.549   0.882  47.434  1.00  0.00    -0.550 OA
ATOM     16  O   UNL     1      14.688  -0.096  48.348  1.00  0.00    -0.550 OA
ENDBRANCH  13  14
ENDBRANCH  12  13
ENDBRANCH  11  12
ENDBRANCH  10  11
ENDBRANCH   9  10
ENDBRANCH   8   9
ENDBRANCH   7   8
ENDBRANCH   6   7
ENDBRANCH   5   6
ENDBRANCH   4   5
ENDBRANCH   3   4
ENDBRANCH   2   3
ENDBRANCH   1   2
BRANCH   1  17
ATOM     17  C   UNL     1      23.131   2.509  44.421  1.00  0.00     0.000 C 
BRANCH  17  18
ATOM     18  C   UNL     1      23.289   0.987  44.586  1.00  0.00     0.000 C 
BRANCH  18  19
ATOM     19  C   UNL     1      22.236   0.209  43.778  1.00  0.00     0.000 C 
BRANCH  19  20
ATOM     20  C   UNL     1      22.476   0.291  42.262  1.00  0.00     0.000 C 
BRANCH  20  21
ATOM     21  C   UNL     1      23.932  -0.038  41.876  1.00  0.00     0.000 C 
BRANCH  21  22
ATOM     22  C   UNL     1      24.605   1.090  41.066  1.00  0.00    -0.000 C 
BRANCH  22  23
ATOM     23  C   UNL     1      23.624   2.182  40.583  1.00  0.00    -0.000 C 
BRANCH  23  24
ATOM     24  C   UNL     1      24.194   3.616  40.562  1.00  0.00    -0.000 C 
BRANCH  24  25
ATOM     25  C   UNL     1      23.843   4.444  41.812  1.00  0.00    -0.000 C 
BRANCH  25  26
ATOM     26  C   UNL     1      24.921   5.500  42.131  1.00  0.00    -0.000 C 
BRANCH  26  27
ATOM     27  C   UNL     1      24.333   6.907  42.340  1.00  0.00    -0.000 C 
BRANCH  27  28
ATOM     28  C   UNL     1      24.980   7.946  41.407  1.00  0.00    -0.000 C 
BRANCH  28  29
ATOM     29  C   UNL     1      24.976   7.501  39.936  1.00  0.00    -0.003 C 
ATOM     30  C   UNL     1      25.789   8.428  39.031  1.00  0.00     0.004 C 
ENDBRANCH  28  29
ENDBRANCH  27  28
ENDBRANCH  26  27
ENDBRANCH  25  26
ENDBRANCH  24  25
ENDBRANCH  23  24
ENDBRANCH  22  23
ENDBRANCH  21  22
ENDBRANCH  20  21
ENDBRANCH  19  20
ENDBRANCH  18  19
ENDBRANCH  17  18
ENDBRANCH   1  17
TORSDOF 26
ENDMDL
MODEL 5
REMARK VINA RESULT:    -4.785      3.781     10.411
REMARK INTER + INTRA:         -15.387
REMARK INTER:                 -11.659
REMARK INTRA:                  -3.728
REMARK UNBOUND:                -3.328
REMARK SMILES CCCCCCCCCCCCCCCCCCCCCCCCCCCC(=O)[O-]
REMARK SMILES IDX 15 1 16 2 17 3 18 4 19 5 20 6 21 7 22 8 23 9 24 10 25 11
REMARK SMILES IDX 26 12 27 13 28 14 29 15 30 16 14 17 13 18 12 19 11 20 10 21
REMARK SMILES IDX 9 22 8 23 7 24 6 25 5 26 4 27 3 28 2 29 1 30
REMARK H PARENT
REMARK Flexibility Score: inf
ROOT
ATOM      1  C   UNL     1      19.115  -0.531  44.974  1.00  0.00     0.000 C 
ENDROOT
BRANCH   1   2
ATOM      2  C   UNL     1      19.276  -1.608  46.059  1.00  0.00     0.000 C 
BRANCH   2   3
ATOM      3  C   UNL     1      18.752  -1.158  47.432  1.00  0.00     0.000 C 
BRANCH   3   4
ATOM      4  C   UNL     1      17.409  -1.830  47.758  1.00  0.00     0.000 C 
BRANCH   4   5
ATOM      5  C   UNL     1      16.206  -0.907  47.504  1.00  0.00     0.000 C 
BRANCH   5   6
ATOM      6  C   UNL     1      16.603   0.577  47.416  1.00  0.00     0.000 C 
BRANCH   6   7
ATOM      7  C   UNL     1      15.632   1.490  48.182  1.00  0.00     0.000 C 
BRANCH   7   8
ATOM      8  C   UNL     1      14.390   0.738  48.693  1.00  0.00     0.000 C 
BRANCH   8   9
ATOM      9  C   UNL     1      13.086   1.276  48.082  1.00  0.00     0.000 C 
BRANCH   9  10
ATOM     10  C   UNL     1      13.142   1.348  46.546  1.00  0.00     0.000 C 
BRANCH  10  11
ATOM     11  C   UNL     1      12.623   0.067  45.867  1.00  0.00     0.000 C 
BRANCH  11  12
ATOM     12  C   UNL     1      12.940  -0.044  44.361  1.00  0.00     0.006 C 
BRANCH  12  13
ATOM     13  C   UNL     1      12.031   0.801  43.452  1.00  0.00     0.053 C 
BRANCH  13  14
ATOM     14  C   UNL     1      10.627   0.876  43.972  1.00  0.00     0.041 C 
ATOM     15  O   UNL     1       9.851  -0.107  43.841  1.00  0.00    -0.550 OA
ATOM     16  O   UNL     1      10.193   2.013  44.643  1.00  0.00    -0.550 OA
ENDBRANCH  13  14
ENDBRANCH  12  13
ENDBRANCH  11  12
ENDBRANCH  10  11
ENDBRANCH   9  10
ENDBRANCH   8   9
ENDBRANCH   7   8
ENDBRANCH   6   7
ENDBRANCH   5   6
ENDBRANCH   4   5
ENDBRANCH   3   4
ENDBRANCH   2   3
ENDBRANCH   1   2
BRANCH   1  17
ATOM     17  C   UNL     1      19.427  -1.062  43.563  1.00  0.00     0.000 C 
BRANCH  17  18
ATOM     18  C   UNL     1      20.348  -0.120  42.768  1.00  0.00     0.000 C 
BRANCH  18  19
ATOM     19  C   UNL     1      21.754  -0.715  42.580  1.00  0.00     0.000 C 
BRANCH  19  20
ATOM     20  C   UNL     1      22.469  -0.977  43.916  1.00  0.00     0.000 C 
BRANCH  20  21
ATOM     21  C   UNL     1      23.733  -0.112  44.088  1.00  0.00     0.000 C 
BRANCH  21  22
ATOM     22  C   UNL     1      23.436   1.401  44.024  1.00  0.00    -0.000 C 
BRANCH  22  23
ATOM     23  C   UNL     1      23.738   2.153  45.339  1.00  0.00    -0.000 C 
BRANCH  23  24
ATOM     24  C   UNL     1      22.513   2.779  46.036  1.00  0.00    -0.000 C 
BRANCH  24  25
ATOM     25  C   UNL     1      21.534   1.745  46.623  1.00  0.00    -0.000 C 
BRANCH  25  26
ATOM     26  C   UNL     1      22.121   1.024  47.854  1.00  0.00    -0.000 C 
BRANCH  26  27
ATOM     27  C   UNL     1      22.463  -0.451  47.574  1.00  0.00    -0.000 C 
BRANCH  27  28
ATOM     28  C   UNL     1      23.881  -0.813  48.048  1.00  0.00    -0.000 C 
BRANCH  28  29
ATOM     29  C   UNL     1      24.506   0.277  48.932  1.00  0.00    -0.003 C 
ATOM     30  C   UNL     1      25.795   0.855  48.346  1.00  0.00     0.004 C 
ENDBRANCH  28  29
ENDBRANCH  27  28
ENDBRANCH  26  27
ENDBRANCH  25  26
ENDBRANCH  24  25
ENDBRANCH  23  24
ENDBRANCH  22  23
ENDBRANCH  21  22
ENDBRANCH  20  21
ENDBRANCH  19  20
ENDBRANCH  18  19
ENDBRANCH  17  18
ENDBRANCH   1  17
TORSDOF 26
ENDMDL
MODEL 6
REMARK VINA RESULT:    -4.767      1.877      2.985
REMARK INTER + INTRA:         -15.340
REMARK INTER:                 -11.760
REMARK INTRA:                  -3.579
REMARK UNBOUND:                -3.328
REMARK SMILES CCCCCCCCCCCCCCCCCCCCCCCCCCCC(=O)[O-]
REMARK SMILES IDX 15 1 16 2 17 3 18 4 19 5 20 6 21 7 22 8 23 9 24 10 25 11
REMARK SMILES IDX 26 12 27 13 28 14 29 15 30 16 14 17 13 18 12 19 11 20 10 21
REMARK SMILES IDX 9 22 8 23 7 24 6 25 5 26 4 27 3 28 2 29 1 30
REMARK H PARENT
REMARK Flexibility Score: inf
ROOT
ATOM      1  C   UNL     1      20.966  -0.418  44.842  1.00  0.00     0.000 C 
ENDROOT
BRANCH   1   2
ATOM      2  C   UNL     1      21.720   0.887  44.544  1.00  0.00     0.000 C 
BRANCH   2   3
ATOM      3  C   UNL     1      22.132   1.645  45.815  1.00  0.00     0.000 C 
BRANCH   3   4
ATOM      4  C   UNL     1      21.191   1.315  46.985  1.00  0.00     0.000 C 
BRANCH   4   5
ATOM      5  C   UNL     1      21.949   0.924  48.265  1.00  0.00     0.000 C 
BRANCH   5   6
ATOM      6  C   UNL     1      23.213   0.097  47.977  1.00  0.00     0.000 C 
BRANCH   6   7
ATOM      7  C   UNL     1      24.323   0.345  49.012  1.00  0.00     0.000 C 
BRANCH   7   8
ATOM      8  C   UNL     1      25.586   0.966  48.390  1.00  0.00     0.000 C 
BRANCH   8   9
ATOM      9  C   UNL     1      25.511   1.035  46.857  1.00  0.00     0.000 C 
BRANCH   9  10
ATOM     10  C   UNL     1      25.804   2.446  46.316  1.00  0.00     0.000 C 
BRANCH  10  11
ATOM     11  C   UNL     1      25.159   3.557  47.165  1.00  0.00     0.000 C 
BRANCH  11  12
ATOM     12  C   UNL     1      24.225   4.509  46.388  1.00  0.00     0.006 C 
BRANCH  12  13
ATOM     13  C   UNL     1      24.427   4.500  44.863  1.00  0.00     0.053 C 
BRANCH  13  14
ATOM     14  C   UNL     1      25.162   5.715  44.385  1.00  0.00     0.041 C 
ATOM     15  O   UNL     1      24.711   6.390  43.422  1.00  0.00    -0.550 OA
ATOM     16  O   UNL     1      26.320   6.128  45.033  1.00  0.00    -0.550 OA
ENDBRANCH  13  14
ENDBRANCH  12  13
ENDBRANCH  11  12
ENDBRANCH  10  11
ENDBRANCH   9  10
ENDBRANCH   8   9
ENDBRANCH   7   8
ENDBRANCH   6   7
ENDBRANCH   5   6
ENDBRANCH   4   5
ENDBRANCH   3   4
ENDBRANCH   2   3
ENDBRANCH   1   2
BRANCH   1  17
ATOM     17  C   UNL     1      19.588  -0.475  44.157  1.00  0.00     0.000 C 
BRANCH  17  18
ATOM     18  C   UNL     1      18.923  -1.857  44.284  1.00  0.00     0.000 C 
BRANCH  18  19
ATOM     19  C   UNL     1      17.826  -1.870  45.363  1.00  0.00     0.000 C 
BRANCH  19  20
ATOM     20  C   UNL     1      18.349  -2.339  46.730  1.00  0.00     0.000 C 
BRANCH  20  21
ATOM     21  C   UNL     1      18.050  -1.327  47.854  1.00  0.00     0.000 C 
BRANCH  21  22
ATOM     22  C   UNL     1      17.730   0.084  47.319  1.00  0.00    -0.000 C 
BRANCH  22  23
ATOM     23  C   UNL     1      16.334   0.605  47.728  1.00  0.00    -0.000 C 
BRANCH  23  24
ATOM     24  C   UNL     1      15.254  -0.480  47.913  1.00  0.00    -0.000 C 
BRANCH  24  25
ATOM     25  C   UNL     1      14.265  -0.582  46.737  1.00  0.00    -0.000 C 
BRANCH  25  26
ATOM     26  C   UNL     1      13.958   0.796  46.115  1.00  0.00    -0.000 C 
BRANCH  26  27
ATOM     27  C   UNL     1      12.525   1.274  46.404  1.00  0.00    -0.000 C 
BRANCH  27  28
ATOM     28  C   UNL     1      11.760   1.616  45.114  1.00  0.00    -0.000 C 
BRANCH  28  29
ATOM     29  C   UNL     1      12.249   0.804  43.904  1.00  0.00    -0.003 C 
ATOM     30  C   UNL     1      12.641   1.683  42.716  1.00  0.00     0.004 C 
ENDBRANCH  28  29
ENDBRANCH  27  28
ENDBRANCH  26  27
ENDBRANCH  25  26
ENDBRANCH  24  25
ENDBRANCH  23  24
ENDBRANCH  22  23
ENDBRANCH  21  22
ENDBRANCH  20  21
ENDBRANCH  19  20
ENDBRANCH  18  19
ENDBRANCH  17  18
ENDBRANCH   1  17
TORSDOF 26
ENDMDL
MODEL 7
REMARK VINA RESULT:    -4.739      1.266      2.486
REMARK INTER + INTRA:         -15.270
REMARK INTER:                 -11.682
REMARK INTRA:                  -3.588
REMARK UNBOUND:                -3.328
REMARK SMILES CCCCCCCCCCCCCCCCCCCCCCCCCCCC(=O)[O-]
REMARK SMILES IDX 15 1 16 2 17 3 18 4 19 5 20 6 21 7 22 8 23 9 24 10 25 11
REMARK SMILES IDX 26 12 27 13 28 14 29 15 30 16 14 17 13 18 12 19 11 20 10 21
REMARK SMILES IDX 9 22 8 23 7 24 6 25 5 26 4 27 3 28 2 29 1 30
REMARK H PARENT
REMARK Flexibility Score: inf
ROOT
ATOM      1  C   UNL     1      23.854   0.117  48.894  1.00  0.00     0.000 C 
ENDROOT
BRANCH   1   2
ATOM      2  C   UNL     1      24.764  -0.647  49.870  1.00  0.00     0.000 C 
BRANCH   2   3
ATOM      3  C   UNL     1      25.228  -2.005  49.319  1.00  0.00     0.000 C 
BRANCH   3   4
ATOM      4  C   UNL     1      26.759  -2.130  49.375  1.00  0.00     0.000 C 
BRANCH   4   5
ATOM      5  C   UNL     1      27.442  -1.636  48.088  1.00  0.00     0.000 C 
BRANCH   5   6
ATOM      6  C   UNL     1      27.898  -0.170  48.183  1.00  0.00     0.000 C 
BRANCH   6   7
ATOM      7  C   UNL     1      27.133   0.746  47.214  1.00  0.00     0.000 C 
BRANCH   7   8
ATOM      8  C   UNL     1      26.726   2.083  47.859  1.00  0.00     0.000 C 
BRANCH   8   9
ATOM      9  C   UNL     1      26.240   3.110  46.823  1.00  0.00     0.000 C 
BRANCH   9  10
ATOM     10  C   UNL     1      24.818   3.617  47.119  1.00  0.00     0.000 C 
BRANCH  10  11
ATOM     11  C   UNL     1      23.761   3.017  46.174  1.00  0.00     0.000 C 
BRANCH  11  12
ATOM     12  C   UNL     1      24.309   2.004  45.146  1.00  0.00     0.006 C 
BRANCH  12  13
ATOM     13  C   UNL     1      23.895   2.280  43.691  1.00  0.00     0.053 C 
BRANCH  13  14
ATOM     14  C   UNL     1      24.278   3.660  43.249  1.00  0.00     0.041 C 
ATOM     15  O   UNL     1      23.388   4.490  42.922  1.00  0.00    -0.550 OA
ATOM     16  O   UNL     1      25.613   4.044  43.245  1.00  0.00    -0.550 OA
ENDBRANCH  13  14
ENDBRANCH  12  13
ENDBRANCH  11  12
ENDBRANCH  10  11
ENDBRANCH   9  10
ENDBRANCH   8   9
ENDBRANCH   7   8
ENDBRANCH   6   7
ENDBRANCH   5   6
ENDBRANCH   4   5
ENDBRANCH   3   4
ENDBRANCH   2   3
ENDBRANCH   1   2
BRANCH   1  17
ATOM     17  C   UNL     1      23.555  -0.684  47.614  1.00  0.00     0.000 C 
BRANCH  17  18
ATOM     18  C   UNL     1      22.149  -0.400  47.055  1.00  0.00     0.000 C 
BRANCH  18  19
ATOM     19  C   UNL     1      21.417   0.684  47.864  1.00  0.00     0.000 C 
BRANCH  19  20
ATOM     20  C   UNL     1      19.901   0.441  47.941  1.00  0.00     0.000 C 
BRANCH  20  21
ATOM     21  C   UNL     1      19.473  -0.849  47.214  1.00  0.00     0.000 C 
BRANCH  21  22
ATOM     22  C   UNL     1      18.010  -0.804  46.727  1.00  0.00    -0.000 C 
BRANCH  22  23
ATOM     23  C   UNL     1      17.140   0.242  47.460  1.00  0.00    -0.000 C 
BRANCH  23  24
ATOM     24  C   UNL     1      15.685  -0.188  47.735  1.00  0.00    -0.000 C 
BRANCH  24  25
ATOM     25  C   UNL     1      15.523  -1.692  48.022  1.00  0.00    -0.000 C 
BRANCH  25  26
ATOM     26  C   UNL     1      14.616  -2.387  46.986  1.00  0.00    -0.000 C 
BRANCH  26  27
ATOM     27  C   UNL     1      14.268  -1.478  45.794  1.00  0.00    -0.000 C 
BRANCH  27  28
ATOM     28  C   UNL     1      12.846  -0.901  45.905  1.00  0.00    -0.000 C 
BRANCH  28  29
ATOM     29  C   UNL     1      12.677   0.411  45.123  1.00  0.00    -0.003 C 
ATOM     30  C   UNL     1      12.884   1.653  45.991  1.00  0.00     0.004 C 
ENDBRANCH  28  29
ENDBRANCH  27  28
ENDBRANCH  26  27
ENDBRANCH  25  26
ENDBRANCH  24  25
ENDBRANCH  23  24
ENDBRANCH  22  23
ENDBRANCH  21  22
ENDBRANCH  20  21
ENDBRANCH  19  20
ENDBRANCH  18  19
ENDBRANCH  17  18
ENDBRANCH   1  17
TORSDOF 26
ENDMDL
MODEL 8
REMARK VINA RESULT:    -4.736      2.870     11.170
REMARK INTER + INTRA:         -15.263
REMARK INTER:                 -11.665
REMARK INTRA:                  -3.598
REMARK UNBOUND:                -3.328
REMARK SMILES CCCCCCCCCCCCCCCCCCCCCCCCCCCC(=O)[O-]
REMARK SMILES IDX 15 1 16 2 17 3 18 4 19 5 20 6 21 7 22 8 23 9 24 10 25 11
REMARK SMILES IDX 26 12 27 13 28 14 29 15 30 16 14 17 13 18 12 19 11 20 10 21
REMARK SMILES IDX 9 22 8 23 7 24 6 25 5 26 4 27 3 28 2 29 1 30
REMARK H PARENT
REMARK Flexibility Score: inf
ROOT
ATOM      1  C   UNL     1      16.293  -1.666  47.585  1.00  0.00     0.000 C 
ENDROOT
BRANCH   1   2
ATOM      2  C   UNL     1      15.122  -2.647  47.765  1.00  0.00     0.000 C 
BRANCH   2   3
ATOM      3  C   UNL     1      14.383  -2.944  46.452  1.00  0.00     0.000 C 
BRANCH   3   4
ATOM      4  C   UNL     1      15.154  -2.387  45.244  1.00  0.00     0.000 C 
BRANCH   4   5
ATOM      5  C   UNL     1      14.326  -2.410  43.949  1.00  0.00     0.000 C 
BRANCH   5   6
ATOM      6  C   UNL     1      12.810  -2.397  44.211  1.00  0.00     0.000 C 
BRANCH   6   7
ATOM      7  C   UNL     1      12.043  -1.561  43.174  1.00  0.00     0.000 C 
BRANCH   7   8
ATOM      8  C   UNL     1      10.635  -1.167  43.655  1.00  0.00     0.000 C 
BRANCH   8   9
ATOM      9  C   UNL     1      10.500   0.344  43.899  1.00  0.00     0.000 C 
BRANCH   9  10
ATOM     10  C   UNL     1      11.819   1.100  43.657  1.00  0.00     0.000 C 
BRANCH  10  11
ATOM     11  C   UNL     1      12.358   1.782  44.927  1.00  0.00     0.000 C 
BRANCH  11  12
ATOM     12  C   UNL     1      12.823   0.815  46.037  1.00  0.00     0.006 C 
BRANCH  12  13
ATOM     13  C   UNL     1      14.257   1.058  46.537  1.00  0.00     0.053 C 
BRANCH  13  14
ATOM     14  C   UNL     1      14.289   1.452  47.983  1.00  0.00     0.041 C 
ATOM     15  O   UNL     1      13.355   1.107  48.754  1.00  0.00    -0.550 OA
ATOM     16  O   UNL     1      15.373   2.160  48.488  1.00  0.00    -0.550 OA
ENDBRANCH  13  14
ENDBRANCH  12  13
ENDBRANCH  11  12
ENDBRANCH  10  11
ENDBRANCH   9  10
ENDBRANCH   8   9
ENDBRANCH   7   8
ENDBRANCH   6   7
ENDBRANCH   5   6
ENDBRANCH   4   5
ENDBRANCH   3   4
ENDBRANCH   2   3
ENDBRANCH   1   2
BRANCH   1  17
ATOM     17  C   UNL     1      17.657  -2.312  47.888  1.00  0.00     0.000 C 
BRANCH  17  18
ATOM     18  C   UNL     1      18.708  -2.007  46.807  1.00  0.00     0.000 C 
BRANCH  18  19
ATOM     19  C   UNL     1      18.850  -0.497  46.551  1.00  0.00     0.000 C 
BRANCH  19  20
ATOM     20  C   UNL     1      19.769   0.191  47.574  1.00  0.00     0.000 C 
BRANCH  20  21
ATOM     21  C   UNL     1      21.262  -0.071  47.295  1.00  0.00     0.000 C 
BRANCH  21  22
ATOM     22  C   UNL     1      21.609  -0.016  45.793  1.00  0.00    -0.000 C 
BRANCH  22  23
ATOM     23  C   UNL     1      22.733   0.987  45.448  1.00  0.00    -0.000 C 
BRANCH  23  24
ATOM     24  C   UNL     1      22.725   2.293  46.269  1.00  0.00    -0.000 C 
BRANCH  24  25
ATOM     25  C   UNL     1      24.117   2.725  46.765  1.00  0.00    -0.000 C 
BRANCH  25  26
ATOM     26  C   UNL     1      24.373   2.298  48.225  1.00  0.00    -0.000 C 
BRANCH  26  27
ATOM     27  C   UNL     1      25.304   1.078  48.334  1.00  0.00    -0.000 C 
BRANCH  27  28
ATOM     28  C   UNL     1      24.728  -0.005  49.264  1.00  0.00    -0.000 C 
BRANCH  28  29
ATOM     29  C   UNL     1      24.331  -1.283  48.509  1.00  0.00    -0.003 C 
ATOM     30  C   UNL     1      25.097  -1.464  47.199  1.00  0.00     0.004 C 
ENDBRANCH  28  29
ENDBRANCH  27  28
ENDBRANCH  26  27
ENDBRANCH  25  26
ENDBRANCH  24  25
ENDBRANCH  23  24
ENDBRANCH  22  23
ENDBRANCH  21  22
ENDBRANCH  20  21
ENDBRANCH  19  20
ENDBRANCH  18  19
ENDBRANCH  17  18
ENDBRANCH   1  17
TORSDOF 26
ENDMDL
MODEL 9
REMARK VINA RESULT:    -4.723      2.857     10.609
REMARK INTER + INTRA:         -15.231
REMARK INTER:                 -11.592
REMARK INTRA:                  -3.639
REMARK UNBOUND:                -3.328
REMARK SMILES CCCCCCCCCCCCCCCCCCCCCCCCCCCC(=O)[O-]
REMARK SMILES IDX 15 1 16 2 17 3 18 4 19 5 20 6 21 7 22 8 23 9 24 10 25 11
REMARK SMILES IDX 26 12 27 13 28 14 29 15 30 16 14 17 13 18 12 19 11 20 10 21
REMARK SMILES IDX 9 22 8 23 7 24 6 25 5 26 4 27 3 28 2 29 1 30
REMARK H PARENT
REMARK Flexibility Score: inf
ROOT
ATOM      1  C   UNL     1      17.616  -1.352  47.685  1.00  0.00     0.000 C 
ENDROOT
BRANCH   1   2
ATOM      2  C   UNL     1      16.797  -2.632  47.455  1.00  0.00     0.000 C 
BRANCH   2   3
ATOM      3  C   UNL     1      15.325  -2.484  47.872  1.00  0.00     0.000 C 
BRANCH   3   4
ATOM      4  C   UNL     1      14.383  -2.810  46.702  1.00  0.00     0.000 C 
BRANCH   4   5
ATOM      5  C   UNL     1      15.056  -2.630  45.331  1.00  0.00     0.000 C 
BRANCH   5   6
ATOM      6  C   UNL     1      14.052  -2.298  44.214  1.00  0.00     0.000 C 
BRANCH   6   7
ATOM      7  C   UNL     1      12.594  -2.511  44.655  1.00  0.00     0.000 C 
BRANCH   7   8
ATOM      8  C   UNL     1      11.645  -1.430  44.109  1.00  0.00     0.000 C 
BRANCH   8   9
ATOM      9  C   UNL     1      12.346  -0.476  43.128  1.00  0.00     0.000 C 
BRANCH   9  10
ATOM     10  C   UNL     1      12.380   0.975  43.639  1.00  0.00     0.000 C 
BRANCH  10  11
ATOM     11  C   UNL     1      11.986   1.095  45.123  1.00  0.00     0.000 C 
BRANCH  11  12
ATOM     12  C   UNL     1      13.041   1.775  46.022  1.00  0.00     0.006 C 
BRANCH  12  13
ATOM     13  C   UNL     1      14.126   0.830  46.563  1.00  0.00     0.053 C 
BRANCH  13  14
ATOM     14  C   UNL     1      14.412   1.073  48.014  1.00  0.00     0.041 C 
ATOM     15  O   UNL     1      13.492   0.965  48.867  1.00  0.00    -0.550 OA
ATOM     16  O   UNL     1      15.704   1.373  48.429  1.00  0.00    -0.550 OA
ENDBRANCH  13  14
ENDBRANCH  12  13
ENDBRANCH  11  12
ENDBRANCH  10  11
ENDBRANCH   9  10
ENDBRANCH   8   9
ENDBRANCH   7   8
ENDBRANCH   6   7
ENDBRANCH   5   6
ENDBRANCH   4   5
ENDBRANCH   3   4
ENDBRANCH   2   3
ENDBRANCH   1   2
BRANCH   1  17
ATOM     17  C   UNL     1      17.917  -0.598  46.377  1.00  0.00     0.000 C 
BRANCH  17  18
ATOM     18  C   UNL     1      18.655  -1.472  45.349  1.00  0.00     0.000 C 
BRANCH  18  19
ATOM     19  C   UNL     1      19.856  -0.739  44.727  1.00  0.00     0.000 C 
BRANCH  19  20
ATOM     20  C   UNL     1      21.186  -1.097  45.410  1.00  0.00     0.000 C 
BRANCH  20  21
ATOM     21  C   UNL     1      21.854   0.122  46.078  1.00  0.00     0.000 C 
BRANCH  21  22
ATOM     22  C   UNL     1      21.376   0.345  47.528  1.00  0.00    -0.000 C 
BRANCH  22  23
ATOM     23  C   UNL     1      22.425   1.030  48.432  1.00  0.00    -0.000 C 
BRANCH  23  24
ATOM     24  C   UNL     1      23.822   0.375  48.433  1.00  0.00    -0.000 C 
BRANCH  24  25
ATOM     25  C   UNL     1      24.922   1.255  47.810  1.00  0.00    -0.000 C 
BRANCH  25  26
ATOM     26  C   UNL     1      24.642   2.759  48.003  1.00  0.00    -0.000 C 
BRANCH  26  27
ATOM     27  C   UNL     1      24.697   3.549  46.683  1.00  0.00    -0.000 C 
BRANCH  27  28
ATOM     28  C   UNL     1      23.412   3.377  45.854  1.00  0.00    -0.000 C 
BRANCH  28  29
ATOM     29  C   UNL     1      23.695   2.926  44.412  1.00  0.00    -0.003 C 
ATOM     30  C   UNL     1      23.609   4.071  43.402  1.00  0.00     0.004 C 
ENDBRANCH  28  29
ENDBRANCH  27  28
ENDBRANCH  26  27
ENDBRANCH  25  26
ENDBRANCH  24  25
ENDBRANCH  23  24
ENDBRANCH  22  23
ENDBRANCH  21  22
ENDBRANCH  20  21
ENDBRANCH  19  20
ENDBRANCH  18  19
ENDBRANCH  17  18
ENDBRANCH   1  17
TORSDOF 26
ENDMDL
