MODEL 1
REMARK VINA RESULT:    -8.179      0.000      0.000
REMARK INTER + INTRA:          -9.788
REMARK INTER:                  -9.852
REMARK INTRA:                   0.064
REMARK UNBOUND:                 0.064
REMARK SMILES O=c1c(O)c(-c2ccc(O)c(O)c2)oc2cc(O)cc(O)c12
REMARK SMILES IDX 5 1 3 2 2 3 1 4 22 5 20 6 19 7 17 8 16 9 15 10 14 11 6 12
REMARK SMILES IDX 7 13 8 14 9 15 13 16 11 17 10 18 12 20 4 22 21 24 18 26
REMARK H PARENT 10 19 12 21 4 23 21 25 18 27
REMARK Flexibility Score: inf
ROOT
ATOM      1  C   UNL     1       1.363 -46.773 -37.254  1.00  0.00     0.180 A 
ATOM      2  C   UNL     1       0.142 -46.189 -36.875  1.00  0.00     0.208 A 
ATOM      3  C   UNL     1      -0.307 -46.349 -35.554  1.00  0.00     0.238 A 
ATOM      4  O   UNL     1      -1.374 -45.779 -35.204  1.00  0.00    -0.285 OA
ATOM      5  C   UNL     1       0.462 -47.104 -34.635  1.00  0.00     0.111 A 
ATOM      6  C   UNL     1       0.083 -47.364 -33.283  1.00  0.00     0.134 A 
ATOM      7  C   UNL     1       0.982 -48.011 -32.427  1.00  0.00     0.093 A 
ATOM      8  C   UNL     1       2.219 -48.466 -32.891  1.00  0.00     0.123 A 
ATOM      9  C   UNL     1       2.572 -48.269 -34.223  1.00  0.00     0.094 A 
ATOM     10  C   UNL     1       1.711 -47.594 -35.092  1.00  0.00     0.146 A 
ATOM     11  O   UNL     1       2.092 -47.418 -36.353  1.00  0.00    -0.452 OA
ENDROOT
BRANCH   1  12
ATOM     12  C   UNL     1       1.889 -46.669 -38.634  1.00  0.00     0.025 A 
ATOM     13  C   UNL     1       3.260 -46.444 -38.835  1.00  0.00     0.016 A 
ATOM     14  C   UNL     1       3.782 -46.363 -40.129  1.00  0.00     0.051 A 
ATOM     15  C   UNL     1       2.948 -46.522 -41.239  1.00  0.00     0.157 A 
ATOM     16  C   UNL     1       1.055 -46.848 -39.753  1.00  0.00     0.062 A 
ATOM     17  C   UNL     1       1.578 -46.770 -41.052  1.00  0.00     0.158 A 
BRANCH  15  18
ATOM     18  O   UNL     1       3.497 -46.433 -42.519  1.00  0.00    -0.504 OA
ATOM     19  H   UNL     1       3.534 -45.559 -43.029  1.00  0.00     0.293 HD
ENDBRANCH  15  18
BRANCH  17  20
ATOM     20  O   UNL     1       0.742 -46.943 -42.154  1.00  0.00    -0.504 OA
ATOM     21  H   UNL     1       1.030 -46.673 -43.087  1.00  0.00     0.293 HD
ENDBRANCH  17  20
ENDBRANCH   1  12
BRANCH   2  22
ATOM     22  O   UNL     1      -0.590 -45.430 -37.792  1.00  0.00    -0.502 OA
ATOM     23  H   UNL     1      -1.353 -44.826 -37.512  1.00  0.00     0.293 HD
ENDBRANCH   2  22
BRANCH   6  24
ATOM     24  O   UNL     1      -1.165 -47.035 -32.745  1.00  0.00    -0.507 OA
ATOM     25  H   UNL     1      -1.318 -46.716 -31.800  1.00  0.00     0.293 HD
ENDBRANCH   6  24
BRANCH   8  26
ATOM     26  O   UNL     1       3.100 -49.123 -32.035  1.00  0.00    -0.508 OA
ATOM     27  H   UNL     1       2.854 -49.999 -31.591  1.00  0.00     0.293 HD
ENDBRANCH   8  26
TORSDOF 6
ENDMDL
MODEL 2
REMARK VINA RESULT:    -8.116      0.665      1.351
REMARK INTER + INTRA:          -9.714
REMARK INTER:                  -9.420
REMARK INTRA:                  -0.294
REMARK UNBOUND:                 0.064
REMARK SMILES O=c1c(O)c(-c2ccc(O)c(O)c2)oc2cc(O)cc(O)c12
REMARK SMILES IDX 5 1 3 2 2 3 1 4 22 5 20 6 19 7 17 8 16 9 15 10 14 11 6 12
REMARK SMILES IDX 7 13 8 14 9 15 13 16 11 17 10 18 12 20 4 22 21 24 18 26
REMARK H PARENT 10 19 12 21 4 23 21 25 18 27
REMARK Flexibility Score: inf
ROOT
ATOM      1  C   UNL     1       1.208 -46.798 -37.297  1.00  0.00     0.180 A 
ATOM      2  C   UNL     1       0.004 -46.193 -36.898  1.00  0.00     0.208 A 
ATOM      3  C   UNL     1      -0.421 -46.335 -35.567  1.00  0.00     0.238 A 
ATOM      4  O   UNL     1      -1.472 -45.747 -35.201  1.00  0.00    -0.285 OA
ATOM      5  C   UNL     1       0.355 -47.094 -34.657  1.00  0.00     0.111 A 
ATOM      6  C   UNL     1      -0.000 -47.338 -33.296  1.00  0.00     0.134 A 
ATOM      7  C   UNL     1       0.907 -47.991 -32.453  1.00  0.00     0.093 A 
ATOM      8  C   UNL     1       2.127 -48.468 -32.938  1.00  0.00     0.123 A 
ATOM      9  C   UNL     1       2.457 -48.287 -34.279  1.00  0.00     0.094 A 
ATOM     10  C   UNL     1       1.588 -47.607 -35.136  1.00  0.00     0.146 A 
ATOM     11  O   UNL     1       1.946 -47.447 -36.405  1.00  0.00    -0.452 OA
ENDROOT
BRANCH   1  12
ATOM     12  C   UNL     1       1.708 -46.713 -38.689  1.00  0.00     0.025 A 
ATOM     13  C   UNL     1       1.154 -47.546 -39.674  1.00  0.00     0.016 A 
ATOM     14  C   UNL     1       1.597 -47.468 -40.997  1.00  0.00     0.051 A 
ATOM     15  C   UNL     1       2.585 -46.548 -41.359  1.00  0.00     0.157 A 
ATOM     16  C   UNL     1       2.688 -45.774 -39.059  1.00  0.00     0.062 A 
ATOM     17  C   UNL     1       3.131 -45.693 -40.387  1.00  0.00     0.158 A 
BRANCH  15  18
ATOM     18  O   UNL     1       3.009 -46.494 -42.687  1.00  0.00    -0.504 OA
ATOM     19  H   UNL     1       2.638 -47.116 -43.395  1.00  0.00     0.293 HD
ENDBRANCH  15  18
BRANCH  17  20
ATOM     20  O   UNL     1       4.108 -44.764 -40.743  1.00  0.00    -0.504 OA
ATOM     21  H   UNL     1       4.395 -44.638 -41.707  1.00  0.00     0.293 HD
ENDBRANCH  17  20
ENDBRANCH   1  12
BRANCH   2  22
ATOM     22  O   UNL     1      -0.736 -45.431 -37.806  1.00  0.00    -0.502 OA
ATOM     23  H   UNL     1      -0.306 -44.762 -38.433  1.00  0.00     0.293 HD
ENDBRANCH   2  22
BRANCH   6  24
ATOM     24  O   UNL     1      -1.232 -46.986 -32.736  1.00  0.00    -0.507 OA
ATOM     25  H   UNL     1      -1.565 -46.040 -32.627  1.00  0.00     0.293 HD
ENDBRANCH   6  24
BRANCH   8  26
ATOM     26  O   UNL     1       3.016 -49.132 -32.095  1.00  0.00    -0.508 OA
ATOM     27  H   UNL     1       3.065 -48.922 -31.105  1.00  0.00     0.293 HD
ENDBRANCH   8  26
TORSDOF 6
ENDMDL
MODEL 3
REMARK VINA RESULT:    -8.015      2.049      7.237
REMARK INTER + INTRA:          -9.592
REMARK INTER:                  -9.429
REMARK INTRA:                  -0.163
REMARK UNBOUND:                 0.064
REMARK SMILES O=c1c(O)c(-c2ccc(O)c(O)c2)oc2cc(O)cc(O)c12
REMARK SMILES IDX 5 1 3 2 2 3 1 4 22 5 20 6 19 7 17 8 16 9 15 10 14 11 6 12
REMARK SMILES IDX 7 13 8 14 9 15 13 16 11 17 10 18 12 20 4 22 21 24 18 26
REMARK H PARENT 10 19 12 21 4 23 21 25 18 27
REMARK Flexibility Score: inf
ROOT
ATOM      1  C   UNL     1       1.321 -46.480 -37.782  1.00  0.00     0.180 A 
ATOM      2  C   UNL     1       1.329 -47.467 -38.782  1.00  0.00     0.208 A 
ATOM      3  C   UNL     1       1.608 -47.091 -40.106  1.00  0.00     0.238 A 
ATOM      4  O   UNL     1       1.667 -47.986 -40.990  1.00  0.00    -0.285 OA
ATOM      5  C   UNL     1       1.858 -45.732 -40.415  1.00  0.00     0.111 A 
ATOM      6  C   UNL     1       2.111 -45.233 -41.728  1.00  0.00     0.134 A 
ATOM      7  C   UNL     1       2.475 -43.891 -41.898  1.00  0.00     0.093 A 
ATOM      8  C   UNL     1       2.530 -43.016 -40.810  1.00  0.00     0.123 A 
ATOM      9  C   UNL     1       2.227 -43.480 -39.533  1.00  0.00     0.094 A 
ATOM     10  C   UNL     1       1.896 -44.822 -39.327  1.00  0.00     0.146 A 
ATOM     11  O   UNL     1       1.624 -45.226 -38.091  1.00  0.00    -0.452 OA
ENDROOT
BRANCH   1  12
ATOM     12  C   UNL     1       1.012 -46.796 -36.368  1.00  0.00     0.025 A 
ATOM     13  C   UNL     1      -0.172 -46.305 -35.794  1.00  0.00     0.016 A 
ATOM     14  C   UNL     1      -0.494 -46.608 -34.468  1.00  0.00     0.051 A 
ATOM     15  C   UNL     1       0.352 -47.416 -33.702  1.00  0.00     0.157 A 
ATOM     16  C   UNL     1       1.851 -47.625 -35.602  1.00  0.00     0.062 A 
ATOM     17  C   UNL     1       1.528 -47.931 -34.271  1.00  0.00     0.158 A 
BRANCH  15  18
ATOM     18  O   UNL     1       0.006 -47.699 -32.380  1.00  0.00    -0.504 OA
ATOM     19  H   UNL     1       0.452 -48.441 -31.855  1.00  0.00     0.293 HD
ENDBRANCH  15  18
BRANCH  17  20
ATOM     20  O   UNL     1       2.369 -48.749 -33.518  1.00  0.00    -0.504 OA
ATOM     21  H   UNL     1       3.307 -48.459 -33.268  1.00  0.00     0.293 HD
ENDBRANCH  17  20
ENDBRANCH   1  12
BRANCH   2  22
ATOM     22  O   UNL     1       1.101 -48.806 -38.453  1.00  0.00    -0.502 OA
ATOM     23  H   UNL     1       1.843 -49.429 -38.159  1.00  0.00     0.293 HD
ENDBRANCH   2  22
BRANCH   6  24
ATOM     24  O   UNL     1       1.992 -45.999 -42.891  1.00  0.00    -0.507 OA
ATOM     25  H   UNL     1       2.766 -46.412 -43.389  1.00  0.00     0.293 HD
ENDBRANCH   6  24
BRANCH   8  26
ATOM     26  O   UNL     1       2.878 -41.679 -40.991  1.00  0.00    -0.508 OA
ATOM     27  H   UNL     1       2.874 -41.021 -40.221  1.00  0.00     0.293 HD
ENDBRANCH   8  26
TORSDOF 6
ENDMDL
MODEL 4
REMARK VINA RESULT:    -8.010      1.492      2.995
REMARK INTER + INTRA:          -9.585
REMARK INTER:                  -9.460
REMARK INTRA:                  -0.125
REMARK UNBOUND:                 0.064
REMARK SMILES O=c1c(O)c(-c2ccc(O)c(O)c2)oc2cc(O)cc(O)c12
REMARK SMILES IDX 5 1 3 2 2 3 1 4 22 5 20 6 19 7 17 8 16 9 15 10 14 11 6 12
REMARK SMILES IDX 7 13 8 14 9 15 13 16 11 17 10 18 12 20 4 22 21 24 18 26
REMARK H PARENT 10 19 12 21 4 23 21 25 18 27
REMARK Flexibility Score: inf
ROOT
ATOM      1  C   UNL     1       1.521 -46.850 -38.014  1.00  0.00     0.180 A 
ATOM      2  C   UNL     1       1.935 -47.944 -37.236  1.00  0.00     0.208 A 
ATOM      3  C   UNL     1       1.435 -48.078 -35.930  1.00  0.00     0.238 A 
ATOM      4  O   UNL     1       1.767 -49.088 -35.256  1.00  0.00    -0.285 OA
ATOM      5  C   UNL     1       0.542 -47.108 -35.415  1.00  0.00     0.111 A 
ATOM      6  C   UNL     1       0.005 -47.122 -34.092  1.00  0.00     0.134 A 
ATOM      7  C   UNL     1      -0.971 -46.185 -33.733  1.00  0.00     0.093 A 
ATOM      8  C   UNL     1      -1.381 -45.193 -34.628  1.00  0.00     0.123 A 
ATOM      9  C   UNL     1      -0.820 -45.135 -35.901  1.00  0.00     0.094 A 
ATOM     10  C   UNL     1       0.130 -46.079 -36.300  1.00  0.00     0.146 A 
ATOM     11  O   UNL     1       0.632 -45.993 -37.527  1.00  0.00    -0.452 OA
ENDROOT
BRANCH   1  12
ATOM     12  C   UNL     1       2.023 -46.628 -39.390  1.00  0.00     0.025 A 
ATOM     13  C   UNL     1       3.398 -46.438 -39.601  1.00  0.00     0.016 A 
ATOM     14  C   UNL     1       3.896 -46.248 -40.893  1.00  0.00     0.051 A 
ATOM     15  C   UNL     1       3.033 -46.260 -41.992  1.00  0.00     0.157 A 
ATOM     16  C   UNL     1       1.159 -46.659 -40.499  1.00  0.00     0.062 A 
ATOM     17  C   UNL     1       1.658 -46.470 -41.797  1.00  0.00     0.158 A 
BRANCH  15  18
ATOM     18  O   UNL     1       3.558 -46.064 -43.270  1.00  0.00    -0.504 OA
ATOM     19  H   UNL     1       4.525 -45.801 -43.419  1.00  0.00     0.293 HD
ENDBRANCH  15  18
BRANCH  17  20
ATOM     20  O   UNL     1       0.793 -46.497 -42.889  1.00  0.00    -0.504 OA
ATOM     21  H   UNL     1       1.066 -46.911 -43.773  1.00  0.00     0.293 HD
ENDBRANCH  17  20
ENDBRANCH   1  12
BRANCH   2  22
ATOM     22  O   UNL     1       2.801 -48.902 -37.771  1.00  0.00    -0.502 OA
ATOM     23  H   UNL     1       3.808 -48.808 -37.731  1.00  0.00     0.293 HD
ENDBRANCH   2  22
BRANCH   6  24
ATOM     24  O   UNL     1       0.415 -48.011 -33.093  1.00  0.00    -0.507 OA
ATOM     25  H   UNL     1      -0.193 -48.659 -32.616  1.00  0.00     0.293 HD
ENDBRANCH   6  24
BRANCH   8  26
ATOM     26  O   UNL     1      -2.342 -44.255 -34.257  1.00  0.00    -0.508 OA
ATOM     27  H   UNL     1      -2.099 -43.431 -33.718  1.00  0.00     0.293 HD
ENDBRANCH   8  26
TORSDOF 6
ENDMDL
MODEL 5
REMARK VINA RESULT:    -7.732      1.582      3.372
REMARK INTER + INTRA:          -9.251
REMARK INTER:                  -8.916
REMARK INTRA:                  -0.334
REMARK UNBOUND:                 0.064
REMARK SMILES O=c1c(O)c(-c2ccc(O)c(O)c2)oc2cc(O)cc(O)c12
REMARK SMILES IDX 5 1 3 2 2 3 1 4 22 5 20 6 19 7 17 8 16 9 15 10 14 11 6 12
REMARK SMILES IDX 7 13 8 14 9 15 13 16 11 17 10 18 12 20 4 22 21 24 18 26
REMARK H PARENT 10 19 12 21 4 23 21 25 18 27
REMARK Flexibility Score: inf
ROOT
ATOM      1  C   UNL     1       0.947 -46.674 -37.660  1.00  0.00     0.180 A 
ATOM      2  C   UNL     1       1.433 -47.646 -36.769  1.00  0.00     0.208 A 
ATOM      3  C   UNL     1       0.967 -47.649 -35.444  1.00  0.00     0.238 A 
ATOM      4  O   UNL     1       1.365 -48.554 -34.665  1.00  0.00    -0.285 OA
ATOM      5  C   UNL     1       0.034 -46.670 -35.024  1.00  0.00     0.111 A 
ATOM      6  C   UNL     1      -0.475 -46.554 -33.695  1.00  0.00     0.134 A 
ATOM      7  C   UNL     1      -1.491 -45.631 -33.424  1.00  0.00     0.093 A 
ATOM      8  C   UNL     1      -1.971 -44.773 -34.418  1.00  0.00     0.123 A 
ATOM      9  C   UNL     1      -1.439 -44.839 -35.703  1.00  0.00     0.094 A 
ATOM     10  C   UNL     1      -0.449 -45.775 -36.013  1.00  0.00     0.146 A 
ATOM     11  O   UNL     1       0.024 -45.811 -37.254  1.00  0.00    -0.452 OA
ENDROOT
BRANCH   1  12
ATOM     12  C   UNL     1       1.409 -46.592 -39.065  1.00  0.00     0.025 A 
ATOM     13  C   UNL     1       0.672 -47.232 -40.073  1.00  0.00     0.016 A 
ATOM     14  C   UNL     1       1.078 -47.150 -41.408  1.00  0.00     0.051 A 
ATOM     15  C   UNL     1       2.216 -46.417 -41.757  1.00  0.00     0.157 A 
ATOM     16  C   UNL     1       2.542 -45.838 -39.420  1.00  0.00     0.062 A 
ATOM     17  C   UNL     1       2.950 -45.753 -40.760  1.00  0.00     0.158 A 
BRANCH  15  18
ATOM     18  O   UNL     1       2.599 -46.355 -43.097  1.00  0.00    -0.504 OA
ATOM     19  H   UNL     1       3.395 -46.869 -43.452  1.00  0.00     0.293 HD
ENDBRANCH  15  18
BRANCH  17  20
ATOM     20  O   UNL     1       4.078 -45.008 -41.102  1.00  0.00    -0.504 OA
ATOM     21  H   UNL     1       4.464 -45.029 -42.038  1.00  0.00     0.293 HD
ENDBRANCH  17  20
ENDBRANCH   1  12
BRANCH   2  22
ATOM     22  O   UNL     1       2.337 -48.616 -37.211  1.00  0.00    -0.502 OA
ATOM     23  H   UNL     1       2.308 -49.001 -38.147  1.00  0.00     0.293 HD
ENDBRANCH   2  22
BRANCH   6  24
ATOM     24  O   UNL     1       0.001 -47.296 -32.609  1.00  0.00    -0.507 OA
ATOM     25  H   UNL     1       0.953 -47.611 -32.501  1.00  0.00     0.293 HD
ENDBRANCH   6  24
BRANCH   8  26
ATOM     26  O   UNL     1      -2.972 -43.847 -34.134  1.00  0.00    -0.508 OA
ATOM     27  H   UNL     1      -3.095 -43.012 -34.694  1.00  0.00     0.293 HD
ENDBRANCH   8  26
TORSDOF 6
ENDMDL
MODEL 6
REMARK VINA RESULT:    -7.143      3.176      6.803
REMARK INTER + INTRA:          -8.541
REMARK INTER:                  -8.307
REMARK INTRA:                  -0.234
REMARK UNBOUND:                 0.064
REMARK SMILES O=c1c(O)c(-c2ccc(O)c(O)c2)oc2cc(O)cc(O)c12
REMARK SMILES IDX 5 1 3 2 2 3 1 4 22 5 20 6 19 7 17 8 16 9 15 10 14 11 6 12
REMARK SMILES IDX 7 13 8 14 9 15 13 16 11 17 10 18 12 20 4 22 21 24 18 26
REMARK H PARENT 10 19 12 21 4 23 21 25 18 27
REMARK Flexibility Score: inf
ROOT
ATOM      1  C   UNL     1      -1.121 -45.043 -35.375  1.00  0.00     0.180 A 
ATOM      2  C   UNL     1      -0.498 -45.818 -34.382  1.00  0.00     0.208 A 
ATOM      3  C   UNL     1       0.384 -46.839 -34.771  1.00  0.00     0.238 A 
ATOM      4  O   UNL     1       0.981 -47.495 -33.878  1.00  0.00    -0.285 OA
ATOM      5  C   UNL     1       0.618 -47.083 -36.146  1.00  0.00     0.111 A 
ATOM      6  C   UNL     1       1.460 -48.118 -36.654  1.00  0.00     0.134 A 
ATOM      7  C   UNL     1       1.721 -48.184 -38.028  1.00  0.00     0.093 A 
ATOM      8  C   UNL     1       1.117 -47.293 -38.920  1.00  0.00     0.123 A 
ATOM      9  C   UNL     1       0.248 -46.318 -38.440  1.00  0.00     0.094 A 
ATOM     10  C   UNL     1      -0.004 -46.204 -37.070  1.00  0.00     0.146 A 
ATOM     11  O   UNL     1      -0.831 -45.252 -36.654  1.00  0.00    -0.452 OA
ENDROOT
BRANCH   1  12
ATOM     12  C   UNL     1      -2.082 -43.965 -35.045  1.00  0.00     0.025 A 
ATOM     13  C   UNL     1      -1.745 -42.631 -35.323  1.00  0.00     0.016 A 
ATOM     14  C   UNL     1      -2.645 -41.600 -35.039  1.00  0.00     0.051 A 
ATOM     15  C   UNL     1      -3.897 -41.886 -34.488  1.00  0.00     0.157 A 
ATOM     16  C   UNL     1      -3.350 -44.253 -34.509  1.00  0.00     0.062 A 
ATOM     17  C   UNL     1      -4.255 -43.219 -34.225  1.00  0.00     0.158 A 
BRANCH  15  18
ATOM     18  O   UNL     1      -4.773 -40.836 -34.212  1.00  0.00    -0.504 OA
ATOM     19  H   UNL     1      -5.779 -40.959 -34.217  1.00  0.00     0.293 HD
ENDBRANCH  15  18
BRANCH  17  20
ATOM     20  O   UNL     1      -5.508 -43.513 -33.688  1.00  0.00    -0.504 OA
ATOM     21  H   UNL     1      -6.259 -43.875 -34.263  1.00  0.00     0.293 HD
ENDBRANCH  17  20
ENDBRANCH   1  12
BRANCH   2  22
ATOM     22  O   UNL     1      -0.726 -45.546 -33.031  1.00  0.00    -0.502 OA
ATOM     23  H   UNL     1      -1.603 -45.762 -32.573  1.00  0.00     0.293 HD
ENDBRANCH   2  22
BRANCH   6  24
ATOM     24  O   UNL     1       2.037 -49.115 -35.860  1.00  0.00    -0.507 OA
ATOM     25  H   UNL     1       3.014 -49.368 -35.876  1.00  0.00     0.293 HD
ENDBRANCH   6  24
BRANCH   8  26
ATOM     26  O   UNL     1       1.371 -47.376 -40.287  1.00  0.00    -0.508 OA
ATOM     27  H   UNL     1       1.155 -46.610 -40.914  1.00  0.00     0.293 HD
ENDBRANCH   8  26
TORSDOF 6
ENDMDL
MODEL 7
REMARK VINA RESULT:    -7.140      2.352      7.111
REMARK INTER + INTRA:          -8.538
REMARK INTER:                  -8.533
REMARK INTRA:                  -0.004
REMARK UNBOUND:                 0.064
REMARK SMILES O=c1c(O)c(-c2ccc(O)c(O)c2)oc2cc(O)cc(O)c12
REMARK SMILES IDX 5 1 3 2 2 3 1 4 22 5 20 6 19 7 17 8 16 9 15 10 14 11 6 12
REMARK SMILES IDX 7 13 8 14 9 15 13 16 11 17 10 18 12 20 4 22 21 24 18 26
REMARK H PARENT 10 19 12 21 4 23 21 25 18 27
REMARK Flexibility Score: inf
ROOT
ATOM      1  C   UNL     1       1.451 -45.591 -38.011  1.00  0.00     0.180 A 
ATOM      2  C   UNL     1       1.603 -44.203 -37.850  1.00  0.00     0.208 A 
ATOM      3  C   UNL     1       2.132 -43.449 -38.910  1.00  0.00     0.238 A 
ATOM      4  O   UNL     1       2.216 -42.200 -38.780  1.00  0.00    -0.285 OA
ATOM      5  C   UNL     1       2.519 -44.094 -40.110  1.00  0.00     0.111 A 
ATOM      6  C   UNL     1       3.104 -43.435 -41.232  1.00  0.00     0.134 A 
ATOM      7  C   UNL     1       3.325 -44.150 -42.415  1.00  0.00     0.093 A 
ATOM      8  C   UNL     1       3.044 -45.517 -42.494  1.00  0.00     0.123 A 
ATOM      9  C   UNL     1       2.528 -46.182 -41.385  1.00  0.00     0.094 A 
ATOM     10  C   UNL     1       2.262 -45.486 -40.202  1.00  0.00     0.146 A 
ATOM     11  O   UNL     1       1.760 -46.157 -39.171  1.00  0.00    -0.452 OA
ENDROOT
BRANCH   1  12
ATOM     12  C   UNL     1       0.923 -46.456 -36.931  1.00  0.00     0.025 A 
ATOM     13  C   UNL     1      -0.317 -46.152 -36.347  1.00  0.00     0.016 A 
ATOM     14  C   UNL     1      -0.844 -46.966 -35.341  1.00  0.00     0.051 A 
ATOM     15  C   UNL     1      -0.150 -48.102 -34.914  1.00  0.00     0.157 A 
ATOM     16  C   UNL     1       1.611 -47.610 -36.514  1.00  0.00     0.062 A 
ATOM     17  C   UNL     1       1.082 -48.429 -35.506  1.00  0.00     0.158 A 
BRANCH  15  18
ATOM     18  O   UNL     1      -0.699 -48.894 -33.906  1.00  0.00    -0.504 OA
ATOM     19  H   UNL     1      -0.444 -48.779 -32.932  1.00  0.00     0.293 HD
ENDBRANCH  15  18
BRANCH  17  20
ATOM     20  O   UNL     1       1.774 -49.568 -35.095  1.00  0.00    -0.504 OA
ATOM     21  H   UNL     1       2.754 -49.531 -34.842  1.00  0.00     0.293 HD
ENDBRANCH  17  20
ENDBRANCH   1  12
BRANCH   2  22
ATOM     22  O   UNL     1       1.195 -43.583 -36.666  1.00  0.00    -0.502 OA
ATOM     23  H   UNL     1       0.228 -43.353 -36.477  1.00  0.00     0.293 HD
ENDBRANCH   2  22
BRANCH   6  24
ATOM     24  O   UNL     1       3.508 -42.096 -41.227  1.00  0.00    -0.507 OA
ATOM     25  H   UNL     1       4.453 -41.781 -41.384  1.00  0.00     0.293 HD
ENDBRANCH   6  24
BRANCH   8  26
ATOM     26  O   UNL     1       3.282 -46.224 -43.670  1.00  0.00    -0.508 OA
ATOM     27  H   UNL     1       4.211 -46.297 -44.066  1.00  0.00     0.293 HD
ENDBRANCH   8  26
TORSDOF 6
ENDMDL
MODEL 8
REMARK VINA RESULT:    -7.029      3.089      4.575
REMARK INTER + INTRA:          -8.404
REMARK INTER:                  -8.093
REMARK INTRA:                  -0.311
REMARK UNBOUND:                 0.064
REMARK SMILES O=c1c(O)c(-c2ccc(O)c(O)c2)oc2cc(O)cc(O)c12
REMARK SMILES IDX 5 1 3 2 2 3 1 4 22 5 20 6 19 7 17 8 16 9 15 10 14 11 6 12
REMARK SMILES IDX 7 13 8 14 9 15 13 16 11 17 10 18 12 20 4 22 21 24 18 26
REMARK H PARENT 10 19 12 21 4 23 21 25 18 27
REMARK Flexibility Score: inf
ROOT
ATOM      1  C   UNL     1       0.019 -44.964 -36.970  1.00  0.00     0.180 A 
ATOM      2  C   UNL     1       0.458 -43.638 -37.124  1.00  0.00     0.208 A 
ATOM      3  C   UNL     1      -0.159 -42.626 -36.370  1.00  0.00     0.238 A 
ATOM      4  O   UNL     1       0.274 -41.448 -36.471  1.00  0.00    -0.285 OA
ATOM      5  C   UNL     1      -1.217 -42.951 -35.487  1.00  0.00     0.111 A 
ATOM      6  C   UNL     1      -1.940 -42.000 -34.705  1.00  0.00     0.134 A 
ATOM      7  C   UNL     1      -2.879 -42.448 -33.768  1.00  0.00     0.093 A 
ATOM      8  C   UNL     1      -3.168 -43.808 -33.631  1.00  0.00     0.123 A 
ATOM      9  C   UNL     1      -2.510 -44.739 -34.431  1.00  0.00     0.094 A 
ATOM     10  C   UNL     1      -1.542 -44.325 -35.350  1.00  0.00     0.146 A 
ATOM     11  O   UNL     1      -0.930 -45.246 -36.086  1.00  0.00    -0.452 OA
ENDROOT
BRANCH   1  12
ATOM     12  C   UNL     1       0.603 -46.081 -37.747  1.00  0.00     0.025 A 
ATOM     13  C   UNL     1       1.521 -46.946 -37.131  1.00  0.00     0.016 A 
ATOM     14  C   UNL     1       2.069 -48.019 -37.839  1.00  0.00     0.051 A 
ATOM     15  C   UNL     1       1.697 -48.254 -39.166  1.00  0.00     0.157 A 
ATOM     16  C   UNL     1       0.215 -46.331 -39.076  1.00  0.00     0.062 A 
ATOM     17  C   UNL     1       0.762 -47.409 -39.788  1.00  0.00     0.158 A 
BRANCH  15  18
ATOM     18  O   UNL     1       2.262 -49.331 -39.848  1.00  0.00    -0.504 OA
ATOM     19  H   UNL     1       2.568 -49.257 -40.811  1.00  0.00     0.293 HD
ENDBRANCH  15  18
BRANCH  17  20
ATOM     20  O   UNL     1       0.376 -47.646 -41.106  1.00  0.00    -0.504 OA
ATOM     21  H   UNL     1      -0.509 -47.312 -41.468  1.00  0.00     0.293 HD
ENDBRANCH  17  20
ENDBRANCH   1  12
BRANCH   2  22
ATOM     22  O   UNL     1       1.518 -43.343 -37.985  1.00  0.00    -0.502 OA
ATOM     23  H   UNL     1       1.858 -44.001 -38.675  1.00  0.00     0.293 HD
ENDBRANCH   2  22
BRANCH   6  24
ATOM     24  O   UNL     1      -1.795 -40.615 -34.830  1.00  0.00    -0.507 OA
ATOM     25  H   UNL     1      -2.305 -40.040 -35.484  1.00  0.00     0.293 HD
ENDBRANCH   6  24
BRANCH   8  26
ATOM     26  O   UNL     1      -4.115 -44.244 -32.707  1.00  0.00    -0.508 OA
ATOM     27  H   UNL     1      -4.334 -43.705 -31.878  1.00  0.00     0.293 HD
ENDBRANCH   8  26
TORSDOF 6
ENDMDL
MODEL 9
REMARK VINA RESULT:    -6.914      2.692      4.313
REMARK INTER + INTRA:          -8.265
REMARK INTER:                  -7.943
REMARK INTRA:                  -0.322
REMARK UNBOUND:                 0.064
REMARK SMILES O=c1c(O)c(-c2ccc(O)c(O)c2)oc2cc(O)cc(O)c12
REMARK SMILES IDX 5 1 3 2 2 3 1 4 22 5 20 6 19 7 17 8 16 9 15 10 14 11 6 12
REMARK SMILES IDX 7 13 8 14 9 15 13 16 11 17 10 18 12 20 4 22 21 24 18 26
REMARK H PARENT 10 19 12 21 4 23 21 25 18 27
REMARK Flexibility Score: inf
ROOT
ATOM      1  C   UNL     1       0.142 -45.303 -37.003  1.00  0.00     0.180 A 
ATOM      2  C   UNL     1      -0.138 -46.114 -35.889  1.00  0.00     0.208 A 
ATOM      3  C   UNL     1      -0.839 -45.561 -34.805  1.00  0.00     0.238 A 
ATOM      4  O   UNL     1      -1.134 -46.305 -33.833  1.00  0.00    -0.285 OA
ATOM      5  C   UNL     1      -1.236 -44.202 -34.842  1.00  0.00     0.111 A 
ATOM      6  C   UNL     1      -1.916 -43.528 -33.782  1.00  0.00     0.134 A 
ATOM      7  C   UNL     1      -2.376 -42.221 -33.980  1.00  0.00     0.093 A 
ATOM      8  C   UNL     1      -2.123 -41.540 -35.174  1.00  0.00     0.123 A 
ATOM      9  C   UNL     1      -1.410 -42.169 -36.190  1.00  0.00     0.094 A 
ATOM     10  C   UNL     1      -0.969 -43.486 -36.037  1.00  0.00     0.146 A 
ATOM     11  O   UNL     1      -0.301 -44.053 -37.035  1.00  0.00    -0.452 OA
ENDROOT
BRANCH   1  12
ATOM     12  C   UNL     1       0.898 -45.807 -38.172  1.00  0.00     0.025 A 
ATOM     13  C   UNL     1       2.298 -45.699 -38.189  1.00  0.00     0.016 A 
ATOM     14  C   UNL     1       3.033 -46.187 -39.273  1.00  0.00     0.051 A 
ATOM     15  C   UNL     1       2.384 -46.802 -40.347  1.00  0.00     0.157 A 
ATOM     16  C   UNL     1       0.249 -46.444 -39.245  1.00  0.00     0.062 A 
ATOM     17  C   UNL     1       0.986 -46.936 -40.333  1.00  0.00     0.158 A 
BRANCH  15  18
ATOM     18  O   UNL     1       3.143 -47.277 -41.417  1.00  0.00    -0.504 OA
ATOM     19  H   UNL     1       3.765 -46.675 -41.944  1.00  0.00     0.293 HD
ENDBRANCH  15  18
BRANCH  17  20
ATOM     20  O   UNL     1       0.333 -47.561 -41.395  1.00  0.00    -0.504 OA
ATOM     21  H   UNL     1       0.208 -48.566 -41.424  1.00  0.00     0.293 HD
ENDBRANCH  17  20
ENDBRANCH   1  12
BRANCH   2  22
ATOM     22  O   UNL     1       0.245 -47.458 -35.883  1.00  0.00    -0.502 OA
ATOM     23  H   UNL     1      -0.052 -48.111 -36.597  1.00  0.00     0.293 HD
ENDBRANCH   2  22
BRANCH   6  24
ATOM     24  O   UNL     1      -2.137 -44.084 -32.519  1.00  0.00    -0.507 OA
ATOM     25  H   UNL     1      -2.704 -44.899 -32.341  1.00  0.00     0.293 HD
ENDBRANCH   6  24
BRANCH   8  26
ATOM     26  O   UNL     1      -2.572 -40.234 -35.356  1.00  0.00    -0.508 OA
ATOM     27  H   UNL     1      -3.289 -39.832 -34.764  1.00  0.00     0.293 HD
ENDBRANCH   8  26
TORSDOF 6
ENDMDL
