MODEL 1
REMARK VINA RESULT:    -4.671      0.000      0.000
REMARK INTER + INTRA:          -5.946
REMARK INTER:                  -5.627
REMARK INTRA:                  -0.319
REMARK UNBOUND:                -0.319
REMARK SMILES O=c1c(O)c(-c2ccc(O)c(O)c2)oc2cc(O)cc(O)c12
REMARK SMILES IDX 5 1 3 2 2 3 1 4 22 5 20 6 19 7 17 8 16 9 15 10 14 11 6 12
REMARK SMILES IDX 7 13 8 14 9 15 13 16 11 17 10 18 12 20 4 22 21 24 18 26
REMARK H PARENT 10 19 12 21 4 23 21 25 18 27
REMARK Flexibility Score: inf
ROOT
ATOM      1  C   UNL     1      30.428  65.331   0.352  1.00  0.00     0.180 A 
ATOM      2  C   UNL     1      29.438  65.601  -0.608  1.00  0.00     0.208 A 
ATOM      3  C   UNL     1      29.587  66.719  -1.444  1.00  0.00     0.238 A 
ATOM      4  O   UNL     1      28.672  66.987  -2.265  1.00  0.00    -0.285 OA
ATOM      5  C   UNL     1      30.732  67.542  -1.321  1.00  0.00     0.111 A 
ATOM      6  C   UNL     1      31.007  68.678  -2.142  1.00  0.00     0.134 A 
ATOM      7  C   UNL     1      32.103  69.495  -1.845  1.00  0.00     0.093 A 
ATOM      8  C   UNL     1      32.973  69.185  -0.800  1.00  0.00     0.123 A 
ATOM      9  C   UNL     1      32.747  68.044  -0.028  1.00  0.00     0.094 A 
ATOM     10  C   UNL     1      31.641  67.229  -0.277  1.00  0.00     0.146 A 
ATOM     11  O   UNL     1      31.457  66.159   0.487  1.00  0.00    -0.452 OA
ENDROOT
BRANCH   1  12
ATOM     12  C   UNL     1      30.352  64.157   1.252  1.00  0.00     0.025 A 
ATOM     13  C   UNL     1      31.013  62.954   0.944  1.00  0.00     0.016 A 
ATOM     14  C   UNL     1      30.947  61.867   1.819  1.00  0.00     0.051 A 
ATOM     15  C   UNL     1      30.234  61.971   3.021  1.00  0.00     0.157 A 
ATOM     16  C   UNL     1      29.657  64.261   2.467  1.00  0.00     0.062 A 
ATOM     17  C   UNL     1      29.591  63.171   3.347  1.00  0.00     0.158 A 
BRANCH  15  18
ATOM     18  O   UNL     1      30.166  60.888   3.896  1.00  0.00    -0.504 OA
ATOM     19  H   UNL     1      30.821  60.783   4.662  1.00  0.00     0.293 HD
ENDBRANCH  15  18
BRANCH  17  20
ATOM     20  O   UNL     1      28.889  63.273   4.547  1.00  0.00    -0.504 OA
ATOM     21  H   UNL     1      28.596  64.171   4.916  1.00  0.00     0.293 HD
ENDBRANCH  17  20
ENDBRANCH   1  12
BRANCH   2  22
ATOM     22  O   UNL     1      28.305  64.788  -0.698  1.00  0.00    -0.502 OA
ATOM     23  H   UNL     1      28.284  63.841  -0.337  1.00  0.00     0.293 HD
ENDBRANCH   2  22
BRANCH   6  24
ATOM     24  O   UNL     1      30.255  69.027  -3.267  1.00  0.00    -0.507 OA
ATOM     25  H   UNL     1      29.325  68.688  -3.466  1.00  0.00     0.293 HD
ENDBRANCH   6  24
BRANCH   8  26
ATOM     26  O   UNL     1      34.063  70.013  -0.542  1.00  0.00    -0.508 OA
ATOM     27  H   UNL     1      34.943  69.640  -0.205  1.00  0.00     0.293 HD
ENDBRANCH   8  26
TORSDOF 6
ENDMDL
MODEL 2
REMARK VINA RESULT:    -4.470      5.643      8.804
REMARK INTER + INTRA:          -5.704
REMARK INTER:                  -5.379
REMARK INTRA:                  -0.325
REMARK UNBOUND:                -0.319
REMARK SMILES O=c1c(O)c(-c2ccc(O)c(O)c2)oc2cc(O)cc(O)c12
REMARK SMILES IDX 5 1 3 2 2 3 1 4 22 5 20 6 19 7 17 8 16 9 15 10 14 11 6 12
REMARK SMILES IDX 7 13 8 14 9 15 13 16 11 17 10 18 12 20 4 22 21 24 18 26
REMARK H PARENT 10 19 12 21 4 23 21 25 18 27
REMARK Flexibility Score: inf
ROOT
ATOM      1  C   UNL     1      34.170  72.365  -0.215  1.00  0.00     0.180 A 
ATOM      2  C   UNL     1      34.808  72.904  -1.345  1.00  0.00     0.208 A 
ATOM      3  C   UNL     1      36.109  73.414  -1.213  1.00  0.00     0.238 A 
ATOM      4  O   UNL     1      36.655  73.945  -2.216  1.00  0.00    -0.285 OA
ATOM      5  C   UNL     1      36.761  73.365   0.042  1.00  0.00     0.111 A 
ATOM      6  C   UNL     1      38.095  73.816   0.281  1.00  0.00     0.134 A 
ATOM      7  C   UNL     1      38.591  73.839   1.590  1.00  0.00     0.093 A 
ATOM      8  C   UNL     1      37.830  73.367   2.659  1.00  0.00     0.123 A 
ATOM      9  C   UNL     1      36.547  72.868   2.428  1.00  0.00     0.094 A 
ATOM     10  C   UNL     1      36.011  72.866   1.138  1.00  0.00     0.146 A 
ATOM     11  O   UNL     1      34.783  72.392   0.963  1.00  0.00    -0.452 OA
ENDROOT
BRANCH   1  12
ATOM     12  C   UNL     1      32.808  71.785  -0.280  1.00  0.00     0.025 A 
ATOM     13  C   UNL     1      32.596  70.458  -0.695  1.00  0.00     0.016 A 
ATOM     14  C   UNL     1      31.305  69.925  -0.726  1.00  0.00     0.051 A 
ATOM     15  C   UNL     1      30.210  70.704  -0.330  1.00  0.00     0.157 A 
ATOM     16  C   UNL     1      31.709  72.554   0.135  1.00  0.00     0.062 A 
ATOM     17  C   UNL     1      30.412  72.019   0.104  1.00  0.00     0.158 A 
BRANCH  15  18
ATOM     18  O   UNL     1      28.921  70.176  -0.362  1.00  0.00    -0.504 OA
ATOM     19  H   UNL     1      28.699  69.291   0.080  1.00  0.00     0.293 HD
ENDBRANCH  15  18
BRANCH  17  20
ATOM     20  O   UNL     1      29.322  72.790   0.504  1.00  0.00    -0.504 OA
ATOM     21  H   UNL     1      28.432  72.368   0.742  1.00  0.00     0.293 HD
ENDBRANCH  17  20
ENDBRANCH   1  12
BRANCH   2  22
ATOM     22  O   UNL     1      34.137  72.963  -2.570  1.00  0.00    -0.502 OA
ATOM     23  H   UNL     1      34.259  73.731  -3.220  1.00  0.00     0.293 HD
ENDBRANCH   2  22
BRANCH   6  24
ATOM     24  O   UNL     1      38.973  74.223  -0.727  1.00  0.00    -0.507 OA
ATOM     25  H   UNL     1      39.870  73.800  -0.914  1.00  0.00     0.293 HD
ENDBRANCH   6  24
BRANCH   8  26
ATOM     26  O   UNL     1      38.362  73.391   3.946  1.00  0.00    -0.508 OA
ATOM     27  H   UNL     1      37.992  72.802   4.683  1.00  0.00     0.293 HD
ENDBRANCH   8  26
TORSDOF 6
ENDMDL
MODEL 3
REMARK VINA RESULT:    -4.452      1.602      3.290
REMARK INTER + INTRA:          -5.681
REMARK INTER:                  -5.368
REMARK INTRA:                  -0.313
REMARK UNBOUND:                -0.319
REMARK SMILES O=c1c(O)c(-c2ccc(O)c(O)c2)oc2cc(O)cc(O)c12
REMARK SMILES IDX 5 1 3 2 2 3 1 4 22 5 20 6 19 7 17 8 16 9 15 10 14 11 6 12
REMARK SMILES IDX 7 13 8 14 9 15 13 16 11 17 10 18 12 20 4 22 21 24 18 26
REMARK H PARENT 10 19 12 21 4 23 21 25 18 27
REMARK Flexibility Score: inf
ROOT
ATOM      1  C   UNL     1      30.665  64.095   1.443  1.00  0.00     0.180 A 
ATOM      2  C   UNL     1      31.781  64.928   1.632  1.00  0.00     0.208 A 
ATOM      3  C   UNL     1      31.925  66.066   0.821  1.00  0.00     0.238 A 
ATOM      4  O   UNL     1      32.953  66.779   0.958  1.00  0.00    -0.285 OA
ATOM      5  C   UNL     1      30.945  66.364  -0.155  1.00  0.00     0.111 A 
ATOM      6  C   UNL     1      30.969  67.512  -1.004  1.00  0.00     0.134 A 
ATOM      7  C   UNL     1      30.017  67.637  -2.023  1.00  0.00     0.093 A 
ATOM      8  C   UNL     1      29.003  66.693  -2.183  1.00  0.00     0.123 A 
ATOM      9  C   UNL     1      28.935  65.598  -1.321  1.00  0.00     0.094 A 
ATOM     10  C   UNL     1      29.892  65.426  -0.318  1.00  0.00     0.146 A 
ATOM     11  O   UNL     1      29.797  64.365   0.475  1.00  0.00    -0.452 OA
ENDROOT
BRANCH   1  12
ATOM     12  C   UNL     1      30.431  62.892   2.275  1.00  0.00     0.025 A 
ATOM     13  C   UNL     1      31.043  61.662   1.972  1.00  0.00     0.016 A 
ATOM     14  C   UNL     1      30.826  60.546   2.784  1.00  0.00     0.051 A 
ATOM     15  C   UNL     1      30.009  60.646   3.918  1.00  0.00     0.157 A 
ATOM     16  C   UNL     1      29.631  62.991   3.424  1.00  0.00     0.062 A 
ATOM     17  C   UNL     1      29.413  61.871   4.241  1.00  0.00     0.158 A 
BRANCH  15  18
ATOM     18  O   UNL     1      29.790  59.535   4.729  1.00  0.00    -0.504 OA
ATOM     19  H   UNL     1      29.724  59.618   5.737  1.00  0.00     0.293 HD
ENDBRANCH  15  18
BRANCH  17  20
ATOM     20  O   UNL     1      28.607  61.970   5.373  1.00  0.00    -0.504 OA
ATOM     21  H   UNL     1      27.827  62.615   5.415  1.00  0.00     0.293 HD
ENDBRANCH  17  20
ENDBRANCH   1  12
BRANCH   2  22
ATOM     22  O   UNL     1      32.748  64.604   2.587  1.00  0.00    -0.502 OA
ATOM     23  H   UNL     1      32.703  63.757   3.141  1.00  0.00     0.293 HD
ENDBRANCH   2  22
BRANCH   6  24
ATOM     24  O   UNL     1      31.883  68.561  -0.872  1.00  0.00    -0.507 OA
ATOM     25  H   UNL     1      32.874  68.445  -0.723  1.00  0.00     0.293 HD
ENDBRANCH   6  24
BRANCH   8  26
ATOM     26  O   UNL     1      28.063  66.857  -3.198  1.00  0.00    -0.508 OA
ATOM     27  H   UNL     1      27.672  67.766  -3.415  1.00  0.00     0.293 HD
ENDBRANCH   8  26
TORSDOF 6
ENDMDL
MODEL 4
REMARK VINA RESULT:    -4.448      2.936      4.157
REMARK INTER + INTRA:          -5.677
REMARK INTER:                  -5.344
REMARK INTRA:                  -0.333
REMARK UNBOUND:                -0.319
REMARK SMILES O=c1c(O)c(-c2ccc(O)c(O)c2)oc2cc(O)cc(O)c12
REMARK SMILES IDX 5 1 3 2 2 3 1 4 22 5 20 6 19 7 17 8 16 9 15 10 14 11 6 12
REMARK SMILES IDX 7 13 8 14 9 15 13 16 11 17 10 18 12 20 4 22 21 24 18 26
REMARK H PARENT 10 19 12 21 4 23 21 25 18 27
REMARK Flexibility Score: inf
ROOT
ATOM      1  C   UNL     1      30.643  63.256   1.321  1.00  0.00     0.180 A 
ATOM      2  C   UNL     1      31.253  62.319   0.470  1.00  0.00     0.208 A 
ATOM      3  C   UNL     1      31.178  62.511  -0.919  1.00  0.00     0.238 A 
ATOM      4  O   UNL     1      31.680  61.641  -1.677  1.00  0.00    -0.285 OA
ATOM      5  C   UNL     1      30.508  63.644  -1.438  1.00  0.00     0.111 A 
ATOM      6  C   UNL     1      30.405  63.960  -2.827  1.00  0.00     0.134 A 
ATOM      7  C   UNL     1      29.606  65.035  -3.232  1.00  0.00     0.093 A 
ATOM      8  C   UNL     1      28.961  65.847  -2.300  1.00  0.00     0.123 A 
ATOM      9  C   UNL     1      29.103  65.584  -0.937  1.00  0.00     0.094 A 
ATOM     10  C   UNL     1      29.864  64.495  -0.503  1.00  0.00     0.146 A 
ATOM     11  O   UNL     1      29.965  64.273   0.803  1.00  0.00    -0.452 OA
ENDROOT
BRANCH   1  12
ATOM     12  C   UNL     1      30.701  63.135   2.797  1.00  0.00     0.025 A 
ATOM     13  C   UNL     1      31.756  63.699   3.536  1.00  0.00     0.016 A 
ATOM     14  C   UNL     1      31.778  63.593   4.930  1.00  0.00     0.051 A 
ATOM     15  C   UNL     1      30.740  62.936   5.603  1.00  0.00     0.157 A 
ATOM     16  C   UNL     1      29.654  62.497   3.480  1.00  0.00     0.062 A 
ATOM     17  C   UNL     1      29.674  62.391   4.878  1.00  0.00     0.158 A 
BRANCH  15  18
ATOM     18  O   UNL     1      30.760  62.828   6.993  1.00  0.00    -0.504 OA
ATOM     19  H   UNL     1      31.014  61.962   7.454  1.00  0.00     0.293 HD
ENDBRANCH  15  18
BRANCH  17  20
ATOM     20  O   UNL     1      28.639  61.745   5.552  1.00  0.00    -0.504 OA
ATOM     21  H   UNL     1      28.333  60.815   5.289  1.00  0.00     0.293 HD
ENDBRANCH  17  20
ENDBRANCH   1  12
BRANCH   2  22
ATOM     22  O   UNL     1      31.892  61.196   1.003  1.00  0.00    -0.502 OA
ATOM     23  H   UNL     1      32.727  61.263   1.572  1.00  0.00     0.293 HD
ENDBRANCH   2  22
BRANCH   6  24
ATOM     24  O   UNL     1      31.082  63.270  -3.836  1.00  0.00    -0.507 OA
ATOM     25  H   UNL     1      31.959  62.787  -3.713  1.00  0.00     0.293 HD
ENDBRANCH   6  24
BRANCH   8  26
ATOM     26  O   UNL     1      28.187  66.919  -2.739  1.00  0.00    -0.508 OA
ATOM     27  H   UNL     1      28.600  67.818  -2.954  1.00  0.00     0.293 HD
ENDBRANCH   8  26
TORSDOF 6
ENDMDL
MODEL 5
REMARK VINA RESULT:    -4.435      6.583      9.187
REMARK INTER + INTRA:          -5.662
REMARK INTER:                  -5.611
REMARK INTRA:                  -0.051
REMARK UNBOUND:                -0.319
REMARK SMILES O=c1c(O)c(-c2ccc(O)c(O)c2)oc2cc(O)cc(O)c12
REMARK SMILES IDX 5 1 3 2 2 3 1 4 22 5 20 6 19 7 17 8 16 9 15 10 14 11 6 12
REMARK SMILES IDX 7 13 8 14 9 15 13 16 11 17 10 18 12 20 4 22 21 24 18 26
REMARK H PARENT 10 19 12 21 4 23 21 25 18 27
REMARK Flexibility Score: inf
ROOT
ATOM      1  C   UNL     1      34.399  71.673   1.356  1.00  0.00     0.180 A 
ATOM      2  C   UNL     1      34.489  70.347   1.809  1.00  0.00     0.208 A 
ATOM      3  C   UNL     1      35.553  69.985   2.652  1.00  0.00     0.238 A 
ATOM      4  O   UNL     1      35.659  68.784   3.011  1.00  0.00    -0.285 OA
ATOM      5  C   UNL     1      36.503  70.959   3.042  1.00  0.00     0.111 A 
ATOM      6  C   UNL     1      37.599  70.714   3.925  1.00  0.00     0.134 A 
ATOM      7  C   UNL     1      38.551  71.718   4.137  1.00  0.00     0.093 A 
ATOM      8  C   UNL     1      38.415  72.977   3.554  1.00  0.00     0.123 A 
ATOM      9  C   UNL     1      37.316  73.246   2.737  1.00  0.00     0.094 A 
ATOM     10  C   UNL     1      36.368  72.253   2.477  1.00  0.00     0.146 A 
ATOM     11  O   UNL     1      35.343  72.547   1.686  1.00  0.00    -0.452 OA
ENDROOT
BRANCH   1  12
ATOM     12  C   UNL     1      33.293  72.135   0.485  1.00  0.00     0.025 A 
ATOM     13  C   UNL     1      33.543  72.707  -0.775  1.00  0.00     0.016 A 
ATOM     14  C   UNL     1      32.483  73.114  -1.589  1.00  0.00     0.051 A 
ATOM     15  C   UNL     1      31.159  72.942  -1.162  1.00  0.00     0.157 A 
ATOM     16  C   UNL     1      31.964  71.947   0.898  1.00  0.00     0.062 A 
ATOM     17  C   UNL     1      30.899  72.356   0.081  1.00  0.00     0.158 A 
BRANCH  15  18
ATOM     18  O   UNL     1      30.100  73.349  -1.971  1.00  0.00    -0.504 OA
ATOM     19  H   UNL     1      29.193  72.899  -1.923  1.00  0.00     0.293 HD
ENDBRANCH  15  18
BRANCH  17  20
ATOM     20  O   UNL     1      29.581  72.180   0.500  1.00  0.00    -0.504 OA
ATOM     21  H   UNL     1      29.061  72.928   0.943  1.00  0.00     0.293 HD
ENDBRANCH  17  20
ENDBRANCH   1  12
BRANCH   2  22
ATOM     22  O   UNL     1      33.552  69.396   1.394  1.00  0.00    -0.502 OA
ATOM     23  H   UNL     1      33.573  68.435   1.715  1.00  0.00     0.293 HD
ENDBRANCH   2  22
BRANCH   6  24
ATOM     24  O   UNL     1      37.781  69.522   4.631  1.00  0.00    -0.507 OA
ATOM     25  H   UNL     1      37.071  69.069   5.188  1.00  0.00     0.293 HD
ENDBRANCH   6  24
BRANCH   8  26
ATOM     26  O   UNL     1      39.374  73.957   3.800  1.00  0.00    -0.508 OA
ATOM     27  H   UNL     1      40.078  74.194   3.111  1.00  0.00     0.293 HD
ENDBRANCH   8  26
TORSDOF 6
ENDMDL
MODEL 6
REMARK VINA RESULT:    -4.403      3.035      7.294
REMARK INTER + INTRA:          -5.623
REMARK INTER:                  -5.294
REMARK INTRA:                  -0.329
REMARK UNBOUND:                -0.319
REMARK SMILES O=c1c(O)c(-c2ccc(O)c(O)c2)oc2cc(O)cc(O)c12
REMARK SMILES IDX 5 1 3 2 2 3 1 4 22 5 20 6 19 7 17 8 16 9 15 10 14 11 6 12
REMARK SMILES IDX 7 13 8 14 9 15 13 16 11 17 10 18 12 20 4 22 21 24 18 26
REMARK H PARENT 10 19 12 21 4 23 21 25 18 27
REMARK Flexibility Score: inf
ROOT
ATOM      1  C   UNL     1      30.856  63.708   1.981  1.00  0.00     0.180 A 
ATOM      2  C   UNL     1      31.910  64.446   2.545  1.00  0.00     0.208 A 
ATOM      3  C   UNL     1      32.182  64.306   3.916  1.00  0.00     0.238 A 
ATOM      4  O   UNL     1      33.093  65.009   4.426  1.00  0.00    -0.285 OA
ATOM      5  C   UNL     1      31.407  63.419   4.700  1.00  0.00     0.111 A 
ATOM      6  C   UNL     1      31.620  63.168   6.090  1.00  0.00     0.134 A 
ATOM      7  C   UNL     1      30.710  62.371   6.794  1.00  0.00     0.093 A 
ATOM      8  C   UNL     1      29.634  61.762   6.150  1.00  0.00     0.123 A 
ATOM      9  C   UNL     1      29.451  61.952   4.779  1.00  0.00     0.094 A 
ATOM     10  C   UNL     1      30.321  62.771   4.056  1.00  0.00     0.146 A 
ATOM     11  O   UNL     1      30.105  62.934   2.756  1.00  0.00    -0.452 OA
ENDROOT
BRANCH   1  12
ATOM     12  C   UNL     1      30.524  63.784   0.539  1.00  0.00     0.025 A 
ATOM     13  C   UNL     1      31.090  62.892  -0.389  1.00  0.00     0.016 A 
ATOM     14  C   UNL     1      30.745  62.966  -1.742  1.00  0.00     0.051 A 
ATOM     15  C   UNL     1      29.820  63.923  -2.182  1.00  0.00     0.157 A 
ATOM     16  C   UNL     1      29.583  64.726   0.095  1.00  0.00     0.062 A 
ATOM     17  C   UNL     1      29.235  64.801  -1.262  1.00  0.00     0.158 A 
BRANCH  15  18
ATOM     18  O   UNL     1      29.474  64.001  -3.530  1.00  0.00    -0.504 OA
ATOM     19  H   UNL     1      30.084  63.642  -4.255  1.00  0.00     0.293 HD
ENDBRANCH  15  18
BRANCH  17  20
ATOM     20  O   UNL     1      28.310  65.747  -1.702  1.00  0.00    -0.504 OA
ATOM     21  H   UNL     1      28.107  66.580  -1.164  1.00  0.00     0.293 HD
ENDBRANCH  17  20
ENDBRANCH   1  12
BRANCH   2  22
ATOM     22  O   UNL     1      32.649  65.332   1.757  1.00  0.00    -0.502 OA
ATOM     23  H   UNL     1      33.515  65.752   2.076  1.00  0.00     0.293 HD
ENDBRANCH   2  22
BRANCH   6  24
ATOM     24  O   UNL     1      32.715  63.652   6.811  1.00  0.00    -0.507 OA
ATOM     25  H   UNL     1      33.507  64.126   6.405  1.00  0.00     0.293 HD
ENDBRANCH   6  24
BRANCH   8  26
ATOM     26  O   UNL     1      28.758  60.962   6.879  1.00  0.00    -0.508 OA
ATOM     27  H   UNL     1      27.905  60.600   6.469  1.00  0.00     0.293 HD
ENDBRANCH   8  26
TORSDOF 6
ENDMDL
MODEL 7
REMARK VINA RESULT:    -4.396      2.322      3.170
REMARK INTER + INTRA:          -5.615
REMARK INTER:                  -5.488
REMARK INTRA:                  -0.127
REMARK UNBOUND:                -0.319
REMARK SMILES O=c1c(O)c(-c2ccc(O)c(O)c2)oc2cc(O)cc(O)c12
REMARK SMILES IDX 5 1 3 2 2 3 1 4 22 5 20 6 19 7 17 8 16 9 15 10 14 11 6 12
REMARK SMILES IDX 7 13 8 14 9 15 13 16 11 17 10 18 12 20 4 22 21 24 18 26
REMARK H PARENT 10 19 12 21 4 23 21 25 18 27
REMARK Flexibility Score: inf
ROOT
ATOM      1  C   UNL     1      31.574  64.883   2.205  1.00  0.00     0.180 A 
ATOM      2  C   UNL     1      31.536  65.357   0.883  1.00  0.00     0.208 A 
ATOM      3  C   UNL     1      32.123  66.598   0.588  1.00  0.00     0.238 A 
ATOM      4  O   UNL     1      32.040  67.042  -0.587  1.00  0.00    -0.285 OA
ATOM      5  C   UNL     1      32.754  67.340   1.615  1.00  0.00     0.111 A 
ATOM      6  C   UNL     1      33.416  68.591   1.421  1.00  0.00     0.134 A 
ATOM      7  C   UNL     1      33.891  69.299   2.531  1.00  0.00     0.093 A 
ATOM      8  C   UNL     1      33.787  68.775   3.820  1.00  0.00     0.123 A 
ATOM      9  C   UNL     1      33.195  67.526   4.014  1.00  0.00     0.094 A 
ATOM     10  C   UNL     1      32.680  66.812   2.930  1.00  0.00     0.146 A 
ATOM     11  O   UNL     1      32.115  65.632   3.158  1.00  0.00    -0.452 OA
ENDROOT
BRANCH   1  12
ATOM     12  C   UNL     1      30.999  63.572   2.589  1.00  0.00     0.025 A 
ATOM     13  C   UNL     1      31.440  62.377   1.994  1.00  0.00     0.016 A 
ATOM     14  C   UNL     1      30.900  61.150   2.389  1.00  0.00     0.051 A 
ATOM     15  C   UNL     1      29.923  61.099   3.392  1.00  0.00     0.157 A 
ATOM     16  C   UNL     1      30.035  63.512   3.608  1.00  0.00     0.062 A 
ATOM     17  C   UNL     1      29.492  62.281   4.005  1.00  0.00     0.158 A 
BRANCH  15  18
ATOM     18  O   UNL     1      29.381  59.877   3.787  1.00  0.00    -0.504 OA
ATOM     19  H   UNL     1      29.042  59.204   3.110  1.00  0.00     0.293 HD
ENDBRANCH  15  18
BRANCH  17  20
ATOM     20  O   UNL     1      28.525  62.227   5.007  1.00  0.00    -0.504 OA
ATOM     21  H   UNL     1      27.563  62.492   4.832  1.00  0.00     0.293 HD
ENDBRANCH  17  20
ENDBRANCH   1  12
BRANCH   2  22
ATOM     22  O   UNL     1      30.890  64.618  -0.111  1.00  0.00    -0.502 OA
ATOM     23  H   UNL     1      31.133  63.656  -0.321  1.00  0.00     0.293 HD
ENDBRANCH   2  22
BRANCH   6  24
ATOM     24  O   UNL     1      33.655  69.162   0.168  1.00  0.00    -0.507 OA
ATOM     25  H   UNL     1      34.264  69.948   0.001  1.00  0.00     0.293 HD
ENDBRANCH   6  24
BRANCH   8  26
ATOM     26  O   UNL     1      34.284  69.501   4.900  1.00  0.00    -0.508 OA
ATOM     27  H   UNL     1      35.212  69.331   5.270  1.00  0.00     0.293 HD
ENDBRANCH   8  26
TORSDOF 6
ENDMDL
MODEL 8
REMARK VINA RESULT:    -4.375      5.032      8.409
REMARK INTER + INTRA:          -5.590
REMARK INTER:                  -5.529
REMARK INTRA:                  -0.060
REMARK UNBOUND:                -0.319
REMARK SMILES O=c1c(O)c(-c2ccc(O)c(O)c2)oc2cc(O)cc(O)c12
REMARK SMILES IDX 5 1 3 2 2 3 1 4 22 5 20 6 19 7 17 8 16 9 15 10 14 11 6 12
REMARK SMILES IDX 7 13 8 14 9 15 13 16 11 17 10 18 12 20 4 22 21 24 18 26
REMARK H PARENT 10 19 12 21 4 23 21 25 18 27
REMARK Flexibility Score: inf
ROOT
ATOM      1  C   UNL     1      33.697  71.503   0.697  1.00  0.00     0.180 A 
ATOM      2  C   UNL     1      33.563  70.106   0.634  1.00  0.00     0.208 A 
ATOM      3  C   UNL     1      32.364  69.559   0.148  1.00  0.00     0.238 A 
ATOM      4  O   UNL     1      32.229  68.308   0.144  1.00  0.00    -0.285 OA
ATOM      5  C   UNL     1      31.323  70.416  -0.283  1.00  0.00     0.111 A 
ATOM      6  C   UNL     1      30.081  69.971  -0.831  1.00  0.00     0.134 A 
ATOM      7  C   UNL     1      29.073  70.903  -1.102  1.00  0.00     0.093 A 
ATOM      8  C   UNL     1      29.282  72.268  -0.908  1.00  0.00     0.123 A 
ATOM      9  C   UNL     1      30.513  72.719  -0.429  1.00  0.00     0.094 A 
ATOM     10  C   UNL     1      31.526  71.810  -0.115  1.00  0.00     0.146 A 
ATOM     11  O   UNL     1      32.678  72.280   0.347  1.00  0.00    -0.452 OA
ENDROOT
BRANCH   1  12
ATOM     12  C   UNL     1      34.940  72.154   1.175  1.00  0.00     0.025 A 
ATOM     13  C   UNL     1      35.630  73.085   0.378  1.00  0.00     0.016 A 
ATOM     14  C   UNL     1      36.787  73.705   0.858  1.00  0.00     0.051 A 
ATOM     15  C   UNL     1      37.261  73.414   2.145  1.00  0.00     0.157 A 
ATOM     16  C   UNL     1      35.408  71.884   2.470  1.00  0.00     0.062 A 
ATOM     17  C   UNL     1      36.569  72.505   2.953  1.00  0.00     0.158 A 
BRANCH  15  18
ATOM     18  O   UNL     1      38.415  74.030   2.626  1.00  0.00    -0.504 OA
ATOM     19  H   UNL     1      38.924  73.656   3.419  1.00  0.00     0.293 HD
ENDBRANCH  15  18
BRANCH  17  20
ATOM     20  O   UNL     1      37.039  72.224   4.235  1.00  0.00    -0.504 OA
ATOM     21  H   UNL     1      36.422  71.885   4.964  1.00  0.00     0.293 HD
ENDBRANCH  17  20
ENDBRANCH   1  12
BRANCH   2  22
ATOM     22  O   UNL     1      34.595  69.279   1.085  1.00  0.00    -0.502 OA
ATOM     23  H   UNL     1      34.883  69.248   2.056  1.00  0.00     0.293 HD
ENDBRANCH   2  22
BRANCH   6  24
ATOM     24  O   UNL     1      29.802  68.639  -1.150  1.00  0.00    -0.507 OA
ATOM     25  H   UNL     1      29.172  68.044  -0.633  1.00  0.00     0.293 HD
ENDBRANCH   6  24
BRANCH   8  26
ATOM     26  O   UNL     1      28.261  73.169  -1.203  1.00  0.00    -0.508 OA
ATOM     27  H   UNL     1      27.287  72.930  -1.063  1.00  0.00     0.293 HD
ENDBRANCH   8  26
TORSDOF 6
ENDMDL
MODEL 9
REMARK VINA RESULT:    -4.354      5.059      8.163
REMARK INTER + INTRA:          -5.563
REMARK INTER:                  -5.248
REMARK INTRA:                  -0.315
REMARK UNBOUND:                -0.319
REMARK SMILES O=c1c(O)c(-c2ccc(O)c(O)c2)oc2cc(O)cc(O)c12
REMARK SMILES IDX 5 1 3 2 2 3 1 4 22 5 20 6 19 7 17 8 16 9 15 10 14 11 6 12
REMARK SMILES IDX 7 13 8 14 9 15 13 16 11 17 10 18 12 20 4 22 21 24 18 26
REMARK H PARENT 10 19 12 21 4 23 21 25 18 27
REMARK Flexibility Score: inf
ROOT
ATOM      1  C   UNL     1      33.797  71.401   0.707  1.00  0.00     0.180 A 
ATOM      2  C   UNL     1      34.239  71.093   2.004  1.00  0.00     0.208 A 
ATOM      3  C   UNL     1      35.397  71.718   2.495  1.00  0.00     0.238 A 
ATOM      4  O   UNL     1      35.819  71.398   3.637  1.00  0.00    -0.285 OA
ATOM      5  C   UNL     1      36.087  72.655   1.689  1.00  0.00     0.111 A 
ATOM      6  C   UNL     1      37.247  73.379   2.100  1.00  0.00     0.134 A 
ATOM      7  C   UNL     1      37.923  74.181   1.173  1.00  0.00     0.093 A 
ATOM      8  C   UNL     1      37.447  74.340  -0.127  1.00  0.00     0.123 A 
ATOM      9  C   UNL     1      36.279  73.684  -0.522  1.00  0.00     0.094 A 
ATOM     10  C   UNL     1      35.603  72.847   0.369  1.00  0.00     0.146 A 
ATOM     11  O   UNL     1      34.502  72.234  -0.049  1.00  0.00    -0.452 OA
ENDROOT
BRANCH   1  12
ATOM     12  C   UNL     1      32.571  70.801   0.129  1.00  0.00     0.025 A 
ATOM     13  C   UNL     1      32.599  69.543  -0.500  1.00  0.00     0.016 A 
ATOM     14  C   UNL     1      31.426  68.986  -1.017  1.00  0.00     0.051 A 
ATOM     15  C   UNL     1      30.209  69.670  -0.900  1.00  0.00     0.157 A 
ATOM     16  C   UNL     1      31.345  71.470   0.262  1.00  0.00     0.062 A 
ATOM     17  C   UNL     1      30.167  70.912  -0.256  1.00  0.00     0.158 A 
BRANCH  15  18
ATOM     18  O   UNL     1      29.038  69.117  -1.415  1.00  0.00    -0.504 OA
ATOM     19  H   UNL     1      29.054  68.291  -2.002  1.00  0.00     0.293 HD
ENDBRANCH  15  18
BRANCH  17  20
ATOM     20  O   UNL     1      28.953  71.586  -0.134  1.00  0.00    -0.504 OA
ATOM     21  H   UNL     1      28.067  71.106  -0.233  1.00  0.00     0.293 HD
ENDBRANCH  17  20
ENDBRANCH   1  12
BRANCH   2  22
ATOM     22  O   UNL     1      33.556  70.149   2.775  1.00  0.00    -0.502 OA
ATOM     23  H   UNL     1      33.068  70.393   3.629  1.00  0.00     0.293 HD
ENDBRANCH   2  22
BRANCH   6  24
ATOM     24  O   UNL     1      37.756  73.364   3.401  1.00  0.00    -0.507 OA
ATOM     25  H   UNL     1      37.195  73.295   4.237  1.00  0.00     0.293 HD
ENDBRANCH   6  24
BRANCH   8  26
ATOM     26  O   UNL     1      38.136  75.159  -1.018  1.00  0.00    -0.508 OA
ATOM     27  H   UNL     1      38.893  75.758  -0.710  1.00  0.00     0.293 HD
ENDBRANCH   8  26
TORSDOF 6
ENDMDL
