MODEL 1
REMARK VINA RESULT:    -3.718      0.000      0.000
REMARK INTER + INTRA:          -3.889
REMARK INTER:                  -4.044
REMARK INTRA:                   0.155
REMARK UNBOUND:                 0.155
REMARK SMILES C[C@@H]1[C@H]2C3=CC[C@@H]4[C@]5(C)CC[C@H](O)C(C)(C)[C@@H]5CC[C@]4(C)[C@@]3(C)CC[C@@]2(C(=O)[O-])CC[C@@H]1C
REMARK SMILES IDX 26 1 30 2 25 3 3 4 31 5 24 6 4 7 2 8 32 9 22 10 5 11 1 12
REMARK SMILES IDX 33 13 23 14 20 15 6 16 7 17 19 18 21 19 8 20 18 21 17 22
REMARK SMILES IDX 10 23 9 24 14 25 11 26 12 27 15 28 16 29 27 30 28 31 29 32
REMARK SMILES IDX 13 33
REMARK H PARENT 13 34
REMARK Flexibility Score: inf
ROOT
ATOM      1  C   UNL     1      -8.216  -2.741 -10.574  1.00  0.00     0.017 C 
ATOM      2  C   UNL     1      -9.604  -3.306 -10.154  1.00  0.00     0.014 C 
ATOM      3  C   UNL     1      -7.782  -3.408 -11.914  1.00  0.00     0.014 C 
ATOM      4  C   UNL     1      -7.177  -2.997  -9.412  1.00  0.00     0.030 C 
ATOM      5  C   UNL     1     -10.125  -2.676  -8.857  1.00  0.00     0.004 C 
ATOM      6  C   UNL     1      -7.218  -4.835 -11.796  1.00  0.00     0.013 C 
ATOM      7  C   UNL     1      -6.687  -4.474  -9.432  1.00  0.00    -0.063 C 
ATOM      8  C   UNL     1      -7.698  -2.456  -8.021  1.00  0.00    -0.003 C 
ATOM      9  C   UNL     1      -9.154  -2.933  -7.697  1.00  0.00    -0.011 C 
ATOM     10  C   UNL     1      -6.074  -5.001 -10.740  1.00  0.00    -0.006 C 
ATOM     11  C   UNL     1      -6.945  -5.313  -8.409  1.00  0.00    -0.027 C 
ATOM     12  C   UNL     1      -7.542  -0.923  -7.895  1.00  0.00     0.008 C 
ATOM     13  C   UNL     1      -9.700  -2.342  -6.390  1.00  0.00     0.008 C 
ATOM     14  C   UNL     1      -4.866  -4.077 -11.123  1.00  0.00     0.017 C 
ATOM     15  C   UNL     1      -5.557  -6.543 -10.657  1.00  0.00    -0.020 C 
ATOM     16  C   UNL     1      -6.769  -6.791  -8.437  1.00  0.00     0.032 C 
ATOM     17  C   UNL     1      -6.560  -7.429  -9.836  1.00  0.00     0.006 C 
ATOM     18  C   UNL     1      -4.166  -6.652  -9.938  1.00  0.00     0.008 C 
ATOM     19  C   UNL     1      -5.410  -7.077 -12.125  1.00  0.00     0.012 C 
ATOM     20  C   UNL     1      -6.177  -9.004  -9.766  1.00  0.00    -0.025 C 
ATOM     21  C   UNL     1      -3.832  -8.003  -9.243  1.00  0.00     0.005 C 
ATOM     22  C   UNL     1      -4.592  -9.241  -9.792  1.00  0.00     0.003 C 
ATOM     23  C   UNL     1      -6.822  -9.661  -8.489  1.00  0.00     0.010 C 
ATOM     24  C   UNL     1      -6.838  -9.703 -11.002  1.00  0.00     0.012 C 
ATOM     25  C   UNL     1      -4.067 -10.644  -9.227  1.00  0.00    -0.006 C 
ATOM     26  C   UNL     1      -6.346 -11.076  -8.164  1.00  0.00     0.033 C 
ATOM     27  C   UNL     1      -4.832 -11.095  -7.953  1.00  0.00     0.120 C 
ATOM     28  C   UNL     1      -2.549 -10.615  -8.889  1.00  0.00     0.014 C 
ATOM     29  C   UNL     1      -4.198 -11.746 -10.321  1.00  0.00     0.014 C 
ENDROOT
BRANCH   1  30
ATOM     30  C   UNL     1      -8.320  -1.252 -10.899  1.00  0.00     0.048 C 
ATOM     31  O   UNL     1      -9.421  -0.643 -10.814  1.00  0.00    -0.550 OA
ATOM     32  O   UNL     1      -7.225  -0.579 -11.434  1.00  0.00    -0.550 OA
ENDBRANCH   1  30
BRANCH  27  33
ATOM     33  O   UNL     1      -4.498 -10.265  -6.864  1.00  0.00    -0.393 OA
ATOM     34  H   UNL     1      -4.320  -9.357  -7.230  1.00  0.00     0.210 HD
ENDBRANCH  27  33
TORSDOF 2
ENDMDL
MODEL 2
REMARK VINA RESULT:    -2.902     10.568     13.367
REMARK INTER + INTRA:          -3.001
REMARK INTER:                  -3.976
REMARK INTRA:                   0.974
REMARK UNBOUND:                 0.155
REMARK SMILES C[C@@H]1[C@H]2C3=CC[C@@H]4[C@]5(C)CC[C@H](O)C(C)(C)[C@@H]5CC[C@]4(C)[C@@]3(C)CC[C@@]2(C(=O)[O-])CC[C@@H]1C
REMARK SMILES IDX 26 1 30 2 25 3 3 4 31 5 24 6 4 7 2 8 32 9 22 10 5 11 1 12
REMARK SMILES IDX 33 13 23 14 20 15 6 16 7 17 19 18 21 19 8 20 18 21 17 22
REMARK SMILES IDX 10 23 9 24 14 25 11 26 12 27 15 28 16 29 27 30 28 31 29 32
REMARK SMILES IDX 13 33
REMARK H PARENT 13 34
REMARK Flexibility Score: inf
ROOT
ATOM      1  C   UNL     1       5.430  -4.275 -11.528  1.00  0.00     0.017 C 
ATOM      2  C   UNL     1       4.314  -5.181 -12.124  1.00  0.00     0.014 C 
ATOM      3  C   UNL     1       6.804  -4.704 -12.125  1.00  0.00     0.014 C 
ATOM      4  C   UNL     1       5.401  -4.383  -9.952  1.00  0.00     0.030 C 
ATOM      5  C   UNL     1       2.918  -4.804 -11.614  1.00  0.00     0.004 C 
ATOM      6  C   UNL     1       7.434  -5.966 -11.508  1.00  0.00     0.013 C 
ATOM      7  C   UNL     1       6.086  -5.698  -9.480  1.00  0.00    -0.063 C 
ATOM      8  C   UNL     1       3.960  -4.101  -9.365  1.00  0.00    -0.003 C 
ATOM      9  C   UNL     1       2.844  -4.929 -10.087  1.00  0.00    -0.011 C 
ATOM     10  C   UNL     1       7.530  -5.953  -9.946  1.00  0.00    -0.006 C 
ATOM     11  C   UNL     1       5.393  -6.660  -8.839  1.00  0.00    -0.027 C 
ATOM     12  C   UNL     1       3.632  -2.591  -9.321  1.00  0.00     0.008 C 
ATOM     13  C   UNL     1       1.432  -4.597  -9.582  1.00  0.00     0.008 C 
ATOM     14  C   UNL     1       8.414  -4.744  -9.482  1.00  0.00     0.017 C 
ATOM     15  C   UNL     1       8.177  -7.333  -9.376  1.00  0.00    -0.020 C 
ATOM     16  C   UNL     1       5.868  -8.048  -8.589  1.00  0.00     0.032 C 
ATOM     17  C   UNL     1       7.122  -8.496  -9.387  1.00  0.00     0.006 C 
ATOM     18  C   UNL     1       8.662  -7.179  -7.891  1.00  0.00     0.008 C 
ATOM     19  C   UNL     1       9.412  -7.689 -10.276  1.00  0.00     0.012 C 
ATOM     20  C   UNL     1       7.694  -9.939  -8.915  1.00  0.00    -0.025 C 
ATOM     21  C   UNL     1       8.718  -8.471  -7.025  1.00  0.00     0.005 C 
ATOM     22  C   UNL     1       8.855  -9.798  -7.819  1.00  0.00     0.003 C 
ATOM     23  C   UNL     1       6.518 -10.837  -8.375  1.00  0.00     0.010 C 
ATOM     24  C   UNL     1       8.251 -10.662 -10.188  1.00  0.00     0.012 C 
ATOM     25  C   UNL     1       9.144 -11.085  -6.911  1.00  0.00    -0.006 C 
ATOM     26  C   UNL     1       6.942 -12.125  -7.672  1.00  0.00     0.033 C 
ATOM     27  C   UNL     1       7.841 -11.811  -6.476  1.00  0.00     0.120 C 
ATOM     28  C   UNL     1       9.948 -10.734  -5.627  1.00  0.00     0.014 C 
ATOM     29  C   UNL     1      10.059 -12.088  -7.677  1.00  0.00     0.014 C 
ENDROOT
BRANCH   1  30
ATOM     30  C   UNL     1       5.245  -2.828 -11.982  1.00  0.00     0.048 C 
ATOM     31  O   UNL     1       6.234  -2.060 -12.125  1.00  0.00    -0.550 OA
ATOM     32  O   UNL     1       3.965  -2.297 -12.107  1.00  0.00    -0.550 OA
ENDBRANCH   1  30
BRANCH  27  33
ATOM     33  O   UNL     1       7.132 -11.024  -5.548  1.00  0.00    -0.393 OA
ATOM     34  H   UNL     1       6.958 -10.144  -5.979  1.00  0.00     0.210 HD
ENDBRANCH  27  33
TORSDOF 2
ENDMDL
MODEL 3
REMARK VINA RESULT:    -2.390      1.581      8.117
REMARK INTER + INTRA:          -2.445
REMARK INTER:                  -3.545
REMARK INTRA:                   1.100
REMARK UNBOUND:                 0.155
REMARK SMILES C[C@@H]1[C@H]2C3=CC[C@@H]4[C@]5(C)CC[C@H](O)C(C)(C)[C@@H]5CC[C@]4(C)[C@@]3(C)CC[C@@]2(C(=O)[O-])CC[C@@H]1C
REMARK SMILES IDX 26 1 30 2 25 3 3 4 31 5 24 6 4 7 2 8 32 9 22 10 5 11 1 12
REMARK SMILES IDX 33 13 23 14 20 15 6 16 7 17 19 18 21 19 8 20 18 21 17 22
REMARK SMILES IDX 10 23 9 24 14 25 11 26 12 27 15 28 16 29 27 30 28 31 29 32
REMARK SMILES IDX 13 33
REMARK H PARENT 13 34
REMARK Flexibility Score: inf
ROOT
ATOM      1  C   UNL     1      -6.478 -10.138  -9.088  1.00  0.00     0.017 C 
ATOM      2  C   UNL     1      -6.041 -10.252 -10.578  1.00  0.00     0.014 C 
ATOM      3  C   UNL     1      -8.021  -9.930  -9.027  1.00  0.00     0.014 C 
ATOM      4  C   UNL     1      -5.686  -8.955  -8.402  1.00  0.00     0.030 C 
ATOM      5  C   UNL     1      -4.535 -10.492 -10.729  1.00  0.00     0.004 C 
ATOM      6  C   UNL     1      -8.514  -8.504  -9.329  1.00  0.00     0.013 C 
ATOM      7  C   UNL     1      -6.310  -7.582  -8.788  1.00  0.00    -0.063 C 
ATOM      8  C   UNL     1      -4.124  -9.090  -8.607  1.00  0.00    -0.003 C 
ATOM      9  C   UNL     1      -3.733  -9.345 -10.102  1.00  0.00    -0.011 C 
ATOM     10  C   UNL     1      -7.808  -7.378  -8.502  1.00  0.00    -0.006 C 
ATOM     11  C   UNL     1      -5.619  -6.673  -9.502  1.00  0.00    -0.027 C 
ATOM     12  C   UNL     1      -3.498 -10.134  -7.653  1.00  0.00     0.008 C 
ATOM     13  C   UNL     1      -2.226  -9.564 -10.297  1.00  0.00     0.008 C 
ATOM     14  C   UNL     1      -8.051  -7.617  -6.972  1.00  0.00     0.017 C 
ATOM     15  C   UNL     1      -8.365  -5.903  -8.905  1.00  0.00    -0.020 C 
ATOM     16  C   UNL     1      -6.194  -5.463 -10.152  1.00  0.00     0.032 C 
ATOM     17  C   UNL     1      -7.741  -5.416 -10.261  1.00  0.00     0.006 C 
ATOM     18  C   UNL     1      -7.992  -4.825  -7.826  1.00  0.00     0.008 C 
ATOM     19  C   UNL     1      -9.927  -5.994  -9.008  1.00  0.00     0.012 C 
ATOM     20  C   UNL     1      -8.298  -3.989 -10.794  1.00  0.00    -0.025 C 
ATOM     21  C   UNL     1      -7.886  -3.349  -8.304  1.00  0.00     0.005 C 
ATOM     22  C   UNL     1      -8.689  -3.007  -9.589  1.00  0.00     0.003 C 
ATOM     23  C   UNL     1      -7.239  -3.316 -11.746  1.00  0.00     0.010 C 
ATOM     24  C   UNL     1      -9.562  -4.276 -11.674  1.00  0.00     0.012 C 
ATOM     25  C   UNL     1      -8.756  -1.444  -9.930  1.00  0.00    -0.006 C 
ATOM     26  C   UNL     1      -7.522  -1.864 -12.124  1.00  0.00     0.033 C 
ATOM     27  C   UNL     1      -7.606  -0.991 -10.872  1.00  0.00     0.120 C 
ATOM     28  C   UNL     1      -8.707  -0.557  -8.654  1.00  0.00     0.014 C 
ATOM     29  C   UNL     1     -10.125  -1.097 -10.590  1.00  0.00     0.014 C 
ENDROOT
BRANCH   1  30
ATOM     30  C   UNL     1      -6.236 -11.457  -8.357  1.00  0.00     0.048 C 
ATOM     31  O   UNL     1      -5.181 -12.121  -8.546  1.00  0.00    -0.550 OA
ATOM     32  O   UNL     1      -7.245 -12.016  -7.578  1.00  0.00    -0.550 OA
ENDBRANCH   1  30
BRANCH  27  33
ATOM     33  O   UNL     1      -6.374  -1.029 -10.189  1.00  0.00    -0.393 OA
ATOM     34  H   UNL     1      -6.370  -0.269  -9.546  1.00  0.00     0.210 HD
ENDBRANCH  27  33
TORSDOF 2
ENDMDL
MODEL 4
REMARK VINA RESULT:    -1.907      1.903      3.090
REMARK INTER + INTRA:          -1.920
REMARK INTER:                  -2.649
REMARK INTRA:                   0.730
REMARK UNBOUND:                 0.155
REMARK SMILES C[C@@H]1[C@H]2C3=CC[C@@H]4[C@]5(C)CC[C@H](O)C(C)(C)[C@@H]5CC[C@]4(C)[C@@]3(C)CC[C@@]2(C(=O)[O-])CC[C@@H]1C
REMARK SMILES IDX 26 1 30 2 25 3 3 4 31 5 24 6 4 7 2 8 32 9 22 10 5 11 1 12
REMARK SMILES IDX 33 13 23 14 20 15 6 16 7 17 19 18 21 19 8 20 18 21 17 22
REMARK SMILES IDX 10 23 9 24 14 25 11 26 12 27 15 28 16 29 27 30 28 31 29 32
REMARK SMILES IDX 13 33
REMARK H PARENT 13 34
REMARK Flexibility Score: inf
ROOT
ATOM      1  C   UNL     1      -8.762  -0.077  -9.229  1.00  0.00     0.017 C 
ATOM      2  C   UNL     1     -10.125  -0.347  -8.528  1.00  0.00     0.014 C 
ATOM      3  C   UNL     1      -8.863  -0.520 -10.720  1.00  0.00     0.014 C 
ATOM      4  C   UNL     1      -7.617  -0.840  -8.453  1.00  0.00     0.030 C 
ATOM      5  C   UNL     1     -10.125   0.094  -7.059  1.00  0.00     0.004 C 
ATOM      6  C   UNL     1      -8.748  -2.034 -10.974  1.00  0.00     0.013 C 
ATOM      7  C   UNL     1      -7.617  -2.351  -8.825  1.00  0.00    -0.063 C 
ATOM      8  C   UNL     1      -7.624  -0.505  -6.908  1.00  0.00    -0.003 C 
ATOM      9  C   UNL     1      -9.044  -0.652  -6.266  1.00  0.00    -0.011 C 
ATOM     10  C   UNL     1      -7.502  -2.715 -10.314  1.00  0.00    -0.006 C 
ATOM     11  C   UNL     1      -7.882  -3.300  -7.905  1.00  0.00    -0.027 C 
ATOM     12  C   UNL     1      -6.986   0.871  -6.606  1.00  0.00     0.008 C 
ATOM     13  C   UNL     1      -9.078  -0.245  -4.786  1.00  0.00     0.008 C 
ATOM     14  C   UNL     1      -6.189  -2.070 -10.877  1.00  0.00     0.017 C 
ATOM     15  C   UNL     1      -7.473  -4.317 -10.606  1.00  0.00    -0.020 C 
ATOM     16  C   UNL     1      -8.174  -4.730  -8.197  1.00  0.00     0.032 C 
ATOM     17  C   UNL     1      -8.487  -5.076  -9.678  1.00  0.00     0.006 C 
ATOM     18  C   UNL     1      -6.057  -4.934 -10.326  1.00  0.00     0.008 C 
ATOM     19  C   UNL     1      -7.829  -4.533 -12.118  1.00  0.00     0.012 C 
ATOM     20  C   UNL     1      -8.596  -6.671  -9.949  1.00  0.00    -0.025 C 
ATOM     21  C   UNL     1      -6.003  -6.444  -9.957  1.00  0.00     0.005 C 
ATOM     22  C   UNL     1      -7.206  -7.294 -10.449  1.00  0.00     0.003 C 
ATOM     23  C   UNL     1      -9.107  -7.407  -8.654  1.00  0.00     0.010 C 
ATOM     24  C   UNL     1      -9.697  -6.888 -11.042  1.00  0.00     0.012 C 
ATOM     25  C   UNL     1      -7.019  -8.873 -10.265  1.00  0.00    -0.006 C 
ATOM     26  C   UNL     1      -9.023  -8.932  -8.686  1.00  0.00     0.033 C 
ATOM     27  C   UNL     1      -7.580  -9.384  -8.909  1.00  0.00     0.120 C 
ATOM     28  C   UNL     1      -5.530  -9.308 -10.362  1.00  0.00     0.014 C 
ATOM     29  C   UNL     1      -7.721  -9.636 -11.429  1.00  0.00     0.014 C 
ENDROOT
BRANCH   1  30
ATOM     30  C   UNL     1      -8.479   1.423  -9.290  1.00  0.00     0.048 C 
ATOM     31  O   UNL     1      -8.936   2.207  -8.415  1.00  0.00    -0.550 OA
ATOM     32  O   UNL     1      -7.829   1.964 -10.396  1.00  0.00    -0.550 OA
ENDBRANCH   1  30
BRANCH  27  33
ATOM     33  O   UNL     1      -6.775  -8.928  -7.846  1.00  0.00    -0.393 OA
ATOM     34  H   UNL     1      -6.379  -9.730  -7.411  1.00  0.00     0.210 HD
ENDBRANCH  27  33
TORSDOF 2
ENDMDL
MODEL 5
REMARK VINA RESULT:    -1.156      9.160     13.909
REMARK INTER + INTRA:          -1.103
REMARK INTER:                  -1.224
REMARK INTRA:                   0.122
REMARK UNBOUND:                 0.155
REMARK SMILES C[C@@H]1[C@H]2C3=CC[C@@H]4[C@]5(C)CC[C@H](O)C(C)(C)[C@@H]5CC[C@]4(C)[C@@]3(C)CC[C@@]2(C(=O)[O-])CC[C@@H]1C
REMARK SMILES IDX 26 1 30 2 25 3 3 4 31 5 24 6 4 7 2 8 32 9 22 10 5 11 1 12
REMARK SMILES IDX 33 13 23 14 20 15 6 16 7 17 19 18 21 19 8 20 18 21 17 22
REMARK SMILES IDX 10 23 9 24 14 25 11 26 12 27 15 28 16 29 27 30 28 31 29 32
REMARK SMILES IDX 13 33
REMARK H PARENT 13 34
REMARK Flexibility Score: inf
ROOT
ATOM      1  C   UNL     1       8.132  -8.982  -9.140  1.00  0.00     0.017 C 
ATOM      2  C   UNL     1       8.139  -8.604  -7.630  1.00  0.00     0.014 C 
ATOM      3  C   UNL     1       8.531  -7.730  -9.978  1.00  0.00     0.014 C 
ATOM      4  C   UNL     1       6.704  -9.535  -9.531  1.00  0.00     0.030 C 
ATOM      5  C   UNL     1       7.789  -9.792  -6.727  1.00  0.00     0.004 C 
ATOM      6  C   UNL     1       7.420  -6.686 -10.186  1.00  0.00     0.013 C 
ATOM      7  C   UNL     1       5.697  -8.364  -9.723  1.00  0.00    -0.063 C 
ATOM      8  C   UNL     1       6.238 -10.702  -8.572  1.00  0.00    -0.003 C 
ATOM      9  C   UNL     1       6.393 -10.336  -7.057  1.00  0.00    -0.011 C 
ATOM     10  C   UNL     1       6.071  -7.264 -10.730  1.00  0.00    -0.006 C 
ATOM     11  C   UNL     1       4.626  -8.220  -8.917  1.00  0.00    -0.027 C 
ATOM     12  C   UNL     1       6.914 -12.049  -8.920  1.00  0.00     0.008 C 
ATOM     13  C   UNL     1       6.025 -11.495  -6.120  1.00  0.00     0.008 C 
ATOM     14  C   UNL     1       6.312  -7.939 -12.125  1.00  0.00     0.017 C 
ATOM     15  C   UNL     1       4.944  -6.101 -10.891  1.00  0.00    -0.020 C 
ATOM     16  C   UNL     1       3.763  -7.011  -8.832  1.00  0.00     0.032 C 
ATOM     17  C   UNL     1       4.320  -5.725  -9.500  1.00  0.00     0.006 C 
ATOM     18  C   UNL     1       3.756  -6.563 -11.807  1.00  0.00     0.008 C 
ATOM     19  C   UNL     1       5.634  -4.855 -11.550  1.00  0.00     0.012 C 
ATOM     20  C   UNL     1       3.244  -4.512  -9.541  1.00  0.00    -0.025 C 
ATOM     21  C   UNL     1       2.377  -5.880 -11.580  1.00  0.00     0.005 C 
ATOM     22  C   UNL     1       2.432  -4.474 -10.923  1.00  0.00     0.003 C 
ATOM     23  C   UNL     1       2.261  -4.618  -8.316  1.00  0.00     0.010 C 
ATOM     24  C   UNL     1       4.037  -3.174  -9.356  1.00  0.00     0.012 C 
ATOM     25  C   UNL     1       1.033  -3.695 -10.912  1.00  0.00    -0.006 C 
ATOM     26  C   UNL     1       1.049  -3.690  -8.360  1.00  0.00     0.033 C 
ATOM     27  C   UNL     1       0.218  -3.956  -9.615  1.00  0.00     0.120 C 
ATOM     28  C   UNL     1       0.136  -4.072 -12.125  1.00  0.00     0.014 C 
ATOM     29  C   UNL     1       1.270  -2.163 -11.068  1.00  0.00     0.014 C 
ENDROOT
BRANCH   1  30
ATOM     30  C   UNL     1       9.220 -10.012  -9.440  1.00  0.00     0.048 C 
ATOM     31  O   UNL     1      10.012 -10.402  -8.540  1.00  0.00    -0.550 OA
ATOM     32  O   UNL     1       9.443 -10.426 -10.750  1.00  0.00    -0.550 OA
ENDBRANCH   1  30
BRANCH  27  33
ATOM     33  O   UNL     1      -0.254  -5.283  -9.595  1.00  0.00    -0.393 OA
ATOM     34  H   UNL     1      -0.199  -5.601  -8.653  1.00  0.00     0.210 HD
ENDBRANCH  27  33
TORSDOF 2
ENDMDL
MODEL 6
REMARK VINA RESULT:    -1.127      1.550      8.014
REMARK INTER + INTRA:          -1.071
REMARK INTER:                  -1.171
REMARK INTRA:                   0.100
REMARK UNBOUND:                 0.155
REMARK SMILES C[C@@H]1[C@H]2C3=CC[C@@H]4[C@]5(C)CC[C@H](O)C(C)(C)[C@@H]5CC[C@]4(C)[C@@]3(C)CC[C@@]2(C(=O)[O-])CC[C@@H]1C
REMARK SMILES IDX 26 1 30 2 25 3 3 4 31 5 24 6 4 7 2 8 32 9 22 10 5 11 1 12
REMARK SMILES IDX 33 13 23 14 20 15 6 16 7 17 19 18 21 19 8 20 18 21 17 22
REMARK SMILES IDX 10 23 9 24 14 25 11 26 12 27 15 28 16 29 27 30 28 31 29 32
REMARK SMILES IDX 13 33
REMARK H PARENT 13 34
REMARK Flexibility Score: inf
ROOT
ATOM      1  C   UNL     1      -4.802  -9.971  -9.219  1.00  0.00     0.017 C 
ATOM      2  C   UNL     1      -6.041 -10.398  -8.380  1.00  0.00     0.014 C 
ATOM      3  C   UNL     1      -4.014  -8.876  -8.439  1.00  0.00     0.014 C 
ATOM      4  C   UNL     1      -5.282  -9.468 -10.637  1.00  0.00     0.030 C 
ATOM      5  C   UNL     1      -6.858 -11.501  -9.061  1.00  0.00     0.004 C 
ATOM      6  C   UNL     1      -4.605  -7.456  -8.503  1.00  0.00     0.013 C 
ATOM      7  C   UNL     1      -5.837  -8.017 -10.545  1.00  0.00    -0.063 C 
ATOM      8  C   UNL     1      -6.214 -10.523 -11.356  1.00  0.00    -0.003 C 
ATOM      9  C   UNL     1      -7.369 -11.035 -10.431  1.00  0.00    -0.011 C 
ATOM     10  C   UNL     1      -4.914  -6.941  -9.948  1.00  0.00    -0.006 C 
ATOM     11  C   UNL     1      -7.129  -7.741 -10.809  1.00  0.00    -0.027 C 
ATOM     12  C   UNL     1      -5.408 -11.685 -11.982  1.00  0.00     0.008 C 
ATOM     13  C   UNL     1      -8.227 -12.124 -11.091  1.00  0.00     0.008 C 
ATOM     14  C   UNL     1      -3.591  -6.909 -10.790  1.00  0.00     0.017 C 
ATOM     15  C   UNL     1      -5.563  -5.449  -9.924  1.00  0.00    -0.020 C 
ATOM     16  C   UNL     1      -7.823  -6.463 -10.494  1.00  0.00     0.032 C 
ATOM     17  C   UNL     1      -7.081  -5.502  -9.527  1.00  0.00     0.006 C 
ATOM     18  C   UNL     1      -5.490  -4.759 -11.333  1.00  0.00     0.008 C 
ATOM     19  C   UNL     1      -4.746  -4.589  -8.898  1.00  0.00     0.012 C 
ATOM     20  C   UNL     1      -7.801  -4.055  -9.392  1.00  0.00    -0.025 C 
ATOM     21  C   UNL     1      -6.554  -3.667 -11.643  1.00  0.00     0.005 C 
ATOM     22  C   UNL     1      -7.181  -2.976 -10.402  1.00  0.00     0.003 C 
ATOM     23  C   UNL     1      -9.354  -4.200  -9.610  1.00  0.00     0.010 C 
ATOM     24  C   UNL     1      -7.607  -3.569  -7.915  1.00  0.00     0.012 C 
ATOM     25  C   UNL     1      -8.093  -1.705 -10.744  1.00  0.00    -0.006 C 
ATOM     26  C   UNL     1     -10.125  -2.889  -9.754  1.00  0.00     0.033 C 
ATOM     27  C   UNL     1      -9.588  -2.080 -10.935  1.00  0.00     0.120 C 
ATOM     28  C   UNL     1      -7.617  -0.963 -12.025  1.00  0.00     0.014 C 
ATOM     29  C   UNL     1      -7.973  -0.639  -9.613  1.00  0.00     0.014 C 
ENDROOT
BRANCH   1  30
ATOM     30  C   UNL     1      -3.819 -11.133  -9.353  1.00  0.00     0.048 C 
ATOM     31  O   UNL     1      -3.863 -12.116  -8.564  1.00  0.00    -0.550 OA
ATOM     32  O   UNL     1      -2.768 -11.054 -10.261  1.00  0.00    -0.550 OA
ENDBRANCH   1  30
BRANCH  27  33
ATOM     33  O   UNL     1      -9.757  -2.816 -12.125  1.00  0.00    -0.393 OA
ATOM     34  H   UNL     1     -10.238  -2.229 -12.768  1.00  0.00     0.210 HD
ENDBRANCH  27  33
TORSDOF 2
ENDMDL
