MODEL 1
REMARK VINA RESULT:     5.585      0.000      0.000
REMARK INTER + INTRA:           6.864
REMARK INTER:                   6.565
REMARK INTRA:                   0.299
REMARK UNBOUND:                 0.299
REMARK SMILES O=c1c(O)c(-c2ccc(O)cc2)oc2cc(O)cc(O)c12
REMARK SMILES IDX 5 1 3 2 2 3 1 4 21 5 19 6 18 7 16 8 15 9 14 10 13 11 6 12
REMARK SMILES IDX 7 13 8 14 9 15 12 16 11 17 10 18 4 20 20 22 17 24
REMARK H PARENT 10 19 4 21 20 23 17 25
REMARK Flexibility Score: inf
ROOT
ATOM      1  C   UNL     1      13.251  21.241   0.849  1.00  0.00     0.180 A 
ATOM      2  C   UNL     1      14.034  22.263   0.284  1.00  0.00     0.208 A 
ATOM      3  C   UNL     1      14.079  22.393  -1.113  1.00  0.00     0.238 A 
ATOM      4  O   UNL     1      14.739  23.342  -1.611  1.00  0.00    -0.285 OA
ATOM      5  C   UNL     1      13.355  21.490  -1.928  1.00  0.00     0.111 A 
ATOM      6  C   UNL     1      13.360  21.503  -3.356  1.00  0.00     0.134 A 
ATOM      7  C   UNL     1      12.503  20.647  -4.057  1.00  0.00     0.093 A 
ATOM      8  C   UNL     1      11.691  19.734  -3.387  1.00  0.00     0.123 A 
ATOM      9  C   UNL     1      11.721  19.671  -1.993  1.00  0.00     0.094 A 
ATOM     10  C   UNL     1      12.539  20.538  -1.264  1.00  0.00     0.146 A 
ATOM     11  O   UNL     1      12.531  20.453   0.061  1.00  0.00    -0.452 OA
ENDROOT
BRANCH   1  12
ATOM     12  C   UNL     1      13.172  21.026   2.313  1.00  0.00     0.021 A 
ATOM     13  C   UNL     1      13.201  22.133   3.178  1.00  0.00     0.016 A 
ATOM     14  C   UNL     1      13.105  21.953   4.561  1.00  0.00     0.047 A 
ATOM     15  C   UNL     1      12.963  20.667   5.096  1.00  0.00     0.115 A 
ATOM     16  C   UNL     1      13.009  19.738   2.856  1.00  0.00     0.016 A 
ATOM     17  C   UNL     1      12.913  19.562   4.239  1.00  0.00     0.047 A 
BRANCH  15  18
ATOM     18  O   UNL     1      12.867  20.476   6.472  1.00  0.00    -0.508 OA
ATOM     19  H   UNL     1      13.647  20.670   7.089  1.00  0.00     0.293 HD
ENDBRANCH  15  18
ENDBRANCH   1  12
BRANCH   2  20
ATOM     20  O   UNL     1      14.724  23.156   1.108  1.00  0.00    -0.502 OA
ATOM     21  H   UNL     1      15.593  23.596   0.827  1.00  0.00     0.293 HD
ENDBRANCH   2  20
BRANCH   6  22
ATOM     22  O   UNL     1      14.202  22.313  -4.124  1.00  0.00    -0.507 OA
ATOM     23  H   UNL     1      15.036  22.764  -3.782  1.00  0.00     0.293 HD
ENDBRANCH   6  22
BRANCH   8  24
ATOM     24  O   UNL     1      10.861  18.885  -4.119  1.00  0.00    -0.508 OA
ATOM     25  H   UNL     1      10.192  18.277  -3.662  1.00  0.00     0.293 HD
ENDBRANCH   8  24
TORSDOF 5
ENDMDL
MODEL 2
REMARK VINA RESULT:     6.993      2.882      6.240
REMARK INTER + INTRA:           8.518
REMARK INTER:                   8.679
REMARK INTRA:                  -0.161
REMARK UNBOUND:                 0.299
REMARK SMILES O=c1c(O)c(-c2ccc(O)cc2)oc2cc(O)cc(O)c12
REMARK SMILES IDX 5 1 3 2 2 3 1 4 21 5 19 6 18 7 16 8 15 9 14 10 13 11 6 12
REMARK SMILES IDX 7 13 8 14 9 15 12 16 11 17 10 18 4 20 20 22 17 24
REMARK H PARENT 10 19 4 21 20 23 17 25
REMARK Flexibility Score: inf
ROOT
ATOM      1  C   UNL     1      13.370  21.515  -1.321  1.00  0.00     0.180 A 
ATOM      2  C   UNL     1      14.136  20.882  -0.327  1.00  0.00     0.208 A 
ATOM      3  C   UNL     1      15.153  21.608   0.314  1.00  0.00     0.238 A 
ATOM      4  O   UNL     1      15.801  21.053   1.240  1.00  0.00    -0.285 OA
ATOM      5  C   UNL     1      15.401  22.951  -0.059  1.00  0.00     0.111 A 
ATOM      6  C   UNL     1      16.433  23.769   0.496  1.00  0.00     0.134 A 
ATOM      7  C   UNL     1      16.502  25.122   0.147  1.00  0.00     0.093 A 
ATOM      8  C   UNL     1      15.622  25.673  -0.784  1.00  0.00     0.123 A 
ATOM      9  C   UNL     1      14.648  24.869  -1.376  1.00  0.00     0.094 A 
ATOM     10  C   UNL     1      14.530  23.523  -1.021  1.00  0.00     0.146 A 
ATOM     11  O   UNL     1      13.583  22.794  -1.601  1.00  0.00    -0.452 OA
ENDROOT
BRANCH   1  12
ATOM     12  C   UNL     1      12.297  20.808  -2.058  1.00  0.00     0.021 A 
ATOM     13  C   UNL     1      11.113  20.455  -1.388  1.00  0.00     0.016 A 
ATOM     14  C   UNL     1      10.079  19.807  -2.071  1.00  0.00     0.047 A 
ATOM     15  C   UNL     1      10.208  19.519  -3.435  1.00  0.00     0.115 A 
ATOM     16  C   UNL     1      12.411  20.534  -3.434  1.00  0.00     0.016 A 
ATOM     17  C   UNL     1      11.374  19.887  -4.113  1.00  0.00     0.047 A 
BRANCH  15  18
ATOM     18  O   UNL     1       9.184  18.875  -4.125  1.00  0.00    -0.508 OA
ATOM     19  H   UNL     1       8.623  19.362  -4.814  1.00  0.00     0.293 HD
ENDBRANCH  15  18
ENDBRANCH   1  12
BRANCH   2  20
ATOM     20  O   UNL     1      13.860  19.562   0.040  1.00  0.00    -0.502 OA
ATOM     21  H   UNL     1      13.268  19.329   0.827  1.00  0.00     0.293 HD
ENDBRANCH   2  20
BRANCH   6  22
ATOM     22  O   UNL     1      17.420  23.295   1.365  1.00  0.00    -0.507 OA
ATOM     23  H   UNL     1      18.020  23.879   1.927  1.00  0.00     0.293 HD
ENDBRANCH   6  22
BRANCH   8  24
ATOM     24  O   UNL     1      15.731  27.022  -1.119  1.00  0.00    -0.508 OA
ATOM     25  H   UNL     1      15.808  27.323  -2.083  1.00  0.00     0.293 HD
ENDBRANCH   8  24
TORSDOF 5
ENDMDL
MODEL 3
REMARK VINA RESULT:     8.502      1.374      2.969
REMARK INTER + INTRA:          10.292
REMARK INTER:                   9.788
REMARK INTRA:                   0.504
REMARK UNBOUND:                 0.299
REMARK SMILES O=c1c(O)c(-c2ccc(O)cc2)oc2cc(O)cc(O)c12
REMARK SMILES IDX 5 1 3 2 2 3 1 4 21 5 19 6 18 7 16 8 15 9 14 10 13 11 6 12
REMARK SMILES IDX 7 13 8 14 9 15 12 16 11 17 10 18 4 20 20 22 17 24
REMARK H PARENT 10 19 4 21 20 23 17 25
REMARK Flexibility Score: inf
ROOT
ATOM      1  C   UNL     1      13.182  21.228   1.042  1.00  0.00     0.180 A 
ATOM      2  C   UNL     1      12.934  20.149   0.176  1.00  0.00     0.208 A 
ATOM      3  C   UNL     1      12.976  20.365  -1.211  1.00  0.00     0.238 A 
ATOM      4  O   UNL     1      12.805  19.384  -1.981  1.00  0.00    -0.285 OA
ATOM      5  C   UNL     1      13.250  21.659  -1.714  1.00  0.00     0.111 A 
ATOM      6  C   UNL     1      13.278  22.001  -3.100  1.00  0.00     0.134 A 
ATOM      7  C   UNL     1      13.689  23.282  -3.487  1.00  0.00     0.093 A 
ATOM      8  C   UNL     1      14.009  24.253  -2.539  1.00  0.00     0.123 A 
ATOM      9  C   UNL     1      13.929  23.947  -1.180  1.00  0.00     0.094 A 
ATOM     10  C   UNL     1      13.556  22.667  -0.763  1.00  0.00     0.146 A 
ATOM     11  O   UNL     1      13.501  22.414   0.539  1.00  0.00    -0.452 OA
ENDROOT
BRANCH   1  12
ATOM     12  C   UNL     1      13.132  21.084   2.515  1.00  0.00     0.021 A 
ATOM     13  C   UNL     1      13.231  22.227   3.326  1.00  0.00     0.016 A 
ATOM     14  C   UNL     1      13.163  22.115   4.718  1.00  0.00     0.047 A 
ATOM     15  C   UNL     1      12.978  20.863   5.316  1.00  0.00     0.115 A 
ATOM     16  C   UNL     1      12.925  19.831   3.122  1.00  0.00     0.016 A 
ATOM     17  C   UNL     1      12.857  19.724   4.514  1.00  0.00     0.047 A 
BRANCH  15  18
ATOM     18  O   UNL     1      12.909  20.740   6.701  1.00  0.00    -0.508 OA
ATOM     19  H   UNL     1      12.031  20.552   7.173  1.00  0.00     0.293 HD
ENDBRANCH  15  18
ENDBRANCH   1  12
BRANCH   2  20
ATOM     20  O   UNL     1      12.686  18.875   0.694  1.00  0.00    -0.502 OA
ATOM     21  H   UNL     1      11.756  18.476   0.736  1.00  0.00     0.293 HD
ENDBRANCH   2  20
BRANCH   6  22
ATOM     22  O   UNL     1      12.889  21.134  -4.125  1.00  0.00    -0.507 OA
ATOM     23  H   UNL     1      11.939  20.844  -4.304  1.00  0.00     0.293 HD
ENDBRANCH   6  22
BRANCH   8  24
ATOM     24  O   UNL     1      14.400  25.523  -2.960  1.00  0.00    -0.508 OA
ATOM     25  H   UNL     1      14.479  26.295  -2.309  1.00  0.00     0.293 HD
ENDBRANCH   8  24
TORSDOF 5
ENDMDL
