MODEL 1
REMARK VINA RESULT:    -2.102      0.000      0.000
REMARK INTER + INTRA:          -4.600
REMARK INTER:                  -3.822
REMARK INTRA:                  -0.778
REMARK UNBOUND:                -0.778
REMARK SMILES CCCCCCCCCCCCCCCC(=O)[O-]
REMARK SMILES IDX 9 1 10 2 11 3 12 4 13 5 14 6 15 7 16 8 17 9 18 10 8 11 7 12
REMARK SMILES IDX 6 13 5 14 4 15 3 16 2 17 1 18
REMARK H PARENT
REMARK Flexibility Score: inf
ROOT
ATOM      1  C   UNL     1      -5.606  21.041  14.947  1.00  0.00     0.000 C 
ENDROOT
BRANCH   1   2
ATOM      2  C   UNL     1      -5.248  19.881  15.890  1.00  0.00     0.000 C 
BRANCH   2   3
ATOM      3  C   UNL     1      -5.463  20.237  17.371  1.00  0.00     0.000 C 
BRANCH   3   4
ATOM      4  C   UNL     1      -4.250  19.876  18.245  1.00  0.00     0.000 C 
BRANCH   4   5
ATOM      5  C   UNL     1      -2.921  19.934  17.471  1.00  0.00     0.000 C 
BRANCH   5   6
ATOM      6  C   UNL     1      -1.791  20.584  18.285  1.00  0.00     0.006 C 
BRANCH   6   7
ATOM      7  C   UNL     1      -1.016  21.635  17.481  1.00  0.00     0.053 C 
BRANCH   7   8
ATOM      8  C   UNL     1      -0.526  21.050  16.194  1.00  0.00     0.041 C 
ATOM      9  O   UNL     1      -0.823  21.593  15.098  1.00  0.00    -0.550 OA
ATOM     10  O   UNL     1       0.218  19.877  16.202  1.00  0.00    -0.550 OA
ENDBRANCH   7   8
ENDBRANCH   6   7
ENDBRANCH   5   6
ENDBRANCH   4   5
ENDBRANCH   3   4
ENDBRANCH   2   3
ENDBRANCH   1   2
BRANCH   1  11
ATOM     11  C   UNL     1      -7.114  21.349  14.931  1.00  0.00     0.000 C 
BRANCH  11  12
ATOM     12  C   UNL     1      -7.969  20.123  15.290  1.00  0.00    -0.000 C 
BRANCH  12  13
ATOM     13  C   UNL     1      -9.122  20.470  16.249  1.00  0.00    -0.000 C 
BRANCH  13  14
ATOM     14  C   UNL     1      -8.677  21.378  17.407  1.00  0.00    -0.000 C 
BRANCH  14  15
ATOM     15  C   UNL     1      -8.592  20.626  18.746  1.00  0.00    -0.000 C 
BRANCH  15  16
ATOM     16  C   UNL     1      -7.793  21.395  19.814  1.00  0.00    -0.000 C 
BRANCH  16  17
ATOM     17  C   UNL     1      -8.522  21.594  21.155  1.00  0.00    -0.003 C 
ATOM     18  C   UNL     1      -7.938  20.748  22.286  1.00  0.00     0.004 C 
ENDBRANCH  16  17
ENDBRANCH  15  16
ENDBRANCH  14  15
ENDBRANCH  13  14
ENDBRANCH  12  13
ENDBRANCH  11  12
ENDBRANCH   1  11
TORSDOF 14
ENDMDL
MODEL 2
REMARK VINA RESULT:    -1.399      1.653      2.061
REMARK INTER + INTRA:          -3.321
REMARK INTER:                  -2.839
REMARK INTRA:                  -0.482
REMARK UNBOUND:                -0.778
REMARK SMILES CCCCCCCCCCCCCCCC(=O)[O-]
REMARK SMILES IDX 9 1 10 2 11 3 12 4 13 5 14 6 15 7 16 8 17 9 18 10 8 11 7 12
REMARK SMILES IDX 6 13 5 14 4 15 3 16 2 17 1 18
REMARK H PARENT
REMARK Flexibility Score: inf
ROOT
ATOM      1  C   UNL     1      -5.993  21.584  15.015  1.00  0.00     0.000 C 
ENDROOT
BRANCH   1   2
ATOM      2  C   UNL     1      -5.296  20.281  14.590  1.00  0.00     0.000 C 
BRANCH   2   3
ATOM      3  C   UNL     1      -3.947  20.075  15.301  1.00  0.00     0.000 C 
BRANCH   3   4
ATOM      4  C   UNL     1      -3.182  21.393  15.505  1.00  0.00     0.000 C 
BRANCH   4   5
ATOM      5  C   UNL     1      -1.684  21.174  15.780  1.00  0.00     0.000 C 
BRANCH   5   6
ATOM      6  C   UNL     1      -1.409  19.875  16.554  1.00  0.00     0.006 C 
BRANCH   6   7
ATOM      7  C   UNL     1      -2.033  19.882  17.955  1.00  0.00     0.053 C 
BRANCH   7   8
ATOM      8  C   UNL     1      -1.184  20.671  18.901  1.00  0.00     0.041 C 
ATOM      9  O   UNL     1      -0.847  21.851  18.616  1.00  0.00    -0.550 OA
ATOM     10  O   UNL     1      -0.724  20.088  20.075  1.00  0.00    -0.550 OA
ENDBRANCH   7   8
ENDBRANCH   6   7
ENDBRANCH   5   6
ENDBRANCH   4   5
ENDBRANCH   3   4
ENDBRANCH   2   3
ENDBRANCH   1   2
BRANCH   1  11
ATOM     11  C   UNL     1      -7.482  21.379  15.347  1.00  0.00     0.000 C 
BRANCH  11  12
ATOM     12  C   UNL     1      -7.774  19.974  15.897  1.00  0.00    -0.000 C 
BRANCH  12  13
ATOM     13  C   UNL     1      -8.914  19.971  16.931  1.00  0.00    -0.000 C 
BRANCH  13  14
ATOM     14  C   UNL     1      -9.028  21.303  17.691  1.00  0.00    -0.000 C 
BRANCH  14  15
ATOM     15  C   UNL     1      -8.003  21.421  18.832  1.00  0.00    -0.000 C 
BRANCH  15  16
ATOM     16  C   UNL     1      -8.309  22.584  19.793  1.00  0.00    -0.000 C 
BRANCH  16  17
ATOM     17  C   UNL     1      -9.123  22.199  21.042  1.00  0.00    -0.003 C 
ATOM     18  C   UNL     1      -8.818  20.789  21.544  1.00  0.00     0.004 C 
ENDBRANCH  16  17
ENDBRANCH  15  16
ENDBRANCH  14  15
ENDBRANCH  13  14
ENDBRANCH  12  13
ENDBRANCH  11  12
ENDBRANCH   1  11
TORSDOF 14
ENDMDL
MODEL 3
REMARK VINA RESULT:    -1.142      3.164      6.515
REMARK INTER + INTRA:          -2.855
REMARK INTER:                  -1.962
REMARK INTRA:                  -0.893
REMARK UNBOUND:                -0.778
REMARK SMILES CCCCCCCCCCCCCCCC(=O)[O-]
REMARK SMILES IDX 9 1 10 2 11 3 12 4 13 5 14 6 15 7 16 8 17 9 18 10 8 11 7 12
REMARK SMILES IDX 6 13 5 14 4 15 3 16 2 17 1 18
REMARK H PARENT
REMARK Flexibility Score: inf
ROOT
ATOM      1  C   UNL     1      -5.712  21.606  14.902  1.00  0.00     0.000 C 
ENDROOT
BRANCH   1   2
ATOM      2  C   UNL     1      -7.245  21.660  14.788  1.00  0.00     0.000 C 
BRANCH   2   3
ATOM      3  C   UNL     1      -7.912  20.326  15.163  1.00  0.00     0.000 C 
BRANCH   3   4
ATOM      4  C   UNL     1      -8.390  20.298  16.624  1.00  0.00     0.000 C 
BRANCH   4   5
ATOM      5  C   UNL     1      -8.176  21.640  17.346  1.00  0.00     0.000 C 
BRANCH   5   6
ATOM      6  C   UNL     1      -8.866  21.689  18.719  1.00  0.00     0.006 C 
BRANCH   6   7
ATOM      7  C   UNL     1      -7.898  22.053  19.851  1.00  0.00     0.053 C 
BRANCH   7   8
ATOM      8  C   UNL     1      -7.592  20.848  20.684  1.00  0.00     0.041 C 
ATOM      9  O   UNL     1      -8.455  20.394  21.481  1.00  0.00    -0.550 OA
ATOM     10  O   UNL     1      -6.337  20.256  20.617  1.00  0.00    -0.550 OA
ENDBRANCH   7   8
ENDBRANCH   6   7
ENDBRANCH   5   6
ENDBRANCH   4   5
ENDBRANCH   3   4
ENDBRANCH   2   3
ENDBRANCH   1   2
BRANCH   1  11
ATOM     11  C   UNL     1      -5.171  20.166  14.945  1.00  0.00     0.000 C 
BRANCH  11  12
ATOM     12  C   UNL     1      -4.214  19.932  16.124  1.00  0.00    -0.000 C 
BRANCH  12  13
ATOM     13  C   UNL     1      -2.739  19.875  15.684  1.00  0.00    -0.000 C 
BRANCH  13  14
ATOM     14  C   UNL     1      -1.986  21.186  15.965  1.00  0.00    -0.000 C 
BRANCH  14  15
ATOM     15  C   UNL     1      -0.489  20.960  16.234  1.00  0.00    -0.000 C 
BRANCH  15  16
ATOM     16  C   UNL     1      -0.142  20.971  17.734  1.00  0.00    -0.000 C 
BRANCH  16  17
ATOM     17  C   UNL     1      -1.340  20.770  18.680  1.00  0.00    -0.003 C 
ATOM     18  C   UNL     1      -1.013  19.886  19.882  1.00  0.00     0.004 C 
ENDBRANCH  16  17
ENDBRANCH  15  16
ENDBRANCH  14  15
ENDBRANCH  13  14
ENDBRANCH  12  13
ENDBRANCH  11  12
ENDBRANCH   1  11
TORSDOF 14
ENDMDL
MODEL 4
REMARK VINA RESULT:    -0.555     11.715     15.186
REMARK INTER + INTRA:          -1.787
REMARK INTER:                  -2.467
REMARK INTRA:                   0.681
REMARK UNBOUND:                -0.778
REMARK SMILES CCCCCCCCCCCCCCCC(=O)[O-]
REMARK SMILES IDX 9 1 10 2 11 3 12 4 13 5 14 6 15 7 16 8 17 9 18 10 8 11 7 12
REMARK SMILES IDX 6 13 5 14 4 15 3 16 2 17 1 18
REMARK H PARENT
REMARK Flexibility Score: inf
ROOT
ATOM      1  C   UNL     1       7.332  20.637  13.777  1.00  0.00     0.000 C 
ENDROOT
BRANCH   1   2
ATOM      2  C   UNL     1       8.374  20.009  12.836  1.00  0.00     0.000 C 
BRANCH   2   3
ATOM      3  C   UNL     1       9.764  19.896  13.486  1.00  0.00     0.000 C 
BRANCH   3   4
ATOM      4  C   UNL     1      10.904  19.998  12.460  1.00  0.00     0.000 C 
BRANCH   4   5
ATOM      5  C   UNL     1      11.105  21.430  11.935  1.00  0.00     0.000 C 
BRANCH   5   6
ATOM      6  C   UNL     1      10.892  21.538  10.417  1.00  0.00     0.006 C 
BRANCH   6   7
ATOM      7  C   UNL     1      10.714  20.170   9.749  1.00  0.00     0.053 C 
BRANCH   7   8
ATOM      8  C   UNL     1       9.896  20.300   8.502  1.00  0.00     0.041 C 
ATOM      9  O   UNL     1       8.699  20.683   8.567  1.00  0.00    -0.550 OA
ATOM     10  O   UNL     1      10.442  19.951   7.273  1.00  0.00    -0.550 OA
ENDBRANCH   7   8
ENDBRANCH   6   7
ENDBRANCH   5   6
ENDBRANCH   4   5
ENDBRANCH   3   4
ENDBRANCH   2   3
ENDBRANCH   1   2
BRANCH   1  11
ATOM     11  C   UNL     1       5.995  19.875  13.774  1.00  0.00     0.000 C 
BRANCH  11  12
ATOM     12  C   UNL     1       5.072  20.303  14.927  1.00  0.00    -0.000 C 
BRANCH  12  13
ATOM     13  C   UNL     1       5.807  21.140  15.990  1.00  0.00    -0.000 C 
BRANCH  13  14
ATOM     14  C   UNL     1       7.116  20.484  16.459  1.00  0.00    -0.000 C 
BRANCH  14  15
ATOM     15  C   UNL     1       8.340  21.391  16.246  1.00  0.00    -0.000 C 
BRANCH  15  16
ATOM     16  C   UNL     1       8.547  22.395  17.395  1.00  0.00    -0.000 C 
BRANCH  16  17
ATOM     17  C   UNL     1      10.017  22.697  17.738  1.00  0.00    -0.003 C 
ATOM     18  C   UNL     1      10.925  22.731  16.510  1.00  0.00     0.004 C 
ENDBRANCH  16  17
ENDBRANCH  15  16
ENDBRANCH  14  15
ENDBRANCH  13  14
ENDBRANCH  12  13
ENDBRANCH  11  12
ENDBRANCH   1  11
TORSDOF 14
ENDMDL
MODEL 5
REMARK VINA RESULT:    -0.554     12.257     15.497
REMARK INTER + INTRA:          -1.786
REMARK INTER:                  -1.308
REMARK INTRA:                  -0.477
REMARK UNBOUND:                -0.778
REMARK SMILES CCCCCCCCCCCCCCCC(=O)[O-]
REMARK SMILES IDX 9 1 10 2 11 3 12 4 13 5 14 6 15 7 16 8 17 9 18 10 8 11 7 12
REMARK SMILES IDX 6 13 5 14 4 15 3 16 2 17 1 18
REMARK H PARENT
REMARK Flexibility Score: inf
ROOT
ATOM      1  C   UNL     1       7.336  21.037  13.760  1.00  0.00     0.000 C 
ENDROOT
BRANCH   1   2
ATOM      2  C   UNL     1       8.208  20.428  12.650  1.00  0.00     0.000 C 
BRANCH   2   3
ATOM      3  C   UNL     1       9.541  19.875  13.183  1.00  0.00     0.000 C 
BRANCH   3   4
ATOM      4  C   UNL     1      10.760  20.572  12.558  1.00  0.00     0.000 C 
BRANCH   4   5
ATOM      5  C   UNL     1      10.384  21.474  11.369  1.00  0.00     0.000 C 
BRANCH   5   6
ATOM      6  C   UNL     1      11.124  22.821  11.392  1.00  0.00     0.006 C 
BRANCH   6   7
ATOM      7  C   UNL     1      11.111  23.523  10.029  1.00  0.00     0.053 C 
BRANCH   7   8
ATOM      8  C   UNL     1      10.213  24.720  10.066  1.00  0.00     0.041 C 
ATOM      9  O   UNL     1       9.589  25.075   9.032  1.00  0.00    -0.550 OA
ATOM     10  O   UNL     1      10.104  25.472  11.229  1.00  0.00    -0.550 OA
ENDBRANCH   7   8
ENDBRANCH   6   7
ENDBRANCH   5   6
ENDBRANCH   4   5
ENDBRANCH   3   4
ENDBRANCH   2   3
ENDBRANCH   1   2
BRANCH   1  11
ATOM     11  C   UNL     1       6.714  19.971  14.679  1.00  0.00     0.000 C 
BRANCH  11  12
ATOM     12  C   UNL     1       5.791  20.580  15.747  1.00  0.00    -0.000 C 
BRANCH  12  13
ATOM     13  C   UNL     1       6.471  21.714  16.535  1.00  0.00    -0.000 C 
BRANCH  13  14
ATOM     14  C   UNL     1       7.963  21.445  16.793  1.00  0.00    -0.000 C 
BRANCH  14  15
ATOM     15  C   UNL     1       8.610  22.516  17.688  1.00  0.00    -0.000 C 
BRANCH  15  16
ATOM     16  C   UNL     1      10.147  22.514  17.607  1.00  0.00    -0.000 C 
BRANCH  16  17
ATOM     17  C   UNL     1      10.734  23.194  16.357  1.00  0.00    -0.003 C 
ATOM     18  C   UNL     1      11.024  22.212  15.223  1.00  0.00     0.004 C 
ENDBRANCH  16  17
ENDBRANCH  15  16
ENDBRANCH  14  15
ENDBRANCH  13  14
ENDBRANCH  12  13
ENDBRANCH  11  12
ENDBRANCH   1  11
TORSDOF 14
ENDMDL
MODEL 6
REMARK VINA RESULT:    -0.067      4.700      7.149
REMARK INTER + INTRA:          -0.900
REMARK INTER:                  -0.443
REMARK INTRA:                  -0.456
REMARK UNBOUND:                -0.778
REMARK SMILES CCCCCCCCCCCCCCCC(=O)[O-]
REMARK SMILES IDX 9 1 10 2 11 3 12 4 13 5 14 6 15 7 16 8 17 9 18 10 8 11 7 12
REMARK SMILES IDX 6 13 5 14 4 15 3 16 2 17 1 18
REMARK H PARENT
REMARK Flexibility Score: inf
ROOT
ATOM      1  C   UNL     1      -0.081  21.021  16.655  1.00  0.00     0.000 C 
ENDROOT
BRANCH   1   2
ATOM      2  C   UNL     1       0.988  20.253  15.861  1.00  0.00     0.000 C 
BRANCH   2   3
ATOM      3  C   UNL     1       2.327  21.008  15.791  1.00  0.00     0.000 C 
BRANCH   3   4
ATOM      4  C   UNL     1       3.531  20.060  15.673  1.00  0.00     0.000 C 
BRANCH   4   5
ATOM      5  C   UNL     1       4.876  20.808  15.640  1.00  0.00     0.000 C 
BRANCH   5   6
ATOM      6  C   UNL     1       6.076  19.875  15.865  1.00  0.00     0.006 C 
BRANCH   6   7
ATOM      7  C   UNL     1       7.419  20.606  15.747  1.00  0.00     0.053 C 
BRANCH   7   8
ATOM      8  C   UNL     1       8.024  20.373  14.398  1.00  0.00     0.041 C 
ATOM      9  O   UNL     1       9.247  20.603  14.204  1.00  0.00    -0.550 OA
ATOM     10  O   UNL     1       7.227  19.950  13.342  1.00  0.00    -0.550 OA
ENDBRANCH   7   8
ENDBRANCH   6   7
ENDBRANCH   5   6
ENDBRANCH   4   5
ENDBRANCH   3   4
ENDBRANCH   2   3
ENDBRANCH   1   2
BRANCH   1  11
ATOM     11  C   UNL     1      -0.905  20.107  17.579  1.00  0.00     0.000 C 
BRANCH  11  12
ATOM     12  C   UNL     1      -2.419  20.266  17.366  1.00  0.00    -0.000 C 
BRANCH  12  13
ATOM     13  C   UNL     1      -2.780  20.549  15.897  1.00  0.00    -0.000 C 
BRANCH  13  14
ATOM     14  C   UNL     1      -4.153  19.980  15.504  1.00  0.00    -0.000 C 
BRANCH  14  15
ATOM     15  C   UNL     1      -5.135  21.071  15.042  1.00  0.00    -0.000 C 
BRANCH  15  16
ATOM     16  C   UNL     1      -6.472  20.498  14.538  1.00  0.00    -0.000 C 
BRANCH  16  17
ATOM     17  C   UNL     1      -7.721  21.016  15.274  1.00  0.00    -0.003 C 
ATOM     18  C   UNL     1      -7.624  20.870  16.792  1.00  0.00     0.004 C 
ENDBRANCH  16  17
ENDBRANCH  15  16
ENDBRANCH  14  15
ENDBRANCH  13  14
ENDBRANCH  12  13
ENDBRANCH  11  12
ENDBRANCH   1  11
TORSDOF 14
ENDMDL
MODEL 7
REMARK VINA RESULT:    -0.066      3.224      4.646
REMARK INTER + INTRA:          -0.898
REMARK INTER:                  -0.405
REMARK INTRA:                  -0.493
REMARK UNBOUND:                -0.778
REMARK SMILES CCCCCCCCCCCCCCCC(=O)[O-]
REMARK SMILES IDX 9 1 10 2 11 3 12 4 13 5 14 6 15 7 16 8 17 9 18 10 8 11 7 12
REMARK SMILES IDX 6 13 5 14 4 15 3 16 2 17 1 18
REMARK H PARENT
REMARK Flexibility Score: inf
ROOT
ATOM      1  C   UNL     1      -2.472  20.891  15.492  1.00  0.00     0.000 C 
ENDROOT
BRANCH   1   2
ATOM      2  C   UNL     1      -1.631  20.844  16.778  1.00  0.00     0.000 C 
BRANCH   2   3
ATOM      3  C   UNL     1      -0.419  19.905  16.656  1.00  0.00     0.000 C 
BRANCH   3   4
ATOM      4  C   UNL     1       0.732  20.531  15.851  1.00  0.00     0.000 C 
BRANCH   4   5
ATOM      5  C   UNL     1       2.098  19.905  16.181  1.00  0.00     0.000 C 
BRANCH   5   6
ATOM      6  C   UNL     1       3.274  20.725  15.627  1.00  0.00     0.006 C 
BRANCH   6   7
ATOM      7  C   UNL     1       4.530  19.875  15.402  1.00  0.00     0.053 C 
BRANCH   7   8
ATOM      8  C   UNL     1       5.762  20.683  15.666  1.00  0.00     0.041 C 
ATOM      9  O   UNL     1       6.785  20.531  14.948  1.00  0.00    -0.550 OA
ATOM     10  O   UNL     1       5.797  21.567  16.737  1.00  0.00    -0.550 OA
ENDBRANCH   7   8
ENDBRANCH   6   7
ENDBRANCH   5   6
ENDBRANCH   4   5
ENDBRANCH   3   4
ENDBRANCH   2   3
ENDBRANCH   1   2
BRANCH   1  11
ATOM     11  C   UNL     1      -3.707  19.975  15.557  1.00  0.00     0.000 C 
BRANCH  11  12
ATOM     12  C   UNL     1      -4.989  20.740  15.927  1.00  0.00    -0.000 C 
BRANCH  12  13
ATOM     13  C   UNL     1      -5.891  21.002  14.707  1.00  0.00    -0.000 C 
BRANCH  13  14
ATOM     14  C   UNL     1      -7.365  20.657  14.976  1.00  0.00    -0.000 C 
BRANCH  14  15
ATOM     15  C   UNL     1      -7.673  20.514  16.477  1.00  0.00    -0.000 C 
BRANCH  15  16
ATOM     16  C   UNL     1      -8.366  21.756  17.066  1.00  0.00    -0.000 C 
BRANCH  16  17
ATOM     17  C   UNL     1      -8.961  21.564  18.473  1.00  0.00    -0.003 C 
ATOM     18  C   UNL     1      -8.087  22.152  19.579  1.00  0.00     0.004 C 
ENDBRANCH  16  17
ENDBRANCH  15  16
ENDBRANCH  14  15
ENDBRANCH  13  14
ENDBRANCH  12  13
ENDBRANCH  11  12
ENDBRANCH   1  11
TORSDOF 14
ENDMDL
MODEL 8
REMARK VINA RESULT:     0.005      7.596     13.553
REMARK INTER + INTRA:          -0.769
REMARK INTER:                  -0.136
REMARK INTRA:                  -0.632
REMARK UNBOUND:                -0.778
REMARK SMILES CCCCCCCCCCCCCCCC(=O)[O-]
REMARK SMILES IDX 9 1 10 2 11 3 12 4 13 5 14 6 15 7 16 8 17 9 18 10 8 11 7 12
REMARK SMILES IDX 6 13 5 14 4 15 3 16 2 17 1 18
REMARK H PARENT
REMARK Flexibility Score: inf
ROOT
ATOM      1  C   UNL     1       5.774  20.926  14.273  1.00  0.00     0.000 C 
ENDROOT
BRANCH   1   2
ATOM      2  C   UNL     1       5.150  20.963  15.678  1.00  0.00     0.000 C 
BRANCH   2   3
ATOM      3  C   UNL     1       4.030  19.923  15.853  1.00  0.00     0.000 C 
BRANCH   3   4
ATOM      4  C   UNL     1       2.635  20.509  15.575  1.00  0.00     0.000 C 
BRANCH   4   5
ATOM      5  C   UNL     1       1.540  19.875  16.450  1.00  0.00     0.000 C 
BRANCH   5   6
ATOM      6  C   UNL     1       0.131  20.365  16.079  1.00  0.00     0.006 C 
BRANCH   6   7
ATOM      7  C   UNL     1      -0.749  20.611  17.310  1.00  0.00     0.053 C 
BRANCH   7   8
ATOM      8  C   UNL     1      -2.191  20.397  16.972  1.00  0.00     0.041 C 
ATOM      9  O   UNL     1      -2.995  19.994  17.854  1.00  0.00    -0.550 OA
ATOM     10  O   UNL     1      -2.638  20.595  15.672  1.00  0.00    -0.550 OA
ENDBRANCH   7   8
ENDBRANCH   6   7
ENDBRANCH   5   6
ENDBRANCH   4   5
ENDBRANCH   3   4
ENDBRANCH   2   3
ENDBRANCH   1   2
BRANCH   1  11
ATOM     11  C   UNL     1       6.916  19.901  14.157  1.00  0.00     0.000 C 
BRANCH  11  12
ATOM     12  C   UNL     1       8.046  20.162  15.166  1.00  0.00    -0.000 C 
BRANCH  12  13
ATOM     13  C   UNL     1       9.371  20.542  14.480  1.00  0.00    -0.000 C 
BRANCH  13  14
ATOM     14  C   UNL     1       9.162  21.152  13.084  1.00  0.00    -0.000 C 
BRANCH  14  15
ATOM     15  C   UNL     1      10.489  21.520  12.397  1.00  0.00    -0.000 C 
BRANCH  15  16
ATOM     16  C   UNL     1      10.525  21.113  10.912  1.00  0.00    -0.000 C 
BRANCH  16  17
ATOM     17  C   UNL     1       9.461  20.082  10.493  1.00  0.00    -0.003 C 
ATOM     18  C   UNL     1       9.032  20.223   9.034  1.00  0.00     0.004 C 
ENDBRANCH  16  17
ENDBRANCH  15  16
ENDBRANCH  14  15
ENDBRANCH  13  14
ENDBRANCH  12  13
ENDBRANCH  11  12
ENDBRANCH   1  11
TORSDOF 14
ENDMDL
