MODEL 1
REMARK VINA RESULT:    -4.878      0.000      0.000
REMARK INTER + INTRA:         -10.494
REMARK INTER:                  -9.441
REMARK INTRA:                  -1.053
REMARK UNBOUND:                -1.053
REMARK SMILES CCCCCCCCCCCCCCCCCC(=O)[O-]
REMARK SMILES IDX 10 1 11 2 12 3 13 4 14 5 15 6 16 7 17 8 18 9 19 10 20 11
REMARK SMILES IDX 9 12 8 13 7 14 6 15 5 16 4 17 3 18 2 19 1 20
REMARK H PARENT
REMARK Flexibility Score: inf
ROOT
ATOM      1  C   UNL     1      -2.189   0.171   5.084  1.00  0.00     0.000 C 
ENDROOT
BRANCH   1   2
ATOM      2  C   UNL     1      -3.203  -0.280   6.155  1.00  0.00     0.000 C 
BRANCH   2   3
ATOM      3  C   UNL     1      -3.897  -1.627   5.870  1.00  0.00     0.000 C 
BRANCH   3   4
ATOM      4  C   UNL     1      -4.301  -1.856   4.399  1.00  0.00     0.000 C 
BRANCH   4   5
ATOM      5  C   UNL     1      -4.837  -3.264   4.087  1.00  0.00     0.000 C 
BRANCH   5   6
ATOM      6  C   UNL     1      -5.411  -3.382   2.665  1.00  0.00     0.000 C 
BRANCH   6   7
ATOM      7  C   UNL     1      -5.310  -4.810   2.095  1.00  0.00     0.006 C 
BRANCH   7   8
ATOM      8  C   UNL     1      -4.584  -4.886   0.740  1.00  0.00     0.053 C 
BRANCH   8   9
ATOM      9  C   UNL     1      -5.502  -4.657  -0.420  1.00  0.00     0.041 C 
ATOM     10  O   UNL     1      -6.012  -3.521  -0.611  1.00  0.00    -0.550 OA
ATOM     11  O   UNL     1      -5.790  -5.696  -1.296  1.00  0.00    -0.550 OA
ENDBRANCH   8   9
ENDBRANCH   7   8
ENDBRANCH   6   7
ENDBRANCH   5   6
ENDBRANCH   4   5
ENDBRANCH   3   4
ENDBRANCH   2   3
ENDBRANCH   1   2
BRANCH   1  12
ATOM     12  C   UNL     1      -0.711   0.036   5.495  1.00  0.00     0.000 C 
BRANCH  12  13
ATOM     13  C   UNL     1      -0.476   0.348   6.982  1.00  0.00    -0.000 C 
BRANCH  13  14
ATOM     14  C   UNL     1       0.205  -0.812   7.726  1.00  0.00    -0.000 C 
BRANCH  14  15
ATOM     15  C   UNL     1       1.046  -1.698   6.790  1.00  0.00    -0.000 C 
BRANCH  15  16
ATOM     16  C   UNL     1       2.538  -1.329   6.815  1.00  0.00    -0.000 C 
BRANCH  16  17
ATOM     17  C   UNL     1       3.144  -1.233   5.404  1.00  0.00    -0.000 C 
BRANCH  17  18
ATOM     18  C   UNL     1       2.157  -1.656   4.301  1.00  0.00    -0.000 C 
BRANCH  18  19
ATOM     19  C   UNL     1       2.814  -2.050   2.965  1.00  0.00    -0.003 C 
ATOM     20  C   UNL     1       4.228  -1.493   2.808  1.00  0.00     0.004 C 
ENDBRANCH  18  19
ENDBRANCH  17  18
ENDBRANCH  16  17
ENDBRANCH  15  16
ENDBRANCH  14  15
ENDBRANCH  13  14
ENDBRANCH  12  13
ENDBRANCH   1  12
TORSDOF 16
ENDMDL
MODEL 2
REMARK VINA RESULT:    -4.797      1.245      2.623
REMARK INTER + INTRA:         -10.336
REMARK INTER:                  -9.013
REMARK INTRA:                  -1.323
REMARK UNBOUND:                -1.053
REMARK SMILES CCCCCCCCCCCCCCCCCC(=O)[O-]
REMARK SMILES IDX 10 1 11 2 12 3 13 4 14 5 15 6 16 7 17 8 18 9 19 10 20 11
REMARK SMILES IDX 9 12 8 13 7 14 6 15 5 16 4 17 3 18 2 19 1 20
REMARK H PARENT
REMARK Flexibility Score: inf
ROOT
ATOM      1  C   UNL     1      -0.422   0.397   7.136  1.00  0.00     0.000 C 
ENDROOT
BRANCH   1   2
ATOM      2  C   UNL     1      -1.095   0.980   5.876  1.00  0.00     0.000 C 
BRANCH   2   3
ATOM      3  C   UNL     1      -1.876  -0.040   5.023  1.00  0.00     0.000 C 
BRANCH   3   4
ATOM      4  C   UNL     1      -3.313  -0.327   5.502  1.00  0.00     0.000 C 
BRANCH   4   5
ATOM      5  C   UNL     1      -3.813  -1.757   5.228  1.00  0.00     0.000 C 
BRANCH   5   6
ATOM      6  C   UNL     1      -4.992  -1.798   4.242  1.00  0.00     0.000 C 
BRANCH   6   7
ATOM      7  C   UNL     1      -5.197  -3.189   3.610  1.00  0.00     0.006 C 
BRANCH   7   8
ATOM      8  C   UNL     1      -5.694  -3.141   2.155  1.00  0.00     0.053 C 
BRANCH   8   9
ATOM      9  C   UNL     1      -5.054  -4.184   1.292  1.00  0.00     0.041 C 
ATOM     10  O   UNL     1      -5.105  -5.398   1.620  1.00  0.00    -0.550 OA
ATOM     11  O   UNL     1      -4.405  -3.815   0.120  1.00  0.00    -0.550 OA
ENDBRANCH   8   9
ENDBRANCH   7   8
ENDBRANCH   6   7
ENDBRANCH   5   6
ENDBRANCH   4   5
ENDBRANCH   3   4
ENDBRANCH   2   3
ENDBRANCH   1   2
BRANCH   1  12
ATOM     12  C   UNL     1      -0.019  -1.086   7.027  1.00  0.00     0.000 C 
BRANCH  12  13
ATOM     13  C   UNL     1       1.504  -1.294   7.081  1.00  0.00    -0.000 C 
BRANCH  13  14
ATOM     14  C   UNL     1       2.043  -2.012   5.833  1.00  0.00    -0.000 C 
BRANCH  14  15
ATOM     15  C   UNL     1       1.702  -1.266   4.531  1.00  0.00    -0.000 C 
BRANCH  15  16
ATOM     16  C   UNL     1       2.215  -1.999   3.282  1.00  0.00    -0.000 C 
BRANCH  16  17
ATOM     17  C   UNL     1       3.744  -2.171   3.286  1.00  0.00    -0.000 C 
BRANCH  17  18
ATOM     18  C   UNL     1       4.488  -0.899   2.841  1.00  0.00    -0.000 C 
BRANCH  18  19
ATOM     19  C   UNL     1       5.659  -0.487   3.752  1.00  0.00    -0.003 C 
ATOM     20  C   UNL     1       5.254  -0.344   5.218  1.00  0.00     0.004 C 
ENDBRANCH  18  19
ENDBRANCH  17  18
ENDBRANCH  16  17
ENDBRANCH  15  16
ENDBRANCH  14  15
ENDBRANCH  13  14
ENDBRANCH  12  13
ENDBRANCH   1  12
TORSDOF 16
ENDMDL
MODEL 3
REMARK VINA RESULT:    -4.778      1.237      2.727
REMARK INTER + INTRA:         -10.300
REMARK INTER:                  -9.197
REMARK INTRA:                  -1.103
REMARK UNBOUND:                -1.053
REMARK SMILES CCCCCCCCCCCCCCCCCC(=O)[O-]
REMARK SMILES IDX 10 1 11 2 12 3 13 4 14 5 15 6 16 7 17 8 18 9 19 10 20 11
REMARK SMILES IDX 9 12 8 13 7 14 6 15 5 16 4 17 3 18 2 19 1 20
REMARK H PARENT
REMARK Flexibility Score: inf
ROOT
ATOM      1  C   UNL     1      -4.116  -2.191   5.307  1.00  0.00     0.000 C 
ENDROOT
BRANCH   1   2
ATOM      2  C   UNL     1      -5.271  -2.367   4.301  1.00  0.00     0.000 C 
BRANCH   2   3
ATOM      3  C   UNL     1      -4.865  -2.270   2.817  1.00  0.00     0.000 C 
BRANCH   3   4
ATOM      4  C   UNL     1      -6.028  -2.384   1.811  1.00  0.00     0.000 C 
BRANCH   4   5
ATOM      5  C   UNL     1      -6.445  -3.824   1.464  1.00  0.00     0.000 C 
BRANCH   5   6
ATOM      6  C   UNL     1      -5.255  -4.799   1.436  1.00  0.00     0.000 C 
BRANCH   6   7
ATOM      7  C   UNL     1      -4.874  -5.238   0.008  1.00  0.00     0.006 C 
BRANCH   7   8
ATOM      8  C   UNL     1      -5.846  -4.736  -1.074  1.00  0.00     0.053 C 
BRANCH   8   9
ATOM      9  C   UNL     1      -6.129  -5.770  -2.119  1.00  0.00     0.041 C 
ATOM     10  O   UNL     1      -5.188  -6.267  -2.792  1.00  0.00    -0.550 OA
ATOM     11  O   UNL     1      -7.434  -6.190  -2.346  1.00  0.00    -0.550 OA
ENDBRANCH   8   9
ENDBRANCH   7   8
ENDBRANCH   6   7
ENDBRANCH   5   6
ENDBRANCH   4   5
ENDBRANCH   3   4
ENDBRANCH   2   3
ENDBRANCH   1   2
BRANCH   1  12
ATOM     12  C   UNL     1      -4.175  -0.897   6.140  1.00  0.00     0.000 C 
BRANCH  12  13
ATOM     13  C   UNL     1      -2.789  -0.274   6.372  1.00  0.00    -0.000 C 
BRANCH  13  14
ATOM     14  C   UNL     1      -2.060   0.045   5.056  1.00  0.00    -0.000 C 
BRANCH  14  15
ATOM     15  C   UNL     1      -0.530  -0.035   5.197  1.00  0.00    -0.000 C 
BRANCH  15  16
ATOM     16  C   UNL     1      -0.088  -0.390   6.625  1.00  0.00    -0.000 C 
BRANCH  16  17
ATOM     17  C   UNL     1       1.018  -1.458   6.651  1.00  0.00    -0.000 C 
BRANCH  17  18
ATOM     18  C   UNL     1       2.102  -1.221   5.585  1.00  0.00    -0.000 C 
BRANCH  18  19
ATOM     19  C   UNL     1       2.271  -2.369   4.572  1.00  0.00    -0.003 C 
ATOM     20  C   UNL     1       2.510  -1.878   3.146  1.00  0.00     0.004 C 
ENDBRANCH  18  19
ENDBRANCH  17  18
ENDBRANCH  16  17
ENDBRANCH  15  16
ENDBRANCH  14  15
ENDBRANCH  13  14
ENDBRANCH  12  13
ENDBRANCH   1  12
TORSDOF 16
ENDMDL
MODEL 4
REMARK VINA RESULT:    -4.708      3.811      8.254
REMARK INTER + INTRA:         -10.164
REMARK INTER:                  -9.324
REMARK INTRA:                  -0.840
REMARK UNBOUND:                -1.053
REMARK SMILES CCCCCCCCCCCCCCCCCC(=O)[O-]
REMARK SMILES IDX 10 1 11 2 12 3 13 4 14 5 15 6 16 7 17 8 18 9 19 10 20 11
REMARK SMILES IDX 9 12 8 13 7 14 6 15 5 16 4 17 3 18 2 19 1 20
REMARK H PARENT
REMARK Flexibility Score: inf
ROOT
ATOM      1  C   UNL     1      -3.139  -0.286   5.793  1.00  0.00     0.000 C 
ENDROOT
BRANCH   1   2
ATOM      2  C   UNL     1      -2.115   0.811   5.435  1.00  0.00     0.000 C 
BRANCH   2   3
ATOM      3  C   UNL     1      -0.737   0.662   6.109  1.00  0.00     0.000 C 
BRANCH   3   4
ATOM      4  C   UNL     1      -0.469  -0.714   6.751  1.00  0.00     0.000 C 
BRANCH   4   5
ATOM      5  C   UNL     1       0.931  -1.294   6.477  1.00  0.00     0.000 C 
BRANCH   5   6
ATOM      6  C   UNL     1       1.385  -1.093   5.021  1.00  0.00     0.000 C 
BRANCH   6   7
ATOM      7  C   UNL     1       2.588  -1.979   4.642  1.00  0.00     0.006 C 
BRANCH   7   8
ATOM      8  C   UNL     1       2.912  -1.972   3.137  1.00  0.00     0.053 C 
BRANCH   8   9
ATOM      9  C   UNL     1       4.346  -2.297   2.855  1.00  0.00     0.041 C 
ATOM     10  O   UNL     1       5.001  -1.612   2.026  1.00  0.00    -0.550 OA
ATOM     11  O   UNL     1       4.962  -3.354   3.513  1.00  0.00    -0.550 OA
ENDBRANCH   8   9
ENDBRANCH   7   8
ENDBRANCH   6   7
ENDBRANCH   5   6
ENDBRANCH   4   5
ENDBRANCH   3   4
ENDBRANCH   2   3
ENDBRANCH   1   2
BRANCH   1  12
ATOM     12  C   UNL     1      -3.560  -1.187   4.618  1.00  0.00     0.000 C 
BRANCH  12  13
ATOM     13  C   UNL     1      -4.521  -2.310   5.043  1.00  0.00    -0.000 C 
BRANCH  13  14
ATOM     14  C   UNL     1      -4.918  -3.219   3.870  1.00  0.00    -0.000 C 
BRANCH  14  15
ATOM     15  C   UNL     1      -5.389  -2.422   2.640  1.00  0.00    -0.000 C 
BRANCH  15  16
ATOM     16  C   UNL     1      -4.927  -3.053   1.318  1.00  0.00    -0.000 C 
BRANCH  16  17
ATOM     17  C   UNL     1      -4.922  -4.591   1.369  1.00  0.00    -0.000 C 
BRANCH  17  18
ATOM     18  C   UNL     1      -5.149  -5.234  -0.011  1.00  0.00    -0.000 C 
BRANCH  18  19
ATOM     19  C   UNL     1      -6.622  -5.532  -0.347  1.00  0.00    -0.003 C 
ATOM     20  C   UNL     1      -6.875  -5.685  -1.845  1.00  0.00     0.004 C 
ENDBRANCH  18  19
ENDBRANCH  17  18
ENDBRANCH  16  17
ENDBRANCH  15  16
ENDBRANCH  14  15
ENDBRANCH  13  14
ENDBRANCH  12  13
ENDBRANCH   1  12
TORSDOF 16
ENDMDL
MODEL 5
REMARK VINA RESULT:    -4.669      1.922      2.952
REMARK INTER + INTRA:         -10.089
REMARK INTER:                  -8.815
REMARK INTRA:                  -1.274
REMARK UNBOUND:                -1.053
REMARK SMILES CCCCCCCCCCCCCCCCCC(=O)[O-]
REMARK SMILES IDX 10 1 11 2 12 3 13 4 14 5 15 6 16 7 17 8 18 9 19 10 20 11
REMARK SMILES IDX 9 12 8 13 7 14 6 15 5 16 4 17 3 18 2 19 1 20
REMARK H PARENT
REMARK Flexibility Score: inf
ROOT
ATOM      1  C   UNL     1      -5.432  -0.747   5.457  1.00  0.00     0.000 C 
ENDROOT
BRANCH   1   2
ATOM      2  C   UNL     1      -5.063  -2.232   5.264  1.00  0.00     0.000 C 
BRANCH   2   3
ATOM      3  C   UNL     1      -4.465  -2.582   3.887  1.00  0.00     0.000 C 
BRANCH   3   4
ATOM      4  C   UNL     1      -4.970  -1.715   2.716  1.00  0.00     0.000 C 
BRANCH   4   5
ATOM      5  C   UNL     1      -5.596  -2.503   1.551  1.00  0.00     0.000 C 
BRANCH   5   6
ATOM      6  C   UNL     1      -4.644  -3.562   0.968  1.00  0.00     0.000 C 
BRANCH   6   7
ATOM      7  C   UNL     1      -5.252  -4.979   0.971  1.00  0.00     0.006 C 
BRANCH   7   8
ATOM      8  C   UNL     1      -6.600  -5.073   1.706  1.00  0.00     0.053 C 
BRANCH   8   9
ATOM      9  C   UNL     1      -6.450  -5.499   3.133  1.00  0.00     0.041 C 
ATOM     10  O   UNL     1      -5.390  -6.058   3.521  1.00  0.00    -0.550 OA
ATOM     11  O   UNL     1      -7.479  -5.273   4.039  1.00  0.00    -0.550 OA
ENDBRANCH   8   9
ENDBRANCH   7   8
ENDBRANCH   6   7
ENDBRANCH   5   6
ENDBRANCH   4   5
ENDBRANCH   3   4
ENDBRANCH   2   3
ENDBRANCH   1   2
BRANCH   1  12
ATOM     12  C   UNL     1      -4.487   0.039   6.385  1.00  0.00     0.000 C 
BRANCH  12  13
ATOM     13  C   UNL     1      -3.026  -0.431   6.283  1.00  0.00    -0.000 C 
BRANCH  13  14
ATOM     14  C   UNL     1      -2.157   0.527   5.453  1.00  0.00    -0.000 C 
BRANCH  14  15
ATOM     15  C   UNL     1      -0.743  -0.027   5.205  1.00  0.00    -0.000 C 
BRANCH  15  16
ATOM     16  C   UNL     1      -0.019  -0.398   6.509  1.00  0.00    -0.000 C 
BRANCH  16  17
ATOM     17  C   UNL     1       1.281  -1.181   6.258  1.00  0.00    -0.000 C 
BRANCH  17  18
ATOM     18  C   UNL     1       1.582  -1.374   4.760  1.00  0.00    -0.000 C 
BRANCH  18  19
ATOM     19  C   UNL     1       3.072  -1.571   4.424  1.00  0.00    -0.003 C 
ATOM     20  C   UNL     1       3.417  -1.185   2.987  1.00  0.00     0.004 C 
ENDBRANCH  18  19
ENDBRANCH  17  18
ENDBRANCH  16  17
ENDBRANCH  15  16
ENDBRANCH  14  15
ENDBRANCH  13  14
ENDBRANCH  12  13
ENDBRANCH   1  12
TORSDOF 16
ENDMDL
MODEL 6
REMARK VINA RESULT:    -4.664      4.097      8.912
REMARK INTER + INTRA:         -10.078
REMARK INTER:                  -7.730
REMARK INTRA:                  -2.348
REMARK UNBOUND:                -1.053
REMARK SMILES CCCCCCCCCCCCCCCCCC(=O)[O-]
REMARK SMILES IDX 10 1 11 2 12 3 13 4 14 5 15 6 16 7 17 8 18 9 19 10 20 11
REMARK SMILES IDX 9 12 8 13 7 14 6 15 5 16 4 17 3 18 2 19 1 20
REMARK H PARENT
REMARK Flexibility Score: inf
ROOT
ATOM      1  C   UNL     1      -5.688  -2.725   0.257  1.00  0.00     0.000 C 
ENDROOT
BRANCH   1   2
ATOM      2  C   UNL     1      -5.629  -1.674   1.385  1.00  0.00     0.000 C 
BRANCH   2   3
ATOM      3  C   UNL     1      -4.658  -2.005   2.535  1.00  0.00     0.000 C 
BRANCH   3   4
ATOM      4  C   UNL     1      -5.171  -1.652   3.946  1.00  0.00     0.000 C 
BRANCH   4   5
ATOM      5  C   UNL     1      -4.236  -2.064   5.097  1.00  0.00     0.000 C 
BRANCH   5   6
ATOM      6  C   UNL     1      -4.508  -1.284   6.395  1.00  0.00     0.000 C 
BRANCH   6   7
ATOM      7  C   UNL     1      -3.546  -0.096   6.593  1.00  0.00     0.006 C 
BRANCH   7   8
ATOM      8  C   UNL     1      -2.059  -0.489   6.537  1.00  0.00     0.053 C 
BRANCH   8   9
ATOM      9  C   UNL     1      -1.309   0.245   5.469  1.00  0.00     0.041 C 
ATOM     10  O   UNL     1      -1.793   1.287   4.954  1.00  0.00    -0.550 OA
ATOM     11  O   UNL     1      -0.069  -0.220   5.046  1.00  0.00    -0.550 OA
ENDBRANCH   8   9
ENDBRANCH   7   8
ENDBRANCH   6   7
ENDBRANCH   5   6
ENDBRANCH   4   5
ENDBRANCH   3   4
ENDBRANCH   2   3
ENDBRANCH   1   2
BRANCH   1  12
ATOM     12  C   UNL     1      -4.790  -3.957   0.475  1.00  0.00     0.000 C 
BRANCH  12  13
ATOM     13  C   UNL     1      -5.346  -5.224  -0.198  1.00  0.00    -0.000 C 
BRANCH  13  14
ATOM     14  C   UNL     1      -6.750  -5.010  -0.784  1.00  0.00    -0.000 C 
BRANCH  14  15
ATOM     15  C   UNL     1      -7.851  -5.657   0.075  1.00  0.00    -0.000 C 
BRANCH  15  16
ATOM     16  C   UNL     1      -8.842  -4.625   0.636  1.00  0.00    -0.000 C 
BRANCH  16  17
ATOM     17  C   UNL     1      -9.006  -4.733   2.161  1.00  0.00    -0.000 C 
BRANCH  17  18
ATOM     18  C   UNL     1      -7.726  -4.351   2.927  1.00  0.00    -0.000 C 
BRANCH  18  19
ATOM     19  C   UNL     1      -7.124  -5.483   3.780  1.00  0.00    -0.003 C 
ATOM     20  C   UNL     1      -5.598  -5.524   3.729  1.00  0.00     0.004 C 
ENDBRANCH  18  19
ENDBRANCH  17  18
ENDBRANCH  16  17
ENDBRANCH  15  16
ENDBRANCH  14  15
ENDBRANCH  13  14
ENDBRANCH  12  13
ENDBRANCH   1  12
TORSDOF 16
ENDMDL
MODEL 7
REMARK VINA RESULT:    -4.653      2.045      4.658
REMARK INTER + INTRA:         -10.058
REMARK INTER:                  -9.099
REMARK INTRA:                  -0.959
REMARK UNBOUND:                -1.053
REMARK SMILES CCCCCCCCCCCCCCCCCC(=O)[O-]
REMARK SMILES IDX 10 1 11 2 12 3 13 4 14 5 15 6 16 7 17 8 18 9 19 10 20 11
REMARK SMILES IDX 9 12 8 13 7 14 6 15 5 16 4 17 3 18 2 19 1 20
REMARK H PARENT
REMARK Flexibility Score: inf
ROOT
ATOM      1  C   UNL     1      -5.215  -3.925   3.667  1.00  0.00     0.000 C 
ENDROOT
BRANCH   1   2
ATOM      2  C   UNL     1      -4.987  -2.805   2.632  1.00  0.00     0.000 C 
BRANCH   2   3
ATOM      3  C   UNL     1      -4.887  -3.279   1.169  1.00  0.00     0.000 C 
BRANCH   3   4
ATOM      4  C   UNL     1      -4.836  -4.808   0.980  1.00  0.00     0.000 C 
BRANCH   4   5
ATOM      5  C   UNL     1      -5.064  -5.289  -0.465  1.00  0.00     0.000 C 
BRANCH   5   6
ATOM      6  C   UNL     1      -6.464  -4.938  -0.996  1.00  0.00     0.000 C 
BRANCH   6   7
ATOM      7  C   UNL     1      -6.934  -5.887  -2.117  1.00  0.00     0.006 C 
BRANCH   7   8
ATOM      8  C   UNL     1      -5.794  -6.394  -3.017  1.00  0.00     0.053 C 
BRANCH   8   9
ATOM      9  C   UNL     1      -6.147  -6.359  -4.471  1.00  0.00     0.041 C 
ATOM     10  O   UNL     1      -5.241  -6.307  -5.344  1.00  0.00    -0.550 OA
ATOM     11  O   UNL     1      -7.479  -6.390  -4.864  1.00  0.00    -0.550 OA
ENDBRANCH   8   9
ENDBRANCH   7   8
ENDBRANCH   6   7
ENDBRANCH   5   6
ENDBRANCH   4   5
ENDBRANCH   3   4
ENDBRANCH   2   3
ENDBRANCH   1   2
BRANCH   1  12
ATOM     12  C   UNL     1      -4.838  -3.556   5.114  1.00  0.00     0.000 C 
BRANCH  12  13
ATOM     13  C   UNL     1      -4.313  -2.116   5.243  1.00  0.00    -0.000 C 
BRANCH  13  14
ATOM     14  C   UNL     1      -3.727  -1.827   6.634  1.00  0.00    -0.000 C 
BRANCH  14  15
ATOM     15  C   UNL     1      -3.019  -0.462   6.702  1.00  0.00    -0.000 C 
BRANCH  15  16
ATOM     16  C   UNL     1      -2.616   0.061   5.314  1.00  0.00    -0.000 C 
BRANCH  16  17
ATOM     17  C   UNL     1      -1.090   0.094   5.118  1.00  0.00    -0.000 C 
BRANCH  17  18
ATOM     18  C   UNL     1      -0.321   0.242   6.443  1.00  0.00    -0.000 C 
BRANCH  18  19
ATOM     19  C   UNL     1       0.638  -0.920   6.764  1.00  0.00    -0.003 C 
ATOM     20  C   UNL     1       1.585  -1.248   5.611  1.00  0.00     0.004 C 
ENDBRANCH  18  19
ENDBRANCH  17  18
ENDBRANCH  16  17
ENDBRANCH  15  16
ENDBRANCH  14  15
ENDBRANCH  13  14
ENDBRANCH  12  13
ENDBRANCH   1  12
TORSDOF 16
ENDMDL
MODEL 8
REMARK VINA RESULT:    -4.608      4.065      8.570
REMARK INTER + INTRA:          -9.971
REMARK INTER:                  -7.902
REMARK INTRA:                  -2.069
REMARK UNBOUND:                -1.053
REMARK SMILES CCCCCCCCCCCCCCCCCC(=O)[O-]
REMARK SMILES IDX 10 1 11 2 12 3 13 4 14 5 15 6 16 7 17 8 18 9 19 10 20 11
REMARK SMILES IDX 9 12 8 13 7 14 6 15 5 16 4 17 3 18 2 19 1 20
REMARK H PARENT
REMARK Flexibility Score: inf
ROOT
ATOM      1  C   UNL     1      -7.366  -3.153   3.887  1.00  0.00     0.000 C 
ENDROOT
BRANCH   1   2
ATOM      2  C   UNL     1      -6.310  -4.237   4.184  1.00  0.00     0.000 C 
BRANCH   2   3
ATOM      3  C   UNL     1      -4.872  -3.714   4.371  1.00  0.00     0.000 C 
BRANCH   3   4
ATOM      4  C   UNL     1      -4.763  -2.219   4.735  1.00  0.00     0.000 C 
BRANCH   4   5
ATOM      5  C   UNL     1      -4.021  -1.927   6.052  1.00  0.00     0.000 C 
BRANCH   5   6
ATOM      6  C   UNL     1      -3.468  -0.493   6.119  1.00  0.00     0.000 C 
BRANCH   6   7
ATOM      7  C   UNL     1      -2.406  -0.210   5.038  1.00  0.00     0.006 C 
BRANCH   7   8
ATOM      8  C   UNL     1      -1.285   0.735   5.505  1.00  0.00     0.053 C 
BRANCH   8   9
ATOM      9  C   UNL     1      -0.323   0.071   6.439  1.00  0.00     0.041 C 
ATOM     10  O   UNL     1       0.526  -0.748   6.000  1.00  0.00    -0.550 OA
ATOM     11  O   UNL     1      -0.359   0.363   7.797  1.00  0.00    -0.550 OA
ENDBRANCH   8   9
ENDBRANCH   7   8
ENDBRANCH   6   7
ENDBRANCH   5   6
ENDBRANCH   4   5
ENDBRANCH   3   4
ENDBRANCH   2   3
ENDBRANCH   1   2
BRANCH   1  12
ATOM     12  C   UNL     1      -7.657  -2.926   2.392  1.00  0.00     0.000 C 
BRANCH  12  13
ATOM     13  C   UNL     1      -7.211  -1.537   1.903  1.00  0.00    -0.000 C 
BRANCH  13  14
ATOM     14  C   UNL     1      -5.757  -1.528   1.406  1.00  0.00    -0.000 C 
BRANCH  14  15
ATOM     15  C   UNL     1      -5.515  -2.544   0.275  1.00  0.00    -0.000 C 
BRANCH  15  16
ATOM     16  C   UNL     1      -4.574  -3.683   0.699  1.00  0.00    -0.000 C 
BRANCH  16  17
ATOM     17  C   UNL     1      -5.236  -5.067   0.582  1.00  0.00    -0.000 C 
BRANCH  17  18
ATOM     18  C   UNL     1      -5.848  -5.319  -0.807  1.00  0.00    -0.000 C 
BRANCH  18  19
ATOM     19  C   UNL     1      -7.326  -5.752  -0.790  1.00  0.00    -0.003 C 
ATOM     20  C   UNL     1      -8.296  -4.573  -0.851  1.00  0.00     0.004 C 
ENDBRANCH  18  19
ENDBRANCH  17  18
ENDBRANCH  16  17
ENDBRANCH  15  16
ENDBRANCH  14  15
ENDBRANCH  13  14
ENDBRANCH  12  13
ENDBRANCH   1  12
TORSDOF 16
ENDMDL
MODEL 9
REMARK VINA RESULT:    -4.597      5.079      8.187
REMARK INTER + INTRA:          -9.949
REMARK INTER:                  -7.303
REMARK INTRA:                  -2.646
REMARK UNBOUND:                -1.053
REMARK SMILES CCCCCCCCCCCCCCCCCC(=O)[O-]
REMARK SMILES IDX 10 1 11 2 12 3 13 4 14 5 15 6 16 7 17 8 18 9 19 10 20 11
REMARK SMILES IDX 9 12 8 13 7 14 6 15 5 16 4 17 3 18 2 19 1 20
REMARK H PARENT
REMARK Flexibility Score: inf
ROOT
ATOM      1  C   UNL     1      -6.221  -1.196   1.089  1.00  0.00     0.000 C 
ENDROOT
BRANCH   1   2
ATOM      2  C   UNL     1      -6.107  -1.573   2.580  1.00  0.00     0.000 C 
BRANCH   2   3
ATOM      3  C   UNL     1      -4.712  -2.054   3.027  1.00  0.00     0.000 C 
BRANCH   3   4
ATOM      4  C   UNL     1      -4.329  -1.693   4.476  1.00  0.00     0.000 C 
BRANCH   4   5
ATOM      5  C   UNL     1      -4.512  -2.830   5.497  1.00  0.00     0.000 C 
BRANCH   5   6
ATOM      6  C   UNL     1      -4.848  -4.177   4.834  1.00  0.00     0.000 C 
BRANCH   6   7
ATOM      7  C   UNL     1      -5.236  -5.266   5.854  1.00  0.00     0.006 C 
BRANCH   7   8
ATOM      8  C   UNL     1      -5.760  -6.561   5.208  1.00  0.00     0.053 C 
BRANCH   8   9
ATOM      9  C   UNL     1      -4.913  -7.752   5.534  1.00  0.00     0.041 C 
ATOM     10  O   UNL     1      -4.938  -8.770   4.794  1.00  0.00    -0.550 OA
ATOM     11  O   UNL     1      -4.091  -7.735   6.654  1.00  0.00    -0.550 OA
ENDBRANCH   8   9
ENDBRANCH   7   8
ENDBRANCH   6   7
ENDBRANCH   5   6
ENDBRANCH   4   5
ENDBRANCH   3   4
ENDBRANCH   2   3
ENDBRANCH   1   2
BRANCH   1  12
ATOM     12  C   UNL     1      -7.571  -1.543   0.435  1.00  0.00     0.000 C 
BRANCH  12  13
ATOM     13  C   UNL     1      -7.411  -2.185  -0.953  1.00  0.00    -0.000 C 
BRANCH  13  14
ATOM     14  C   UNL     1      -6.044  -2.864  -1.133  1.00  0.00    -0.000 C 
BRANCH  14  15
ATOM     15  C   UNL     1      -6.156  -4.241  -1.811  1.00  0.00    -0.000 C 
BRANCH  15  16
ATOM     16  C   UNL     1      -5.739  -5.391  -0.879  1.00  0.00    -0.000 C 
BRANCH  16  17
ATOM     17  C   UNL     1      -5.028  -4.891   0.390  1.00  0.00    -0.000 C 
BRANCH  17  18
ATOM     18  C   UNL     1      -5.805  -5.221   1.678  1.00  0.00    -0.000 C 
BRANCH  18  19
ATOM     19  C   UNL     1      -7.337  -5.165   1.538  1.00  0.00    -0.003 C 
ATOM     20  C   UNL     1      -8.038  -4.709   2.816  1.00  0.00     0.004 C 
ENDBRANCH  18  19
ENDBRANCH  17  18
ENDBRANCH  16  17
ENDBRANCH  15  16
ENDBRANCH  14  15
ENDBRANCH  13  14
ENDBRANCH  12  13
ENDBRANCH   1  12
TORSDOF 16
ENDMDL
