MODEL 1
REMARK VINA RESULT:    55.492      0.000      0.000
REMARK INTER + INTRA:          73.675
REMARK INTER:                  73.335
REMARK INTRA:                   0.340
REMARK UNBOUND:                 0.340
REMARK SMILES CC[C@H](C=C[C@@H](C)[C@H]1CC[C@H]2C3=CC[C@H]4C[C@H](O)CC[C@@]4(C)[C@H]3CC[C@@]12C)C(C)C
REMARK SMILES IDX 6 1 7 2 5 3 4 4 3 5 2 6 1 7 28 8 29 9 30 10 8 11 9 12 26 13
REMARK SMILES IDX 10 14 11 15 25 16 27 17 12 18 24 19 23 20 13 21 21 22 14 23
REMARK SMILES IDX 15 24 20 25 22 26 16 27 19 28 17 29 18 30
REMARK H PARENT 18 31
REMARK Flexibility Score: inf
ROOT
ATOM      1  C   UNL     1     -37.154  21.075   7.005  1.00  0.00     0.012 C 
ATOM      2  C   UNL     1     -37.915  19.755   6.827  1.00  0.00     0.012 C 
ENDROOT
BRANCH   1   3
ATOM      3  C   UNL     1     -37.833  22.154   6.183  1.00  0.00    -0.028 C 
ATOM      4  C   UNL     1     -37.448  23.440   6.195  1.00  0.00    -0.027 C 
BRANCH   4   5
ATOM      5  C   UNL     1     -38.123  24.494   5.339  1.00  0.00     0.014 C 
BRANCH   5   6
ATOM      6  C   UNL     1     -37.890  25.917   5.924  1.00  0.00     0.004 C 
ATOM      7  C   UNL     1     -37.248  25.905   7.311  1.00  0.00     0.004 C 
ENDBRANCH   5   6
BRANCH   5   8
ATOM      8  C   UNL     1     -37.648  24.357   3.860  1.00  0.00    -0.011 C 
ATOM      9  C   UNL     1     -37.096  25.690   3.323  1.00  0.00     0.008 C 
ATOM     10  C   UNL     1     -36.620  23.228   3.643  1.00  0.00     0.008 C 
ENDBRANCH   5   8
ENDBRANCH   4   5
ENDBRANCH   1   3
BRANCH   1  11
ATOM     11  C   UNL     1     -35.628  20.958   6.668  1.00  0.00     0.002 C 
ATOM     12  C   UNL     1     -35.317  21.486   5.267  1.00  0.00     0.005 C 
ATOM     13  C   UNL     1     -34.565  21.638   7.596  1.00  0.00    -0.023 C 
ATOM     14  C   UNL     1     -33.821  21.774   5.230  1.00  0.00     0.009 C 
ATOM     15  C   UNL     1     -33.312  21.656   6.671  1.00  0.00     0.021 C 
ATOM     16  C   UNL     1     -34.973  23.079   8.100  1.00  0.00     0.008 C 
ATOM     17  C   UNL     1     -34.239  20.751   8.824  1.00  0.00     0.012 C 
ATOM     18  C   UNL     1     -32.301  22.736   7.032  1.00  0.00    -0.067 C 
ATOM     19  C   UNL     1     -34.285  24.239   7.369  1.00  0.00     0.009 C 
ATOM     20  C   UNL     1     -32.751  24.107   7.492  1.00  0.00     0.021 C 
ATOM     21  C   UNL     1     -30.984  22.480   7.005  1.00  0.00    -0.027 C 
ATOM     22  C   UNL     1     -31.893  25.250   6.810  1.00  0.00    -0.023 C 
ATOM     23  C   UNL     1     -30.028  23.515   7.514  1.00  0.00     0.031 C 
ATOM     24  C   UNL     1     -30.332  24.908   6.907  1.00  0.00     0.002 C 
ATOM     25  C   UNL     1     -32.312  25.436   5.318  1.00  0.00     0.010 C 
ATOM     26  C   UNL     1     -32.164  26.578   7.567  1.00  0.00     0.012 C 
ATOM     27  C   UNL     1     -29.583  25.042   5.558  1.00  0.00     0.036 C 
ATOM     28  C   UNL     1     -31.453  26.456   4.550  1.00  0.00     0.032 C 
ATOM     29  C   UNL     1     -29.938  26.347   4.834  1.00  0.00     0.114 C 
BRANCH  29  30
ATOM     30  O   UNL     1     -29.518  27.449   5.600  1.00  0.00    -0.393 OA
ATOM     31  H   UNL     1     -29.889  27.323   6.513  1.00  0.00     0.210 HD
ENDBRANCH  29  30
ENDBRANCH   1  11
TORSDOF 6
ENDMDL
MODEL 2
REMARK VINA RESULT:    56.881      1.865      2.876
REMARK INTER + INTRA:          75.510
REMARK INTER:                  67.060
REMARK INTRA:                   8.450
REMARK UNBOUND:                 0.340
REMARK SMILES CC[C@H](C=C[C@@H](C)[C@H]1CC[C@H]2C3=CC[C@H]4C[C@H](O)CC[C@@]4(C)[C@H]3CC[C@@]12C)C(C)C
REMARK SMILES IDX 6 1 7 2 5 3 4 4 3 5 2 6 1 7 28 8 29 9 30 10 8 11 9 12 26 13
REMARK SMILES IDX 10 14 11 15 25 16 27 17 12 18 24 19 23 20 13 21 21 22 14 23
REMARK SMILES IDX 15 24 20 25 22 26 16 27 19 28 17 29 18 30
REMARK H PARENT 18 31
REMARK Flexibility Score: inf
ROOT
ATOM      1  C   UNL     1     -37.729  21.232   7.537  1.00  0.00     0.012 C 
ATOM      2  C   UNL     1     -38.041  19.733   7.613  1.00  0.00     0.012 C 
ENDROOT
BRANCH   1   3
ATOM      3  C   UNL     1     -37.934  21.711   6.112  1.00  0.00    -0.028 C 
ATOM      4  C   UNL     1     -37.947  23.009   5.766  1.00  0.00    -0.027 C 
BRANCH   4   5
ATOM      5  C   UNL     1     -38.122  23.460   4.329  1.00  0.00     0.014 C 
BRANCH   5   6
ATOM      6  C   UNL     1     -38.011  25.008   4.216  1.00  0.00     0.004 C 
ATOM      7  C   UNL     1     -37.742  25.696   5.554  1.00  0.00     0.004 C 
ENDBRANCH   5   6
BRANCH   5   8
ATOM      8  C   UNL     1     -37.110  22.707   3.412  1.00  0.00    -0.011 C 
ATOM      9  C   UNL     1     -36.223  23.692   2.629  1.00  0.00     0.008 C 
ATOM     10  C   UNL     1     -36.235  21.685   4.165  1.00  0.00     0.008 C 
ENDBRANCH   5   8
ENDBRANCH   4   5
ENDBRANCH   1   3
BRANCH   1  11
ATOM     11  C   UNL     1     -36.301  21.594   8.073  1.00  0.00     0.002 C 
ATOM     12  C   UNL     1     -35.352  20.396   8.007  1.00  0.00     0.005 C 
ATOM     13  C   UNL     1     -35.498  22.776   7.432  1.00  0.00    -0.023 C 
ATOM     14  C   UNL     1     -33.936  20.956   8.078  1.00  0.00     0.009 C 
ATOM     15  C   UNL     1     -34.053  22.477   7.932  1.00  0.00     0.021 C 
ATOM     16  C   UNL     1     -35.598  22.846   5.857  1.00  0.00     0.008 C 
ATOM     17  C   UNL     1     -35.935  24.140   8.023  1.00  0.00     0.012 C 
ATOM     18  C   UNL     1     -32.966  23.072   7.048  1.00  0.00    -0.067 C 
ATOM     19  C   UNL     1     -34.368  22.316   5.107  1.00  0.00     0.009 C 
ATOM     20  C   UNL     1     -33.106  23.096   5.541  1.00  0.00     0.021 C 
ATOM     21  C   UNL     1     -31.878  23.642   7.590  1.00  0.00    -0.027 C 
ATOM     22  C   UNL     1     -31.752  22.684   4.833  1.00  0.00    -0.023 C 
ATOM     23  C   UNL     1     -30.906  24.353   6.698  1.00  0.00     0.031 C 
ATOM     24  C   UNL     1     -30.522  23.481   5.477  1.00  0.00     0.002 C 
ATOM     25  C   UNL     1     -31.516  21.145   4.948  1.00  0.00     0.010 C 
ATOM     26  C   UNL     1     -31.858  23.054   3.329  1.00  0.00     0.012 C 
ATOM     27  C   UNL     1     -29.329  22.572   5.864  1.00  0.00     0.036 C 
ATOM     28  C   UNL     1     -30.166  20.675   4.377  1.00  0.00     0.032 C 
ATOM     29  C   UNL     1     -28.973  21.586   4.744  1.00  0.00     0.114 C 
BRANCH  29  30
ATOM     30  O   UNL     1     -28.546  22.290   3.604  1.00  0.00    -0.393 OA
ATOM     31  H   UNL     1     -27.896  21.704   3.132  1.00  0.00     0.210 HD
ENDBRANCH  29  30
ENDBRANCH   1  11
TORSDOF 6
ENDMDL
MODEL 3
REMARK VINA RESULT:    57.925      2.855      7.927
REMARK INTER + INTRA:          76.890
REMARK INTER:                  75.336
REMARK INTRA:                   1.554
REMARK UNBOUND:                 0.340
REMARK SMILES CC[C@H](C=C[C@@H](C)[C@H]1CC[C@H]2C3=CC[C@H]4C[C@H](O)CC[C@@]4(C)[C@H]3CC[C@@]12C)C(C)C
REMARK SMILES IDX 6 1 7 2 5 3 4 4 3 5 2 6 1 7 28 8 29 9 30 10 8 11 9 12 26 13
REMARK SMILES IDX 10 14 11 15 25 16 27 17 12 18 24 19 23 20 13 21 21 22 14 23
REMARK SMILES IDX 15 24 20 25 22 26 16 27 19 28 17 29 18 30
REMARK H PARENT 18 31
REMARK Flexibility Score: inf
ROOT
ATOM      1  C   UNL     1     -30.195  26.489   5.833  1.00  0.00     0.012 C 
ATOM      2  C   UNL     1     -30.600  25.972   4.447  1.00  0.00     0.012 C 
ENDROOT
BRANCH   1   3
ATOM      3  C   UNL     1     -28.686  26.418   5.968  1.00  0.00    -0.028 C 
ATOM      4  C   UNL     1     -28.005  25.262   6.022  1.00  0.00    -0.027 C 
BRANCH   4   5
ATOM      5  C   UNL     1     -26.493  25.218   6.127  1.00  0.00     0.014 C 
BRANCH   5   6
ATOM      6  C   UNL     1     -25.905  26.653   6.263  1.00  0.00     0.004 C 
ATOM      7  C   UNL     1     -26.223  27.554   5.071  1.00  0.00     0.004 C 
ENDBRANCH   5   6
BRANCH   5   8
ATOM      8  C   UNL     1     -26.071  24.273   7.293  1.00  0.00    -0.011 C 
ATOM      9  C   UNL     1     -25.849  25.058   8.598  1.00  0.00     0.008 C 
ATOM     10  C   UNL     1     -27.055  23.109   7.532  1.00  0.00     0.008 C 
ENDBRANCH   5   8
ENDBRANCH   4   5
ENDBRANCH   1   3
BRANCH   1  11
ATOM     11  C   UNL     1     -30.921  25.745   7.006  1.00  0.00     0.002 C 
ATOM     12  C   UNL     1     -32.310  26.326   7.271  1.00  0.00     0.005 C 
ATOM     13  C   UNL     1     -31.142  24.196   6.934  1.00  0.00    -0.023 C 
ATOM     14  C   UNL     1     -33.085  25.269   8.050  1.00  0.00     0.009 C 
ATOM     15  C   UNL     1     -32.242  23.989   8.018  1.00  0.00     0.021 C 
ATOM     16  C   UNL     1     -31.581  23.670   5.510  1.00  0.00     0.008 C 
ATOM     17  C   UNL     1     -29.876  23.424   7.386  1.00  0.00     0.012 C 
ATOM     18  C   UNL     1     -33.079  22.735   7.808  1.00  0.00    -0.067 C 
ATOM     19  C   UNL     1     -33.074  23.347   5.372  1.00  0.00     0.009 C 
ATOM     20  C   UNL     1     -33.486  22.288   6.420  1.00  0.00     0.021 C 
ATOM     21  C   UNL     1     -33.429  21.962   8.848  1.00  0.00    -0.027 C 
ATOM     22  C   UNL     1     -35.000  21.825   6.388  1.00  0.00    -0.023 C 
ATOM     23  C   UNL     1     -34.118  20.657   8.588  1.00  0.00     0.031 C 
ATOM     24  C   UNL     1     -35.304  20.833   7.607  1.00  0.00     0.002 C 
ATOM     25  C   UNL     1     -35.955  23.058   6.447  1.00  0.00     0.010 C 
ATOM     26  C   UNL     1     -35.250  21.072   5.054  1.00  0.00     0.012 C 
ATOM     27  C   UNL     1     -36.571  21.212   8.414  1.00  0.00     0.036 C 
ATOM     28  C   UNL     1     -37.447  22.691   6.528  1.00  0.00     0.032 C 
ATOM     29  C   UNL     1     -37.759  21.529   7.498  1.00  0.00     0.114 C 
BRANCH  29  30
ATOM     30  O   UNL     1     -38.118  20.384   6.765  1.00  0.00    -0.393 OA
ATOM     31  H   UNL     1     -39.035  20.132   7.056  1.00  0.00     0.210 HD
ENDBRANCH  29  30
ENDBRANCH   1  11
TORSDOF 6
ENDMDL
MODEL 4
REMARK VINA RESULT:    58.369      1.509      2.333
REMARK INTER + INTRA:          77.476
REMARK INTER:                  73.766
REMARK INTRA:                   3.710
REMARK UNBOUND:                 0.340
REMARK SMILES CC[C@H](C=C[C@@H](C)[C@H]1CC[C@H]2C3=CC[C@H]4C[C@H](O)CC[C@@]4(C)[C@H]3CC[C@@]12C)C(C)C
REMARK SMILES IDX 6 1 7 2 5 3 4 4 3 5 2 6 1 7 28 8 29 9 30 10 8 11 9 12 26 13
REMARK SMILES IDX 10 14 11 15 25 16 27 17 12 18 24 19 23 20 13 21 21 22 14 23
REMARK SMILES IDX 15 24 20 25 22 26 16 27 19 28 17 29 18 30
REMARK H PARENT 18 31
REMARK Flexibility Score: inf
ROOT
ATOM      1  C   UNL     1     -36.815  20.714   5.876  1.00  0.00     0.012 C 
ATOM      2  C   UNL     1     -36.190  20.308   4.536  1.00  0.00     0.012 C 
ENDROOT
BRANCH   1   3
ATOM      3  C   UNL     1     -37.669  21.951   5.671  1.00  0.00    -0.028 C 
ATOM      4  C   UNL     1     -37.239  23.043   5.018  1.00  0.00    -0.027 C 
BRANCH   4   5
ATOM      5  C   UNL     1     -38.124  24.254   4.800  1.00  0.00     0.014 C 
BRANCH   5   6
ATOM      6  C   UNL     1     -38.086  25.199   6.036  1.00  0.00     0.004 C 
ATOM      7  C   UNL     1     -37.201  24.680   7.168  1.00  0.00     0.004 C 
ENDBRANCH   5   6
BRANCH   5   8
ATOM      8  C   UNL     1     -37.722  24.970   3.473  1.00  0.00    -0.011 C 
ATOM      9  C   UNL     1     -37.521  26.481   3.690  1.00  0.00     0.008 C 
ATOM     10  C   UNL     1     -36.479  24.359   2.793  1.00  0.00     0.008 C 
ENDBRANCH   5   8
ENDBRANCH   4   5
ENDBRANCH   1   3
BRANCH   1  11
ATOM     11  C   UNL     1     -35.755  20.920   7.014  1.00  0.00     0.002 C 
ATOM     12  C   UNL     1     -34.553  19.991   6.841  1.00  0.00     0.005 C 
ATOM     13  C   UNL     1     -35.135  22.336   7.261  1.00  0.00    -0.023 C 
ATOM     14  C   UNL     1     -33.419  20.588   7.667  1.00  0.00     0.009 C 
ATOM     15  C   UNL     1     -33.878  21.980   8.110  1.00  0.00     0.021 C 
ATOM     16  C   UNL     1     -34.777  23.126   5.940  1.00  0.00     0.008 C 
ATOM     17  C   UNL     1     -36.067  23.216   8.133  1.00  0.00     0.012 C 
ATOM     18  C   UNL     1     -32.771  23.022   8.029  1.00  0.00    -0.067 C 
ATOM     19  C   UNL     1     -33.287  23.131   5.574  1.00  0.00     0.009 C 
ATOM     20  C   UNL     1     -32.459  23.735   6.730  1.00  0.00     0.021 C 
ATOM     21  C   UNL     1     -32.082  23.376   9.125  1.00  0.00    -0.027 C 
ATOM     22  C   UNL     1     -30.897  23.837   6.494  1.00  0.00    -0.023 C 
ATOM     23  C   UNL     1     -31.108  24.512   9.040  1.00  0.00     0.031 C 
ATOM     24  C   UNL     1     -30.165  24.355   7.821  1.00  0.00     0.002 C 
ATOM     25  C   UNL     1     -30.314  22.454   6.063  1.00  0.00     0.010 C 
ATOM     26  C   UNL     1     -30.644  24.855   5.351  1.00  0.00     0.012 C 
ATOM     27  C   UNL     1     -28.948  23.492   8.235  1.00  0.00     0.036 C 
ATOM     28  C   UNL     1     -28.782  22.440   5.917  1.00  0.00     0.032 C 
ATOM     29  C   UNL     1     -28.033  23.184   7.044  1.00  0.00     0.114 C 
BRANCH  29  30
ATOM     30  O   UNL     1     -27.484  24.378   6.540  1.00  0.00    -0.393 OA
ATOM     31  H   UNL     1     -26.567  24.454   6.917  1.00  0.00     0.210 HD
ENDBRANCH  29  30
ENDBRANCH   1  11
TORSDOF 6
ENDMDL
