MODEL 1
REMARK VINA RESULT:    -3.048      0.000      0.000
REMARK INTER + INTRA:         -11.413
REMARK INTER:                  -6.968
REMARK INTRA:                  -4.445
REMARK UNBOUND:                -4.445
REMARK SMILES CCCCCCCCCCCCCCCCCCCCCCCC(=O)[O-]
REMARK SMILES IDX 13 1 14 2 15 3 16 4 17 5 18 6 19 7 20 8 21 9 22 10 23 11
REMARK SMILES IDX 24 12 25 13 26 14 12 15 11 16 10 17 9 18 8 19 7 20 6 21 5 22
REMARK SMILES IDX 4 23 3 24 2 25 1 26
REMARK H PARENT
REMARK Flexibility Score: inf
ROOT
ATOM      1  C   UNL     1      64.831  29.510  59.870  1.00  0.00     0.000 C 
ENDROOT
BRANCH   1   2
ATOM      2  C   UNL     1      63.857  29.163  61.010  1.00  0.00     0.000 C 
BRANCH   2   3
ATOM      3  C   UNL     1      63.251  30.375  61.747  1.00  0.00     0.000 C 
BRANCH   3   4
ATOM      4  C   UNL     1      61.732  30.307  61.988  1.00  0.00     0.000 C 
BRANCH   4   5
ATOM      5  C   UNL     1      60.972  31.482  61.349  1.00  0.00     0.000 C 
BRANCH   5   6
ATOM      6  C   UNL     1      61.233  31.616  59.838  1.00  0.00     0.000 C 
BRANCH   6   7
ATOM      7  C   UNL     1      60.248  30.859  58.927  1.00  0.00     0.000 C 
BRANCH   7   8
ATOM      8  C   UNL     1      60.783  29.489  58.474  1.00  0.00     0.000 C 
BRANCH   8   9
ATOM      9  C   UNL     1      60.108  28.309  59.199  1.00  0.00     0.000 C 
BRANCH   9  10
ATOM     10  C   UNL     1      61.072  27.311  59.868  1.00  0.00     0.006 C 
BRANCH  10  11
ATOM     11  C   UNL     1      60.592  26.844  61.248  1.00  0.00     0.053 C 
BRANCH  11  12
ATOM     12  C   UNL     1      61.706  26.179  61.995  1.00  0.00     0.041 C 
ATOM     13  O   UNL     1      61.645  26.051  63.246  1.00  0.00    -0.550 OA
ATOM     14  O   UNL     1      62.831  25.732  61.310  1.00  0.00    -0.550 OA
ENDBRANCH  11  12
ENDBRANCH  10  11
ENDBRANCH   9  10
ENDBRANCH   8   9
ENDBRANCH   7   8
ENDBRANCH   6   7
ENDBRANCH   5   6
ENDBRANCH   4   5
ENDBRANCH   3   4
ENDBRANCH   2   3
ENDBRANCH   1   2
BRANCH   1  15
ATOM     15  C   UNL     1      65.261  30.988  59.883  1.00  0.00     0.000 C 
BRANCH  15  16
ATOM     16  C   UNL     1      64.804  31.742  58.624  1.00  0.00     0.000 C 
BRANCH  16  17
ATOM     17  C   UNL     1      64.390  33.193  58.929  1.00  0.00     0.000 C 
BRANCH  17  18
ATOM     18  C   UNL     1      64.477  33.541  60.426  1.00  0.00    -0.000 C 
BRANCH  18  19
ATOM     19  C   UNL     1      63.263  34.298  60.995  1.00  0.00    -0.000 C 
BRANCH  19  20
ATOM     20  C   UNL     1      63.512  35.809  61.136  1.00  0.00    -0.000 C 
BRANCH  20  21
ATOM     21  C   UNL     1      62.217  36.633  61.053  1.00  0.00    -0.000 C 
BRANCH  21  22
ATOM     22  C   UNL     1      61.013  35.805  60.566  1.00  0.00    -0.000 C 
BRANCH  22  23
ATOM     23  C   UNL     1      60.681  36.079  59.084  1.00  0.00    -0.000 C 
BRANCH  23  24
ATOM     24  C   UNL     1      60.847  34.847  58.178  1.00  0.00    -0.000 C 
BRANCH  24  25
ATOM     25  C   UNL     1      61.787  35.100  56.992  1.00  0.00    -0.003 C 
ATOM     26  C   UNL     1      62.873  36.109  57.357  1.00  0.00     0.004 C 
ENDBRANCH  24  25
ENDBRANCH  23  24
ENDBRANCH  22  23
ENDBRANCH  21  22
ENDBRANCH  20  21
ENDBRANCH  19  20
ENDBRANCH  18  19
ENDBRANCH  17  18
ENDBRANCH  16  17
ENDBRANCH  15  16
ENDBRANCH   1  15
TORSDOF 22
ENDMDL
MODEL 2
REMARK VINA RESULT:    -2.931      9.311     12.403
REMARK INTER + INTRA:         -11.145
REMARK INTER:                  -7.528
REMARK INTRA:                  -3.618
REMARK UNBOUND:                -4.445
REMARK SMILES CCCCCCCCCCCCCCCCCCCCCCCC(=O)[O-]
REMARK SMILES IDX 13 1 14 2 15 3 16 4 17 5 18 6 19 7 20 8 21 9 22 10 23 11
REMARK SMILES IDX 24 12 25 13 26 14 12 15 11 16 10 17 9 18 8 19 7 20 6 21 5 22
REMARK SMILES IDX 4 23 3 24 2 25 1 26
REMARK H PARENT
REMARK Flexibility Score: inf
ROOT
ATOM      1  C   UNL     1      56.843  26.256  49.915  1.00  0.00     0.000 C 
ENDROOT
BRANCH   1   2
ATOM      2  C   UNL     1      55.418  25.982  50.429  1.00  0.00     0.000 C 
BRANCH   2   3
ATOM      3  C   UNL     1      54.390  25.606  49.342  1.00  0.00     0.000 C 
BRANCH   3   4
ATOM      4  C   UNL     1      53.112  26.464  49.319  1.00  0.00     0.000 C 
BRANCH   4   5
ATOM      5  C   UNL     1      53.061  27.491  50.463  1.00  0.00     0.000 C 
BRANCH   5   6
ATOM      6  C   UNL     1      53.336  28.931  49.989  1.00  0.00     0.000 C 
BRANCH   6   7
ATOM      7  C   UNL     1      53.782  29.915  51.088  1.00  0.00     0.000 C 
BRANCH   7   8
ATOM      8  C   UNL     1      54.586  29.236  52.210  1.00  0.00     0.000 C 
BRANCH   8   9
ATOM      9  C   UNL     1      55.584  30.186  52.896  1.00  0.00     0.000 C 
BRANCH   9  10
ATOM     10  C   UNL     1      56.660  29.500  53.759  1.00  0.00     0.006 C 
BRANCH  10  11
ATOM     11  C   UNL     1      57.568  30.494  54.493  1.00  0.00     0.053 C 
BRANCH  11  12
ATOM     12  C   UNL     1      58.203  31.440  53.522  1.00  0.00     0.041 C 
ATOM     13  O   UNL     1      58.068  32.684  53.666  1.00  0.00    -0.550 OA
ATOM     14  O   UNL     1      58.917  30.947  52.436  1.00  0.00    -0.550 OA
ENDBRANCH  11  12
ENDBRANCH  10  11
ENDBRANCH   9  10
ENDBRANCH   8   9
ENDBRANCH   7   8
ENDBRANCH   6   7
ENDBRANCH   5   6
ENDBRANCH   4   5
ENDBRANCH   3   4
ENDBRANCH   2   3
ENDBRANCH   1   2
BRANCH   1  15
ATOM     15  C   UNL     1      57.584  27.317  50.748  1.00  0.00     0.000 C 
BRANCH  15  16
ATOM     16  C   UNL     1      57.582  28.698  50.073  1.00  0.00     0.000 C 
BRANCH  16  17
ATOM     17  C   UNL     1      58.915  29.008  49.369  1.00  0.00     0.000 C 
BRANCH  17  18
ATOM     18  C   UNL     1      59.809  27.766  49.202  1.00  0.00    -0.000 C 
BRANCH  18  19
ATOM     19  C   UNL     1      61.186  27.853  49.885  1.00  0.00    -0.000 C 
BRANCH  19  20
ATOM     20  C   UNL     1      61.124  28.505  51.276  1.00  0.00    -0.000 C 
BRANCH  20  21
ATOM     21  C   UNL     1      60.902  27.480  52.401  1.00  0.00    -0.000 C 
BRANCH  21  22
ATOM     22  C   UNL     1      61.167  26.032  51.949  1.00  0.00    -0.000 C 
BRANCH  22  23
ATOM     23  C   UNL     1      60.026  25.077  52.360  1.00  0.00    -0.000 C 
BRANCH  23  24
ATOM     24  C   UNL     1      59.564  24.146  51.227  1.00  0.00    -0.000 C 
BRANCH  24  25
ATOM     25  C   UNL     1      60.501  24.174  50.012  1.00  0.00    -0.003 C 
ATOM     26  C   UNL     1      60.990  22.771  49.662  1.00  0.00     0.004 C 
ENDBRANCH  24  25
ENDBRANCH  23  24
ENDBRANCH  22  23
ENDBRANCH  21  22
ENDBRANCH  20  21
ENDBRANCH  19  20
ENDBRANCH  18  19
ENDBRANCH  17  18
ENDBRANCH  16  17
ENDBRANCH  15  16
ENDBRANCH   1  15
TORSDOF 22
ENDMDL
MODEL 3
REMARK VINA RESULT:    -2.837      9.306     12.139
REMARK INTER + INTRA:         -10.930
REMARK INTER:                  -6.449
REMARK INTRA:                  -4.481
REMARK UNBOUND:                -4.445
REMARK SMILES CCCCCCCCCCCCCCCCCCCCCCCC(=O)[O-]
REMARK SMILES IDX 13 1 14 2 15 3 16 4 17 5 18 6 19 7 20 8 21 9 22 10 23 11
REMARK SMILES IDX 24 12 25 13 26 14 12 15 11 16 10 17 9 18 8 19 7 20 6 21 5 22
REMARK SMILES IDX 4 23 3 24 2 25 1 26
REMARK H PARENT
REMARK Flexibility Score: inf
ROOT
ATOM      1  C   UNL     1      61.208  27.284  53.444  1.00  0.00     0.000 C 
ENDROOT
BRANCH   1   2
ATOM      2  C   UNL     1      61.815  28.312  52.474  1.00  0.00     0.000 C 
BRANCH   2   3
ATOM      3  C   UNL     1      62.013  29.727  53.057  1.00  0.00     0.000 C 
BRANCH   3   4
ATOM      4  C   UNL     1      61.231  30.848  52.347  1.00  0.00     0.000 C 
BRANCH   4   5
ATOM      5  C   UNL     1      62.092  31.633  51.343  1.00  0.00     0.000 C 
BRANCH   5   6
ATOM      6  C   UNL     1      62.156  30.965  49.956  1.00  0.00     0.000 C 
BRANCH   6   7
ATOM      7  C   UNL     1      63.508  31.083  49.228  1.00  0.00     0.000 C 
BRANCH   7   8
ATOM      8  C   UNL     1      64.530  30.029  49.688  1.00  0.00     0.000 C 
BRANCH   8   9
ATOM      9  C   UNL     1      64.026  28.584  49.513  1.00  0.00     0.000 C 
BRANCH   9  10
ATOM     10  C   UNL     1      63.875  28.112  48.054  1.00  0.00     0.006 C 
BRANCH  10  11
ATOM     11  C   UNL     1      65.004  28.607  47.142  1.00  0.00     0.053 C 
BRANCH  11  12
ATOM     12  C   UNL     1      65.927  27.482  46.791  1.00  0.00     0.041 C 
ATOM     13  O   UNL     1      66.352  27.352  45.613  1.00  0.00    -0.550 OA
ATOM     14  O   UNL     1      66.291  26.554  47.760  1.00  0.00    -0.550 OA
ENDBRANCH  11  12
ENDBRANCH  10  11
ENDBRANCH   9  10
ENDBRANCH   8   9
ENDBRANCH   7   8
ENDBRANCH   6   7
ENDBRANCH   5   6
ENDBRANCH   4   5
ENDBRANCH   3   4
ENDBRANCH   2   3
ENDBRANCH   1   2
BRANCH   1  15
ATOM     15  C   UNL     1      59.704  27.505  53.684  1.00  0.00     0.000 C 
BRANCH  15  16
ATOM     16  C   UNL     1      58.847  26.354  53.133  1.00  0.00     0.000 C 
BRANCH  16  17
ATOM     17  C   UNL     1      59.668  25.368  52.283  1.00  0.00     0.000 C 
BRANCH  17  18
ATOM     18  C   UNL     1      58.897  24.844  51.058  1.00  0.00    -0.000 C 
BRANCH  18  19
ATOM     19  C   UNL     1      59.018  25.708  49.789  1.00  0.00    -0.000 C 
BRANCH  19  20
ATOM     20  C   UNL     1      60.394  26.379  49.651  1.00  0.00    -0.000 C 
BRANCH  20  21
ATOM     21  C   UNL     1      60.292  27.870  49.288  1.00  0.00    -0.000 C 
BRANCH  21  22
ATOM     22  C   UNL     1      58.848  28.400  49.346  1.00  0.00    -0.000 C 
BRANCH  22  23
ATOM     23  C   UNL     1      58.586  29.236  50.617  1.00  0.00    -0.000 C 
BRANCH  23  24
ATOM     24  C   UNL     1      57.212  28.973  51.255  1.00  0.00    -0.000 C 
BRANCH  24  25
ATOM     25  C   UNL     1      56.280  28.155  50.351  1.00  0.00    -0.003 C 
ATOM     26  C   UNL     1      55.734  26.933  51.084  1.00  0.00     0.004 C 
ENDBRANCH  24  25
ENDBRANCH  23  24
ENDBRANCH  22  23
ENDBRANCH  21  22
ENDBRANCH  20  21
ENDBRANCH  19  20
ENDBRANCH  18  19
ENDBRANCH  17  18
ENDBRANCH  16  17
ENDBRANCH  15  16
ENDBRANCH   1  15
TORSDOF 22
ENDMDL
MODEL 4
REMARK VINA RESULT:    -2.828     10.787     12.952
REMARK INTER + INTRA:         -10.910
REMARK INTER:                  -7.875
REMARK INTRA:                  -3.035
REMARK UNBOUND:                -4.445
REMARK SMILES CCCCCCCCCCCCCCCCCCCCCCCC(=O)[O-]
REMARK SMILES IDX 13 1 14 2 15 3 16 4 17 5 18 6 19 7 20 8 21 9 22 10 23 11
REMARK SMILES IDX 24 12 25 13 26 14 12 15 11 16 10 17 9 18 8 19 7 20 6 21 5 22
REMARK SMILES IDX 4 23 3 24 2 25 1 26
REMARK H PARENT
REMARK Flexibility Score: inf
ROOT
ATOM      1  C   UNL     1      60.141  28.542  50.162  1.00  0.00     0.000 C 
ENDROOT
BRANCH   1   2
ATOM      2  C   UNL     1      60.763  27.379  49.369  1.00  0.00     0.000 C 
BRANCH   2   3
ATOM      3  C   UNL     1      60.242  25.977  49.746  1.00  0.00     0.000 C 
BRANCH   3   4
ATOM      4  C   UNL     1      60.477  25.557  51.209  1.00  0.00     0.000 C 
BRANCH   4   5
ATOM      5  C   UNL     1      61.056  24.138  51.338  1.00  0.00     0.000 C 
BRANCH   5   6
ATOM      6  C   UNL     1      60.009  23.037  51.086  1.00  0.00     0.000 C 
BRANCH   6   7
ATOM      7  C   UNL     1      60.492  21.848  50.234  1.00  0.00     0.000 C 
BRANCH   7   8
ATOM      8  C   UNL     1      60.361  20.498  50.960  1.00  0.00     0.000 C 
BRANCH   8   9
ATOM      9  C   UNL     1      59.582  19.448  50.144  1.00  0.00     0.000 C 
BRANCH   9  10
ATOM     10  C   UNL     1      58.529  18.650  50.936  1.00  0.00     0.006 C 
BRANCH  10  11
ATOM     11  C   UNL     1      57.688  19.527  51.872  1.00  0.00     0.053 C 
BRANCH  11  12
ATOM     12  C   UNL     1      56.244  19.135  51.802  1.00  0.00     0.041 C 
ATOM     13  O   UNL     1      55.627  18.796  52.845  1.00  0.00    -0.550 OA
ATOM     14  O   UNL     1      55.589  19.112  50.576  1.00  0.00    -0.550 OA
ENDBRANCH  11  12
ENDBRANCH  10  11
ENDBRANCH   9  10
ENDBRANCH   8   9
ENDBRANCH   7   8
ENDBRANCH   6   7
ENDBRANCH   5   6
ENDBRANCH   4   5
ENDBRANCH   3   4
ENDBRANCH   2   3
ENDBRANCH   1   2
BRANCH   1  15
ATOM     15  C   UNL     1      58.926  29.165  49.453  1.00  0.00     0.000 C 
BRANCH  15  16
ATOM     16  C   UNL     1      57.592  28.712  50.069  1.00  0.00     0.000 C 
BRANCH  16  17
ATOM     17  C   UNL     1      57.756  28.205  51.513  1.00  0.00     0.000 C 
BRANCH  17  18
ATOM     18  C   UNL     1      57.044  26.863  51.762  1.00  0.00    -0.000 C 
BRANCH  18  19
ATOM     19  C   UNL     1      56.634  26.093  50.494  1.00  0.00    -0.000 C 
BRANCH  19  20
ATOM     20  C   UNL     1      55.117  25.861  50.399  1.00  0.00    -0.000 C 
BRANCH  20  21
ATOM     21  C   UNL     1      54.401  26.953  49.588  1.00  0.00    -0.000 C 
BRANCH  21  22
ATOM     22  C   UNL     1      53.558  27.894  50.468  1.00  0.00    -0.000 C 
BRANCH  22  23
ATOM     23  C   UNL     1      53.999  29.367  50.333  1.00  0.00    -0.000 C 
BRANCH  23  24
ATOM     24  C   UNL     1      54.095  30.106  51.678  1.00  0.00    -0.000 C 
BRANCH  24  25
ATOM     25  C   UNL     1      53.685  29.232  52.871  1.00  0.00    -0.003 C 
ATOM     26  C   UNL     1      54.871  28.969  53.794  1.00  0.00     0.004 C 
ENDBRANCH  24  25
ENDBRANCH  23  24
ENDBRANCH  22  23
ENDBRANCH  21  22
ENDBRANCH  20  21
ENDBRANCH  19  20
ENDBRANCH  18  19
ENDBRANCH  17  18
ENDBRANCH  16  17
ENDBRANCH  15  16
ENDBRANCH   1  15
TORSDOF 22
ENDMDL
MODEL 5
REMARK VINA RESULT:    -2.823      3.981      6.647
REMARK INTER + INTRA:         -10.898
REMARK INTER:                  -7.551
REMARK INTRA:                  -3.347
REMARK UNBOUND:                -4.445
REMARK SMILES CCCCCCCCCCCCCCCCCCCCCCCC(=O)[O-]
REMARK SMILES IDX 13 1 14 2 15 3 16 4 17 5 18 6 19 7 20 8 21 9 22 10 23 11
REMARK SMILES IDX 24 12 25 13 26 14 12 15 11 16 10 17 9 18 8 19 7 20 6 21 5 22
REMARK SMILES IDX 4 23 3 24 2 25 1 26
REMARK H PARENT
REMARK Flexibility Score: inf
ROOT
ATOM      1  C   UNL     1      65.620  30.274  60.573  1.00  0.00     0.000 C 
ENDROOT
BRANCH   1   2
ATOM      2  C   UNL     1      65.619  30.619  59.074  1.00  0.00     0.000 C 
BRANCH   2   3
ATOM      3  C   UNL     1      67.015  30.753  58.431  1.00  0.00     0.000 C 
BRANCH   3   4
ATOM      4  C   UNL     1      67.405  29.622  57.462  1.00  0.00     0.000 C 
BRANCH   4   5
ATOM      5  C   UNL     1      66.623  28.321  57.715  1.00  0.00     0.000 C 
BRANCH   5   6
ATOM      6  C   UNL     1      67.470  27.235  58.405  1.00  0.00     0.000 C 
BRANCH   6   7
ATOM      7  C   UNL     1      67.363  27.189  59.941  1.00  0.00     0.000 C 
BRANCH   7   8
ATOM      8  C   UNL     1      68.707  27.452  60.644  1.00  0.00     0.000 C 
BRANCH   8   9
ATOM      9  C   UNL     1      68.781  28.844  61.299  1.00  0.00     0.000 C 
BRANCH   9  10
ATOM     10  C   UNL     1      70.129  29.573  61.143  1.00  0.00     0.006 C 
BRANCH  10  11
ATOM     11  C   UNL     1      70.443  29.953  59.690  1.00  0.00     0.053 C 
BRANCH  11  12
ATOM     12  C   UNL     1      70.844  31.392  59.599  1.00  0.00     0.041 C 
ATOM     13  O   UNL     1      70.398  32.119  58.672  1.00  0.00    -0.550 OA
ATOM     14  O   UNL     1      71.740  31.924  60.520  1.00  0.00    -0.550 OA
ENDBRANCH  11  12
ENDBRANCH  10  11
ENDBRANCH   9  10
ENDBRANCH   8   9
ENDBRANCH   7   8
ENDBRANCH   6   7
ENDBRANCH   5   6
ENDBRANCH   4   5
ENDBRANCH   3   4
ENDBRANCH   2   3
ENDBRANCH   1   2
BRANCH   1  15
ATOM     15  C   UNL     1      64.365  29.497  61.008  1.00  0.00     0.000 C 
BRANCH  15  16
ATOM     16  C   UNL     1      63.339  30.392  61.722  1.00  0.00     0.000 C 
BRANCH  16  17
ATOM     17  C   UNL     1      61.922  29.792  61.700  1.00  0.00     0.000 C 
BRANCH  17  18
ATOM     18  C   UNL     1      60.860  30.779  61.180  1.00  0.00    -0.000 C 
BRANCH  18  19
ATOM     19  C   UNL     1      61.357  32.219  60.958  1.00  0.00    -0.000 C 
BRANCH  19  20
ATOM     20  C   UNL     1      61.621  32.540  59.477  1.00  0.00    -0.000 C 
BRANCH  20  21
ATOM     21  C   UNL     1      62.810  33.494  59.281  1.00  0.00    -0.000 C 
BRANCH  21  22
ATOM     22  C   UNL     1      63.519  33.843  60.602  1.00  0.00    -0.000 C 
BRANCH  22  23
ATOM     23  C   UNL     1      63.629  35.368  60.817  1.00  0.00    -0.000 C 
BRANCH  23  24
ATOM     24  C   UNL     1      62.283  36.043  61.133  1.00  0.00    -0.000 C 
BRANCH  24  25
ATOM     25  C   UNL     1      61.718  36.834  59.946  1.00  0.00    -0.003 C 
ATOM     26  C   UNL     1      60.314  36.356  59.585  1.00  0.00     0.004 C 
ENDBRANCH  24  25
ENDBRANCH  23  24
ENDBRANCH  22  23
ENDBRANCH  21  22
ENDBRANCH  20  21
ENDBRANCH  19  20
ENDBRANCH  18  19
ENDBRANCH  17  18
ENDBRANCH  16  17
ENDBRANCH  15  16
ENDBRANCH   1  15
TORSDOF 22
ENDMDL
MODEL 6
REMARK VINA RESULT:    -2.803      4.488      7.908
REMARK INTER + INTRA:         -10.853
REMARK INTER:                  -7.125
REMARK INTRA:                  -3.728
REMARK UNBOUND:                -4.445
REMARK SMILES CCCCCCCCCCCCCCCCCCCCCCCC(=O)[O-]
REMARK SMILES IDX 13 1 14 2 15 3 16 4 17 5 18 6 19 7 20 8 21 9 22 10 23 11
REMARK SMILES IDX 24 12 25 13 26 14 12 15 11 16 10 17 9 18 8 19 7 20 6 21 5 22
REMARK SMILES IDX 4 23 3 24 2 25 1 26
REMARK H PARENT
REMARK Flexibility Score: inf
ROOT
ATOM      1  C   UNL     1      64.655  29.378  57.522  1.00  0.00     0.000 C 
ENDROOT
BRANCH   1   2
ATOM      2  C   UNL     1      65.826  30.258  57.995  1.00  0.00     0.000 C 
BRANCH   2   3
ATOM      3  C   UNL     1      66.597  29.720  59.219  1.00  0.00     0.000 C 
BRANCH   3   4
ATOM      4  C   UNL     1      66.430  28.214  59.493  1.00  0.00     0.000 C 
BRANCH   4   5
ATOM      5  C   UNL     1      67.353  27.705  60.613  1.00  0.00     0.000 C 
BRANCH   5   6
ATOM      6  C   UNL     1      67.916  28.840  61.490  1.00  0.00     0.000 C 
BRANCH   6   7
ATOM      7  C   UNL     1      69.403  29.173  61.266  1.00  0.00     0.000 C 
BRANCH   7   8
ATOM      8  C   UNL     1      70.025  28.384  60.101  1.00  0.00     0.000 C 
BRANCH   8   9
ATOM      9  C   UNL     1      70.610  29.292  59.003  1.00  0.00     0.000 C 
BRANCH   9  10
ATOM     10  C   UNL     1      70.240  30.783  59.116  1.00  0.00     0.006 C 
BRANCH  10  11
ATOM     11  C   UNL     1      71.454  31.714  59.013  1.00  0.00     0.053 C 
BRANCH  11  12
ATOM     12  C   UNL     1      71.771  32.314  60.348  1.00  0.00     0.041 C 
ATOM     13  O   UNL     1      71.421  33.495  60.613  1.00  0.00    -0.550 OA
ATOM     14  O   UNL     1      72.484  31.580  61.288  1.00  0.00    -0.550 OA
ENDBRANCH  11  12
ENDBRANCH  10  11
ENDBRANCH   9  10
ENDBRANCH   8   9
ENDBRANCH   7   8
ENDBRANCH   6   7
ENDBRANCH   5   6
ENDBRANCH   4   5
ENDBRANCH   3   4
ENDBRANCH   2   3
ENDBRANCH   1   2
BRANCH   1  15
ATOM     15  C   UNL     1      63.452  30.201  57.031  1.00  0.00     0.000 C 
BRANCH  15  16
ATOM     16  C   UNL     1      62.254  30.119  57.990  1.00  0.00     0.000 C 
BRANCH  16  17
ATOM     17  C   UNL     1      61.737  31.508  58.404  1.00  0.00     0.000 C 
BRANCH  17  18
ATOM     18  C   UNL     1      62.853  32.435  58.919  1.00  0.00    -0.000 C 
BRANCH  18  19
ATOM     19  C   UNL     1      62.950  32.556  60.451  1.00  0.00    -0.000 C 
BRANCH  19  20
ATOM     20  C   UNL     1      64.195  31.862  61.029  1.00  0.00    -0.000 C 
BRANCH  20  21
ATOM     21  C   UNL     1      63.921  30.408  61.447  1.00  0.00    -0.000 C 
BRANCH  21  22
ATOM     22  C   UNL     1      62.446  30.159  61.811  1.00  0.00    -0.000 C 
BRANCH  22  23
ATOM     23  C   UNL     1      61.969  28.756  61.378  1.00  0.00    -0.000 C 
BRANCH  23  24
ATOM     24  C   UNL     1      63.119  27.781  61.078  1.00  0.00    -0.000 C 
BRANCH  24  25
ATOM     25  C   UNL     1      62.707  26.309  61.221  1.00  0.00    -0.003 C 
ATOM     26  C   UNL     1      61.844  26.098  62.462  1.00  0.00     0.004 C 
ENDBRANCH  24  25
ENDBRANCH  23  24
ENDBRANCH  22  23
ENDBRANCH  21  22
ENDBRANCH  20  21
ENDBRANCH  19  20
ENDBRANCH  18  19
ENDBRANCH  17  18
ENDBRANCH  16  17
ENDBRANCH  15  16
ENDBRANCH   1  15
TORSDOF 22
ENDMDL
MODEL 7
REMARK VINA RESULT:    -2.782      9.086     11.829
REMARK INTER + INTRA:         -10.805
REMARK INTER:                  -6.528
REMARK INTRA:                  -4.277
REMARK UNBOUND:                -4.445
REMARK SMILES CCCCCCCCCCCCCCCCCCCCCCCC(=O)[O-]
REMARK SMILES IDX 13 1 14 2 15 3 16 4 17 5 18 6 19 7 20 8 21 9 22 10 23 11
REMARK SMILES IDX 24 12 25 13 26 14 12 15 11 16 10 17 9 18 8 19 7 20 6 21 5 22
REMARK SMILES IDX 4 23 3 24 2 25 1 26
REMARK H PARENT
REMARK Flexibility Score: inf
ROOT
ATOM      1  C   UNL     1      54.715  26.005  49.535  1.00  0.00     0.000 C 
ENDROOT
BRANCH   1   2
ATOM      2  C   UNL     1      53.861  27.050  50.273  1.00  0.00     0.000 C 
BRANCH   2   3
ATOM      3  C   UNL     1      54.358  28.506  50.153  1.00  0.00     0.000 C 
BRANCH   3   4
ATOM      4  C   UNL     1      53.308  29.588  50.464  1.00  0.00     0.000 C 
BRANCH   4   5
ATOM      5  C   UNL     1      53.071  29.775  51.972  1.00  0.00     0.000 C 
BRANCH   5   6
ATOM      6  C   UNL     1      54.349  30.164  52.738  1.00  0.00     0.000 C 
BRANCH   6   7
ATOM      7  C   UNL     1      54.334  29.860  54.248  1.00  0.00     0.000 C 
BRANCH   7   8
ATOM      8  C   UNL     1      55.329  28.757  54.647  1.00  0.00     0.000 C 
BRANCH   8   9
ATOM      9  C   UNL     1      55.176  27.475  53.808  1.00  0.00     0.000 C 
BRANCH   9  10
ATOM     10  C   UNL     1      54.329  26.363  54.455  1.00  0.00     0.006 C 
BRANCH  10  11
ATOM     11  C   UNL     1      53.723  25.395  53.430  1.00  0.00     0.053 C 
BRANCH  11  12
ATOM     12  C   UNL     1      54.234  24.006  53.654  1.00  0.00     0.041 C 
ATOM     13  O   UNL     1      55.462  23.804  53.847  1.00  0.00    -0.550 OA
ATOM     14  O   UNL     1      53.356  22.928  53.616  1.00  0.00    -0.550 OA
ENDBRANCH  11  12
ENDBRANCH  10  11
ENDBRANCH   9  10
ENDBRANCH   8   9
ENDBRANCH   7   8
ENDBRANCH   6   7
ENDBRANCH   5   6
ENDBRANCH   4   5
ENDBRANCH   3   4
ENDBRANCH   2   3
ENDBRANCH   1   2
BRANCH   1  15
ATOM     15  C   UNL     1      56.224  26.190  49.774  1.00  0.00     0.000 C 
BRANCH  15  16
ATOM     16  C   UNL     1      56.656  25.729  51.176  1.00  0.00     0.000 C 
BRANCH  16  17
ATOM     17  C   UNL     1      58.175  25.501  51.275  1.00  0.00     0.000 C 
BRANCH  17  18
ATOM     18  C   UNL     1      58.883  25.574  49.910  1.00  0.00    -0.000 C 
BRANCH  18  19
ATOM     19  C   UNL     1      60.179  26.405  49.887  1.00  0.00    -0.000 C 
BRANCH  19  20
ATOM     20  C   UNL     1      60.019  27.743  49.149  1.00  0.00    -0.000 C 
BRANCH  20  21
ATOM     21  C   UNL     1      59.663  28.902  50.094  1.00  0.00    -0.000 C 
BRANCH  21  22
ATOM     22  C   UNL     1      58.151  29.187  50.145  1.00  0.00    -0.000 C 
BRANCH  22  23
ATOM     23  C   UNL     1      57.615  29.227  51.592  1.00  0.00    -0.000 C 
BRANCH  23  24
ATOM     24  C   UNL     1      58.572  29.910  52.584  1.00  0.00    -0.000 C 
BRANCH  24  25
ATOM     25  C   UNL     1      58.057  31.272  53.069  1.00  0.00    -0.003 C 
ATOM     26  C   UNL     1      58.013  31.331  54.594  1.00  0.00     0.004 C 
ENDBRANCH  24  25
ENDBRANCH  23  24
ENDBRANCH  22  23
ENDBRANCH  21  22
ENDBRANCH  20  21
ENDBRANCH  19  20
ENDBRANCH  18  19
ENDBRANCH  17  18
ENDBRANCH  16  17
ENDBRANCH  15  16
ENDBRANCH   1  15
TORSDOF 22
ENDMDL
MODEL 8
REMARK VINA RESULT:    -2.761      2.296      3.869
REMARK INTER + INTRA:         -10.756
REMARK INTER:                  -6.514
REMARK INTRA:                  -4.242
REMARK UNBOUND:                -4.445
REMARK SMILES CCCCCCCCCCCCCCCCCCCCCCCC(=O)[O-]
REMARK SMILES IDX 13 1 14 2 15 3 16 4 17 5 18 6 19 7 20 8 21 9 22 10 23 11
REMARK SMILES IDX 24 12 25 13 26 14 12 15 11 16 10 17 9 18 8 19 7 20 6 21 5 22
REMARK SMILES IDX 4 23 3 24 2 25 1 26
REMARK H PARENT
REMARK Flexibility Score: inf
ROOT
ATOM      1  C   UNL     1      63.979  31.840  57.902  1.00  0.00     0.000 C 
ENDROOT
BRANCH   1   2
ATOM      2  C   UNL     1      62.507  32.060  57.511  1.00  0.00     0.000 C 
BRANCH   2   3
ATOM      3  C   UNL     1      61.502  31.094  58.172  1.00  0.00     0.000 C 
BRANCH   3   4
ATOM      4  C   UNL     1      60.781  31.644  59.416  1.00  0.00     0.000 C 
BRANCH   4   5
ATOM      5  C   UNL     1      60.515  30.564  60.479  1.00  0.00     0.000 C 
BRANCH   5   6
ATOM      6  C   UNL     1      61.273  30.816  61.796  1.00  0.00     0.000 C 
BRANCH   6   7
ATOM      7  C   UNL     1      62.714  30.275  61.844  1.00  0.00     0.000 C 
BRANCH   7   8
ATOM      8  C   UNL     1      62.838  28.849  61.280  1.00  0.00     0.000 C 
BRANCH   8   9
ATOM      9  C   UNL     1      63.909  28.727  60.179  1.00  0.00     0.000 C 
BRANCH   9  10
ATOM     10  C   UNL     1      65.198  27.993  60.594  1.00  0.00     0.006 C 
BRANCH  10  11
ATOM     11  C   UNL     1      66.299  28.940  61.086  1.00  0.00     0.053 C 
BRANCH  11  12
ATOM     12  C   UNL     1      67.638  28.493  60.588  1.00  0.00     0.041 C 
ATOM     13  O   UNL     1      68.012  27.302  60.753  1.00  0.00    -0.550 OA
ATOM     14  O   UNL     1      68.489  29.403  59.970  1.00  0.00    -0.550 OA
ENDBRANCH  11  12
ENDBRANCH  10  11
ENDBRANCH   9  10
ENDBRANCH   8   9
ENDBRANCH   7   8
ENDBRANCH   6   7
ENDBRANCH   5   6
ENDBRANCH   4   5
ENDBRANCH   3   4
ENDBRANCH   2   3
ENDBRANCH   1   2
BRANCH   1  15
ATOM     15  C   UNL     1      64.558  33.005  58.723  1.00  0.00     0.000 C 
BRANCH  15  16
ATOM     16  C   UNL     1      64.629  32.686  60.225  1.00  0.00     0.000 C 
BRANCH  16  17
ATOM     17  C   UNL     1      63.808  33.674  61.073  1.00  0.00     0.000 C 
BRANCH  17  18
ATOM     18  C   UNL     1      64.172  35.145  60.802  1.00  0.00    -0.000 C 
BRANCH  18  19
ATOM     19  C   UNL     1      62.973  36.090  60.601  1.00  0.00    -0.000 C 
BRANCH  19  20
ATOM     20  C   UNL     1      61.618  35.377  60.740  1.00  0.00    -0.000 C 
BRANCH  20  21
ATOM     21  C   UNL     1      60.844  35.313  59.413  1.00  0.00    -0.000 C 
BRANCH  21  22
ATOM     22  C   UNL     1      61.717  35.667  58.196  1.00  0.00    -0.000 C 
BRANCH  22  23
ATOM     23  C   UNL     1      61.039  35.284  56.863  1.00  0.00    -0.000 C 
BRANCH  23  24
ATOM     24  C   UNL     1      59.533  35.002  56.998  1.00  0.00    -0.000 C 
BRANCH  24  25
ATOM     25  C   UNL     1      59.156  33.566  56.608  1.00  0.00    -0.003 C 
ATOM     26  C   UNL     1      57.973  33.065  57.432  1.00  0.00     0.004 C 
ENDBRANCH  24  25
ENDBRANCH  23  24
ENDBRANCH  22  23
ENDBRANCH  21  22
ENDBRANCH  20  21
ENDBRANCH  19  20
ENDBRANCH  18  19
ENDBRANCH  17  18
ENDBRANCH  16  17
ENDBRANCH  15  16
ENDBRANCH   1  15
TORSDOF 22
ENDMDL
MODEL 9
REMARK VINA RESULT:    -2.747      8.565     11.765
REMARK INTER + INTRA:         -10.725
REMARK INTER:                  -6.219
REMARK INTRA:                  -4.505
REMARK UNBOUND:                -4.445
REMARK SMILES CCCCCCCCCCCCCCCCCCCCCCCC(=O)[O-]
REMARK SMILES IDX 13 1 14 2 15 3 16 4 17 5 18 6 19 7 20 8 21 9 22 10 23 11
REMARK SMILES IDX 24 12 25 13 26 14 12 15 11 16 10 17 9 18 8 19 7 20 6 21 5 22
REMARK SMILES IDX 4 23 3 24 2 25 1 26
REMARK H PARENT
REMARK Flexibility Score: inf
ROOT
ATOM      1  C   UNL     1      54.957  25.396  51.659  1.00  0.00     0.000 C 
ENDROOT
BRANCH   1   2
ATOM      2  C   UNL     1      55.299  25.898  50.245  1.00  0.00     0.000 C 
BRANCH   2   3
ATOM      3  C   UNL     1      54.478  27.113  49.765  1.00  0.00     0.000 C 
BRANCH   3   4
ATOM      4  C   UNL     1      55.016  28.487  50.207  1.00  0.00     0.000 C 
BRANCH   4   5
ATOM      5  C   UNL     1      53.944  29.358  50.885  1.00  0.00     0.000 C 
BRANCH   5   6
ATOM      6  C   UNL     1      54.362  29.843  52.286  1.00  0.00     0.000 C 
BRANCH   6   7
ATOM      7  C   UNL     1      55.386  28.953  53.016  1.00  0.00     0.000 C 
BRANCH   7   8
ATOM      8  C   UNL     1      56.388  29.760  53.859  1.00  0.00     0.000 C 
BRANCH   8   9
ATOM      9  C   UNL     1      56.529  31.221  53.392  1.00  0.00     0.000 C 
BRANCH   9  10
ATOM     10  C   UNL     1      57.918  31.851  53.612  1.00  0.00     0.006 C 
BRANCH  10  11
ATOM     11  C   UNL     1      57.899  33.383  53.557  1.00  0.00     0.053 C 
BRANCH  11  12
ATOM     12  C   UNL     1      56.980  33.935  54.603  1.00  0.00     0.041 C 
ATOM     13  O   UNL     1      57.224  33.750  55.825  1.00  0.00    -0.550 OA
ATOM     14  O   UNL     1      55.834  34.625  54.226  1.00  0.00    -0.550 OA
ENDBRANCH  11  12
ENDBRANCH  10  11
ENDBRANCH   9  10
ENDBRANCH   8   9
ENDBRANCH   7   8
ENDBRANCH   6   7
ENDBRANCH   5   6
ENDBRANCH   4   5
ENDBRANCH   3   4
ENDBRANCH   2   3
ENDBRANCH   1   2
BRANCH   1  15
ATOM     15  C   UNL     1      56.179  25.370  52.594  1.00  0.00     0.000 C 
BRANCH  15  16
ATOM     16  C   UNL     1      57.422  26.006  51.952  1.00  0.00     0.000 C 
BRANCH  16  17
ATOM     17  C   UNL     1      58.517  24.970  51.641  1.00  0.00     0.000 C 
BRANCH  17  18
ATOM     18  C   UNL     1      59.648  25.536  50.764  1.00  0.00    -0.000 C 
BRANCH  18  19
ATOM     19  C   UNL     1      59.185  26.293  49.505  1.00  0.00    -0.000 C 
BRANCH  19  20
ATOM     20  C   UNL     1      59.854  27.669  49.354  1.00  0.00    -0.000 C 
BRANCH  20  21
ATOM     21  C   UNL     1      58.846  28.828  49.425  1.00  0.00    -0.000 C 
BRANCH  21  22
ATOM     22  C   UNL     1      58.552  29.275  50.869  1.00  0.00    -0.000 C 
BRANCH  22  23
ATOM     23  C   UNL     1      59.832  29.343  51.729  1.00  0.00    -0.000 C 
BRANCH  23  24
ATOM     24  C   UNL     1      59.719  28.583  53.061  1.00  0.00    -0.000 C 
BRANCH  24  25
ATOM     25  C   UNL     1      61.010  27.844  53.438  1.00  0.00    -0.003 C 
ATOM     26  C   UNL     1      62.051  27.952  52.327  1.00  0.00     0.004 C 
ENDBRANCH  24  25
ENDBRANCH  23  24
ENDBRANCH  22  23
ENDBRANCH  21  22
ENDBRANCH  20  21
ENDBRANCH  19  20
ENDBRANCH  18  19
ENDBRANCH  17  18
ENDBRANCH  16  17
ENDBRANCH  15  16
ENDBRANCH   1  15
TORSDOF 22
ENDMDL
