MODEL 1
REMARK VINA RESULT:    -3.830      0.000      0.000
REMARK INTER + INTRA:          -7.446
REMARK INTER:                  -6.517
REMARK INTRA:                  -0.929
REMARK UNBOUND:                -0.929
REMARK SMILES CCCCCCCCCCCCCC(=O)[O-]
REMARK SMILES IDX 8 1 9 2 10 3 11 4 12 5 13 6 14 7 15 8 16 9 7 10 6 11 5 12
REMARK SMILES IDX 4 13 3 14 2 15 1 16
REMARK H PARENT
REMARK Flexibility Score: inf
ROOT
ATOM      1  C   UNL     1      -0.287   7.355   8.354  1.00  0.00     0.000 C 
ENDROOT
BRANCH   1   2
ATOM      2  C   UNL     1       0.588   6.621   9.388  1.00  0.00     0.000 C 
BRANCH   2   3
ATOM      3  C   UNL     1      -0.163   5.501  10.124  1.00  0.00     0.000 C 
BRANCH   3   4
ATOM      4  C   UNL     1      -1.216   4.854   9.210  1.00  0.00     0.000 C 
BRANCH   4   5
ATOM      5  C   UNL     1      -1.324   3.331   9.410  1.00  0.00     0.006 C 
BRANCH   5   6
ATOM      6  C   UNL     1      -2.658   2.867  10.017  1.00  0.00     0.053 C 
BRANCH   6   7
ATOM      7  C   UNL     1      -3.294   1.777   9.210  1.00  0.00     0.041 C 
ATOM      8  O   UNL     1      -2.709   1.316   8.194  1.00  0.00    -0.550 OA
ATOM      9  O   UNL     1      -4.548   1.294   9.561  1.00  0.00    -0.550 OA
ENDBRANCH   6   7
ENDBRANCH   5   6
ENDBRANCH   4   5
ENDBRANCH   3   4
ENDBRANCH   2   3
ENDBRANCH   1   2
BRANCH   1  10
ATOM     10  C   UNL     1      -0.198   8.891   8.391  1.00  0.00     0.000 C 
BRANCH  10  11
ATOM     11  C   UNL     1       0.929   9.406   9.302  1.00  0.00    -0.000 C 
BRANCH  11  12
ATOM     12  C   UNL     1       2.097  10.033   8.519  1.00  0.00    -0.000 C 
BRANCH  12  13
ATOM     13  C   UNL     1       2.541   9.261   7.263  1.00  0.00    -0.000 C 
BRANCH  13  14
ATOM     14  C   UNL     1       3.363   8.002   7.591  1.00  0.00    -0.000 C 
BRANCH  14  15
ATOM     15  C   UNL     1       4.482   8.278   8.607  1.00  0.00    -0.003 C 
ATOM     16  C   UNL     1       5.666   9.029   7.998  1.00  0.00     0.004 C 
ENDBRANCH  14  15
ENDBRANCH  13  14
ENDBRANCH  12  13
ENDBRANCH  11  12
ENDBRANCH  10  11
ENDBRANCH   1  10
TORSDOF 12
ENDMDL
MODEL 2
REMARK VINA RESULT:    -3.663      3.528      8.030
REMARK INTER + INTRA:          -7.162
REMARK INTER:                  -6.384
REMARK INTRA:                  -0.778
REMARK UNBOUND:                -0.929
REMARK SMILES CCCCCCCCCCCCCC(=O)[O-]
REMARK SMILES IDX 8 1 9 2 10 3 11 4 12 5 13 6 14 7 15 8 16 9 7 10 6 11 5 12
REMARK SMILES IDX 4 13 3 14 2 15 1 16
REMARK H PARENT
REMARK Flexibility Score: inf
ROOT
ATOM      1  C   UNL     1      -0.785   6.007   8.706  1.00  0.00     0.000 C 
ENDROOT
BRANCH   1   2
ATOM      2  C   UNL     1       0.176   6.976   9.421  1.00  0.00     0.000 C 
BRANCH   2   3
ATOM      3  C   UNL     1      -0.469   8.332   9.746  1.00  0.00     0.000 C 
BRANCH   3   4
ATOM      4  C   UNL     1       0.180   9.458   8.927  1.00  0.00     0.000 C 
BRANCH   4   5
ATOM      5  C   UNL     1       1.696   9.576   9.169  1.00  0.00     0.006 C 
BRANCH   5   6
ATOM      6  C   UNL     1       2.530   9.738   7.887  1.00  0.00     0.053 C 
BRANCH   6   7
ATOM      7  C   UNL     1       2.576   8.474   7.084  1.00  0.00     0.041 C 
ATOM      8  O   UNL     1       3.474   7.617   7.300  1.00  0.00    -0.550 OA
ATOM      9  O   UNL     1       1.647   8.258   6.074  1.00  0.00    -0.550 OA
ENDBRANCH   6   7
ENDBRANCH   5   6
ENDBRANCH   4   5
ENDBRANCH   3   4
ENDBRANCH   2   3
ENDBRANCH   1   2
BRANCH   1  10
ATOM     10  C   UNL     1      -2.172   5.858   9.358  1.00  0.00     0.000 C 
BRANCH  10  11
ATOM     11  C   UNL     1      -2.372   4.494  10.039  1.00  0.00    -0.000 C 
BRANCH  11  12
ATOM     12  C   UNL     1      -1.508   3.379   9.421  1.00  0.00    -0.000 C 
BRANCH  12  13
ATOM     13  C   UNL     1      -2.254   2.075   9.082  1.00  0.00    -0.000 C 
BRANCH  13  14
ATOM     14  C   UNL     1      -3.774   2.180   9.296  1.00  0.00    -0.000 C 
BRANCH  14  15
ATOM     15  C   UNL     1      -4.385   0.874   9.829  1.00  0.00    -0.003 C 
ATOM     16  C   UNL     1      -5.489   0.324   8.926  1.00  0.00     0.004 C 
ENDBRANCH  14  15
ENDBRANCH  13  14
ENDBRANCH  12  13
ENDBRANCH  11  12
ENDBRANCH  10  11
ENDBRANCH   1  10
TORSDOF 12
ENDMDL
MODEL 3
REMARK VINA RESULT:    -3.641      4.494      6.983
REMARK INTER + INTRA:          -7.125
REMARK INTER:                  -6.161
REMARK INTRA:                  -0.964
REMARK UNBOUND:                -0.929
REMARK SMILES CCCCCCCCCCCCCC(=O)[O-]
REMARK SMILES IDX 8 1 9 2 10 3 11 4 12 5 13 6 14 7 15 8 16 9 7 10 6 11 5 12
REMARK SMILES IDX 4 13 3 14 2 15 1 16
REMARK H PARENT
REMARK Flexibility Score: inf
ROOT
ATOM      1  C   UNL     1      -3.510   6.140   9.501  1.00  0.00     0.000 C 
ENDROOT
BRANCH   1   2
ATOM      2  C   UNL     1      -2.215   5.505  10.042  1.00  0.00     0.000 C 
BRANCH   2   3
ATOM      3  C   UNL     1      -1.561   4.533   9.048  1.00  0.00     0.000 C 
BRANCH   3   4
ATOM      4  C   UNL     1      -1.398   3.139   9.672  1.00  0.00     0.000 C 
BRANCH   4   5
ATOM      5  C   UNL     1      -2.388   2.108   9.100  1.00  0.00     0.006 C 
BRANCH   5   6
ATOM      6  C   UNL     1      -3.569   1.783  10.030  1.00  0.00     0.053 C 
BRANCH   6   7
ATOM      7  C   UNL     1      -4.779   1.340   9.266  1.00  0.00     0.041 C 
ATOM      8  O   UNL     1      -4.699   0.385   8.449  1.00  0.00    -0.550 OA
ATOM      9  O   UNL     1      -5.987   2.004   9.432  1.00  0.00    -0.550 OA
ENDBRANCH   6   7
ENDBRANCH   5   6
ENDBRANCH   4   5
ENDBRANCH   3   4
ENDBRANCH   2   3
ENDBRANCH   1   2
BRANCH   1  10
ATOM     10  C   UNL     1      -4.388   5.211   8.642  1.00  0.00     0.000 C 
BRANCH  10  11
ATOM     11  C   UNL     1      -5.801   5.770   8.406  1.00  0.00    -0.000 C 
BRANCH  11  12
ATOM     12  C   UNL     1      -5.906   7.280   8.683  1.00  0.00    -0.000 C 
BRANCH  12  13
ATOM     13  C   UNL     1      -6.850   8.060   7.749  1.00  0.00    -0.000 C 
BRANCH  13  14
ATOM     14  C   UNL     1      -7.124   7.327   6.424  1.00  0.00    -0.000 C 
BRANCH  14  15
ATOM     15  C   UNL     1      -8.361   7.873   5.694  1.00  0.00    -0.003 C 
ATOM     16  C   UNL     1      -8.026   9.013   4.730  1.00  0.00     0.004 C 
ENDBRANCH  14  15
ENDBRANCH  13  14
ENDBRANCH  12  13
ENDBRANCH  11  12
ENDBRANCH  10  11
ENDBRANCH   1  10
TORSDOF 12
ENDMDL
MODEL 4
REMARK VINA RESULT:    -3.615      2.553      4.736
REMARK INTER + INTRA:          -7.081
REMARK INTER:                  -6.576
REMARK INTRA:                  -0.505
REMARK UNBOUND:                -0.929
REMARK SMILES CCCCCCCCCCCCCC(=O)[O-]
REMARK SMILES IDX 8 1 9 2 10 3 11 4 12 5 13 6 14 7 15 8 16 9 7 10 6 11 5 12
REMARK SMILES IDX 4 13 3 14 2 15 1 16
REMARK H PARENT
REMARK Flexibility Score: inf
ROOT
ATOM      1  C   UNL     1      -1.498   3.178   9.288  1.00  0.00     0.000 C 
ENDROOT
BRANCH   1   2
ATOM      2  C   UNL     1      -2.308   1.902   8.993  1.00  0.00     0.000 C 
BRANCH   2   3
ATOM      3  C   UNL     1      -3.825   2.107   9.128  1.00  0.00     0.000 C 
BRANCH   3   4
ATOM      4  C   UNL     1      -4.490   0.880   9.769  1.00  0.00     0.000 C 
BRANCH   4   5
ATOM      5  C   UNL     1      -5.683   0.352   8.951  1.00  0.00     0.006 C 
BRANCH   5   6
ATOM      6  C   UNL     1      -7.051   0.555   9.625  1.00  0.00     0.053 C 
BRANCH   6   7
ATOM      7  C   UNL     1      -8.160  -0.084   8.847  1.00  0.00     0.041 C 
ATOM      8  O   UNL     1      -8.705  -1.138   9.269  1.00  0.00    -0.550 OA
ATOM      9  O   UNL     1      -8.568   0.466   7.639  1.00  0.00    -0.550 OA
ENDBRANCH   6   7
ENDBRANCH   5   6
ENDBRANCH   4   5
ENDBRANCH   3   4
ENDBRANCH   2   3
ENDBRANCH   1   2
BRANCH   1  10
ATOM     10  C   UNL     1      -2.314   4.484   9.303  1.00  0.00     0.000 C 
BRANCH  10  11
ATOM     11  C   UNL     1      -1.467   5.725   8.976  1.00  0.00    -0.000 C 
BRANCH  11  12
ATOM     12  C   UNL     1      -0.193   5.829   9.835  1.00  0.00    -0.000 C 
BRANCH  12  13
ATOM     13  C   UNL     1       0.861   6.835   9.336  1.00  0.00    -0.000 C 
BRANCH  13  14
ATOM     14  C   UNL     1       0.311   7.802   8.272  1.00  0.00    -0.000 C 
BRANCH  14  15
ATOM     15  C   UNL     1       1.415   8.370   7.366  1.00  0.00    -0.003 C 
ATOM     16  C   UNL     1       2.822   8.047   7.872  1.00  0.00     0.004 C 
ENDBRANCH  14  15
ENDBRANCH  13  14
ENDBRANCH  12  13
ENDBRANCH  11  12
ENDBRANCH  10  11
ENDBRANCH   1  10
TORSDOF 12
ENDMDL
MODEL 5
REMARK VINA RESULT:    -3.542      3.637      7.901
REMARK INTER + INTRA:          -6.955
REMARK INTER:                  -6.180
REMARK INTRA:                  -0.775
REMARK UNBOUND:                -0.929
REMARK SMILES CCCCCCCCCCCCCC(=O)[O-]
REMARK SMILES IDX 8 1 9 2 10 3 11 4 12 5 13 6 14 7 15 8 16 9 7 10 6 11 5 12
REMARK SMILES IDX 4 13 3 14 2 15 1 16
REMARK H PARENT
REMARK Flexibility Score: inf
ROOT
ATOM      1  C   UNL     1      -1.661   4.852   8.889  1.00  0.00     0.000 C 
ENDROOT
BRANCH   1   2
ATOM      2  C   UNL     1      -0.955   6.110   9.430  1.00  0.00     0.000 C 
BRANCH   2   3
ATOM      3  C   UNL     1       0.534   5.881   9.732  1.00  0.00     0.000 C 
BRANCH   3   4
ATOM      4  C   UNL     1       1.289   7.216   9.812  1.00  0.00     0.000 C 
BRANCH   4   5
ATOM      5  C   UNL     1       0.585   8.347   9.039  1.00  0.00     0.006 C 
BRANCH   5   6
ATOM      6  C   UNL     1       1.530   9.226   8.204  1.00  0.00     0.053 C 
BRANCH   6   7
ATOM      7  C   UNL     1       2.307   8.422   7.205  1.00  0.00     0.041 C 
ATOM      8  O   UNL     1       1.930   8.367   6.005  1.00  0.00    -0.550 OA
ATOM      9  O   UNL     1       3.427   7.708   7.609  1.00  0.00    -0.550 OA
ENDBRANCH   6   7
ENDBRANCH   5   6
ENDBRANCH   4   5
ENDBRANCH   3   4
ENDBRANCH   2   3
ENDBRANCH   1   2
BRANCH   1  10
ATOM     10  C   UNL     1      -1.544   3.600   9.777  1.00  0.00     0.000 C 
BRANCH  10  11
ATOM     11  C   UNL     1      -1.842   2.296   9.019  1.00  0.00    -0.000 C 
BRANCH  11  12
ATOM     12  C   UNL     1      -3.295   1.817   9.192  1.00  0.00    -0.000 C 
BRANCH  12  13
ATOM     13  C   UNL     1      -4.186   2.715  10.070  1.00  0.00    -0.000 C 
BRANCH  13  14
ATOM     14  C   UNL     1      -5.263   3.464   9.266  1.00  0.00    -0.000 C 
BRANCH  14  15
ATOM     15  C   UNL     1      -5.313   4.962   9.601  1.00  0.00    -0.003 C 
ATOM     16  C   UNL     1      -5.353   5.848   8.355  1.00  0.00     0.004 C 
ENDBRANCH  14  15
ENDBRANCH  13  14
ENDBRANCH  12  13
ENDBRANCH  11  12
ENDBRANCH  10  11
ENDBRANCH   1  10
TORSDOF 12
ENDMDL
MODEL 6
REMARK VINA RESULT:    -3.527      1.342      2.376
REMARK INTER + INTRA:          -6.931
REMARK INTER:                  -6.403
REMARK INTRA:                  -0.528
REMARK UNBOUND:                -0.929
REMARK SMILES CCCCCCCCCCCCCC(=O)[O-]
REMARK SMILES IDX 8 1 9 2 10 3 11 4 12 5 13 6 14 7 15 8 16 9 7 10 6 11 5 12
REMARK SMILES IDX 4 13 3 14 2 15 1 16
REMARK H PARENT
REMARK Flexibility Score: inf
ROOT
ATOM      1  C   UNL     1      -0.996   5.401   9.109  1.00  0.00     0.000 C 
ENDROOT
BRANCH   1   2
ATOM      2  C   UNL     1      -0.731   4.078   9.853  1.00  0.00     0.000 C 
BRANCH   2   3
ATOM      3  C   UNL     1      -1.815   3.018   9.600  1.00  0.00     0.000 C 
BRANCH   3   4
ATOM      4  C   UNL     1      -3.219   3.619   9.764  1.00  0.00     0.000 C 
BRANCH   4   5
ATOM      5  C   UNL     1      -4.331   2.690   9.243  1.00  0.00     0.006 C 
BRANCH   5   6
ATOM      6  C   UNL     1      -4.290   1.268   9.826  1.00  0.00     0.053 C 
BRANCH   6   7
ATOM      7  C   UNL     1      -5.305   0.370   9.187  1.00  0.00     0.041 C 
ATOM      8  O   UNL     1      -5.034  -0.231   8.114  1.00  0.00    -0.550 OA
ATOM      9  O   UNL     1      -6.562   0.225   9.759  1.00  0.00    -0.550 OA
ENDBRANCH   6   7
ENDBRANCH   5   6
ENDBRANCH   4   5
ENDBRANCH   3   4
ENDBRANCH   2   3
ENDBRANCH   1   2
BRANCH   1  10
ATOM     10  C   UNL     1      -0.637   6.677   9.891  1.00  0.00     0.000 C 
BRANCH  10  11
ATOM     11  C   UNL     1      -0.988   7.967   9.131  1.00  0.00    -0.000 C 
BRANCH  11  12
ATOM     12  C   UNL     1      -0.083   8.211   7.910  1.00  0.00    -0.000 C 
BRANCH  12  13
ATOM     13  C   UNL     1       1.228   8.967   8.199  1.00  0.00    -0.000 C 
BRANCH  13  14
ATOM     14  C   UNL     1       2.386   8.533   7.284  1.00  0.00    -0.000 C 
BRANCH  14  15
ATOM     15  C   UNL     1       3.476   7.758   8.040  1.00  0.00    -0.003 C 
ATOM     16  C   UNL     1       4.802   8.517   8.112  1.00  0.00     0.004 C 
ENDBRANCH  14  15
ENDBRANCH  13  14
ENDBRANCH  12  13
ENDBRANCH  11  12
ENDBRANCH  10  11
ENDBRANCH   1  10
TORSDOF 12
ENDMDL
MODEL 7
REMARK VINA RESULT:    -3.508      5.432      8.504
REMARK INTER + INTRA:          -6.898
REMARK INTER:                  -6.345
REMARK INTRA:                  -0.553
REMARK UNBOUND:                -0.929
REMARK SMILES CCCCCCCCCCCCCC(=O)[O-]
REMARK SMILES IDX 8 1 9 2 10 3 11 4 12 5 13 6 14 7 15 8 16 9 7 10 6 11 5 12
REMARK SMILES IDX 4 13 3 14 2 15 1 16
REMARK H PARENT
REMARK Flexibility Score: inf
ROOT
ATOM      1  C   UNL     1      -3.547   4.850   9.519  1.00  0.00     0.000 C 
ENDROOT
BRANCH   1   2
ATOM      2  C   UNL     1      -2.117   5.132   9.019  1.00  0.00     0.000 C 
BRANCH   2   3
ATOM      3  C   UNL     1      -1.633   6.552   9.351  1.00  0.00     0.000 C 
BRANCH   3   4
ATOM      4  C   UNL     1      -0.242   6.811   8.752  1.00  0.00     0.000 C 
BRANCH   4   5
ATOM      5  C   UNL     1      -0.110   8.214   8.133  1.00  0.00     0.006 C 
BRANCH   5   6
ATOM      6  C   UNL     1       1.314   8.792   8.175  1.00  0.00     0.053 C 
BRANCH   6   7
ATOM      7  C   UNL     1       2.146   8.317   7.023  1.00  0.00     0.041 C 
ATOM      8  O   UNL     1       1.730   8.450   5.842  1.00  0.00    -0.550 OA
ATOM      9  O   UNL     1       3.367   7.698   7.258  1.00  0.00    -0.550 OA
ENDBRANCH   6   7
ENDBRANCH   5   6
ENDBRANCH   4   5
ENDBRANCH   3   4
ENDBRANCH   2   3
ENDBRANCH   1   2
BRANCH   1  10
ATOM     10  C   UNL     1      -4.674   5.293   8.568  1.00  0.00     0.000 C 
BRANCH  10  11
ATOM     11  C   UNL     1      -5.377   6.581   9.029  1.00  0.00    -0.000 C 
BRANCH  11  12
ATOM     12  C   UNL     1      -6.353   7.143   7.980  1.00  0.00    -0.000 C 
BRANCH  12  13
ATOM     13  C   UNL     1      -7.670   6.362   7.817  1.00  0.00    -0.000 C 
BRANCH  13  14
ATOM     14  C   UNL     1      -8.429   6.725   6.528  1.00  0.00    -0.000 C 
BRANCH  14  15
ATOM     15  C   UNL     1      -7.600   7.613   5.587  1.00  0.00    -0.003 C 
ATOM     16  C   UNL     1      -8.374   8.833   5.088  1.00  0.00     0.004 C 
ENDBRANCH  14  15
ENDBRANCH  13  14
ENDBRANCH  12  13
ENDBRANCH  11  12
ENDBRANCH  10  11
ENDBRANCH   1  10
TORSDOF 12
ENDMDL
MODEL 8
REMARK VINA RESULT:    -3.430      4.039      8.179
REMARK INTER + INTRA:          -6.765
REMARK INTER:                  -6.150
REMARK INTRA:                  -0.615
REMARK UNBOUND:                -0.929
REMARK SMILES CCCCCCCCCCCCCC(=O)[O-]
REMARK SMILES IDX 8 1 9 2 10 3 11 4 12 5 13 6 14 7 15 8 16 9 7 10 6 11 5 12
REMARK SMILES IDX 4 13 3 14 2 15 1 16
REMARK H PARENT
REMARK Flexibility Score: inf
ROOT
ATOM      1  C   UNL     1      -0.374   6.902   8.625  1.00  0.00     0.000 C 
ENDROOT
BRANCH   1   2
ATOM      2  C   UNL     1      -0.354   8.434   8.470  1.00  0.00     0.000 C 
BRANCH   2   3
ATOM      3  C   UNL     1       1.020   9.051   8.774  1.00  0.00     0.000 C 
BRANCH   3   4
ATOM      4  C   UNL     1       2.029   8.717   7.666  1.00  0.00     0.000 C 
BRANCH   4   5
ATOM      5  C   UNL     1       3.163   9.752   7.558  1.00  0.00     0.006 C 
BRANCH   5   6
ATOM      6  C   UNL     1       4.124   9.765   8.758  1.00  0.00     0.053 C 
BRANCH   6   7
ATOM      7  C   UNL     1       5.086   8.618   8.719  1.00  0.00     0.041 C 
ATOM      8  O   UNL     1       5.286   7.922   9.749  1.00  0.00    -0.550 OA
ATOM      9  O   UNL     1       5.788   8.339   7.553  1.00  0.00    -0.550 OA
ENDBRANCH   6   7
ENDBRANCH   5   6
ENDBRANCH   4   5
ENDBRANCH   3   4
ENDBRANCH   2   3
ENDBRANCH   1   2
BRANCH   1  10
ATOM     10  C   UNL     1       0.241   6.365   9.930  1.00  0.00     0.000 C 
BRANCH  10  11
ATOM     11  C   UNL     1       0.014   4.856  10.125  1.00  0.00    -0.000 C 
BRANCH  11  12
ATOM     12  C   UNL     1      -1.347   4.378   9.587  1.00  0.00    -0.000 C 
BRANCH  12  13
ATOM     13  C   UNL     1      -1.422   2.885   9.214  1.00  0.00    -0.000 C 
BRANCH  13  14
ATOM     14  C   UNL     1      -2.773   2.243   9.575  1.00  0.00    -0.000 C 
BRANCH  14  15
ATOM     15  C   UNL     1      -3.958   3.195   9.345  1.00  0.00    -0.003 C 
ATOM     16  C   UNL     1      -5.302   2.571   9.722  1.00  0.00     0.004 C 
ENDBRANCH  14  15
ENDBRANCH  13  14
ENDBRANCH  12  13
ENDBRANCH  11  12
ENDBRANCH  10  11
ENDBRANCH   1  10
TORSDOF 12
ENDMDL
MODEL 9
REMARK VINA RESULT:    -3.419      4.179      8.280
REMARK INTER + INTRA:          -6.748
REMARK INTER:                  -6.199
REMARK INTRA:                  -0.548
REMARK UNBOUND:                -0.929
REMARK SMILES CCCCCCCCCCCCCC(=O)[O-]
REMARK SMILES IDX 8 1 9 2 10 3 11 4 12 5 13 6 14 7 15 8 16 9 7 10 6 11 5 12
REMARK SMILES IDX 4 13 3 14 2 15 1 16
REMARK H PARENT
REMARK Flexibility Score: inf
ROOT
ATOM      1  C   UNL     1      -0.404   5.222   9.714  1.00  0.00     0.000 C 
ENDROOT
BRANCH   1   2
ATOM      2  C   UNL     1      -0.710   6.539   8.975  1.00  0.00     0.000 C 
BRANCH   2   3
ATOM      3  C   UNL     1       0.500   7.485   8.906  1.00  0.00     0.000 C 
BRANCH   3   4
ATOM      4  C   UNL     1       0.574   8.180   7.538  1.00  0.00     0.000 C 
BRANCH   4   5
ATOM      5  C   UNL     1       2.008   8.590   7.154  1.00  0.00     0.006 C 
BRANCH   5   6
ATOM      6  C   UNL     1       3.107   7.796   7.878  1.00  0.00     0.053 C 
BRANCH   6   7
ATOM      7  C   UNL     1       4.303   8.645   8.186  1.00  0.00     0.041 C 
ATOM      8  O   UNL     1       5.266   8.170   8.842  1.00  0.00    -0.550 OA
ATOM      9  O   UNL     1       4.336   9.972   7.776  1.00  0.00    -0.550 OA
ENDBRANCH   6   7
ENDBRANCH   5   6
ENDBRANCH   4   5
ENDBRANCH   3   4
ENDBRANCH   2   3
ENDBRANCH   1   2
BRANCH   1  10
ATOM     10  C   UNL     1      -1.618   4.308   9.956  1.00  0.00     0.000 C 
BRANCH  10  11
ATOM     11  C   UNL     1      -1.475   2.930   9.289  1.00  0.00    -0.000 C 
BRANCH  11  12
ATOM     12  C   UNL     1      -2.698   2.022   9.513  1.00  0.00    -0.000 C 
BRANCH  12  13
ATOM     13  C   UNL     1      -3.931   2.713  10.125  1.00  0.00    -0.000 C 
BRANCH  13  14
ATOM     14  C   UNL     1      -4.776   3.467   9.083  1.00  0.00    -0.000 C 
BRANCH  14  15
ATOM     15  C   UNL     1      -5.346   4.785   9.629  1.00  0.00    -0.003 C 
ATOM     16  C   UNL     1      -5.381   5.897   8.579  1.00  0.00     0.004 C 
ENDBRANCH  14  15
ENDBRANCH  13  14
ENDBRANCH  12  13
ENDBRANCH  11  12
ENDBRANCH  10  11
ENDBRANCH   1  10
TORSDOF 12
ENDMDL
