MODEL 1
REMARK VINA RESULT:    -7.405      0.000      0.000
REMARK INTER + INTRA:          -9.243
REMARK INTER:                  -8.920
REMARK INTRA:                  -0.324
REMARK UNBOUND:                -0.324
REMARK SMILES O=c1c(O)c(-c2ccc(O)c(O)c2)oc2cc(O)cc(O)c12
REMARK SMILES IDX 5 1 3 2 2 3 1 4 22 5 20 6 19 7 17 8 16 9 15 10 14 11 6 12
REMARK SMILES IDX 7 13 8 14 9 15 13 16 11 17 10 18 12 20 4 22 21 24 18 26
REMARK H PARENT 10 19 12 21 4 23 21 25 18 27
REMARK Flexibility Score: inf
ROOT
ATOM      1  C   UNL     1       3.612 -36.423  43.071  1.00  0.00     0.180 A 
ATOM      2  C   UNL     1       2.470 -36.733  43.831  1.00  0.00     0.208 A 
ATOM      3  C   UNL     1       1.293 -37.109  43.165  1.00  0.00     0.238 A 
ATOM      4  O   UNL     1       0.259 -37.334  43.848  1.00  0.00    -0.285 OA
ATOM      5  C   UNL     1       1.275 -37.187  41.752  1.00  0.00     0.111 A 
ATOM      6  C   UNL     1       0.148 -37.595  40.977  1.00  0.00     0.134 A 
ATOM      7  C   UNL     1       0.203 -37.509  39.580  1.00  0.00     0.093 A 
ATOM      8  C   UNL     1       1.363 -37.092  38.930  1.00  0.00     0.123 A 
ATOM      9  C   UNL     1       2.490 -36.746  39.676  1.00  0.00     0.094 A 
ATOM     10  C   UNL     1       2.455 -36.788  41.072  1.00  0.00     0.146 A 
ATOM     11  O   UNL     1       3.545 -36.440  41.745  1.00  0.00    -0.452 OA
ENDROOT
BRANCH   1  12
ATOM     12  C   UNL     1       4.897 -36.042  43.700  1.00  0.00     0.025 A 
ATOM     13  C   UNL     1       5.204 -34.701  43.985  1.00  0.00     0.016 A 
ATOM     14  C   UNL     1       6.414 -34.367  44.600  1.00  0.00     0.051 A 
ATOM     15  C   UNL     1       7.327 -35.369  44.954  1.00  0.00     0.157 A 
ATOM     16  C   UNL     1       5.807 -37.045  44.076  1.00  0.00     0.062 A 
ATOM     17  C   UNL     1       7.019 -36.714  44.693  1.00  0.00     0.158 A 
BRANCH  15  18
ATOM     18  O   UNL     1       8.533 -35.033  45.566  1.00  0.00    -0.504 OA
ATOM     19  H   UNL     1       9.403 -35.005  45.046  1.00  0.00     0.293 HD
ENDBRANCH  15  18
BRANCH  17  20
ATOM     20  O   UNL     1       7.903 -37.736  45.038  1.00  0.00    -0.504 OA
ATOM     21  H   UNL     1       8.368 -38.304  44.340  1.00  0.00     0.293 HD
ENDBRANCH  17  20
ENDBRANCH   1  12
BRANCH   2  22
ATOM     22  O   UNL     1       2.503 -36.630  45.223  1.00  0.00    -0.502 OA
ATOM     23  H   UNL     1       1.681 -36.407  45.772  1.00  0.00     0.293 HD
ENDBRANCH   2  22
BRANCH   6  24
ATOM     24  O   UNL     1      -1.029 -38.116  41.525  1.00  0.00    -0.507 OA
ATOM     25  H   UNL     1      -1.433 -37.823  42.400  1.00  0.00     0.293 HD
ENDBRANCH   6  24
BRANCH   8  26
ATOM     26  O   UNL     1       1.387 -37.033  37.538  1.00  0.00    -0.508 OA
ATOM     27  H   UNL     1       1.272 -36.157  37.043  1.00  0.00     0.293 HD
ENDBRANCH   8  26
TORSDOF 6
ENDMDL
MODEL 2
REMARK VINA RESULT:    -7.358      3.428      6.105
REMARK INTER + INTRA:          -9.187
REMARK INTER:                  -8.984
REMARK INTRA:                  -0.203
REMARK UNBOUND:                -0.324
REMARK SMILES O=c1c(O)c(-c2ccc(O)c(O)c2)oc2cc(O)cc(O)c12
REMARK SMILES IDX 5 1 3 2 2 3 1 4 22 5 20 6 19 7 17 8 16 9 15 10 14 11 6 12
REMARK SMILES IDX 7 13 8 14 9 15 13 16 11 17 10 18 12 20 4 22 21 24 18 26
REMARK H PARENT 10 19 12 21 4 23 21 25 18 27
REMARK Flexibility Score: inf
ROOT
ATOM      1  C   UNL     1       7.262 -34.009  44.809  1.00  0.00     0.180 A 
ATOM      2  C   UNL     1       8.026 -35.179  44.952  1.00  0.00     0.208 A 
ATOM      3  C   UNL     1       7.371 -36.421  44.968  1.00  0.00     0.238 A 
ATOM      4  O   UNL     1       8.055 -37.463  45.150  1.00  0.00    -0.285 OA
ATOM      5  C   UNL     1       5.964 -36.478  44.827  1.00  0.00     0.111 A 
ATOM      6  C   UNL     1       5.201 -37.684  44.790  1.00  0.00     0.134 A 
ATOM      7  C   UNL     1       3.802 -37.616  44.777  1.00  0.00     0.093 A 
ATOM      8  C   UNL     1       3.141 -36.390  44.735  1.00  0.00     0.123 A 
ATOM      9  C   UNL     1       3.879 -35.205  44.711  1.00  0.00     0.094 A 
ATOM     10  C   UNL     1       5.275 -35.240  44.758  1.00  0.00     0.146 A 
ATOM     11  O   UNL     1       5.938 -34.090  44.745  1.00  0.00    -0.452 OA
ENDROOT
BRANCH   1  12
ATOM     12  C   UNL     1       7.882 -32.664  44.757  1.00  0.00     0.025 A 
ATOM     13  C   UNL     1       8.719 -32.285  43.694  1.00  0.00     0.016 A 
ATOM     14  C   UNL     1       9.275 -31.004  43.654  1.00  0.00     0.051 A 
ATOM     15  C   UNL     1       8.991 -30.078  44.667  1.00  0.00     0.157 A 
ATOM     16  C   UNL     1       7.584 -31.726  45.760  1.00  0.00     0.062 A 
ATOM     17  C   UNL     1       8.139 -30.441  45.722  1.00  0.00     0.158 A 
BRANCH  15  18
ATOM     18  O   UNL     1       9.548 -28.801  44.626  1.00  0.00    -0.504 OA
ATOM     19  H   UNL     1       9.578 -28.263  43.767  1.00  0.00     0.293 HD
ENDBRANCH  15  18
BRANCH  17  20
ATOM     20  O   UNL     1       7.830 -29.542  46.742  1.00  0.00    -0.504 OA
ATOM     21  H   UNL     1       6.882 -29.404  47.070  1.00  0.00     0.293 HD
ENDBRANCH  17  20
ENDBRANCH   1  12
BRANCH   2  22
ATOM     22  O   UNL     1       9.412 -35.100  45.112  1.00  0.00    -0.502 OA
ATOM     23  H   UNL     1      10.057 -35.644  44.551  1.00  0.00     0.293 HD
ENDBRANCH   2  22
BRANCH   6  24
ATOM     24  O   UNL     1       5.764 -38.963  44.736  1.00  0.00    -0.507 OA
ATOM     25  H   UNL     1       6.491 -39.297  45.350  1.00  0.00     0.293 HD
ENDBRANCH   6  24
BRANCH   8  26
ATOM     26  O   UNL     1       1.749 -36.360  44.707  1.00  0.00    -0.508 OA
ATOM     27  H   UNL     1       1.241 -35.504  44.516  1.00  0.00     0.293 HD
ENDBRANCH   8  26
TORSDOF 6
ENDMDL
MODEL 3
REMARK VINA RESULT:    -6.987      1.616      7.141
REMARK INTER + INTRA:          -8.740
REMARK INTER:                  -8.420
REMARK INTRA:                  -0.320
REMARK UNBOUND:                -0.324
REMARK SMILES O=c1c(O)c(-c2ccc(O)c(O)c2)oc2cc(O)cc(O)c12
REMARK SMILES IDX 5 1 3 2 2 3 1 4 22 5 20 6 19 7 17 8 16 9 15 10 14 11 6 12
REMARK SMILES IDX 7 13 8 14 9 15 13 16 11 17 10 18 12 20 4 22 21 24 18 26
REMARK H PARENT 10 19 12 21 4 23 21 25 18 27
REMARK Flexibility Score: inf
ROOT
ATOM      1  C   UNL     1       4.808 -36.381  43.527  1.00  0.00     0.180 A 
ATOM      2  C   UNL     1       5.695 -37.327  44.069  1.00  0.00     0.208 A 
ATOM      3  C   UNL     1       6.930 -36.891  44.573  1.00  0.00     0.238 A 
ATOM      4  O   UNL     1       7.743 -37.749  45.008  1.00  0.00    -0.285 OA
ATOM      5  C   UNL     1       7.258 -35.514  44.542  1.00  0.00     0.111 A 
ATOM      6  C   UNL     1       8.465 -34.956  45.061  1.00  0.00     0.134 A 
ATOM      7  C   UNL     1       8.740 -33.598  44.859  1.00  0.00     0.093 A 
ATOM      8  C   UNL     1       7.825 -32.765  44.217  1.00  0.00     0.123 A 
ATOM      9  C   UNL     1       6.615 -33.288  43.758  1.00  0.00     0.094 A 
ATOM     10  C   UNL     1       6.328 -34.646  43.913  1.00  0.00     0.146 A 
ATOM     11  O   UNL     1       5.171 -35.106  43.452  1.00  0.00    -0.452 OA
ENDROOT
BRANCH   1  12
ATOM     12  C   UNL     1       3.476 -36.760  43.000  1.00  0.00     0.025 A 
ATOM     13  C   UNL     1       3.311 -37.193  41.673  1.00  0.00     0.016 A 
ATOM     14  C   UNL     1       2.049 -37.568  41.205  1.00  0.00     0.051 A 
ATOM     15  C   UNL     1       0.938 -37.531  42.058  1.00  0.00     0.157 A 
ATOM     16  C   UNL     1       2.363 -36.744  43.857  1.00  0.00     0.062 A 
ATOM     17  C   UNL     1       1.098 -37.119  43.391  1.00  0.00     0.158 A 
BRANCH  15  18
ATOM     18  O   UNL     1      -0.320 -37.904  41.587  1.00  0.00    -0.504 OA
ATOM     19  H   UNL     1      -0.649 -38.861  41.652  1.00  0.00     0.293 HD
ENDBRANCH  15  18
BRANCH  17  20
ATOM     20  O   UNL     1       0.014 -37.077  44.267  1.00  0.00    -0.504 OA
ATOM     21  H   UNL     1      -0.159 -37.810  44.944  1.00  0.00     0.293 HD
ENDBRANCH  17  20
ENDBRANCH   1  12
BRANCH   2  22
ATOM     22  O   UNL     1       5.361 -38.684  44.070  1.00  0.00    -0.502 OA
ATOM     23  H   UNL     1       5.316 -39.233  44.920  1.00  0.00     0.293 HD
ENDBRANCH   2  22
BRANCH   6  24
ATOM     24  O   UNL     1       9.405 -35.681  45.799  1.00  0.00    -0.507 OA
ATOM     25  H   UNL     1       9.287 -36.636  46.100  1.00  0.00     0.293 HD
ENDBRANCH   6  24
BRANCH   8  26
ATOM     26  O   UNL     1       8.126 -31.415  44.048  1.00  0.00    -0.508 OA
ATOM     27  H   UNL     1       7.704 -30.867  43.307  1.00  0.00     0.293 HD
ENDBRANCH   8  26
TORSDOF 6
ENDMDL
MODEL 4
REMARK VINA RESULT:    -6.690      3.030      5.073
REMARK INTER + INTRA:          -8.382
REMARK INTER:                  -8.060
REMARK INTRA:                  -0.322
REMARK UNBOUND:                -0.324
REMARK SMILES O=c1c(O)c(-c2ccc(O)c(O)c2)oc2cc(O)cc(O)c12
REMARK SMILES IDX 5 1 3 2 2 3 1 4 22 5 20 6 19 7 17 8 16 9 15 10 14 11 6 12
REMARK SMILES IDX 7 13 8 14 9 15 13 16 11 17 10 18 12 20 4 22 21 24 18 26
REMARK H PARENT 10 19 12 21 4 23 21 25 18 27
REMARK Flexibility Score: inf
ROOT
ATOM      1  C   UNL     1       6.197 -34.981  43.767  1.00  0.00     0.180 A 
ATOM      2  C   UNL     1       5.244 -34.964  42.734  1.00  0.00     0.208 A 
ATOM      3  C   UNL     1       4.514 -36.132  42.464  1.00  0.00     0.238 A 
ATOM      4  O   UNL     1       3.700 -36.127  41.503  1.00  0.00    -0.285 OA
ATOM      5  C   UNL     1       4.735 -37.297  43.237  1.00  0.00     0.111 A 
ATOM      6  C   UNL     1       4.024 -38.524  43.076  1.00  0.00     0.134 A 
ATOM      7  C   UNL     1       4.416 -39.651  43.810  1.00  0.00     0.093 A 
ATOM      8  C   UNL     1       5.448 -39.578  44.744  1.00  0.00     0.123 A 
ATOM      9  C   UNL     1       6.111 -38.368  44.953  1.00  0.00     0.094 A 
ATOM     10  C   UNL     1       5.766 -37.235  44.211  1.00  0.00     0.146 A 
ATOM     11  O   UNL     1       6.429 -36.107  44.431  1.00  0.00    -0.452 OA
ENDROOT
BRANCH   1  12
ATOM     12  C   UNL     1       6.988 -33.781  44.129  1.00  0.00     0.025 A 
ATOM     13  C   UNL     1       8.202 -33.483  43.485  1.00  0.00     0.016 A 
ATOM     14  C   UNL     1       8.919 -32.334  43.827  1.00  0.00     0.051 A 
ATOM     15  C   UNL     1       8.428 -31.458  44.804  1.00  0.00     0.157 A 
ATOM     16  C   UNL     1       6.490 -32.890  45.093  1.00  0.00     0.062 A 
ATOM     17  C   UNL     1       7.206 -31.737  45.438  1.00  0.00     0.158 A 
BRANCH  15  18
ATOM     18  O   UNL     1       9.147 -30.313  45.144  1.00  0.00    -0.504 OA
ATOM     19  H   UNL     1      10.152 -30.262  45.021  1.00  0.00     0.293 HD
ENDBRANCH  15  18
BRANCH  17  20
ATOM     20  O   UNL     1       6.686 -30.883  46.409  1.00  0.00    -0.504 OA
ATOM     21  H   UNL     1       6.878 -29.889  46.410  1.00  0.00     0.293 HD
ENDBRANCH  17  20
ENDBRANCH   1  12
BRANCH   2  22
ATOM     22  O   UNL     1       5.057 -33.810  41.969  1.00  0.00    -0.502 OA
ATOM     23  H   UNL     1       4.893 -33.841  40.969  1.00  0.00     0.293 HD
ENDBRANCH   2  22
BRANCH   6  24
ATOM     24  O   UNL     1       2.917 -38.680  42.236  1.00  0.00    -0.507 OA
ATOM     25  H   UNL     1       2.677 -39.532  41.754  1.00  0.00     0.293 HD
ENDBRANCH   6  24
BRANCH   8  26
ATOM     26  O   UNL     1       5.800 -40.715  45.468  1.00  0.00    -0.508 OA
ATOM     27  H   UNL     1       5.700 -40.753  46.476  1.00  0.00     0.293 HD
ENDBRANCH   8  26
TORSDOF 6
ENDMDL
MODEL 5
REMARK VINA RESULT:    -6.573      4.298      8.085
REMARK INTER + INTRA:          -8.242
REMARK INTER:                  -8.181
REMARK INTRA:                  -0.061
REMARK UNBOUND:                -0.324
REMARK SMILES O=c1c(O)c(-c2ccc(O)c(O)c2)oc2cc(O)cc(O)c12
REMARK SMILES IDX 5 1 3 2 2 3 1 4 22 5 20 6 19 7 17 8 16 9 15 10 14 11 6 12
REMARK SMILES IDX 7 13 8 14 9 15 13 16 11 17 10 18 12 20 4 22 21 24 18 26
REMARK H PARENT 10 19 12 21 4 23 21 25 18 27
REMARK Flexibility Score: inf
ROOT
ATOM      1  C   UNL     1       7.123 -34.679  44.319  1.00  0.00     0.180 A 
ATOM      2  C   UNL     1       7.828 -34.512  43.114  1.00  0.00     0.208 A 
ATOM      3  C   UNL     1       8.505 -33.303  42.884  1.00  0.00     0.238 A 
ATOM      4  O   UNL     1       9.090 -33.139  41.781  1.00  0.00    -0.285 OA
ATOM      5  C   UNL     1       8.483 -32.285  43.867  1.00  0.00     0.111 A 
ATOM      6  C   UNL     1       9.167 -31.037  43.756  1.00  0.00     0.134 A 
ATOM      7  C   UNL     1       8.969 -30.052  44.732  1.00  0.00     0.093 A 
ATOM      8  C   UNL     1       8.164 -30.292  45.844  1.00  0.00     0.123 A 
ATOM      9  C   UNL     1       7.537 -31.530  45.993  1.00  0.00     0.094 A 
ATOM     10  C   UNL     1       7.688 -32.520  45.018  1.00  0.00     0.146 A 
ATOM     11  O   UNL     1       7.066 -33.680  45.192  1.00  0.00    -0.452 OA
ENDROOT
BRANCH   1  12
ATOM     12  C   UNL     1       6.406 -35.933  44.644  1.00  0.00     0.025 A 
ATOM     13  C   UNL     1       7.050 -37.181  44.587  1.00  0.00     0.016 A 
ATOM     14  C   UNL     1       6.360 -38.349  44.921  1.00  0.00     0.051 A 
ATOM     15  C   UNL     1       5.021 -38.286  45.331  1.00  0.00     0.157 A 
ATOM     16  C   UNL     1       5.070 -35.873  45.075  1.00  0.00     0.062 A 
ATOM     17  C   UNL     1       4.375 -37.042  45.411  1.00  0.00     0.158 A 
BRANCH  15  18
ATOM     18  O   UNL     1       4.334 -39.453  45.662  1.00  0.00    -0.504 OA
ATOM     19  H   UNL     1       4.803 -40.239  46.099  1.00  0.00     0.293 HD
ENDBRANCH  15  18
BRANCH  17  20
ATOM     20  O   UNL     1       3.046 -36.944  45.821  1.00  0.00    -0.504 OA
ATOM     21  H   UNL     1       2.657 -37.551  46.532  1.00  0.00     0.293 HD
ENDBRANCH  17  20
ENDBRANCH   1  12
BRANCH   2  22
ATOM     22  O   UNL     1       7.819 -35.521  42.148  1.00  0.00    -0.502 OA
ATOM     23  H   UNL     1       7.400 -35.397  41.234  1.00  0.00     0.293 HD
ENDBRANCH   2  22
BRANCH   6  24
ATOM     24  O   UNL     1      10.067 -30.728  42.731  1.00  0.00    -0.507 OA
ATOM     25  H   UNL     1       9.852 -30.153  41.932  1.00  0.00     0.293 HD
ENDBRANCH   6  24
BRANCH   8  26
ATOM     26  O   UNL     1       8.002 -29.294  46.803  1.00  0.00    -0.508 OA
ATOM     27  H   UNL     1       7.091 -29.072  47.188  1.00  0.00     0.293 HD
ENDBRANCH   8  26
TORSDOF 6
ENDMDL
MODEL 6
REMARK VINA RESULT:    -6.550      2.310      4.202
REMARK INTER + INTRA:          -8.214
REMARK INTER:                  -7.943
REMARK INTRA:                  -0.271
REMARK UNBOUND:                -0.324
REMARK SMILES O=c1c(O)c(-c2ccc(O)c(O)c2)oc2cc(O)cc(O)c12
REMARK SMILES IDX 5 1 3 2 2 3 1 4 22 5 20 6 19 7 17 8 16 9 15 10 14 11 6 12
REMARK SMILES IDX 7 13 8 14 9 15 13 16 11 17 10 18 12 20 4 22 21 24 18 26
REMARK H PARENT 10 19 12 21 4 23 21 25 18 27
REMARK Flexibility Score: inf
ROOT
ATOM      1  C   UNL     1       6.092 -35.626  43.993  1.00  0.00     0.180 A 
ATOM      2  C   UNL     1       6.586 -36.876  44.404  1.00  0.00     0.208 A 
ATOM      3  C   UNL     1       5.807 -38.022  44.178  1.00  0.00     0.238 A 
ATOM      4  O   UNL     1       6.231 -39.132  44.596  1.00  0.00    -0.285 OA
ATOM      5  C   UNL     1       4.554 -37.907  43.530  1.00  0.00     0.111 A 
ATOM      6  C   UNL     1       3.700 -39.006  43.214  1.00  0.00     0.134 A 
ATOM      7  C   UNL     1       2.425 -38.762  42.690  1.00  0.00     0.093 A 
ATOM      8  C   UNL     1       1.998 -37.465  42.411  1.00  0.00     0.123 A 
ATOM      9  C   UNL     1       2.847 -36.386  42.660  1.00  0.00     0.094 A 
ATOM     10  C   UNL     1       4.112 -36.596  43.215  1.00  0.00     0.146 A 
ATOM     11  O   UNL     1       4.885 -35.541  43.448  1.00  0.00    -0.452 OA
ENDROOT
BRANCH   1  12
ATOM     12  C   UNL     1       6.866 -34.375  44.174  1.00  0.00     0.025 A 
ATOM     13  C   UNL     1       7.985 -34.085  43.375  1.00  0.00     0.016 A 
ATOM     14  C   UNL     1       8.686 -32.888  43.549  1.00  0.00     0.051 A 
ATOM     15  C   UNL     1       8.270 -31.958  44.510  1.00  0.00     0.157 A 
ATOM     16  C   UNL     1       6.440 -33.430  45.123  1.00  0.00     0.062 A 
ATOM     17  C   UNL     1       7.139 -32.230  45.298  1.00  0.00     0.158 A 
BRANCH  15  18
ATOM     18  O   UNL     1       8.971 -30.766  44.682  1.00  0.00    -0.504 OA
ATOM     19  H   UNL     1       8.496 -29.870  44.713  1.00  0.00     0.293 HD
ENDBRANCH  15  18
BRANCH  17  20
ATOM     20  O   UNL     1       6.696 -31.324  46.260  1.00  0.00    -0.504 OA
ATOM     21  H   UNL     1       5.908 -30.708  46.096  1.00  0.00     0.293 HD
ENDBRANCH  17  20
ENDBRANCH   1  12
BRANCH   2  22
ATOM     22  O   UNL     1       7.816 -36.965  45.060  1.00  0.00    -0.502 OA
ATOM     23  H   UNL     1       8.485 -37.701  44.866  1.00  0.00     0.293 HD
ENDBRANCH   2  22
BRANCH   6  24
ATOM     24  O   UNL     1       4.066 -40.347  43.369  1.00  0.00    -0.507 OA
ATOM     25  H   UNL     1       4.602 -40.877  42.700  1.00  0.00     0.293 HD
ENDBRANCH   6  24
BRANCH   8  26
ATOM     26  O   UNL     1       0.728 -37.261  41.874  1.00  0.00    -0.508 OA
ATOM     27  H   UNL     1      -0.000 -36.794  42.402  1.00  0.00     0.293 HD
ENDBRANCH   8  26
TORSDOF 6
ENDMDL
MODEL 7
REMARK VINA RESULT:    -6.529      1.673      3.490
REMARK INTER + INTRA:          -8.188
REMARK INTER:                  -7.888
REMARK INTRA:                  -0.300
REMARK UNBOUND:                -0.324
REMARK SMILES O=c1c(O)c(-c2ccc(O)c(O)c2)oc2cc(O)cc(O)c12
REMARK SMILES IDX 5 1 3 2 2 3 1 4 22 5 20 6 19 7 17 8 16 9 15 10 14 11 6 12
REMARK SMILES IDX 7 13 8 14 9 15 13 16 11 17 10 18 12 20 4 22 21 24 18 26
REMARK H PARENT 10 19 12 21 4 23 21 25 18 27
REMARK Flexibility Score: inf
ROOT
ATOM      1  C   UNL     1       4.769 -35.563  43.071  1.00  0.00     0.180 A 
ATOM      2  C   UNL     1       4.851 -35.392  41.678  1.00  0.00     0.208 A 
ATOM      3  C   UNL     1       3.811 -35.878  40.871  1.00  0.00     0.238 A 
ATOM      4  O   UNL     1       3.915 -35.770  39.621  1.00  0.00    -0.285 OA
ATOM      5  C   UNL     1       2.695 -36.514  41.466  1.00  0.00     0.111 A 
ATOM      6  C   UNL     1       1.565 -37.009  40.747  1.00  0.00     0.134 A 
ATOM      7  C   UNL     1       0.579 -37.737  41.425  1.00  0.00     0.093 A 
ATOM      8  C   UNL     1       0.649 -37.931  42.804  1.00  0.00     0.123 A 
ATOM      9  C   UNL     1       1.719 -37.401  43.526  1.00  0.00     0.094 A 
ATOM     10  C   UNL     1       2.736 -36.700  42.872  1.00  0.00     0.146 A 
ATOM     11  O   UNL     1       3.742 -36.222  43.594  1.00  0.00    -0.452 OA
ENDROOT
BRANCH   1  12
ATOM     12  C   UNL     1       5.814 -35.055  43.990  1.00  0.00     0.025 A 
ATOM     13  C   UNL     1       7.002 -35.772  44.214  1.00  0.00     0.016 A 
ATOM     14  C   UNL     1       7.984 -35.263  45.067  1.00  0.00     0.051 A 
ATOM     15  C   UNL     1       7.801 -34.024  45.698  1.00  0.00     0.157 A 
ATOM     16  C   UNL     1       5.643 -33.805  44.609  1.00  0.00     0.062 A 
ATOM     17  C   UNL     1       6.626 -33.292  45.464  1.00  0.00     0.158 A 
BRANCH  15  18
ATOM     18  O   UNL     1       8.782 -33.520  46.550  1.00  0.00    -0.504 OA
ATOM     19  H   UNL     1       9.703 -33.940  46.606  1.00  0.00     0.293 HD
ENDBRANCH  15  18
BRANCH  17  20
ATOM     20  O   UNL     1       6.415 -32.055  46.070  1.00  0.00    -0.504 OA
ATOM     21  H   UNL     1       7.152 -31.563  46.561  1.00  0.00     0.293 HD
ENDBRANCH  17  20
ENDBRANCH   1  12
BRANCH   2  22
ATOM     22  O   UNL     1       5.971 -34.780  41.110  1.00  0.00    -0.502 OA
ATOM     23  H   UNL     1       6.842 -35.275  40.954  1.00  0.00     0.293 HD
ENDBRANCH   2  22
BRANCH   6  24
ATOM     24  O   UNL     1       1.352 -36.790  39.382  1.00  0.00    -0.507 OA
ATOM     25  H   UNL     1       1.245 -35.883  38.955  1.00  0.00     0.293 HD
ENDBRANCH   6  24
BRANCH   8  26
ATOM     26  O   UNL     1      -0.358 -38.646  43.448  1.00  0.00    -0.508 OA
ATOM     27  H   UNL     1      -0.229 -39.019  44.382  1.00  0.00     0.293 HD
ENDBRANCH   8  26
TORSDOF 6
ENDMDL
MODEL 8
REMARK VINA RESULT:    -6.386      1.161      2.884
REMARK INTER + INTRA:          -8.016
REMARK INTER:                  -7.683
REMARK INTRA:                  -0.333
REMARK UNBOUND:                -0.324
REMARK SMILES O=c1c(O)c(-c2ccc(O)c(O)c2)oc2cc(O)cc(O)c12
REMARK SMILES IDX 5 1 3 2 2 3 1 4 22 5 20 6 19 7 17 8 16 9 15 10 14 11 6 12
REMARK SMILES IDX 7 13 8 14 9 15 13 16 11 17 10 18 12 20 4 22 21 24 18 26
REMARK H PARENT 10 19 12 21 4 23 21 25 18 27
REMARK Flexibility Score: inf
ROOT
ATOM      1  C   UNL     1       4.026 -36.264  42.073  1.00  0.00     0.180 A 
ATOM      2  C   UNL     1       4.195 -36.252  40.678  1.00  0.00     0.208 A 
ATOM      3  C   UNL     1       3.123 -36.645  39.860  1.00  0.00     0.238 A 
ATOM      4  O   UNL     1       3.297 -36.682  38.613  1.00  0.00    -0.285 OA
ATOM      5  C   UNL     1       1.893 -37.030  40.445  1.00  0.00     0.111 A 
ATOM      6  C   UNL     1       0.729 -37.409  39.711  1.00  0.00     0.134 A 
ATOM      7  C   UNL     1      -0.391 -37.896  40.396  1.00  0.00     0.093 A 
ATOM      8  C   UNL     1      -0.413 -37.957  41.788  1.00  0.00     0.123 A 
ATOM      9  C   UNL     1       0.698 -37.535  42.519  1.00  0.00     0.094 A 
ATOM     10  C   UNL     1       1.843 -37.076  41.863  1.00  0.00     0.146 A 
ATOM     11  O   UNL     1       2.883 -36.694  42.594  1.00  0.00    -0.452 OA
ENDROOT
BRANCH   1  12
ATOM     12  C   UNL     1       5.101 -35.840  43.000  1.00  0.00     0.025 A 
ATOM     13  C   UNL     1       5.235 -34.499  43.400  1.00  0.00     0.016 A 
ATOM     14  C   UNL     1       6.242 -34.126  44.294  1.00  0.00     0.051 A 
ATOM     15  C   UNL     1       7.120 -35.087  44.813  1.00  0.00     0.157 A 
ATOM     16  C   UNL     1       5.970 -36.803  43.538  1.00  0.00     0.062 A 
ATOM     17  C   UNL     1       6.980 -36.433  44.434  1.00  0.00     0.158 A 
BRANCH  15  18
ATOM     18  O   UNL     1       8.124 -34.712  45.702  1.00  0.00    -0.504 OA
ATOM     19  H   UNL     1       8.022 -33.905  46.309  1.00  0.00     0.293 HD
ENDBRANCH  15  18
BRANCH  17  20
ATOM     20  O   UNL     1       7.832 -37.415  44.936  1.00  0.00    -0.504 OA
ATOM     21  H   UNL     1       8.026 -37.504  45.926  1.00  0.00     0.293 HD
ENDBRANCH  17  20
ENDBRANCH   1  12
BRANCH   2  22
ATOM     22  O   UNL     1       5.423 -35.889  40.121  1.00  0.00    -0.502 OA
ATOM     23  H   UNL     1       5.991 -36.535  39.586  1.00  0.00     0.293 HD
ENDBRANCH   2  22
BRANCH   6  24
ATOM     24  O   UNL     1       0.613 -37.299  38.322  1.00  0.00    -0.507 OA
ATOM     25  H   UNL     1       0.387 -36.448  37.830  1.00  0.00     0.293 HD
ENDBRANCH   6  24
BRANCH   8  26
ATOM     26  O   UNL     1      -1.551 -38.433  42.437  1.00  0.00    -0.508 OA
ATOM     27  H   UNL     1      -2.468 -38.375  42.009  1.00  0.00     0.293 HD
ENDBRANCH   8  26
TORSDOF 6
ENDMDL
MODEL 9
REMARK VINA RESULT:    -6.046      4.095      7.600
REMARK INTER + INTRA:          -7.607
REMARK INTER:                  -7.284
REMARK INTRA:                  -0.323
REMARK UNBOUND:                -0.324
REMARK SMILES O=c1c(O)c(-c2ccc(O)c(O)c2)oc2cc(O)cc(O)c12
REMARK SMILES IDX 5 1 3 2 2 3 1 4 22 5 20 6 19 7 17 8 16 9 15 10 14 11 6 12
REMARK SMILES IDX 7 13 8 14 9 15 13 16 11 17 10 18 12 20 4 22 21 24 18 26
REMARK H PARENT 10 19 12 21 4 23 21 25 18 27
REMARK Flexibility Score: inf
ROOT
ATOM      1  C   UNL     1       6.715 -33.435  44.239  1.00  0.00     0.180 A 
ATOM      2  C   UNL     1       7.293 -32.678  45.273  1.00  0.00     0.208 A 
ATOM      3  C   UNL     1       7.896 -31.449  44.960  1.00  0.00     0.238 A 
ATOM      4  O   UNL     1       8.459 -30.800  45.881  1.00  0.00    -0.285 OA
ATOM      5  C   UNL     1       7.900 -30.986  43.623  1.00  0.00     0.111 A 
ATOM      6  C   UNL     1       8.448 -29.737  43.198  1.00  0.00     0.134 A 
ATOM      7  C   UNL     1       8.514 -29.441  41.831  1.00  0.00     0.093 A 
ATOM      8  C   UNL     1       7.994 -30.316  40.879  1.00  0.00     0.123 A 
ATOM      9  C   UNL     1       7.403 -31.513  41.286  1.00  0.00     0.094 A 
ATOM     10  C   UNL     1       7.354 -31.852  42.641  1.00  0.00     0.146 A 
ATOM     11  O   UNL     1       6.794 -33.005  42.985  1.00  0.00    -0.452 OA
ENDROOT
BRANCH   1  12
ATOM     12  C   UNL     1       6.039 -34.728  44.494  1.00  0.00     0.025 A 
ATOM     13  C   UNL     1       6.750 -35.940  44.488  1.00  0.00     0.016 A 
ATOM     14  C   UNL     1       6.096 -37.145  44.754  1.00  0.00     0.051 A 
ATOM     15  C   UNL     1       4.724 -37.157  45.043  1.00  0.00     0.157 A 
ATOM     16  C   UNL     1       4.669 -34.742  44.804  1.00  0.00     0.062 A 
ATOM     17  C   UNL     1       4.010 -35.948  45.071  1.00  0.00     0.158 A 
BRANCH  15  18
ATOM     18  O   UNL     1       4.074 -38.361  45.306  1.00  0.00    -0.504 OA
ATOM     19  H   UNL     1       4.518 -39.254  45.126  1.00  0.00     0.293 HD
ENDBRANCH  15  18
BRANCH  17  20
ATOM     20  O   UNL     1       2.646 -35.924  45.362  1.00  0.00    -0.504 OA
ATOM     21  H   UNL     1       2.061 -35.130  45.131  1.00  0.00     0.293 HD
ENDBRANCH  17  20
ENDBRANCH   1  12
BRANCH   2  22
ATOM     22  O   UNL     1       7.297 -33.163  46.583  1.00  0.00    -0.502 OA
ATOM     23  H   UNL     1       8.125 -33.149  47.166  1.00  0.00     0.293 HD
ENDBRANCH   2  22
BRANCH   6  24
ATOM     24  O   UNL     1       8.911 -28.751  44.075  1.00  0.00    -0.507 OA
ATOM     25  H   UNL     1       9.727 -28.179  43.917  1.00  0.00     0.293 HD
ENDBRANCH   6  24
BRANCH   8  26
ATOM     26  O   UNL     1       8.062 -29.981  39.529  1.00  0.00    -0.508 OA
ATOM     27  H   UNL     1       7.323 -30.232  38.882  1.00  0.00     0.293 HD
ENDBRANCH   8  26
TORSDOF 6
ENDMDL
