MODEL 1
REMARK VINA RESULT:    -6.437      0.000      0.000
REMARK INTER + INTRA:         -18.133
REMARK INTER:                 -14.715
REMARK INTRA:                  -3.418
REMARK UNBOUND:                -3.418
REMARK SMILES CCCCCCCCCCCCCCCCCCCCCCCC(=O)[O-]
REMARK SMILES IDX 13 1 14 2 15 3 16 4 17 5 18 6 19 7 20 8 21 9 22 10 23 11
REMARK SMILES IDX 24 12 25 13 26 14 12 15 11 16 10 17 9 18 8 19 7 20 6 21 5 22
REMARK SMILES IDX 4 23 3 24 2 25 1 26
REMARK H PARENT
REMARK Flexibility Score: inf
ROOT
ATOM      1  C   UNL     1     -18.702 -11.523   0.062  1.00  0.00     0.000 C 
ENDROOT
BRANCH   1   2
ATOM      2  C   UNL     1     -19.243 -10.411  -0.850  1.00  0.00     0.000 C 
BRANCH   2   3
ATOM      3  C   UNL     1     -19.147  -9.013  -0.213  1.00  0.00     0.000 C 
BRANCH   3   4
ATOM      4  C   UNL     1     -18.361  -8.950   1.110  1.00  0.00     0.000 C 
BRANCH   4   5
ATOM      5  C   UNL     1     -17.440  -7.721   1.204  1.00  0.00     0.000 C 
BRANCH   5   6
ATOM      6  C   UNL     1     -15.947  -8.108   1.160  1.00  0.00     0.000 C 
BRANCH   6   7
ATOM      7  C   UNL     1     -15.676  -9.426   0.416  1.00  0.00     0.000 C 
BRANCH   7   8
ATOM      8  C   UNL     1     -14.716  -9.253  -0.773  1.00  0.00     0.000 C 
BRANCH   8   9
ATOM      9  C   UNL     1     -14.896  -7.902  -1.483  1.00  0.00     0.000 C 
BRANCH   9  10
ATOM     10  C   UNL     1     -16.305  -7.730  -2.075  1.00  0.00     0.006 C 
BRANCH  10  11
ATOM     11  C   UNL     1     -16.715  -8.921  -2.949  1.00  0.00     0.053 C 
BRANCH  11  12
ATOM     12  C   UNL     1     -16.058  -8.875  -4.295  1.00  0.00     0.041 C 
ATOM     13  O   UNL     1     -16.515  -8.124  -5.199  1.00  0.00    -0.550 OA
ATOM     14  O   UNL     1     -14.926  -9.640  -4.542  1.00  0.00    -0.550 OA
ENDBRANCH  11  12
ENDBRANCH  10  11
ENDBRANCH   9  10
ENDBRANCH   8   9
ENDBRANCH   7   8
ENDBRANCH   6   7
ENDBRANCH   5   6
ENDBRANCH   4   5
ENDBRANCH   3   4
ENDBRANCH   2   3
ENDBRANCH   1   2
BRANCH   1  15
ATOM     15  C   UNL     1     -18.623 -12.890  -0.643  1.00  0.00     0.000 C 
BRANCH  15  16
ATOM     16  C   UNL     1     -19.745 -13.173  -1.665  1.00  0.00     0.000 C 
BRANCH  16  17
ATOM     17  C   UNL     1     -19.321 -13.977  -2.908  1.00  0.00     0.000 C 
BRANCH  17  18
ATOM     18  C   UNL     1     -17.958 -14.669  -2.738  1.00  0.00    -0.000 C 
BRANCH  18  19
ATOM     19  C   UNL     1     -16.833 -13.983  -3.534  1.00  0.00    -0.000 C 
BRANCH  19  20
ATOM     20  C   UNL     1     -16.485 -12.551  -3.085  1.00  0.00    -0.000 C 
BRANCH  20  21
ATOM     21  C   UNL     1     -15.136 -12.465  -2.351  1.00  0.00    -0.000 C 
BRANCH  21  22
ATOM     22  C   UNL     1     -14.719 -13.799  -1.704  1.00  0.00    -0.000 C 
BRANCH  22  23
ATOM     23  C   UNL     1     -13.861 -13.672  -0.429  1.00  0.00    -0.000 C 
BRANCH  23  24
ATOM     24  C   UNL     1     -14.560 -12.998   0.769  1.00  0.00    -0.000 C 
BRANCH  24  25
ATOM     25  C   UNL     1     -15.830 -13.715   1.261  1.00  0.00    -0.003 C 
ATOM     26  C   UNL     1     -15.614 -14.480   2.566  1.00  0.00     0.004 C 
ENDBRANCH  24  25
ENDBRANCH  23  24
ENDBRANCH  22  23
ENDBRANCH  21  22
ENDBRANCH  20  21
ENDBRANCH  19  20
ENDBRANCH  18  19
ENDBRANCH  17  18
ENDBRANCH  16  17
ENDBRANCH  15  16
ENDBRANCH   1  15
TORSDOF 22
ENDMDL
MODEL 2
REMARK VINA RESULT:    -6.277      2.319      6.357
REMARK INTER + INTRA:         -17.768
REMARK INTER:                 -14.047
REMARK INTRA:                  -3.720
REMARK UNBOUND:                -3.418
REMARK SMILES CCCCCCCCCCCCCCCCCCCCCCCC(=O)[O-]
REMARK SMILES IDX 13 1 14 2 15 3 16 4 17 5 18 6 19 7 20 8 21 9 22 10 23 11
REMARK SMILES IDX 24 12 25 13 26 14 12 15 11 16 10 17 9 18 8 19 7 20 6 21 5 22
REMARK SMILES IDX 4 23 3 24 2 25 1 26
REMARK H PARENT
REMARK Flexibility Score: inf
ROOT
ATOM      1  C   UNL     1     -18.485 -10.801  -1.747  1.00  0.00     0.000 C 
ENDROOT
BRANCH   1   2
ATOM      2  C   UNL     1     -19.056 -11.784  -0.713  1.00  0.00     0.000 C 
BRANCH   2   3
ATOM      3  C   UNL     1     -19.390 -13.161  -1.317  1.00  0.00     0.000 C 
BRANCH   3   4
ATOM      4  C   UNL     1     -19.063 -13.316  -2.813  1.00  0.00     0.000 C 
BRANCH   4   5
ATOM      5  C   UNL     1     -18.294 -14.611  -3.130  1.00  0.00     0.000 C 
BRANCH   5   6
ATOM      6  C   UNL     1     -16.851 -14.331  -3.600  1.00  0.00     0.000 C 
BRANCH   6   7
ATOM      7  C   UNL     1     -16.366 -12.908  -3.278  1.00  0.00     0.000 C 
BRANCH   7   8
ATOM      8  C   UNL     1     -15.302 -12.879  -2.168  1.00  0.00     0.000 C 
BRANCH   8   9
ATOM      9  C   UNL     1     -15.032 -14.270  -1.574  1.00  0.00     0.000 C 
BRANCH   9  10
ATOM     10  C   UNL     1     -16.075 -14.673  -0.518  1.00  0.00     0.006 C 
BRANCH  10  11
ATOM     11  C   UNL     1     -16.327 -13.556   0.503  1.00  0.00     0.053 C 
BRANCH  11  12
ATOM     12  C   UNL     1     -15.302 -13.562   1.596  1.00  0.00     0.041 C 
ATOM     13  O   UNL     1     -15.479 -14.261   2.629  1.00  0.00    -0.550 OA
ATOM     14  O   UNL     1     -14.138 -12.816   1.460  1.00  0.00    -0.550 OA
ENDBRANCH  11  12
ENDBRANCH  10  11
ENDBRANCH   9  10
ENDBRANCH   8   9
ENDBRANCH   7   8
ENDBRANCH   6   7
ENDBRANCH   5   6
ENDBRANCH   4   5
ENDBRANCH   3   4
ENDBRANCH   2   3
ENDBRANCH   1   2
BRANCH   1  15
ATOM     15  C   UNL     1     -18.550  -9.336  -1.278  1.00  0.00     0.000 C 
BRANCH  15  16
ATOM     16  C   UNL     1     -19.188  -9.113   0.110  1.00  0.00     0.000 C 
BRANCH  16  17
ATOM     17  C   UNL     1     -18.212  -8.710   1.231  1.00  0.00     0.000 C 
BRANCH  17  18
ATOM     18  C   UNL     1     -17.457  -7.405   0.928  1.00  0.00    -0.000 C 
BRANCH  18  19
ATOM     19  C   UNL     1     -15.943  -7.614   0.748  1.00  0.00    -0.000 C 
BRANCH  19  20
ATOM     20  C   UNL     1     -15.470  -9.079   0.786  1.00  0.00    -0.000 C 
BRANCH  20  21
ATOM     21  C   UNL     1     -14.861  -9.547  -0.547  1.00  0.00    -0.000 C 
BRANCH  21  22
ATOM     22  C   UNL     1     -14.983  -8.494  -1.664  1.00  0.00    -0.000 C 
BRANCH  22  23
ATOM     23  C   UNL     1     -14.168  -8.790  -2.939  1.00  0.00    -0.000 C 
BRANCH  23  24
ATOM     24  C   UNL     1     -14.933  -9.539  -4.049  1.00  0.00    -0.000 C 
BRANCH  24  25
ATOM     25  C   UNL     1     -16.403  -9.116  -4.217  1.00  0.00    -0.003 C 
ATOM     26  C   UNL     1     -16.557  -7.737  -4.857  1.00  0.00     0.004 C 
ENDBRANCH  24  25
ENDBRANCH  23  24
ENDBRANCH  22  23
ENDBRANCH  21  22
ENDBRANCH  20  21
ENDBRANCH  19  20
ENDBRANCH  18  19
ENDBRANCH  17  18
ENDBRANCH  16  17
ENDBRANCH  15  16
ENDBRANCH   1  15
TORSDOF 22
ENDMDL
MODEL 3
REMARK VINA RESULT:    -6.094      2.306      6.173
REMARK INTER + INTRA:         -17.350
REMARK INTER:                 -13.908
REMARK INTRA:                  -3.442
REMARK UNBOUND:                -3.418
REMARK SMILES CCCCCCCCCCCCCCCCCCCCCCCC(=O)[O-]
REMARK SMILES IDX 13 1 14 2 15 3 16 4 17 5 18 6 19 7 20 8 21 9 22 10 23 11
REMARK SMILES IDX 24 12 25 13 26 14 12 15 11 16 10 17 9 18 8 19 7 20 6 21 5 22
REMARK SMILES IDX 4 23 3 24 2 25 1 26
REMARK H PARENT
REMARK Flexibility Score: inf
ROOT
ATOM      1  C   UNL     1     -14.747  -8.030  -1.712  1.00  0.00     0.000 C 
ENDROOT
BRANCH   1   2
ATOM      2  C   UNL     1     -16.220  -7.760  -2.058  1.00  0.00     0.000 C 
BRANCH   2   3
ATOM      3  C   UNL     1     -16.732  -8.632  -3.219  1.00  0.00     0.000 C 
BRANCH   3   4
ATOM      4  C   UNL     1     -15.717  -8.879  -4.349  1.00  0.00     0.000 C 
BRANCH   4   5
ATOM      5  C   UNL     1     -15.098 -10.287  -4.305  1.00  0.00     0.000 C 
BRANCH   5   6
ATOM      6  C   UNL     1     -15.771 -11.186  -3.246  1.00  0.00     0.000 C 
BRANCH   6   7
ATOM      7  C   UNL     1     -15.229 -12.625  -3.230  1.00  0.00     0.000 C 
BRANCH   7   8
ATOM      8  C   UNL     1     -14.543 -12.988  -1.902  1.00  0.00     0.000 C 
BRANCH   8   9
ATOM      9  C   UNL     1     -14.896 -14.405  -1.424  1.00  0.00     0.000 C 
BRANCH   9  10
ATOM     10  C   UNL     1     -16.163 -14.434  -0.553  1.00  0.00     0.006 C 
BRANCH  10  11
ATOM     11  C   UNL     1     -16.199 -13.281   0.457  1.00  0.00     0.053 C 
BRANCH  11  12
ATOM     12  C   UNL     1     -15.200 -13.476   1.557  1.00  0.00     0.041 C 
ATOM     13  O   UNL     1     -14.125 -12.819   1.562  1.00  0.00    -0.550 OA
ATOM     14  O   UNL     1     -15.471 -14.364   2.591  1.00  0.00    -0.550 OA
ENDBRANCH  11  12
ENDBRANCH  10  11
ENDBRANCH   9  10
ENDBRANCH   8   9
ENDBRANCH   7   8
ENDBRANCH   6   7
ENDBRANCH   5   6
ENDBRANCH   4   5
ENDBRANCH   3   4
ENDBRANCH   2   3
ENDBRANCH   1   2
BRANCH   1  15
ATOM     15  C   UNL     1     -14.576  -9.093  -0.611  1.00  0.00     0.000 C 
BRANCH  15  16
ATOM     16  C   UNL     1     -15.784  -9.267   0.334  1.00  0.00     0.000 C 
BRANCH  16  17
ATOM     17  C   UNL     1     -16.058  -8.087   1.284  1.00  0.00     0.000 C 
BRANCH  17  18
ATOM     18  C   UNL     1     -17.525  -7.626   1.261  1.00  0.00    -0.000 C 
BRANCH  18  19
ATOM     19  C   UNL     1     -18.518  -8.793   1.118  1.00  0.00    -0.000 C 
BRANCH  19  20
ATOM     20  C   UNL     1     -19.315  -8.825  -0.200  1.00  0.00    -0.000 C 
BRANCH  20  21
ATOM     21  C   UNL     1     -19.096 -10.119  -1.002  1.00  0.00    -0.000 C 
BRANCH  21  22
ATOM     22  C   UNL     1     -19.218 -11.388  -0.138  1.00  0.00    -0.000 C 
BRANCH  22  23
ATOM     23  C   UNL     1     -19.491 -12.691  -0.917  1.00  0.00    -0.000 C 
BRANCH  23  24
ATOM     24  C   UNL     1     -18.700 -12.847  -2.232  1.00  0.00    -0.000 C 
BRANCH  24  25
ATOM     25  C   UNL     1     -19.052 -14.102  -3.050  1.00  0.00    -0.003 C 
ATOM     26  C   UNL     1     -17.829 -14.951  -3.394  1.00  0.00     0.004 C 
ENDBRANCH  24  25
ENDBRANCH  23  24
ENDBRANCH  22  23
ENDBRANCH  21  22
ENDBRANCH  20  21
ENDBRANCH  19  20
ENDBRANCH  18  19
ENDBRANCH  17  18
ENDBRANCH  16  17
ENDBRANCH  15  16
ENDBRANCH   1  15
TORSDOF 22
ENDMDL
MODEL 4
REMARK VINA RESULT:    -6.012      1.030      3.031
REMARK INTER + INTRA:         -17.163
REMARK INTER:                 -13.014
REMARK INTRA:                  -4.150
REMARK UNBOUND:                -3.418
REMARK SMILES CCCCCCCCCCCCCCCCCCCCCCCC(=O)[O-]
REMARK SMILES IDX 13 1 14 2 15 3 16 4 17 5 18 6 19 7 20 8 21 9 22 10 23 11
REMARK SMILES IDX 24 12 25 13 26 14 12 15 11 16 10 17 9 18 8 19 7 20 6 21 5 22
REMARK SMILES IDX 4 23 3 24 2 25 1 26
REMARK H PARENT
REMARK Flexibility Score: inf
ROOT
ATOM      1  C   UNL     1     -18.875 -10.839  -1.454  1.00  0.00     0.000 C 
ENDROOT
BRANCH   1   2
ATOM      2  C   UNL     1     -18.549  -9.392  -1.052  1.00  0.00     0.000 C 
BRANCH   2   3
ATOM      3  C   UNL     1     -19.365  -8.910   0.162  1.00  0.00     0.000 C 
BRANCH   3   4
ATOM      4  C   UNL     1     -18.626  -7.941   1.103  1.00  0.00     0.000 C 
BRANCH   4   5
ATOM      5  C   UNL     1     -17.161  -8.341   1.348  1.00  0.00     0.000 C 
BRANCH   5   6
ATOM      6  C   UNL     1     -16.171  -7.288   0.804  1.00  0.00     0.000 C 
BRANCH   6   7
ATOM      7  C   UNL     1     -15.294  -7.808  -0.348  1.00  0.00     0.000 C 
BRANCH   7   8
ATOM      8  C   UNL     1     -14.944  -9.299  -0.202  1.00  0.00     0.000 C 
BRANCH   8   9
ATOM      9  C   UNL     1     -14.844 -10.016  -1.558  1.00  0.00     0.000 C 
BRANCH   9  10
ATOM     10  C   UNL     1     -14.421  -9.071  -2.695  1.00  0.00     0.006 C 
BRANCH  10  11
ATOM     11  C   UNL     1     -15.189  -9.347  -3.993  1.00  0.00     0.053 C 
BRANCH  11  12
ATOM     12  C   UNL     1     -16.244  -8.314  -4.244  1.00  0.00     0.041 C 
ATOM     13  O   UNL     1     -16.703  -8.144  -5.405  1.00  0.00    -0.550 OA
ATOM     14  O   UNL     1     -16.740  -7.558  -3.189  1.00  0.00    -0.550 OA
ENDBRANCH  11  12
ENDBRANCH  10  11
ENDBRANCH   9  10
ENDBRANCH   8   9
ENDBRANCH   7   8
ENDBRANCH   6   7
ENDBRANCH   5   6
ENDBRANCH   4   5
ENDBRANCH   3   4
ENDBRANCH   2   3
ENDBRANCH   1   2
BRANCH   1  15
ATOM     15  C   UNL     1     -18.740 -11.831  -0.284  1.00  0.00     0.000 C 
BRANCH  15  16
ATOM     16  C   UNL     1     -17.293 -12.192   0.114  1.00  0.00     0.000 C 
BRANCH  16  17
ATOM     17  C   UNL     1     -17.056 -13.667   0.484  1.00  0.00     0.000 C 
BRANCH  17  18
ATOM     18  C   UNL     1     -15.655 -13.922   1.066  1.00  0.00    -0.000 C 
BRANCH  18  19
ATOM     19  C   UNL     1     -14.571 -13.030   0.435  1.00  0.00    -0.000 C 
BRANCH  19  20
ATOM     20  C   UNL     1     -13.761 -13.679  -0.703  1.00  0.00    -0.000 C 
BRANCH  20  21
ATOM     21  C   UNL     1     -14.645 -14.176  -1.859  1.00  0.00    -0.000 C 
BRANCH  21  22
ATOM     22  C   UNL     1     -15.029 -13.057  -2.845  1.00  0.00    -0.000 C 
BRANCH  22  23
ATOM     23  C   UNL     1     -16.512 -13.034  -3.270  1.00  0.00    -0.000 C 
BRANCH  23  24
ATOM     24  C   UNL     1     -17.115 -14.409  -3.623  1.00  0.00    -0.000 C 
BRANCH  24  25
ATOM     25  C   UNL     1     -18.313 -14.829  -2.753  1.00  0.00    -0.003 C 
ATOM     26  C   UNL     1     -19.584 -14.042  -3.069  1.00  0.00     0.004 C 
ENDBRANCH  24  25
ENDBRANCH  23  24
ENDBRANCH  22  23
ENDBRANCH  21  22
ENDBRANCH  20  21
ENDBRANCH  19  20
ENDBRANCH  18  19
ENDBRANCH  17  18
ENDBRANCH  16  17
ENDBRANCH  15  16
ENDBRANCH   1  15
TORSDOF 22
ENDMDL
MODEL 5
REMARK VINA RESULT:    -5.967      2.045      4.324
REMARK INTER + INTRA:         -17.059
REMARK INTER:                 -13.102
REMARK INTRA:                  -3.956
REMARK UNBOUND:                -3.418
REMARK SMILES CCCCCCCCCCCCCCCCCCCCCCCC(=O)[O-]
REMARK SMILES IDX 13 1 14 2 15 3 16 4 17 5 18 6 19 7 20 8 21 9 22 10 23 11
REMARK SMILES IDX 24 12 25 13 26 14 12 15 11 16 10 17 9 18 8 19 7 20 6 21 5 22
REMARK SMILES IDX 4 23 3 24 2 25 1 26
REMARK H PARENT
REMARK Flexibility Score: inf
ROOT
ATOM      1  C   UNL     1     -14.863  -7.849  -1.231  1.00  0.00     0.000 C 
ENDROOT
BRANCH   1   2
ATOM      2  C   UNL     1     -15.172  -9.213  -0.595  1.00  0.00     0.000 C 
BRANCH   2   3
ATOM      3  C   UNL     1     -15.623  -9.102   0.873  1.00  0.00     0.000 C 
BRANCH   3   4
ATOM      4  C   UNL     1     -16.145  -7.716   1.293  1.00  0.00     0.000 C 
BRANCH   4   5
ATOM      5  C   UNL     1     -17.673  -7.587   1.174  1.00  0.00     0.000 C 
BRANCH   5   6
ATOM      6  C   UNL     1     -18.360  -8.956   0.980  1.00  0.00     0.000 C 
BRANCH   6   7
ATOM      7  C   UNL     1     -19.236  -9.029  -0.282  1.00  0.00     0.000 C 
BRANCH   7   8
ATOM      8  C   UNL     1     -19.100 -10.369  -1.024  1.00  0.00     0.000 C 
BRANCH   8   9
ATOM      9  C   UNL     1     -18.397 -11.442  -0.178  1.00  0.00     0.000 C 
BRANCH   9  10
ATOM     10  C   UNL     1     -18.446 -12.833  -0.832  1.00  0.00     0.006 C 
BRANCH  10  11
ATOM     11  C   UNL     1     -18.681 -12.754  -2.346  1.00  0.00     0.053 C 
BRANCH  11  12
ATOM     12  C   UNL     1     -19.006 -14.096  -2.928  1.00  0.00     0.041 C 
ATOM     13  O   UNL     1     -20.156 -14.327  -3.388  1.00  0.00    -0.550 OA
ATOM     14  O   UNL     1     -18.029 -15.081  -2.988  1.00  0.00    -0.550 OA
ENDBRANCH  11  12
ENDBRANCH  10  11
ENDBRANCH   9  10
ENDBRANCH   8   9
ENDBRANCH   7   8
ENDBRANCH   6   7
ENDBRANCH   5   6
ENDBRANCH   4   5
ENDBRANCH   3   4
ENDBRANCH   2   3
ENDBRANCH   1   2
BRANCH   1  15
ATOM     15  C   UNL     1     -15.996  -7.342  -2.142  1.00  0.00     0.000 C 
BRANCH  15  16
ATOM     16  C   UNL     1     -16.747  -8.435  -2.933  1.00  0.00     0.000 C 
BRANCH  16  17
ATOM     17  C   UNL     1     -16.176  -8.755  -4.327  1.00  0.00     0.000 C 
BRANCH  17  18
ATOM     18  C   UNL     1     -14.881  -9.581  -4.269  1.00  0.00    -0.000 C 
BRANCH  18  19
ATOM     19  C   UNL     1     -15.134 -11.099  -4.306  1.00  0.00    -0.000 C 
BRANCH  19  20
ATOM     20  C   UNL     1     -15.346 -11.767  -2.935  1.00  0.00    -0.000 C 
BRANCH  20  21
ATOM     21  C   UNL     1     -15.219 -13.299  -2.988  1.00  0.00    -0.000 C 
BRANCH  21  22
ATOM     22  C   UNL     1     -15.005 -13.932  -1.601  1.00  0.00    -0.000 C 
BRANCH  22  23
ATOM     23  C   UNL     1     -14.205 -13.072  -0.601  1.00  0.00    -0.000 C 
BRANCH  23  24
ATOM     24  C   UNL     1     -14.921 -12.778   0.733  1.00  0.00    -0.000 C 
BRANCH  24  25
ATOM     25  C   UNL     1     -15.870 -13.891   1.214  1.00  0.00    -0.003 C 
ATOM     26  C   UNL     1     -15.516 -14.415   2.605  1.00  0.00     0.004 C 
ENDBRANCH  24  25
ENDBRANCH  23  24
ENDBRANCH  22  23
ENDBRANCH  21  22
ENDBRANCH  20  21
ENDBRANCH  19  20
ENDBRANCH  18  19
ENDBRANCH  17  18
ENDBRANCH  16  17
ENDBRANCH  15  16
ENDBRANCH   1  15
TORSDOF 22
ENDMDL
MODEL 6
REMARK VINA RESULT:    -5.866      1.970      3.271
REMARK INTER + INTRA:         -16.829
REMARK INTER:                 -12.713
REMARK INTRA:                  -4.116
REMARK UNBOUND:                -3.418
REMARK SMILES CCCCCCCCCCCCCCCCCCCCCCCC(=O)[O-]
REMARK SMILES IDX 13 1 14 2 15 3 16 4 17 5 18 6 19 7 20 8 21 9 22 10 23 11
REMARK SMILES IDX 24 12 25 13 26 14 12 15 11 16 10 17 9 18 8 19 7 20 6 21 5 22
REMARK SMILES IDX 4 23 3 24 2 25 1 26
REMARK H PARENT
REMARK Flexibility Score: inf
ROOT
ATOM      1  C   UNL     1     -19.056 -10.351  -1.158  1.00  0.00     0.000 C 
ENDROOT
BRANCH   1   2
ATOM      2  C   UNL     1     -17.937 -10.136  -2.189  1.00  0.00     0.000 C 
BRANCH   2   3
ATOM      3  C   UNL     1     -17.514  -8.661  -2.315  1.00  0.00     0.000 C 
BRANCH   3   4
ATOM      4  C   UNL     1     -16.763  -8.304  -3.611  1.00  0.00     0.000 C 
BRANCH   4   5
ATOM      5  C   UNL     1     -16.064  -9.514  -4.254  1.00  0.00     0.000 C 
BRANCH   5   6
ATOM      6  C   UNL     1     -14.627  -9.707  -3.722  1.00  0.00     0.000 C 
BRANCH   6   7
ATOM      7  C   UNL     1     -14.112  -8.514  -2.900  1.00  0.00     0.000 C 
BRANCH   7   8
ATOM      8  C   UNL     1     -13.860  -8.871  -1.426  1.00  0.00     0.000 C 
BRANCH   8   9
ATOM      9  C   UNL     1     -14.518 -10.200  -1.020  1.00  0.00     0.000 C 
BRANCH   9  10
ATOM     10  C   UNL     1     -15.422 -10.057   0.216  1.00  0.00     0.006 C 
BRANCH  10  11
ATOM     11  C   UNL     1     -15.147  -8.760   0.987  1.00  0.00     0.053 C 
BRANCH  11  12
ATOM     12  C   UNL     1     -16.366  -7.893   1.069  1.00  0.00     0.041 C 
ATOM     13  O   UNL     1     -16.291  -6.664   0.803  1.00  0.00    -0.550 OA
ATOM     14  O   UNL     1     -17.592  -8.450   1.413  1.00  0.00    -0.550 OA
ENDBRANCH  11  12
ENDBRANCH  10  11
ENDBRANCH   9  10
ENDBRANCH   8   9
ENDBRANCH   7   8
ENDBRANCH   6   7
ENDBRANCH   5   6
ENDBRANCH   4   5
ENDBRANCH   3   4
ENDBRANCH   2   3
ENDBRANCH   1   2
BRANCH   1  15
ATOM     15  C   UNL     1     -18.689 -11.393  -0.085  1.00  0.00     0.000 C 
BRANCH  15  16
ATOM     16  C   UNL     1     -18.475 -12.831  -0.605  1.00  0.00     0.000 C 
BRANCH  16  17
ATOM     17  C   UNL     1     -19.579 -13.371  -1.532  1.00  0.00     0.000 C 
BRANCH  17  18
ATOM     18  C   UNL     1     -19.045 -13.815  -2.905  1.00  0.00    -0.000 C 
BRANCH  18  19
ATOM     19  C   UNL     1     -17.580 -14.285  -2.856  1.00  0.00    -0.000 C 
BRANCH  19  20
ATOM     20  C   UNL     1     -16.575 -13.397  -3.613  1.00  0.00    -0.000 C 
BRANCH  20  21
ATOM     21  C   UNL     1     -15.229 -13.258  -2.882  1.00  0.00    -0.000 C 
BRANCH  21  22
ATOM     22  C   UNL     1     -15.194 -14.014  -1.540  1.00  0.00    -0.000 C 
BRANCH  22  23
ATOM     23  C   UNL     1     -14.001 -13.674  -0.624  1.00  0.00    -0.000 C 
BRANCH  23  24
ATOM     24  C   UNL     1     -14.364 -13.386   0.846  1.00  0.00    -0.000 C 
BRANCH  24  25
ATOM     25  C   UNL     1     -15.690 -14.008   1.317  1.00  0.00    -0.003 C 
ATOM     26  C   UNL     1     -15.625 -14.538   2.749  1.00  0.00     0.004 C 
ENDBRANCH  24  25
ENDBRANCH  23  24
ENDBRANCH  22  23
ENDBRANCH  21  22
ENDBRANCH  20  21
ENDBRANCH  19  20
ENDBRANCH  18  19
ENDBRANCH  17  18
ENDBRANCH  16  17
ENDBRANCH  15  16
ENDBRANCH   1  15
TORSDOF 22
ENDMDL
MODEL 7
REMARK VINA RESULT:    -5.660      2.323      5.250
REMARK INTER + INTRA:         -16.358
REMARK INTER:                 -12.479
REMARK INTRA:                  -3.878
REMARK UNBOUND:                -3.418
REMARK SMILES CCCCCCCCCCCCCCCCCCCCCCCC(=O)[O-]
REMARK SMILES IDX 13 1 14 2 15 3 16 4 17 5 18 6 19 7 20 8 21 9 22 10 23 11
REMARK SMILES IDX 24 12 25 13 26 14 12 15 11 16 10 17 9 18 8 19 7 20 6 21 5 22
REMARK SMILES IDX 4 23 3 24 2 25 1 26
REMARK H PARENT
REMARK Flexibility Score: inf
ROOT
ATOM      1  C   UNL     1     -14.255  -8.901  -0.662  1.00  0.00     0.000 C 
ENDROOT
BRANCH   1   2
ATOM      2  C   UNL     1     -15.467  -9.301   0.195  1.00  0.00     0.000 C 
BRANCH   2   3
ATOM      3  C   UNL     1     -15.763  -8.293   1.321  1.00  0.00     0.000 C 
BRANCH   3   4
ATOM      4  C   UNL     1     -17.174  -7.679   1.296  1.00  0.00     0.000 C 
BRANCH   4   5
ATOM      5  C   UNL     1     -18.287  -8.734   1.169  1.00  0.00     0.000 C 
BRANCH   5   6
ATOM      6  C   UNL     1     -19.019  -8.649  -0.187  1.00  0.00     0.000 C 
BRANCH   6   7
ATOM      7  C   UNL     1     -19.722  -9.957  -0.587  1.00  0.00     0.000 C 
BRANCH   7   8
ATOM      8  C   UNL     1     -18.750 -11.005  -1.155  1.00  0.00     0.000 C 
BRANCH   8   9
ATOM      9  C   UNL     1     -18.473 -12.149  -0.166  1.00  0.00     0.000 C 
BRANCH   9  10
ATOM     10  C   UNL     1     -16.992 -12.230   0.241  1.00  0.00     0.006 C 
BRANCH  10  11
ATOM     11  C   UNL     1     -16.536 -13.674   0.484  1.00  0.00     0.053 C 
BRANCH  11  12
ATOM     12  C   UNL     1     -15.448 -13.748   1.511  1.00  0.00     0.041 C 
ATOM     13  O   UNL     1     -14.357 -13.147   1.324  1.00  0.00    -0.550 OA
ATOM     14  O   UNL     1     -15.652 -14.458   2.688  1.00  0.00    -0.550 OA
ENDBRANCH  11  12
ENDBRANCH  10  11
ENDBRANCH   9  10
ENDBRANCH   8   9
ENDBRANCH   7   8
ENDBRANCH   6   7
ENDBRANCH   5   6
ENDBRANCH   4   5
ENDBRANCH   3   4
ENDBRANCH   2   3
ENDBRANCH   1   2
BRANCH   1  15
ATOM     15  C   UNL     1     -14.602  -7.857  -1.738  1.00  0.00     0.000 C 
BRANCH  15  16
ATOM     16  C   UNL     1     -16.110  -7.643  -1.991  1.00  0.00     0.000 C 
BRANCH  16  17
ATOM     17  C   UNL     1     -16.659  -8.269  -3.287  1.00  0.00     0.000 C 
BRANCH  17  18
ATOM     18  C   UNL     1     -15.551  -8.686  -4.268  1.00  0.00    -0.000 C 
BRANCH  18  19
ATOM     19  C   UNL     1     -15.362 -10.212  -4.348  1.00  0.00    -0.000 C 
BRANCH  19  20
ATOM     20  C   UNL     1     -15.979 -11.015  -3.187  1.00  0.00    -0.000 C 
BRANCH  20  21
ATOM     21  C   UNL     1     -14.954 -11.906  -2.464  1.00  0.00    -0.000 C 
BRANCH  21  22
ATOM     22  C   UNL     1     -15.222 -13.409  -2.661  1.00  0.00    -0.000 C 
BRANCH  22  23
ATOM     23  C   UNL     1     -16.465 -13.751  -3.508  1.00  0.00    -0.000 C 
BRANCH  23  24
ATOM     24  C   UNL     1     -17.145 -15.092  -3.165  1.00  0.00    -0.000 C 
BRANCH  24  25
ATOM     25  C   UNL     1     -18.538 -14.962  -2.524  1.00  0.00    -0.003 C 
ATOM     26  C   UNL     1     -19.410 -13.905  -3.201  1.00  0.00     0.004 C 
ENDBRANCH  24  25
ENDBRANCH  23  24
ENDBRANCH  22  23
ENDBRANCH  21  22
ENDBRANCH  20  21
ENDBRANCH  19  20
ENDBRANCH  18  19
ENDBRANCH  17  18
ENDBRANCH  16  17
ENDBRANCH  15  16
ENDBRANCH   1  15
TORSDOF 22
ENDMDL
MODEL 8
REMARK VINA RESULT:    -5.604      2.076      5.724
REMARK INTER + INTRA:         -16.231
REMARK INTER:                 -12.937
REMARK INTRA:                  -3.294
REMARK UNBOUND:                -3.418
REMARK SMILES CCCCCCCCCCCCCCCCCCCCCCCC(=O)[O-]
REMARK SMILES IDX 13 1 14 2 15 3 16 4 17 5 18 6 19 7 20 8 21 9 22 10 23 11
REMARK SMILES IDX 24 12 25 13 26 14 12 15 11 16 10 17 9 18 8 19 7 20 6 21 5 22
REMARK SMILES IDX 4 23 3 24 2 25 1 26
REMARK H PARENT
REMARK Flexibility Score: inf
ROOT
ATOM      1  C   UNL     1     -19.296 -10.299  -1.140  1.00  0.00     0.000 C 
ENDROOT
BRANCH   1   2
ATOM      2  C   UNL     1     -19.364 -11.344  -0.015  1.00  0.00     0.000 C 
BRANCH   2   3
ATOM      3  C   UNL     1     -18.390 -12.518  -0.229  1.00  0.00     0.000 C 
BRANCH   3   4
ATOM      4  C   UNL     1     -17.042 -12.391   0.503  1.00  0.00     0.000 C 
BRANCH   4   5
ATOM      5  C   UNL     1     -16.383 -13.751   0.791  1.00  0.00     0.000 C 
BRANCH   5   6
ATOM      6  C   UNL     1     -14.879 -13.614   1.111  1.00  0.00     0.000 C 
BRANCH   6   7
ATOM      7  C   UNL     1     -14.002 -13.416  -0.136  1.00  0.00     0.000 C 
BRANCH   7   8
ATOM      8  C   UNL     1     -14.658 -13.960  -1.417  1.00  0.00     0.000 C 
BRANCH   8   9
ATOM      9  C   UNL     1     -14.826 -12.880  -2.497  1.00  0.00     0.000 C 
BRANCH   9  10
ATOM     10  C   UNL     1     -15.860 -13.271  -3.566  1.00  0.00     0.006 C 
BRANCH  10  11
ATOM     11  C   UNL     1     -17.297 -12.986  -3.114  1.00  0.00     0.053 C 
BRANCH  11  12
ATOM     12  C   UNL     1     -18.141 -14.225  -3.132  1.00  0.00     0.041 C 
ATOM     13  O   UNL     1     -19.396 -14.137  -3.191  1.00  0.00    -0.550 OA
ATOM     14  O   UNL     1     -17.537 -15.476  -3.110  1.00  0.00    -0.550 OA
ENDBRANCH  11  12
ENDBRANCH  10  11
ENDBRANCH   9  10
ENDBRANCH   8   9
ENDBRANCH   7   8
ENDBRANCH   6   7
ENDBRANCH   5   6
ENDBRANCH   4   5
ENDBRANCH   3   4
ENDBRANCH   2   3
ENDBRANCH   1   2
BRANCH   1  15
ATOM     15  C   UNL     1     -18.661  -8.972  -0.686  1.00  0.00     0.000 C 
BRANCH  15  16
ATOM     16  C   UNL     1     -18.346  -8.871   0.822  1.00  0.00     0.000 C 
BRANCH  16  17
ATOM     17  C   UNL     1     -17.579  -7.608   1.255  1.00  0.00     0.000 C 
BRANCH  17  18
ATOM     18  C   UNL     1     -16.094  -7.642   0.857  1.00  0.00    -0.000 C 
BRANCH  18  19
ATOM     19  C   UNL     1     -15.504  -9.063   0.862  1.00  0.00    -0.000 C 
BRANCH  19  20
ATOM     20  C   UNL     1     -14.782  -9.483  -0.432  1.00  0.00    -0.000 C 
BRANCH  20  21
ATOM     21  C   UNL     1     -14.666  -8.338  -1.452  1.00  0.00    -0.000 C 
BRANCH  21  22
ATOM     22  C   UNL     1     -13.945  -8.758  -2.747  1.00  0.00    -0.000 C 
BRANCH  22  23
ATOM     23  C   UNL     1     -14.807  -9.548  -3.753  1.00  0.00    -0.000 C 
BRANCH  23  24
ATOM     24  C   UNL     1     -16.326  -9.501  -3.496  1.00  0.00    -0.000 C 
BRANCH  24  25
ATOM     25  C   UNL     1     -17.002  -8.169  -3.866  1.00  0.00    -0.003 C 
ATOM     26  C   UNL     1     -16.719  -7.737  -5.304  1.00  0.00     0.004 C 
ENDBRANCH  24  25
ENDBRANCH  23  24
ENDBRANCH  22  23
ENDBRANCH  21  22
ENDBRANCH  20  21
ENDBRANCH  19  20
ENDBRANCH  18  19
ENDBRANCH  17  18
ENDBRANCH  16  17
ENDBRANCH  15  16
ENDBRANCH   1  15
TORSDOF 22
ENDMDL
MODEL 9
REMARK VINA RESULT:    -5.559      0.799      3.258
REMARK INTER + INTRA:         -16.127
REMARK INTER:                 -12.337
REMARK INTRA:                  -3.790
REMARK UNBOUND:                -3.418
REMARK SMILES CCCCCCCCCCCCCCCCCCCCCCCC(=O)[O-]
REMARK SMILES IDX 13 1 14 2 15 3 16 4 17 5 18 6 19 7 20 8 21 9 22 10 23 11
REMARK SMILES IDX 24 12 25 13 26 14 12 15 11 16 10 17 9 18 8 19 7 20 6 21 5 22
REMARK SMILES IDX 4 23 3 24 2 25 1 26
REMARK H PARENT
REMARK Flexibility Score: inf
ROOT
ATOM      1  C   UNL     1     -17.751 -12.005   0.178  1.00  0.00     0.000 C 
ENDROOT
BRANCH   1   2
ATOM      2  C   UNL     1     -19.207 -11.697  -0.207  1.00  0.00     0.000 C 
BRANCH   2   3
ATOM      3  C   UNL     1     -19.323 -10.620  -1.301  1.00  0.00     0.000 C 
BRANCH   3   4
ATOM      4  C   UNL     1     -18.619  -9.288  -0.986  1.00  0.00     0.000 C 
BRANCH   4   5
ATOM      5  C   UNL     1     -19.172  -8.599   0.274  1.00  0.00     0.000 C 
BRANCH   5   6
ATOM      6  C   UNL     1     -18.076  -8.355   1.333  1.00  0.00     0.000 C 
BRANCH   6   7
ATOM      7  C   UNL     1     -16.852  -7.603   0.786  1.00  0.00     0.000 C 
BRANCH   7   8
ATOM      8  C   UNL     1     -15.557  -8.427   0.879  1.00  0.00     0.000 C 
BRANCH   8   9
ATOM      9  C   UNL     1     -15.269  -9.219  -0.407  1.00  0.00     0.000 C 
BRANCH   9  10
ATOM     10  C   UNL     1     -14.831  -8.314  -1.571  1.00  0.00     0.006 C 
BRANCH  10  11
ATOM     11  C   UNL     1     -16.000  -7.949  -2.493  1.00  0.00     0.053 C 
BRANCH  11  12
ATOM     12  C   UNL     1     -15.829  -8.531  -3.863  1.00  0.00     0.041 C 
ATOM     13  O   UNL     1     -16.626  -8.222  -4.788  1.00  0.00    -0.550 OA
ATOM     14  O   UNL     1     -14.772  -9.394  -4.123  1.00  0.00    -0.550 OA
ENDBRANCH  11  12
ENDBRANCH  10  11
ENDBRANCH   9  10
ENDBRANCH   8   9
ENDBRANCH   7   8
ENDBRANCH   6   7
ENDBRANCH   5   6
ENDBRANCH   4   5
ENDBRANCH   3   4
ENDBRANCH   2   3
ENDBRANCH   1   2
BRANCH   1  15
ATOM     15  C   UNL     1     -17.411 -13.503   0.084  1.00  0.00     0.000 C 
BRANCH  15  16
ATOM     16  C   UNL     1     -16.276 -13.984   1.013  1.00  0.00     0.000 C 
BRANCH  16  17
ATOM     17  C   UNL     1     -15.207 -12.928   1.353  1.00  0.00     0.000 C 
BRANCH  17  18
ATOM     18  C   UNL     1     -13.957 -13.032   0.463  1.00  0.00    -0.000 C 
BRANCH  18  19
ATOM     19  C   UNL     1     -14.141 -14.000  -0.720  1.00  0.00    -0.000 C 
BRANCH  19  20
ATOM     20  C   UNL     1     -14.162 -13.344  -2.113  1.00  0.00    -0.000 C 
BRANCH  20  21
ATOM     21  C   UNL     1     -15.156 -12.175  -2.210  1.00  0.00    -0.000 C 
BRANCH  21  22
ATOM     22  C   UNL     1     -16.318 -12.455  -3.182  1.00  0.00    -0.000 C 
BRANCH  22  23
ATOM     23  C   UNL     1     -16.432 -13.915  -3.668  1.00  0.00    -0.000 C 
BRANCH  23  24
ATOM     24  C   UNL     1     -17.716 -14.652  -3.236  1.00  0.00    -0.000 C 
BRANCH  24  25
ATOM     25  C   UNL     1     -18.991 -13.792  -3.257  1.00  0.00    -0.003 C 
ATOM     26  C   UNL     1     -20.130 -14.395  -2.435  1.00  0.00     0.004 C 
ENDBRANCH  24  25
ENDBRANCH  23  24
ENDBRANCH  22  23
ENDBRANCH  21  22
ENDBRANCH  20  21
ENDBRANCH  19  20
ENDBRANCH  18  19
ENDBRANCH  17  18
ENDBRANCH  16  17
ENDBRANCH  15  16
ENDBRANCH   1  15
TORSDOF 22
ENDMDL
