MODEL 1
REMARK VINA RESULT:    -1.315      0.000      0.000
REMARK INTER + INTRA:          -1.420
REMARK INTER:                  -1.546
REMARK INTRA:                   0.126
REMARK UNBOUND:                 0.126
REMARK SMILES O=c1c(O)c(-c2ccc(O)cc2)oc2cc(O)cc(O)c12
REMARK SMILES IDX 5 1 3 2 2 3 1 4 21 5 19 6 18 7 16 8 15 9 14 10 13 11 6 12
REMARK SMILES IDX 7 13 8 14 9 15 12 16 11 17 10 18 4 20 20 22 17 24
REMARK H PARENT 10 19 4 21 20 23 17 25
REMARK Flexibility Score: inf
ROOT
ATOM      1  C   UNL     1      18.976  -1.197  12.283  1.00  0.00     0.180 A 
ATOM      2  C   UNL     1      18.406  -2.277  11.580  1.00  0.00     0.208 A 
ATOM      3  C   UNL     1      18.398  -3.546  12.179  1.00  0.00     0.238 A 
ATOM      4  O   UNL     1      17.881  -4.519  11.566  1.00  0.00    -0.285 OA
ATOM      5  C   UNL     1      18.975  -3.718  13.455  1.00  0.00     0.111 A 
ATOM      6  C   UNL     1      19.011  -4.965  14.125  1.00  0.00     0.134 A 
ATOM      7  C   UNL     1      19.612  -5.057  15.390  1.00  0.00     0.093 A 
ATOM      8  C   UNL     1      20.176  -3.928  15.995  1.00  0.00     0.123 A 
ATOM      9  C   UNL     1      20.142  -2.697  15.336  1.00  0.00     0.094 A 
ATOM     10  C   UNL     1      19.547  -2.585  14.078  1.00  0.00     0.146 A 
ATOM     11  O   UNL     1      19.523  -1.400  13.477  1.00  0.00    -0.452 OA
ENDROOT
BRANCH   1  12
ATOM     12  C   UNL     1      19.005   0.175  11.726  1.00  0.00     0.021 A 
ATOM     13  C   UNL     1      18.622   1.258  12.536  1.00  0.00     0.016 A 
ATOM     14  C   UNL     1      18.619   2.559  12.024  1.00  0.00     0.047 A 
ATOM     15  C   UNL     1      18.984   2.794  10.695  1.00  0.00     0.115 A 
ATOM     16  C   UNL     1      19.352   0.416  10.384  1.00  0.00     0.016 A 
ATOM     17  C   UNL     1      19.348   1.718   9.875  1.00  0.00     0.047 A 
BRANCH  15  18
ATOM     18  O   UNL     1      18.979   4.095  10.200  1.00  0.00    -0.508 OA
ATOM     19  H   UNL     1      19.669   4.409   9.527  1.00  0.00     0.293 HD
ENDBRANCH  15  18
ENDBRANCH   1  12
BRANCH   2  20
ATOM     20  O   UNL     1      17.885  -2.088  10.297  1.00  0.00    -0.502 OA
ATOM     21  H   UNL     1      17.174  -1.395  10.098  1.00  0.00     0.293 HD
ENDBRANCH   2  20
BRANCH   6  22
ATOM     22  O   UNL     1      18.457  -6.108  13.547  1.00  0.00    -0.507 OA
ATOM     23  H   UNL     1      17.946  -6.068  12.673  1.00  0.00     0.293 HD
ENDBRANCH   6  22
BRANCH   8  24
ATOM     24  O   UNL     1      20.774  -4.019  17.250  1.00  0.00    -0.508 OA
ATOM     25  H   UNL     1      21.773  -3.903  17.370  1.00  0.00     0.293 HD
ENDBRANCH   8  24
TORSDOF 5
ENDMDL
MODEL 2
REMARK VINA RESULT:     0.234      1.743      6.178
REMARK INTER + INTRA:           0.401
REMARK INTER:                   0.374
REMARK INTRA:                   0.028
REMARK UNBOUND:                 0.126
REMARK SMILES O=c1c(O)c(-c2ccc(O)cc2)oc2cc(O)cc(O)c12
REMARK SMILES IDX 5 1 3 2 2 3 1 4 21 5 19 6 18 7 16 8 15 9 14 10 13 11 6 12
REMARK SMILES IDX 7 13 8 14 9 15 12 16 11 17 10 18 4 20 20 22 17 24
REMARK H PARENT 10 19 4 21 20 23 17 25
REMARK Flexibility Score: inf
ROOT
ATOM      1  C   UNL     1      20.006  -2.771  14.463  1.00  0.00     0.180 A 
ATOM      2  C   UNL     1      19.348  -3.892  13.919  1.00  0.00     0.208 A 
ATOM      3  C   UNL     1      18.851  -3.815  12.609  1.00  0.00     0.238 A 
ATOM      4  O   UNL     1      18.270  -4.816  12.107  1.00  0.00    -0.285 OA
ATOM      5  C   UNL     1      18.999  -2.620  11.876  1.00  0.00     0.111 A 
ATOM      6  C   UNL     1      18.522  -2.460  10.552  1.00  0.00     0.134 A 
ATOM      7  C   UNL     1      18.701  -1.235   9.892  1.00  0.00     0.093 A 
ATOM      8  C   UNL     1      19.346  -0.169  10.529  1.00  0.00     0.123 A 
ATOM      9  C   UNL     1      19.817  -0.323  11.835  1.00  0.00     0.094 A 
ATOM     10  C   UNL     1      19.651  -1.535  12.508  1.00  0.00     0.146 A 
ATOM     11  O   UNL     1      20.115  -1.656  13.747  1.00  0.00    -0.452 OA
ENDROOT
BRANCH   1  12
ATOM     12  C   UNL     1      20.575  -2.781  15.830  1.00  0.00     0.021 A 
ATOM     13  C   UNL     1      19.756  -3.131  16.917  1.00  0.00     0.016 A 
ATOM     14  C   UNL     1      20.266  -3.125  18.220  1.00  0.00     0.047 A 
ATOM     15  C   UNL     1      21.594  -2.755  18.454  1.00  0.00     0.115 A 
ATOM     16  C   UNL     1      21.905  -2.390  16.075  1.00  0.00     0.016 A 
ATOM     17  C   UNL     1      22.411  -2.384  17.378  1.00  0.00     0.047 A 
BRANCH  15  18
ATOM     18  O   UNL     1      22.088  -2.755  19.756  1.00  0.00    -0.508 OA
ATOM     19  H   UNL     1      21.927  -1.976  20.384  1.00  0.00     0.293 HD
ENDBRANCH  15  18
ENDBRANCH   1  12
BRANCH   2  20
ATOM     20  O   UNL     1      19.172  -5.047  14.685  1.00  0.00    -0.502 OA
ATOM     21  H   UNL     1      18.987  -5.014  15.680  1.00  0.00     0.293 HD
ENDBRANCH   2  20
BRANCH   6  22
ATOM     22  O   UNL     1      17.875  -3.505   9.890  1.00  0.00    -0.507 OA
ATOM     23  H   UNL     1      17.766  -3.510   8.883  1.00  0.00     0.293 HD
ENDBRANCH   6  22
BRANCH   8  24
ATOM     24  O   UNL     1      19.523   1.048   9.875  1.00  0.00    -0.508 OA
ATOM     25  H   UNL     1      20.412   1.302   9.460  1.00  0.00     0.293 HD
ENDBRANCH   8  24
TORSDOF 5
ENDMDL
MODEL 3
REMARK VINA RESULT:     0.506      1.191      1.694
REMARK INTER + INTRA:           0.721
REMARK INTER:                   0.245
REMARK INTRA:                   0.476
REMARK UNBOUND:                 0.126
REMARK SMILES O=c1c(O)c(-c2ccc(O)cc2)oc2cc(O)cc(O)c12
REMARK SMILES IDX 5 1 3 2 2 3 1 4 21 5 19 6 18 7 16 8 15 9 14 10 13 11 6 12
REMARK SMILES IDX 7 13 8 14 9 15 12 16 11 17 10 18 4 20 20 22 17 24
REMARK H PARENT 10 19 4 21 20 23 17 25
REMARK Flexibility Score: inf
ROOT
ATOM      1  C   UNL     1      18.820   0.189  12.100  1.00  0.00     0.180 A 
ATOM      2  C   UNL     1      18.330  -0.651  11.080  1.00  0.00     0.208 A 
ATOM      3  C   UNL     1      18.335  -2.040  11.286  1.00  0.00     0.238 A 
ATOM      4  O   UNL     1      17.888  -2.802  10.386  1.00  0.00    -0.285 OA
ATOM      5  C   UNL     1      18.845  -2.564  12.491  1.00  0.00     0.111 A 
ATOM      6  C   UNL     1      18.889  -3.951  12.774  1.00  0.00     0.134 A 
ATOM      7  C   UNL     1      19.422  -4.394  13.995  1.00  0.00     0.093 A 
ATOM      8  C   UNL     1      19.909  -3.480  14.935  1.00  0.00     0.123 A 
ATOM      9  C   UNL     1      19.867  -2.111  14.659  1.00  0.00     0.094 A 
ATOM     10  C   UNL     1      19.340  -1.649  13.451  1.00  0.00     0.146 A 
ATOM     11  O   UNL     1      19.306  -0.342  13.217  1.00  0.00    -0.452 OA
ENDROOT
BRANCH   1  12
ATOM     12  C   UNL     1      18.830   1.664  11.966  1.00  0.00     0.021 A 
ATOM     13  C   UNL     1      19.054   2.459  13.102  1.00  0.00     0.016 A 
ATOM     14  C   UNL     1      19.044   3.854  13.004  1.00  0.00     0.047 A 
ATOM     15  C   UNL     1      18.797   4.471  11.774  1.00  0.00     0.115 A 
ATOM     16  C   UNL     1      18.561   2.291  10.735  1.00  0.00     0.016 A 
ATOM     17  C   UNL     1      18.552   3.686  10.640  1.00  0.00     0.047 A 
BRANCH  15  18
ATOM     18  O   UNL     1      18.792   5.861  11.690  1.00  0.00    -0.508 OA
ATOM     19  H   UNL     1      18.476   6.341  10.855  1.00  0.00     0.293 HD
ENDBRANCH  15  18
ENDBRANCH   1  12
BRANCH   2  20
ATOM     20  O   UNL     1      17.875  -0.108   9.876  1.00  0.00    -0.502 OA
ATOM     21  H   UNL     1      17.137   0.584   9.839  1.00  0.00     0.293 HD
ENDBRANCH   2  20
BRANCH   6  22
ATOM     22  O   UNL     1      18.411  -4.887  11.857  1.00  0.00    -0.507 OA
ATOM     23  H   UNL     1      17.430  -4.935  11.608  1.00  0.00     0.293 HD
ENDBRANCH   6  22
BRANCH   8  24
ATOM     24  O   UNL     1      20.439  -3.920  16.146  1.00  0.00    -0.508 OA
ATOM     25  H   UNL     1      20.446  -3.326  16.967  1.00  0.00     0.293 HD
ENDBRANCH   8  24
TORSDOF 5
ENDMDL
