MODEL 1
REMARK VINA RESULT:    -6.300      0.000      0.000
REMARK INTER + INTRA:          -9.554
REMARK INTER:                  -8.326
REMARK INTRA:                  -1.228
REMARK UNBOUND:                -1.228
REMARK SMILES CC[C@H](C=C[C@@H](C)[C@@H]1CC[C@H]2C3=CC[C@@H]4C[C@@H](O)CC[C@@]4(C)[C@H]3CC[C@]21C)C(C)C
REMARK SMILES IDX 6 1 7 2 5 3 4 4 3 5 2 6 1 7 28 8 29 9 30 10 8 11 9 12 26 13
REMARK SMILES IDX 10 14 11 15 25 16 27 17 12 18 24 19 23 20 13 21 21 22 14 23
REMARK SMILES IDX 15 24 20 25 22 26 16 27 19 28 17 29 18 30
REMARK H PARENT 18 31
REMARK Flexibility Score: inf
ROOT
ATOM      1  C   UNL     1      13.583 -14.386  25.879  1.00  0.00     0.012 C 
ATOM      2  C   UNL     1      12.864 -15.225  26.951  1.00  0.00     0.012 C 
ENDROOT
BRANCH   1   3
ATOM      3  C   UNL     1      12.695 -13.348  25.196  1.00  0.00    -0.028 C 
ATOM      4  C   UNL     1      12.938 -12.022  25.167  1.00  0.00    -0.027 C 
BRANCH   4   5
ATOM      5  C   UNL     1      12.020 -11.067  24.430  1.00  0.00     0.014 C 
BRANCH   5   6
ATOM      6  C   UNL     1      10.986 -11.877  23.606  1.00  0.00     0.004 C 
ATOM      7  C   UNL     1      11.003 -11.573  22.106  1.00  0.00     0.004 C 
ENDBRANCH   5   6
BRANCH   5   8
ATOM      8  C   UNL     1      11.388 -10.029  25.411  1.00  0.00    -0.011 C 
ATOM      9  C   UNL     1      11.780 -10.339  26.868  1.00  0.00     0.008 C 
ATOM     10  C   UNL     1      11.811  -8.588  25.078  1.00  0.00     0.008 C 
ENDBRANCH   5   8
ENDBRANCH   4   5
ENDBRANCH   1   3
BRANCH   1  11
ATOM     11  C   UNL     1      14.414 -15.288  24.902  1.00  0.00     0.002 C 
ATOM     12  C   UNL     1      14.792 -16.656  25.497  1.00  0.00     0.005 C 
ATOM     13  C   UNL     1      15.704 -14.726  24.214  1.00  0.00    -0.023 C 
ATOM     14  C   UNL     1      16.054 -17.124  24.779  1.00  0.00     0.009 C 
ATOM     15  C   UNL     1      16.446 -16.023  23.785  1.00  0.00     0.021 C 
ATOM     16  C   UNL     1      15.353 -13.814  22.979  1.00  0.00     0.008 C 
ATOM     17  C   UNL     1      16.611 -13.935  25.183  1.00  0.00     0.012 C 
ATOM     18  C   UNL     1      16.156 -16.311  22.322  1.00  0.00    -0.067 C 
ATOM     19  C   UNL     1      16.401 -13.856  21.838  1.00  0.00     0.009 C 
ATOM     20  C   UNL     1      16.822 -15.301  21.391  1.00  0.00     0.021 C 
ATOM     21  C   UNL     1      15.077 -17.042  21.922  1.00  0.00    -0.027 C 
ATOM     22  C   UNL     1      16.611 -15.684  19.878  1.00  0.00    -0.023 C 
ATOM     23  C   UNL     1      14.610 -17.123  20.483  1.00  0.00     0.031 C 
ATOM     24  C   UNL     1      15.086 -15.907  19.674  1.00  0.00     0.002 C 
ATOM     25  C   UNL     1      17.068 -14.580  18.889  1.00  0.00     0.010 C 
ATOM     26  C   UNL     1      17.469 -16.968  19.621  1.00  0.00     0.012 C 
ATOM     27  C   UNL     1      14.593 -15.895  18.197  1.00  0.00     0.036 C 
ATOM     28  C   UNL     1      16.912 -15.002  17.413  1.00  0.00     0.032 C 
ATOM     29  C   UNL     1      15.687 -15.907  17.109  1.00  0.00     0.114 C 
BRANCH  29  30
ATOM     30  O   UNL     1      15.107 -15.516  15.891  1.00  0.00    -0.393 OA
ATOM     31  H   UNL     1      14.240 -15.085  16.109  1.00  0.00     0.210 HD
ENDBRANCH  29  30
ENDBRANCH   1  11
TORSDOF 6
ENDMDL
MODEL 2
REMARK VINA RESULT:    -6.227      2.710      7.527
REMARK INTER + INTRA:          -9.457
REMARK INTER:                  -8.403
REMARK INTRA:                  -1.054
REMARK UNBOUND:                -1.228
REMARK SMILES CC[C@H](C=C[C@@H](C)[C@@H]1CC[C@H]2C3=CC[C@@H]4C[C@@H](O)CC[C@@]4(C)[C@H]3CC[C@]21C)C(C)C
REMARK SMILES IDX 6 1 7 2 5 3 4 4 3 5 2 6 1 7 28 8 29 9 30 10 8 11 9 12 26 13
REMARK SMILES IDX 10 14 11 15 25 16 27 17 12 18 24 19 23 20 13 21 21 22 14 23
REMARK SMILES IDX 15 24 20 25 22 26 16 27 19 28 17 29 18 30
REMARK H PARENT 18 31
REMARK Flexibility Score: inf
ROOT
ATOM      1  C   UNL     1      17.316 -15.831  21.664  1.00  0.00     0.012 C 
ATOM      2  C   UNL     1      18.810 -15.911  22.029  1.00  0.00     0.012 C 
ENDROOT
BRANCH   1   3
ATOM      3  C   UNL     1      17.024 -15.033  20.395  1.00  0.00    -0.028 C 
ATOM      4  C   UNL     1      16.579 -15.560  19.236  1.00  0.00    -0.027 C 
BRANCH   4   5
ATOM      5  C   UNL     1      16.278 -14.685  18.035  1.00  0.00     0.014 C 
BRANCH   5   6
ATOM      6  C   UNL     1      16.955 -15.284  16.776  1.00  0.00     0.004 C 
ATOM      7  C   UNL     1      18.155 -14.480  16.267  1.00  0.00     0.004 C 
ENDBRANCH   5   6
BRANCH   5   8
ATOM      8  C   UNL     1      14.742 -14.449  17.886  1.00  0.00    -0.011 C 
ATOM      9  C   UNL     1      14.381 -12.977  18.160  1.00  0.00     0.008 C 
ATOM     10  C   UNL     1      14.230 -14.833  16.487  1.00  0.00     0.008 C 
ENDBRANCH   5   8
ENDBRANCH   4   5
ENDBRANCH   1   3
BRANCH   1  11
ATOM     11  C   UNL     1      16.439 -15.441  22.904  1.00  0.00     0.002 C 
ATOM     12  C   UNL     1      16.654 -16.355  24.123  1.00  0.00     0.005 C 
ATOM     13  C   UNL     1      14.893 -15.255  22.749  1.00  0.00    -0.023 C 
ATOM     14  C   UNL     1      15.376 -16.301  24.954  1.00  0.00     0.009 C 
ATOM     15  C   UNL     1      14.392 -15.387  24.215  1.00  0.00     0.021 C 
ATOM     16  C   UNL     1      14.534 -13.852  22.130  1.00  0.00     0.008 C 
ATOM     17  C   UNL     1      14.232 -16.364  21.901  1.00  0.00     0.012 C 
ATOM     18  C   UNL     1      14.194 -14.001  24.808  1.00  0.00    -0.067 C 
ATOM     19  C   UNL     1      13.190 -13.261  22.625  1.00  0.00     0.009 C 
ATOM     20  C   UNL     1      13.008 -13.270  24.185  1.00  0.00     0.021 C 
ATOM     21  C   UNL     1      15.200 -13.324  25.430  1.00  0.00    -0.027 C 
ATOM     22  C   UNL     1      12.746 -11.888  24.893  1.00  0.00    -0.023 C 
ATOM     23  C   UNL     1      15.119 -11.855  25.790  1.00  0.00     0.031 C 
ATOM     24  C   UNL     1      14.097 -11.120  24.909  1.00  0.00     0.002 C 
ATOM     25  C   UNL     1      11.703 -11.004  24.160  1.00  0.00     0.010 C 
ATOM     26  C   UNL     1      12.199 -12.219  26.323  1.00  0.00     0.012 C 
ATOM     27  C   UNL     1      14.003  -9.591  25.186  1.00  0.00     0.036 C 
ATOM     28  C   UNL     1      11.413  -9.684  24.906  1.00  0.00     0.032 C 
ATOM     29  C   UNL     1      12.629  -9.061  25.647  1.00  0.00     0.114 C 
BRANCH  29  30
ATOM     30  O   UNL     1      12.612  -7.666  25.483  1.00  0.00    -0.393 OA
ATOM     31  H   UNL     1      13.360  -7.303  26.025  1.00  0.00     0.210 HD
ENDBRANCH  29  30
ENDBRANCH   1  11
TORSDOF 6
ENDMDL
MODEL 3
REMARK VINA RESULT:    -6.098     14.300     17.480
REMARK INTER + INTRA:          -9.287
REMARK INTER:                  -7.738
REMARK INTRA:                  -1.548
REMARK UNBOUND:                -1.228
REMARK SMILES CC[C@H](C=C[C@@H](C)[C@@H]1CC[C@H]2C3=CC[C@@H]4C[C@@H](O)CC[C@@]4(C)[C@H]3CC[C@]21C)C(C)C
REMARK SMILES IDX 6 1 7 2 5 3 4 4 3 5 2 6 1 7 28 8 29 9 30 10 8 11 9 12 26 13
REMARK SMILES IDX 10 14 11 15 25 16 27 17 12 18 24 19 23 20 13 21 21 22 14 23
REMARK SMILES IDX 15 24 20 25 22 26 16 27 19 28 17 29 18 30
REMARK H PARENT 18 31
REMARK Flexibility Score: inf
ROOT
ATOM      1  C   UNL     1      16.592  -1.033  24.663  1.00  0.00     0.012 C 
ATOM      2  C   UNL     1      17.140  -0.859  23.236  1.00  0.00     0.012 C 
ENDROOT
BRANCH   1   3
ATOM      3  C   UNL     1      15.077  -0.876  24.776  1.00  0.00    -0.028 C 
ATOM      4  C   UNL     1      14.447  -0.051  25.637  1.00  0.00    -0.027 C 
BRANCH   4   5
ATOM      5  C   UNL     1      12.936   0.069  25.653  1.00  0.00     0.014 C 
BRANCH   5   6
ATOM      6  C   UNL     1      12.395  -0.393  27.030  1.00  0.00     0.004 C 
ATOM      7  C   UNL     1      13.285  -0.009  28.215  1.00  0.00     0.004 C 
ENDBRANCH   5   6
BRANCH   5   8
ATOM      8  C   UNL     1      12.485   1.504  25.235  1.00  0.00    -0.011 C 
ATOM      9  C   UNL     1      13.347   2.037  24.075  1.00  0.00     0.008 C 
ATOM     10  C   UNL     1      11.006   1.546  24.813  1.00  0.00     0.008 C 
ENDBRANCH   5   8
ENDBRANCH   4   5
ENDBRANCH   1   3
BRANCH   1  11
ATOM     11  C   UNL     1      17.420  -0.202  25.704  1.00  0.00     0.002 C 
ATOM     12  C   UNL     1      18.571   0.601  25.076  1.00  0.00     0.005 C 
ATOM     13  C   UNL     1      18.001  -0.893  26.983  1.00  0.00    -0.023 C 
ATOM     14  C   UNL     1      19.620   0.809  26.164  1.00  0.00     0.009 C 
ATOM     15  C   UNL     1      19.111   0.101  27.426  1.00  0.00     0.021 C 
ATOM     16  C   UNL     1      16.901  -1.078  28.095  1.00  0.00     0.008 C 
ATOM     17  C   UNL     1      18.653  -2.262  26.688  1.00  0.00     0.012 C 
ATOM     18  C   UNL     1      18.573   1.002  28.525  1.00  0.00    -0.067 C 
ATOM     19  C   UNL     1      17.440  -0.997  29.546  1.00  0.00     0.009 C 
ATOM     20  C   UNL     1      18.353   0.248  29.834  1.00  0.00     0.021 C 
ATOM     21  C   UNL     1      17.922   2.169  28.258  1.00  0.00    -0.027 C 
ATOM     22  C   UNL     1      17.911   1.220  30.992  1.00  0.00    -0.023 C 
ATOM     23  C   UNL     1      17.147   2.950  29.300  1.00  0.00     0.031 C 
ATOM     24  C   UNL     1      16.706   2.044  30.460  1.00  0.00     0.002 C 
ATOM     25  C   UNL     1      17.456   0.484  32.279  1.00  0.00     0.010 C 
ATOM     26  C   UNL     1      19.162   2.096  31.337  1.00  0.00     0.012 C 
ATOM     27  C   UNL     1      15.852   2.769  31.542  1.00  0.00     0.036 C 
ATOM     28  C   UNL     1      17.090   1.454  33.421  1.00  0.00     0.032 C 
ATOM     29  C   UNL     1      16.431   2.788  32.972  1.00  0.00     0.114 C 
BRANCH  29  30
ATOM     30  O   UNL     1      15.400   3.125  33.865  1.00  0.00    -0.393 OA
ATOM     31  H   UNL     1      15.714   2.880  34.774  1.00  0.00     0.210 HD
ENDBRANCH  29  30
ENDBRANCH   1  11
TORSDOF 6
ENDMDL
MODEL 4
REMARK VINA RESULT:    -5.996      3.957      7.147
REMARK INTER + INTRA:          -9.151
REMARK INTER:                  -7.766
REMARK INTRA:                  -1.385
REMARK UNBOUND:                -1.228
REMARK SMILES CC[C@H](C=C[C@@H](C)[C@@H]1CC[C@H]2C3=CC[C@@H]4C[C@@H](O)CC[C@@]4(C)[C@H]3CC[C@]21C)C(C)C
REMARK SMILES IDX 6 1 7 2 5 3 4 4 3 5 2 6 1 7 28 8 29 9 30 10 8 11 9 12 26 13
REMARK SMILES IDX 10 14 11 15 25 16 27 17 12 18 24 19 23 20 13 21 21 22 14 23
REMARK SMILES IDX 15 24 20 25 22 26 16 27 19 28 17 29 18 30
REMARK H PARENT 18 31
REMARK Flexibility Score: inf
ROOT
ATOM      1  C   UNL     1      19.058 -12.078  18.369  1.00  0.00     0.012 C 
ATOM      2  C   UNL     1      20.382 -12.528  17.725  1.00  0.00     0.012 C 
ENDROOT
BRANCH   1   3
ATOM      3  C   UNL     1      19.048 -10.621  18.828  1.00  0.00    -0.028 C 
ATOM      4  C   UNL     1      17.941  -9.917  19.139  1.00  0.00    -0.027 C 
BRANCH   4   5
ATOM      5  C   UNL     1      18.029  -8.483  19.625  1.00  0.00     0.014 C 
BRANCH   5   6
ATOM      6  C   UNL     1      17.382  -7.542  18.577  1.00  0.00     0.004 C 
ATOM      7  C   UNL     1      17.383  -8.096  17.149  1.00  0.00     0.004 C 
ENDBRANCH   5   6
BRANCH   5   8
ATOM      8  C   UNL     1      17.439  -8.343  21.064  1.00  0.00    -0.011 C 
ATOM      9  C   UNL     1      17.365  -9.712  21.765  1.00  0.00     0.008 C 
ATOM     10  C   UNL     1      18.265  -7.382  21.936  1.00  0.00     0.008 C 
ENDBRANCH   5   8
ENDBRANCH   4   5
ENDBRANCH   1   3
BRANCH   1  11
ATOM     11  C   UNL     1      18.557 -13.110  19.439  1.00  0.00     0.002 C 
ATOM     12  C   UNL     1      19.526 -14.283  19.665  1.00  0.00     0.005 C 
ATOM     13  C   UNL     1      17.123 -13.728  19.327  1.00  0.00    -0.023 C 
ATOM     14  C   UNL     1      18.697 -15.457  20.176  1.00  0.00     0.009 C 
ATOM     15  C   UNL     1      17.235 -14.997  20.219  1.00  0.00     0.021 C 
ATOM     16  C   UNL     1      16.019 -12.736  19.854  1.00  0.00     0.008 C 
ATOM     17  C   UNL     1      16.762 -14.165  17.890  1.00  0.00     0.012 C 
ATOM     18  C   UNL     1      16.670 -14.697  21.598  1.00  0.00    -0.067 C 
ATOM     19  C   UNL     1      14.795 -13.430  20.503  1.00  0.00     0.009 C 
ATOM     20  C   UNL     1      15.154 -14.519  21.575  1.00  0.00     0.021 C 
ATOM     21  C   UNL     1      17.432 -14.176  22.600  1.00  0.00    -0.027 C 
ATOM     22  C   UNL     1      14.574 -14.329  23.026  1.00  0.00    -0.023 C 
ATOM     23  C   UNL     1      16.854 -13.620  23.886  1.00  0.00     0.031 C 
ATOM     24  C   UNL     1      15.391 -13.190  23.698  1.00  0.00     0.002 C 
ATOM     25  C   UNL     1      13.078 -13.920  23.048  1.00  0.00     0.010 C 
ATOM     26  C   UNL     1      14.722 -15.711  23.748  1.00  0.00     0.012 C 
ATOM     27  C   UNL     1      14.749 -12.554  24.966  1.00  0.00     0.036 C 
ATOM     28  C   UNL     1      12.514 -13.804  24.479  1.00  0.00     0.032 C 
ATOM     29  C   UNL     1      13.515 -13.277  25.545  1.00  0.00     0.114 C 
BRANCH  29  30
ATOM     30  O   UNL     1      12.851 -12.397  26.416  1.00  0.00    -0.393 OA
ATOM     31  H   UNL     1      13.426 -12.298  27.219  1.00  0.00     0.210 HD
ENDBRANCH  29  30
ENDBRANCH   1  11
TORSDOF 6
ENDMDL
MODEL 5
REMARK VINA RESULT:    -5.977      2.591      5.000
REMARK INTER + INTRA:          -9.126
REMARK INTER:                  -8.637
REMARK INTRA:                  -0.489
REMARK UNBOUND:                -1.228
REMARK SMILES CC[C@H](C=C[C@@H](C)[C@@H]1CC[C@H]2C3=CC[C@@H]4C[C@@H](O)CC[C@@]4(C)[C@H]3CC[C@]21C)C(C)C
REMARK SMILES IDX 6 1 7 2 5 3 4 4 3 5 2 6 1 7 28 8 29 9 30 10 8 11 9 12 26 13
REMARK SMILES IDX 10 14 11 15 25 16 27 17 12 18 24 19 23 20 13 21 21 22 14 23
REMARK SMILES IDX 15 24 20 25 22 26 16 27 19 28 17 29 18 30
REMARK H PARENT 18 31
REMARK Flexibility Score: inf
ROOT
ATOM      1  C   UNL     1      12.492  -9.870  24.619  1.00  0.00     0.012 C 
ATOM      2  C   UNL     1      13.814  -9.397  25.251  1.00  0.00     0.012 C 
ENDROOT
BRANCH   1   3
ATOM      3  C   UNL     1      11.251  -9.546  25.449  1.00  0.00    -0.028 C 
ATOM      4  C   UNL     1      11.129  -8.489  26.277  1.00  0.00    -0.027 C 
BRANCH   4   5
ATOM      5  C   UNL     1       9.842  -8.223  27.033  1.00  0.00     0.014 C 
BRANCH   5   6
ATOM      6  C   UNL     1      10.060  -8.510  28.541  1.00  0.00     0.004 C 
ATOM      7  C   UNL     1      10.230  -9.994  28.879  1.00  0.00     0.004 C 
ENDBRANCH   5   6
BRANCH   5   8
ATOM      8  C   UNL     1       9.297  -6.792  26.725  1.00  0.00    -0.011 C 
ATOM      9  C   UNL     1       9.444  -6.457  25.229  1.00  0.00     0.008 C 
ATOM     10  C   UNL     1       7.820  -6.638  27.126  1.00  0.00     0.008 C 
ENDBRANCH   5   8
ENDBRANCH   4   5
ENDBRANCH   1   3
BRANCH   1  11
ATOM     11  C   UNL     1      12.587 -11.356  24.128  1.00  0.00     0.002 C 
ATOM     12  C   UNL     1      11.335 -11.837  23.373  1.00  0.00     0.005 C 
ATOM     13  C   UNL     1      12.970 -12.495  25.131  1.00  0.00    -0.023 C 
ATOM     14  C   UNL     1      11.273 -13.353  23.526  1.00  0.00     0.009 C 
ATOM     15  C   UNL     1      12.463 -13.770  24.399  1.00  0.00     0.021 C 
ATOM     16  C   UNL     1      14.523 -12.545  25.389  1.00  0.00     0.008 C 
ATOM     17  C   UNL     1      12.238 -12.381  26.487  1.00  0.00     0.012 C 
ATOM     18  C   UNL     1      13.624 -14.431  23.674  1.00  0.00    -0.067 C 
ATOM     19  C   UNL     1      15.078 -13.964  25.671  1.00  0.00     0.009 C 
ATOM     20  C   UNL     1      14.627 -15.058  24.639  1.00  0.00     0.021 C 
ATOM     21  C   UNL     1      13.977 -14.092  22.402  1.00  0.00    -0.027 C 
ATOM     22  C   UNL     1      15.756 -15.840  23.869  1.00  0.00    -0.023 C 
ATOM     23  C   UNL     1      15.274 -14.528  21.751  1.00  0.00     0.031 C 
ATOM     24  C   UNL     1      16.339 -14.869  22.805  1.00  0.00     0.002 C 
ATOM     25  C   UNL     1      16.922 -16.304  24.782  1.00  0.00     0.010 C 
ATOM     26  C   UNL     1      15.076 -17.108  23.251  1.00  0.00     0.012 C 
ATOM     27  C   UNL     1      17.719 -15.271  22.206  1.00  0.00     0.036 C 
ATOM     28  C   UNL     1      17.984 -17.124  24.020  1.00  0.00     0.032 C 
ATOM     29  C   UNL     1      18.228 -16.687  22.549  1.00  0.00     0.114 C 
BRANCH  29  30
ATOM     30  O   UNL     1      19.603 -16.745  22.266  1.00  0.00    -0.393 OA
ATOM     31  H   UNL     1      19.796 -16.017  21.619  1.00  0.00     0.210 HD
ENDBRANCH  29  30
ENDBRANCH   1  11
TORSDOF 6
ENDMDL
MODEL 6
REMARK VINA RESULT:    -5.969      3.119      7.882
REMARK INTER + INTRA:          -9.116
REMARK INTER:                  -7.508
REMARK INTRA:                  -1.608
REMARK UNBOUND:                -1.228
REMARK SMILES CC[C@H](C=C[C@@H](C)[C@@H]1CC[C@H]2C3=CC[C@@H]4C[C@@H](O)CC[C@@]4(C)[C@H]3CC[C@]21C)C(C)C
REMARK SMILES IDX 6 1 7 2 5 3 4 4 3 5 2 6 1 7 28 8 29 9 30 10 8 11 9 12 26 13
REMARK SMILES IDX 10 14 11 15 25 16 27 17 12 18 24 19 23 20 13 21 21 22 14 23
REMARK SMILES IDX 15 24 20 25 22 26 16 27 19 28 17 29 18 30
REMARK H PARENT 18 31
REMARK Flexibility Score: inf
ROOT
ATOM      1  C   UNL     1      14.732 -15.194  21.958  1.00  0.00     0.012 C 
ATOM      2  C   UNL     1      15.374 -16.575  22.184  1.00  0.00     0.012 C 
ENDROOT
BRANCH   1   3
ATOM      3  C   UNL     1      15.527 -14.278  21.029  1.00  0.00    -0.028 C 
ATOM      4  C   UNL     1      15.872 -13.005  21.309  1.00  0.00    -0.027 C 
BRANCH   4   5
ATOM      5  C   UNL     1      16.697 -12.180  20.341  1.00  0.00     0.014 C 
BRANCH   5   6
ATOM      6  C   UNL     1      17.342 -10.989  21.096  1.00  0.00     0.004 C 
ATOM      7  C   UNL     1      16.924 -10.877  22.565  1.00  0.00     0.004 C 
ENDBRANCH   5   6
BRANCH   5   8
ATOM      8  C   UNL     1      17.715 -13.077  19.568  1.00  0.00    -0.011 C 
ATOM      9  C   UNL     1      17.895 -12.585  18.120  1.00  0.00     0.008 C 
ATOM     10  C   UNL     1      19.091 -13.113  20.255  1.00  0.00     0.008 C 
ENDBRANCH   5   8
ENDBRANCH   4   5
ENDBRANCH   1   3
BRANCH   1  11
ATOM     11  C   UNL     1      14.289 -14.536  23.311  1.00  0.00     0.002 C 
ATOM     12  C   UNL     1      14.646 -15.374  24.550  1.00  0.00     0.005 C 
ATOM     13  C   UNL     1      12.812 -14.053  23.506  1.00  0.00    -0.023 C 
ATOM     14  C   UNL     1      13.657 -14.996  25.648  1.00  0.00     0.009 C 
ATOM     15  C   UNL     1      12.692 -13.963  25.053  1.00  0.00     0.021 C 
ATOM     16  C   UNL     1      12.559 -12.660  22.815  1.00  0.00     0.008 C 
ATOM     17  C   UNL     1      11.769 -15.069  22.989  1.00  0.00     0.012 C 
ATOM     18  C   UNL     1      12.903 -12.523  25.493  1.00  0.00    -0.067 C 
ATOM     19  C   UNL     1      11.515 -11.771  23.536  1.00  0.00     0.009 C 
ATOM     20  C   UNL     1      11.744 -11.618  25.082  1.00  0.00     0.021 C 
ATOM     21  C   UNL     1      14.138 -12.017  25.766  1.00  0.00    -0.027 C 
ATOM     22  C   UNL     1      11.922 -10.160  25.649  1.00  0.00    -0.023 C 
ATOM     23  C   UNL     1      14.414 -10.538  25.944  1.00  0.00     0.031 C 
ATOM     24  C   UNL     1      13.345  -9.684  25.244  1.00  0.00     0.002 C 
ATOM     25  C   UNL     1      10.899  -9.143  25.079  1.00  0.00     0.010 C 
ATOM     26  C   UNL     1      11.714 -10.258  27.198  1.00  0.00     0.012 C 
ATOM     27  C   UNL     1      13.597  -8.150  25.337  1.00  0.00     0.036 C 
ATOM     28  C   UNL     1      11.049  -7.737  25.696  1.00  0.00     0.032 C 
ATOM     29  C   UNL     1      12.505  -7.317  26.040  1.00  0.00     0.114 C 
BRANCH  29  30
ATOM     30  O   UNL     1      12.693  -5.965  25.707  1.00  0.00    -0.393 OA
ATOM     31  H   UNL     1      13.492  -5.653  26.208  1.00  0.00     0.210 HD
ENDBRANCH  29  30
ENDBRANCH   1  11
TORSDOF 6
ENDMDL
MODEL 7
REMARK VINA RESULT:    -5.932      2.861      5.284
REMARK INTER + INTRA:          -9.067
REMARK INTER:                  -7.555
REMARK INTRA:                  -1.512
REMARK UNBOUND:                -1.228
REMARK SMILES CC[C@H](C=C[C@@H](C)[C@@H]1CC[C@H]2C3=CC[C@@H]4C[C@@H](O)CC[C@@]4(C)[C@H]3CC[C@]21C)C(C)C
REMARK SMILES IDX 6 1 7 2 5 3 4 4 3 5 2 6 1 7 28 8 29 9 30 10 8 11 9 12 26 13
REMARK SMILES IDX 10 14 11 15 25 16 27 17 12 18 24 19 23 20 13 21 21 22 14 23
REMARK SMILES IDX 15 24 20 25 22 26 16 27 19 28 17 29 18 30
REMARK H PARENT 18 31
REMARK Flexibility Score: inf
ROOT
ATOM      1  C   UNL     1      12.454  -9.755  25.292  1.00  0.00     0.012 C 
ATOM      2  C   UNL     1      11.000  -9.250  25.314  1.00  0.00     0.012 C 
ENDROOT
BRANCH   1   3
ATOM      3  C   UNL     1      13.481  -8.690  24.911  1.00  0.00    -0.028 C 
ATOM      4  C   UNL     1      14.810  -8.897  24.818  1.00  0.00    -0.027 C 
BRANCH   4   5
ATOM      5  C   UNL     1      15.754  -7.789  24.393  1.00  0.00     0.014 C 
BRANCH   5   6
ATOM      6  C   UNL     1      16.122  -6.923  25.625  1.00  0.00     0.004 C 
ATOM      7  C   UNL     1      15.486  -5.530  25.625  1.00  0.00     0.004 C 
ENDBRANCH   5   6
BRANCH   5   8
ATOM      8  C   UNL     1      16.984  -8.366  23.624  1.00  0.00    -0.011 C 
ATOM      9  C   UNL     1      17.003  -9.905  23.689  1.00  0.00     0.008 C 
ATOM     10  C   UNL     1      17.000  -7.931  22.149  1.00  0.00     0.008 C 
ENDBRANCH   5   8
ENDBRANCH   4   5
ENDBRANCH   1   3
BRANCH   1  11
ATOM     11  C   UNL     1      12.584 -11.107  24.508  1.00  0.00     0.002 C 
ATOM     12  C   UNL     1      11.375 -11.415  23.607  1.00  0.00     0.005 C 
ATOM     13  C   UNL     1      12.925 -12.431  25.270  1.00  0.00    -0.023 C 
ATOM     14  C   UNL     1      11.316 -12.930  23.438  1.00  0.00     0.009 C 
ATOM     15  C   UNL     1      12.464 -13.524  24.264  1.00  0.00     0.021 C 
ATOM     16  C   UNL     1      14.463 -12.539  25.589  1.00  0.00     0.008 C 
ATOM     17  C   UNL     1      12.125 -12.599  26.581  1.00  0.00     0.012 C 
ATOM     18  C   UNL     1      13.664 -14.023  23.475  1.00  0.00    -0.067 C 
ATOM     19  C   UNL     1      15.013 -13.987  25.596  1.00  0.00     0.009 C 
ATOM     20  C   UNL     1      14.622 -14.841  24.338  1.00  0.00     0.021 C 
ATOM     21  C   UNL     1      14.078 -13.427  22.322  1.00  0.00    -0.027 C 
ATOM     22  C   UNL     1      15.794 -15.449  23.480  1.00  0.00    -0.023 C 
ATOM     23  C   UNL     1      15.408 -13.723  21.660  1.00  0.00     0.031 C 
ATOM     24  C   UNL     1      16.422 -14.280  22.672  1.00  0.00     0.002 C 
ATOM     25  C   UNL     1      16.916 -16.096  24.333  1.00  0.00     0.010 C 
ATOM     26  C   UNL     1      15.154 -16.558  22.578  1.00  0.00     0.012 C 
ATOM     27  C   UNL     1      17.833 -14.553  22.072  1.00  0.00     0.036 C 
ATOM     28  C   UNL     1      18.020 -16.744  23.472  1.00  0.00     0.032 C 
ATOM     29  C   UNL     1      18.335 -16.010  22.138  1.00  0.00     0.114 C 
BRANCH  29  30
ATOM     30  O   UNL     1      19.722 -16.013  21.919  1.00  0.00    -0.393 OA
ATOM     31  H   UNL     1      19.974 -15.092  21.647  1.00  0.00     0.210 HD
ENDBRANCH  29  30
ENDBRANCH   1  11
TORSDOF 6
ENDMDL
MODEL 8
REMARK VINA RESULT:    -5.753      2.920      3.969
REMARK INTER + INTRA:          -8.831
REMARK INTER:                  -7.588
REMARK INTRA:                  -1.243
REMARK UNBOUND:                -1.228
REMARK SMILES CC[C@H](C=C[C@@H](C)[C@@H]1CC[C@H]2C3=CC[C@@H]4C[C@@H](O)CC[C@@]4(C)[C@H]3CC[C@]21C)C(C)C
REMARK SMILES IDX 6 1 7 2 5 3 4 4 3 5 2 6 1 7 28 8 29 9 30 10 8 11 9 12 26 13
REMARK SMILES IDX 10 14 11 15 25 16 27 17 12 18 24 19 23 20 13 21 21 22 14 23
REMARK SMILES IDX 15 24 20 25 22 26 16 27 19 28 17 29 18 30
REMARK H PARENT 18 31
REMARK Flexibility Score: inf
ROOT
ATOM      1  C   UNL     1      12.992 -13.228  24.762  1.00  0.00     0.012 C 
ATOM      2  C   UNL     1      11.758 -14.078  24.411  1.00  0.00     0.012 C 
ENDROOT
BRANCH   1   3
ATOM      3  C   UNL     1      12.704 -11.735  24.910  1.00  0.00    -0.028 C 
ATOM      4  C   UNL     1      12.602 -11.080  26.084  1.00  0.00    -0.027 C 
BRANCH   4   5
ATOM      5  C   UNL     1      12.351  -9.586  26.135  1.00  0.00     0.014 C 
BRANCH   5   6
ATOM      6  C   UNL     1      12.917  -8.922  24.854  1.00  0.00     0.004 C 
ATOM      7  C   UNL     1      14.372  -8.462  24.975  1.00  0.00     0.004 C 
ENDBRANCH   5   6
BRANCH   5   8
ATOM      8  C   UNL     1      10.843  -9.281  26.404  1.00  0.00    -0.011 C 
ATOM      9  C   UNL     1      10.553  -9.228  27.916  1.00  0.00     0.008 C 
ATOM     10  C   UNL     1      10.400  -7.953  25.767  1.00  0.00     0.008 C 
ENDBRANCH   5   8
ENDBRANCH   4   5
ENDBRANCH   1   3
BRANCH   1  11
ATOM     11  C   UNL     1      14.213 -13.575  23.841  1.00  0.00     0.002 C 
ATOM     12  C   UNL     1      14.346 -15.076  23.534  1.00  0.00     0.005 C 
ATOM     13  C   UNL     1      15.647 -13.063  24.205  1.00  0.00    -0.023 C 
ATOM     14  C   UNL     1      15.815 -15.342  23.222  1.00  0.00     0.009 C 
ATOM     15  C   UNL     1      16.561 -14.011  23.379  1.00  0.00     0.021 C 
ATOM     16  C   UNL     1      15.847 -11.554  23.800  1.00  0.00     0.008 C 
ATOM     17  C   UNL     1      15.987 -13.231  25.703  1.00  0.00     0.012 C 
ATOM     18  C   UNL     1      16.970 -13.320  22.088  1.00  0.00    -0.067 C 
ATOM     19  C   UNL     1      17.295 -11.192  23.386  1.00  0.00     0.009 C 
ATOM     20  C   UNL     1      17.937 -12.164  22.333  1.00  0.00     0.021 C 
ATOM     21  C   UNL     1      16.219 -13.390  20.953  1.00  0.00    -0.027 C 
ATOM     22  C   UNL     1      18.442 -11.539  20.980  1.00  0.00    -0.023 C 
ATOM     23  C   UNL     1      16.450 -12.509  19.743  1.00  0.00     0.031 C 
ATOM     24  C   UNL     1      17.183 -11.215  20.129  1.00  0.00     0.002 C 
ATOM     25  C   UNL     1      19.244 -10.224  21.166  1.00  0.00     0.010 C 
ATOM     26  C   UNL     1      19.382 -12.604  20.322  1.00  0.00     0.012 C 
ATOM     27  C   UNL     1      17.403 -10.232  18.941  1.00  0.00     0.036 C 
ATOM     28  C   UNL     1      19.785  -9.664  19.834  1.00  0.00     0.032 C 
ATOM     29  C   UNL     1      18.868  -9.888  18.599  1.00  0.00     0.114 C 
BRANCH  29  30
ATOM     30  O   UNL     1      18.878  -8.737  17.793  1.00  0.00    -0.393 OA
ATOM     31  H   UNL     1      19.793  -8.356  17.846  1.00  0.00     0.210 HD
ENDBRANCH  29  30
ENDBRANCH   1  11
TORSDOF 6
ENDMDL
MODEL 9
REMARK VINA RESULT:    -5.708      2.828      3.682
REMARK INTER + INTRA:          -8.771
REMARK INTER:                  -7.505
REMARK INTRA:                  -1.265
REMARK UNBOUND:                -1.228
REMARK SMILES CC[C@H](C=C[C@@H](C)[C@@H]1CC[C@H]2C3=CC[C@@H]4C[C@@H](O)CC[C@@]4(C)[C@H]3CC[C@]21C)C(C)C
REMARK SMILES IDX 6 1 7 2 5 3 4 4 3 5 2 6 1 7 28 8 29 9 30 10 8 11 9 12 26 13
REMARK SMILES IDX 10 14 11 15 25 16 27 17 12 18 24 19 23 20 13 21 21 22 14 23
REMARK SMILES IDX 15 24 20 25 22 26 16 27 19 28 17 29 18 30
REMARK H PARENT 18 31
REMARK Flexibility Score: inf
ROOT
ATOM      1  C   UNL     1      14.397 -14.267  25.451  1.00  0.00     0.012 C 
ATOM      2  C   UNL     1      13.900 -15.613  26.009  1.00  0.00     0.012 C 
ENDROOT
BRANCH   1   3
ATOM      3  C   UNL     1      13.290 -13.375  24.890  1.00  0.00    -0.028 C 
ATOM      4  C   UNL     1      13.258 -12.030  24.987  1.00  0.00    -0.027 C 
BRANCH   4   5
ATOM      5  C   UNL     1      12.138 -11.221  24.365  1.00  0.00     0.014 C 
BRANCH   5   6
ATOM      6  C   UNL     1      11.175 -12.169  23.605  1.00  0.00     0.004 C 
ATOM      7  C   UNL     1      10.802 -11.689  22.200  1.00  0.00     0.004 C 
ENDBRANCH   5   6
BRANCH   5   8
ATOM      8  C   UNL     1      11.440 -10.319  25.432  1.00  0.00    -0.011 C 
ATOM      9  C   UNL     1      12.168 -10.405  26.787  1.00  0.00     0.008 C 
ATOM     10  C   UNL     1      11.379  -8.846  24.994  1.00  0.00     0.008 C 
ENDBRANCH   5   8
ENDBRANCH   4   5
ENDBRANCH   1   3
BRANCH   1  11
ATOM     11  C   UNL     1      15.634 -14.455  24.506  1.00  0.00     0.002 C 
ATOM     12  C   UNL     1      16.018 -15.927  24.279  1.00  0.00     0.005 C 
ATOM     13  C   UNL     1      16.966 -13.682  24.788  1.00  0.00    -0.023 C 
ATOM     14  C   UNL     1      17.502 -15.955  23.929  1.00  0.00     0.009 C 
ATOM     15  C   UNL     1      18.008 -14.508  23.983  1.00  0.00     0.021 C 
ATOM     16  C   UNL     1      16.889 -12.190  24.290  1.00  0.00     0.008 C 
ATOM     17  C   UNL     1      17.371 -13.696  26.279  1.00  0.00     0.012 C 
ATOM     18  C   UNL     1      18.257 -13.839  22.641  1.00  0.00    -0.067 C 
ATOM     19  C   UNL     1      18.241 -11.610  23.803  1.00  0.00     0.009 C 
ATOM     20  C   UNL     1      19.014 -12.521  22.785  1.00  0.00     0.021 C 
ATOM     21  C   UNL     1      17.499 -14.108  21.540  1.00  0.00    -0.027 C 
ATOM     22  C   UNL     1      19.366 -11.903  21.380  1.00  0.00    -0.023 C 
ATOM     23  C   UNL     1      17.541 -13.276  20.275  1.00  0.00     0.031 C 
ATOM     24  C   UNL     1      18.048 -11.854  20.559  1.00  0.00     0.002 C 
ATOM     25  C   UNL     1      19.931 -10.461  21.461  1.00  0.00     0.010 C 
ATOM     26  C   UNL     1      20.459 -12.829  20.749  1.00  0.00     0.012 C 
ATOM     27  C   UNL     1      18.062 -10.923  19.311  1.00  0.00     0.036 C 
ATOM     28  C   UNL     1      20.331  -9.899  20.081  1.00  0.00     0.032 C 
ATOM     29  C   UNL     1      19.435 -10.354  18.896  1.00  0.00     0.114 C 
BRANCH  29  30
ATOM     30  O   UNL     1      19.223  -9.271  18.026  1.00  0.00    -0.393 OA
ATOM     31  H   UNL     1      20.006  -8.669  18.119  1.00  0.00     0.210 HD
ENDBRANCH  29  30
ENDBRANCH   1  11
TORSDOF 6
ENDMDL
