MODEL 1
REMARK VINA RESULT:    -0.458      0.000      0.000
REMARK INTER + INTRA:          -7.760
REMARK INTER:                  -1.154
REMARK INTRA:                  -6.606
REMARK UNBOUND:                -6.606
REMARK SMILES CCCCCCCCCCCCCCCCCCCCCCCCCCCC(=O)[O-]
REMARK SMILES IDX 15 1 16 2 17 3 18 4 19 5 20 6 21 7 22 8 23 9 24 10 25 11
REMARK SMILES IDX 26 12 27 13 28 14 29 15 30 16 14 17 13 18 12 19 11 20 10 21
REMARK SMILES IDX 9 22 8 23 7 24 6 25 5 26 4 27 3 28 2 29 1 30
REMARK H PARENT
REMARK Flexibility Score: inf
ROOT
ATOM      1  C   UNL     1     -17.584 -13.857  81.452  1.00  0.00     0.000 C 
ENDROOT
BRANCH   1   2
ATOM      2  C   UNL     1     -16.634 -15.050  81.255  1.00  0.00     0.000 C 
BRANCH   2   3
ATOM      3  C   UNL     1     -17.378 -16.336  80.853  1.00  0.00     0.000 C 
BRANCH   3   4
ATOM      4  C   UNL     1     -16.542 -17.222  79.905  1.00  0.00     0.000 C 
BRANCH   4   5
ATOM      5  C   UNL     1     -17.047 -18.671  79.807  1.00  0.00     0.000 C 
BRANCH   5   6
ATOM      6  C   UNL     1     -17.801 -19.128  81.066  1.00  0.00     0.000 C 
BRANCH   6   7
ATOM      7  C   UNL     1     -19.231 -19.598  80.760  1.00  0.00     0.000 C 
BRANCH   7   8
ATOM      8  C   UNL     1     -19.697 -19.197  79.348  1.00  0.00     0.000 C 
BRANCH   8   9
ATOM      9  C   UNL     1     -20.694 -18.027  79.366  1.00  0.00     0.000 C 
BRANCH   9  10
ATOM     10  C   UNL     1     -20.281 -16.885  78.428  1.00  0.00     0.000 C 
BRANCH  10  11
ATOM     11  C   UNL     1     -20.537 -15.516  79.076  1.00  0.00     0.000 C 
BRANCH  11  12
ATOM     12  C   UNL     1     -19.650 -14.398  78.499  1.00  0.00     0.006 C 
BRANCH  12  13
ATOM     13  C   UNL     1     -18.514 -14.907  77.591  1.00  0.00     0.053 C 
BRANCH  13  14
ATOM     14  C   UNL     1     -17.267 -14.085  77.710  1.00  0.00     0.041 C 
ATOM     15  O   UNL     1     -16.142 -14.598  77.473  1.00  0.00    -0.550 OA
ATOM     16  O   UNL     1     -17.345 -12.746  78.069  1.00  0.00    -0.550 OA
ENDBRANCH  13  14
ENDBRANCH  12  13
ENDBRANCH  11  12
ENDBRANCH  10  11
ENDBRANCH   9  10
ENDBRANCH   8   9
ENDBRANCH   7   8
ENDBRANCH   6   7
ENDBRANCH   5   6
ENDBRANCH   4   5
ENDBRANCH   3   4
ENDBRANCH   2   3
ENDBRANCH   1   2
BRANCH   1  17
ATOM     17  C   UNL     1     -17.542 -13.298  82.882  1.00  0.00     0.000 C 
BRANCH  17  18
ATOM     18  C   UNL     1     -16.443 -13.988  83.704  1.00  0.00     0.000 C 
BRANCH  18  19
ATOM     19  C   UNL     1     -16.964 -14.575  85.028  1.00  0.00     0.000 C 
BRANCH  19  20
ATOM     20  C   UNL     1     -18.461 -14.336  85.312  1.00  0.00     0.000 C 
BRANCH  20  21
ATOM     21  C   UNL     1     -19.316 -15.606  85.469  1.00  0.00     0.000 C 
BRANCH  21  22
ATOM     22  C   UNL     1     -18.752 -16.810  84.695  1.00  0.00    -0.000 C 
BRANCH  22  23
ATOM     23  C   UNL     1     -19.768 -17.410  83.711  1.00  0.00    -0.000 C 
BRANCH  23  24
ATOM     24  C   UNL     1     -20.249 -16.403  82.655  1.00  0.00    -0.000 C 
BRANCH  24  25
ATOM     25  C   UNL     1     -21.781 -16.385  82.575  1.00  0.00    -0.000 C 
BRANCH  25  26
ATOM     26  C   UNL     1     -22.318 -14.947  82.602  1.00  0.00    -0.000 C 
BRANCH  26  27
ATOM     27  C   UNL     1     -21.201 -13.889  82.621  1.00  0.00    -0.000 C 
BRANCH  27  28
ATOM     28  C   UNL     1     -21.320 -12.795  81.543  1.00  0.00    -0.000 C 
BRANCH  28  29
ATOM     29  C   UNL     1     -22.703 -12.758  80.878  1.00  0.00    -0.003 C 
ATOM     30  C   UNL     1     -22.598 -12.318  79.421  1.00  0.00     0.004 C 
ENDBRANCH  28  29
ENDBRANCH  27  28
ENDBRANCH  26  27
ENDBRANCH  25  26
ENDBRANCH  24  25
ENDBRANCH  23  24
ENDBRANCH  22  23
ENDBRANCH  21  22
ENDBRANCH  20  21
ENDBRANCH  19  20
ENDBRANCH  18  19
ENDBRANCH  17  18
ENDBRANCH   1  17
TORSDOF 26
ENDMDL
MODEL 2
REMARK VINA RESULT:    -0.441      6.833      9.456
REMARK INTER + INTRA:          -7.716
REMARK INTER:                  -1.641
REMARK INTRA:                  -6.076
REMARK UNBOUND:                -6.606
REMARK SMILES CCCCCCCCCCCCCCCCCCCCCCCCCCCC(=O)[O-]
REMARK SMILES IDX 15 1 16 2 17 3 18 4 19 5 20 6 21 7 22 8 23 9 24 10 25 11
REMARK SMILES IDX 26 12 27 13 28 14 29 15 30 16 14 17 13 18 12 19 11 20 10 21
REMARK SMILES IDX 9 22 8 23 7 24 6 25 5 26 4 27 3 28 2 29 1 30
REMARK H PARENT
REMARK Flexibility Score: inf
ROOT
ATOM      1  C   UNL     1     -15.740 -23.167  81.332  1.00  0.00     0.000 C 
ENDROOT
BRANCH   1   2
ATOM      2  C   UNL     1     -14.317 -22.588  81.386  1.00  0.00     0.000 C 
BRANCH   2   3
ATOM      3  C   UNL     1     -14.209 -21.377  82.330  1.00  0.00     0.000 C 
BRANCH   3   4
ATOM      4  C   UNL     1     -13.226 -21.629  83.493  1.00  0.00     0.000 C 
BRANCH   4   5
ATOM      5  C   UNL     1     -13.879 -22.284  84.723  1.00  0.00     0.000 C 
BRANCH   5   6
ATOM      6  C   UNL     1     -12.971 -23.323  85.400  1.00  0.00     0.000 C 
BRANCH   6   7
ATOM      7  C   UNL     1     -13.036 -24.697  84.718  1.00  0.00     0.000 C 
BRANCH   7   8
ATOM      8  C   UNL     1     -14.473 -25.106  84.344  1.00  0.00     0.000 C 
BRANCH   8   9
ATOM      9  C   UNL     1     -14.528 -25.980  83.082  1.00  0.00     0.000 C 
BRANCH   9  10
ATOM     10  C   UNL     1     -15.592 -27.083  83.174  1.00  0.00     0.000 C 
BRANCH  10  11
ATOM     11  C   UNL     1     -16.829 -26.730  82.335  1.00  0.00     0.000 C 
BRANCH  11  12
ATOM     12  C   UNL     1     -16.562 -26.766  80.819  1.00  0.00     0.006 C 
BRANCH  12  13
ATOM     13  C   UNL     1     -17.836 -26.679  79.958  1.00  0.00     0.053 C 
BRANCH  13  14
ATOM     14  C   UNL     1     -18.272 -25.267  79.711  1.00  0.00     0.041 C 
ATOM     15  O   UNL     1     -19.107 -24.715  80.476  1.00  0.00    -0.550 OA
ATOM     16  O   UNL     1     -17.745 -24.550  78.645  1.00  0.00    -0.550 OA
ENDBRANCH  13  14
ENDBRANCH  12  13
ENDBRANCH  11  12
ENDBRANCH  10  11
ENDBRANCH   9  10
ENDBRANCH   8   9
ENDBRANCH   7   8
ENDBRANCH   6   7
ENDBRANCH   5   6
ENDBRANCH   4   5
ENDBRANCH   3   4
ENDBRANCH   2   3
ENDBRANCH   1   2
BRANCH   1  17
ATOM     17  C   UNL     1     -16.740 -22.358  82.171  1.00  0.00     0.000 C 
BRANCH  17  18
ATOM     18  C   UNL     1     -17.431 -23.255  83.208  1.00  0.00     0.000 C 
BRANCH  18  19
ATOM     19  C   UNL     1     -17.437 -22.644  84.621  1.00  0.00     0.000 C 
BRANCH  19  20
ATOM     20  C   UNL     1     -17.919 -23.585  85.745  1.00  0.00     0.000 C 
BRANCH  20  21
ATOM     21  C   UNL     1     -17.993 -25.077  85.371  1.00  0.00     0.000 C 
BRANCH  21  22
ATOM     22  C   UNL     1     -19.427 -25.633  85.401  1.00  0.00    -0.000 C 
BRANCH  22  23
ATOM     23  C   UNL     1     -20.022 -25.811  83.995  1.00  0.00    -0.000 C 
BRANCH  23  24
ATOM     24  C   UNL     1     -20.897 -24.626  83.559  1.00  0.00    -0.000 C 
BRANCH  24  25
ATOM     25  C   UNL     1     -21.564 -23.963  84.771  1.00  0.00    -0.000 C 
BRANCH  25  26
ATOM     26  C   UNL     1     -22.003 -22.528  84.444  1.00  0.00    -0.000 C 
BRANCH  26  27
ATOM     27  C   UNL     1     -20.816 -21.575  84.215  1.00  0.00    -0.000 C 
BRANCH  27  28
ATOM     28  C   UNL     1     -20.908 -20.713  82.941  1.00  0.00    -0.000 C 
BRANCH  28  29
ATOM     29  C   UNL     1     -20.275 -21.387  81.716  1.00  0.00    -0.003 C 
ATOM     30  C   UNL     1     -21.345 -21.963  80.794  1.00  0.00     0.004 C 
ENDBRANCH  28  29
ENDBRANCH  27  28
ENDBRANCH  26  27
ENDBRANCH  25  26
ENDBRANCH  24  25
ENDBRANCH  23  24
ENDBRANCH  22  23
ENDBRANCH  21  22
ENDBRANCH  20  21
ENDBRANCH  19  20
ENDBRANCH  18  19
ENDBRANCH  17  18
ENDBRANCH   1  17
TORSDOF 26
ENDMDL
MODEL 3
REMARK VINA RESULT:    -0.405      5.935      9.365
REMARK INTER + INTRA:          -7.628
REMARK INTER:                  -1.579
REMARK INTRA:                  -6.048
REMARK UNBOUND:                -6.606
REMARK SMILES CCCCCCCCCCCCCCCCCCCCCCCCCCCC(=O)[O-]
REMARK SMILES IDX 15 1 16 2 17 3 18 4 19 5 20 6 21 7 22 8 23 9 24 10 25 11
REMARK SMILES IDX 26 12 27 13 28 14 29 15 30 16 14 17 13 18 12 19 11 20 10 21
REMARK SMILES IDX 9 22 8 23 7 24 6 25 5 26 4 27 3 28 2 29 1 30
REMARK H PARENT
REMARK Flexibility Score: inf
ROOT
ATOM      1  C   UNL     1     -17.192 -22.249  76.749  1.00  0.00     0.000 C 
ENDROOT
BRANCH   1   2
ATOM      2  C   UNL     1     -15.685 -22.522  76.866  1.00  0.00     0.000 C 
BRANCH   2   3
ATOM      3  C   UNL     1     -15.183 -22.450  78.319  1.00  0.00     0.000 C 
BRANCH   3   4
ATOM      4  C   UNL     1     -14.844 -21.006  78.749  1.00  0.00     0.000 C 
BRANCH   4   5
ATOM      5  C   UNL     1     -15.837 -20.414  79.764  1.00  0.00     0.000 C 
BRANCH   5   6
ATOM      6  C   UNL     1     -16.767 -19.358  79.145  1.00  0.00     0.000 C 
BRANCH   6   7
ATOM      7  C   UNL     1     -18.177 -19.386  79.751  1.00  0.00     0.000 C 
BRANCH   7   8
ATOM      8  C   UNL     1     -18.162 -19.362  81.290  1.00  0.00     0.000 C 
BRANCH   8   9
ATOM      9  C   UNL     1     -19.325 -20.157  81.905  1.00  0.00     0.000 C 
BRANCH   9  10
ATOM     10  C   UNL     1     -20.505 -20.320  80.936  1.00  0.00     0.000 C 
BRANCH  10  11
ATOM     11  C   UNL     1     -21.458 -21.427  81.406  1.00  0.00     0.000 C 
BRANCH  11  12
ATOM     12  C   UNL     1     -21.010 -22.094  82.720  1.00  0.00     0.006 C 
BRANCH  12  13
ATOM     13  C   UNL     1     -21.334 -23.597  82.800  1.00  0.00     0.053 C 
BRANCH  13  14
ATOM     14  C   UNL     1     -20.564 -24.297  83.879  1.00  0.00     0.041 C 
ATOM     15  O   UNL     1     -19.926 -25.352  83.623  1.00  0.00    -0.550 OA
ATOM     16  O   UNL     1     -20.536 -23.777  85.166  1.00  0.00    -0.550 OA
ENDBRANCH  13  14
ENDBRANCH  12  13
ENDBRANCH  11  12
ENDBRANCH  10  11
ENDBRANCH   9  10
ENDBRANCH   8   9
ENDBRANCH   7   8
ENDBRANCH   6   7
ENDBRANCH   5   6
ENDBRANCH   4   5
ENDBRANCH   3   4
ENDBRANCH   2   3
ENDBRANCH   1   2
BRANCH   1  17
ATOM     17  C   UNL     1     -18.044 -23.333  77.429  1.00  0.00     0.000 C 
BRANCH  17  18
ATOM     18  C   UNL     1     -18.901 -22.728  78.550  1.00  0.00     0.000 C 
BRANCH  18  19
ATOM     19  C   UNL     1     -19.440 -23.785  79.530  1.00  0.00     0.000 C 
BRANCH  19  20
ATOM     20  C   UNL     1     -18.417 -24.316  80.556  1.00  0.00     0.000 C 
BRANCH  20  21
ATOM     21  C   UNL     1     -17.450 -23.265  81.131  1.00  0.00     0.000 C 
BRANCH  21  22
ATOM     22  C   UNL     1     -16.974 -23.601  82.555  1.00  0.00    -0.000 C 
BRANCH  22  23
ATOM     23  C   UNL     1     -17.468 -22.587  83.598  1.00  0.00    -0.000 C 
BRANCH  23  24
ATOM     24  C   UNL     1     -16.961 -22.890  85.016  1.00  0.00    -0.000 C 
BRANCH  24  25
ATOM     25  C   UNL     1     -15.548 -23.486  84.977  1.00  0.00    -0.000 C 
BRANCH  25  26
ATOM     26  C   UNL     1     -14.495 -22.435  85.359  1.00  0.00    -0.000 C 
BRANCH  26  27
ATOM     27  C   UNL     1     -13.376 -22.299  84.311  1.00  0.00    -0.000 C 
BRANCH  27  28
ATOM     28  C   UNL     1     -13.810 -21.676  82.970  1.00  0.00    -0.000 C 
BRANCH  28  29
ATOM     29  C   UNL     1     -13.293 -22.455  81.753  1.00  0.00    -0.003 C 
ATOM     30  C   UNL     1     -13.300 -23.957  82.022  1.00  0.00     0.004 C 
ENDBRANCH  28  29
ENDBRANCH  27  28
ENDBRANCH  26  27
ENDBRANCH  25  26
ENDBRANCH  24  25
ENDBRANCH  23  24
ENDBRANCH  22  23
ENDBRANCH  21  22
ENDBRANCH  20  21
ENDBRANCH  19  20
ENDBRANCH  18  19
ENDBRANCH  17  18
ENDBRANCH   1  17
TORSDOF 26
ENDMDL
MODEL 4
REMARK VINA RESULT:    -0.382      8.424     10.525
REMARK INTER + INTRA:          -7.570
REMARK INTER:                  -1.280
REMARK INTRA:                  -6.290
REMARK UNBOUND:                -6.606
REMARK SMILES CCCCCCCCCCCCCCCCCCCCCCCCCCCC(=O)[O-]
REMARK SMILES IDX 15 1 16 2 17 3 18 4 19 5 20 6 21 7 22 8 23 9 24 10 25 11
REMARK SMILES IDX 26 12 27 13 28 14 29 15 30 16 14 17 13 18 12 19 11 20 10 21
REMARK SMILES IDX 9 22 8 23 7 24 6 25 5 26 4 27 3 28 2 29 1 30
REMARK H PARENT
REMARK Flexibility Score: inf
ROOT
ATOM      1  C   UNL     1     -14.583 -22.404  81.741  1.00  0.00     0.000 C 
ENDROOT
BRANCH   1   2
ATOM      2  C   UNL     1     -13.279 -22.206  82.530  1.00  0.00     0.000 C 
BRANCH   2   3
ATOM      3  C   UNL     1     -13.530 -21.761  83.981  1.00  0.00     0.000 C 
BRANCH   3   4
ATOM      4  C   UNL     1     -13.042 -22.808  85.005  1.00  0.00     0.000 C 
BRANCH   4   5
ATOM      5  C   UNL     1     -13.638 -24.210  84.788  1.00  0.00     0.000 C 
BRANCH   5   6
ATOM      6  C   UNL     1     -14.888 -24.468  85.644  1.00  0.00     0.000 C 
BRANCH   6   7
ATOM      7  C   UNL     1     -16.189 -24.356  84.837  1.00  0.00     0.000 C 
BRANCH   7   8
ATOM      8  C   UNL     1     -16.831 -22.960  84.938  1.00  0.00     0.000 C 
BRANCH   8   9
ATOM      9  C   UNL     1     -17.630 -22.585  83.680  1.00  0.00     0.000 C 
BRANCH   9  10
ATOM     10  C   UNL     1     -17.862 -23.784  82.749  1.00  0.00     0.000 C 
BRANCH  10  11
ATOM     11  C   UNL     1     -18.325 -23.324  81.359  1.00  0.00     0.000 C 
BRANCH  11  12
ATOM     12  C   UNL     1     -18.035 -24.355  80.253  1.00  0.00     0.006 C 
BRANCH  12  13
ATOM     13  C   UNL     1     -19.235 -24.634  79.329  1.00  0.00     0.053 C 
BRANCH  13  14
ATOM     14  C   UNL     1     -18.985 -25.772  78.386  1.00  0.00     0.041 C 
ATOM     15  O   UNL     1     -18.014 -26.552  78.572  1.00  0.00    -0.550 OA
ATOM     16  O   UNL     1     -19.833 -25.983  77.307  1.00  0.00    -0.550 OA
ENDBRANCH  13  14
ENDBRANCH  12  13
ENDBRANCH  11  12
ENDBRANCH  10  11
ENDBRANCH   9  10
ENDBRANCH   8   9
ENDBRANCH   7   8
ENDBRANCH   6   7
ENDBRANCH   5   6
ENDBRANCH   4   5
ENDBRANCH   3   4
ENDBRANCH   2   3
ENDBRANCH   1   2
BRANCH   1  17
ATOM     17  C   UNL     1     -14.379 -23.227  80.460  1.00  0.00     0.000 C 
BRANCH  17  18
ATOM     18  C   UNL     1     -13.802 -24.612  80.788  1.00  0.00     0.000 C 
BRANCH  18  19
ATOM     19  C   UNL     1     -14.761 -25.479  81.623  1.00  0.00     0.000 C 
BRANCH  19  20
ATOM     20  C   UNL     1     -15.041 -26.887  81.056  1.00  0.00     0.000 C 
BRANCH  20  21
ATOM     21  C   UNL     1     -16.386 -27.511  81.469  1.00  0.00     0.000 C 
BRANCH  21  22
ATOM     22  C   UNL     1     -16.610 -27.506  82.991  1.00  0.00    -0.000 C 
BRANCH  22  23
ATOM     23  C   UNL     1     -18.098 -27.466  83.370  1.00  0.00    -0.000 C 
BRANCH  23  24
ATOM     24  C   UNL     1     -19.022 -27.267  82.159  1.00  0.00    -0.000 C 
BRANCH  24  25
ATOM     25  C   UNL     1     -20.488 -27.169  82.599  1.00  0.00    -0.000 C 
BRANCH  25  26
ATOM     26  C   UNL     1     -21.035 -25.750  82.384  1.00  0.00    -0.000 C 
BRANCH  26  27
ATOM     27  C   UNL     1     -21.489 -25.076  83.691  1.00  0.00    -0.000 C 
BRANCH  27  28
ATOM     28  C   UNL     1     -20.936 -25.715  84.979  1.00  0.00    -0.000 C 
BRANCH  28  29
ATOM     29  C   UNL     1     -19.978 -24.789  85.742  1.00  0.00    -0.003 C 
ATOM     30  C   UNL     1     -20.519 -23.363  85.792  1.00  0.00     0.004 C 
ENDBRANCH  28  29
ENDBRANCH  27  28
ENDBRANCH  26  27
ENDBRANCH  25  26
ENDBRANCH  24  25
ENDBRANCH  23  24
ENDBRANCH  22  23
ENDBRANCH  21  22
ENDBRANCH  20  21
ENDBRANCH  19  20
ENDBRANCH  18  19
ENDBRANCH  17  18
ENDBRANCH   1  17
TORSDOF 26
ENDMDL
MODEL 5
REMARK VINA RESULT:    -0.380      3.034      5.637
REMARK INTER + INTRA:          -7.562
REMARK INTER:                  -1.494
REMARK INTRA:                  -6.068
REMARK UNBOUND:                -6.606
REMARK SMILES CCCCCCCCCCCCCCCCCCCCCCCCCCCC(=O)[O-]
REMARK SMILES IDX 15 1 16 2 17 3 18 4 19 5 20 6 21 7 22 8 23 9 24 10 25 11
REMARK SMILES IDX 26 12 27 13 28 14 29 15 30 16 14 17 13 18 12 19 11 20 10 21
REMARK SMILES IDX 9 22 8 23 7 24 6 25 5 26 4 27 3 28 2 29 1 30
REMARK H PARENT
REMARK Flexibility Score: inf
ROOT
ATOM      1  C   UNL     1     -18.829 -14.102  81.821  1.00  0.00     0.000 C 
ENDROOT
BRANCH   1   2
ATOM      2  C   UNL     1     -17.813 -15.219  82.107  1.00  0.00     0.000 C 
BRANCH   2   3
ATOM      3  C   UNL     1     -16.483 -15.012  81.361  1.00  0.00     0.000 C 
BRANCH   3   4
ATOM      4  C   UNL     1     -16.391 -15.872  80.082  1.00  0.00     0.000 C 
BRANCH   4   5
ATOM      5  C   UNL     1     -14.966 -16.357  79.765  1.00  0.00     0.000 C 
BRANCH   5   6
ATOM      6  C   UNL     1     -13.879 -15.425  80.323  1.00  0.00     0.000 C 
BRANCH   6   7
ATOM      7  C   UNL     1     -13.013 -14.801  79.220  1.00  0.00     0.000 C 
BRANCH   7   8
ATOM      8  C   UNL     1     -13.132 -13.267  79.169  1.00  0.00     0.000 C 
BRANCH   8   9
ATOM      9  C   UNL     1     -14.476 -12.799  78.587  1.00  0.00     0.000 C 
BRANCH   9  10
ATOM     10  C   UNL     1     -14.999 -11.523  79.262  1.00  0.00     0.000 C 
BRANCH  10  11
ATOM     11  C   UNL     1     -16.445 -11.705  79.746  1.00  0.00     0.000 C 
BRANCH  11  12
ATOM     12  C   UNL     1     -17.309 -12.526  78.772  1.00  0.00     0.006 C 
BRANCH  12  13
ATOM     13  C   UNL     1     -18.772 -12.052  78.683  1.00  0.00     0.053 C 
BRANCH  13  14
ATOM     14  C   UNL     1     -19.407 -12.382  77.366  1.00  0.00     0.041 C 
ATOM     15  O   UNL     1     -20.484 -11.826  77.022  1.00  0.00    -0.550 OA
ATOM     16  O   UNL     1     -18.804 -13.291  76.508  1.00  0.00    -0.550 OA
ENDBRANCH  13  14
ENDBRANCH  12  13
ENDBRANCH  11  12
ENDBRANCH  10  11
ENDBRANCH   9  10
ENDBRANCH   8   9
ENDBRANCH   7   8
ENDBRANCH   6   7
ENDBRANCH   5   6
ENDBRANCH   4   5
ENDBRANCH   3   4
ENDBRANCH   2   3
ENDBRANCH   1   2
BRANCH   1  17
ATOM     17  C   UNL     1     -19.033 -13.167  83.023  1.00  0.00     0.000 C 
BRANCH  17  18
ATOM     18  C   UNL     1     -17.895 -12.141  83.115  1.00  0.00     0.000 C 
BRANCH  18  19
ATOM     19  C   UNL     1     -17.321 -12.005  84.536  1.00  0.00     0.000 C 
BRANCH  19  20
ATOM     20  C   UNL     1     -17.395 -13.280  85.402  1.00  0.00     0.000 C 
BRANCH  20  21
ATOM     21  C   UNL     1     -16.210 -14.251  85.251  1.00  0.00     0.000 C 
BRANCH  21  22
ATOM     22  C   UNL     1     -15.003 -13.868  86.125  1.00  0.00    -0.000 C 
BRANCH  22  23
ATOM     23  C   UNL     1     -13.662 -14.263  85.488  1.00  0.00    -0.000 C 
BRANCH  23  24
ATOM     24  C   UNL     1     -13.764 -14.506  83.975  1.00  0.00    -0.000 C 
BRANCH  24  25
ATOM     25  C   UNL     1     -13.109 -13.361  83.192  1.00  0.00    -0.000 C 
BRANCH  25  26
ATOM     26  C   UNL     1     -14.161 -12.350  82.710  1.00  0.00    -0.000 C 
BRANCH  26  27
ATOM     27  C   UNL     1     -13.951 -10.941  83.293  1.00  0.00    -0.000 C 
BRANCH  27  28
ATOM     28  C   UNL     1     -14.446  -9.786  82.402  1.00  0.00    -0.000 C 
BRANCH  28  29
ATOM     29  C   UNL     1     -15.661  -9.056  82.990  1.00  0.00    -0.003 C 
ATOM     30  C   UNL     1     -16.695  -8.755  81.909  1.00  0.00     0.004 C 
ENDBRANCH  28  29
ENDBRANCH  27  28
ENDBRANCH  26  27
ENDBRANCH  25  26
ENDBRANCH  24  25
ENDBRANCH  23  24
ENDBRANCH  22  23
ENDBRANCH  21  22
ENDBRANCH  20  21
ENDBRANCH  19  20
ENDBRANCH  18  19
ENDBRANCH  17  18
ENDBRANCH   1  17
TORSDOF 26
ENDMDL
MODEL 6
REMARK VINA RESULT:    -0.355     12.527     15.897
REMARK INTER + INTRA:          -7.502
REMARK INTER:                  -0.647
REMARK INTRA:                  -6.854
REMARK UNBOUND:                -6.606
REMARK SMILES CCCCCCCCCCCCCCCCCCCCCCCCCCCC(=O)[O-]
REMARK SMILES IDX 15 1 16 2 17 3 18 4 19 5 20 6 21 7 22 8 23 9 24 10 25 11
REMARK SMILES IDX 26 12 27 13 28 14 29 15 30 16 14 17 13 18 12 19 11 20 10 21
REMARK SMILES IDX 9 22 8 23 7 24 6 25 5 26 4 27 3 28 2 29 1 30
REMARK H PARENT
REMARK Flexibility Score: inf
ROOT
ATOM      1  C   UNL     1     -25.608 -19.748  69.679  1.00  0.00     0.000 C 
ENDROOT
BRANCH   1   2
ATOM      2  C   UNL     1     -25.671 -18.231  69.916  1.00  0.00     0.000 C 
BRANCH   2   3
ATOM      3  C   UNL     1     -24.850 -17.438  68.884  1.00  0.00     0.000 C 
BRANCH   3   4
ATOM      4  C   UNL     1     -25.193 -15.933  68.898  1.00  0.00     0.000 C 
BRANCH   4   5
ATOM      5  C   UNL     1     -25.829 -15.431  67.590  1.00  0.00     0.000 C 
BRANCH   5   6
ATOM      6  C   UNL     1     -26.134 -16.566  66.599  1.00  0.00     0.000 C 
BRANCH   6   7
ATOM      7  C   UNL     1     -27.629 -16.671  66.264  1.00  0.00     0.000 C 
BRANCH   7   8
ATOM      8  C   UNL     1     -28.474 -15.606  66.988  1.00  0.00     0.000 C 
BRANCH   8   9
ATOM      9  C   UNL     1     -29.553 -16.224  67.892  1.00  0.00     0.000 C 
BRANCH   9  10
ATOM     10  C   UNL     1     -28.990 -16.711  69.234  1.00  0.00     0.000 C 
BRANCH  10  11
ATOM     11  C   UNL     1     -29.095 -15.619  70.308  1.00  0.00     0.000 C 
BRANCH  11  12
ATOM     12  C   UNL     1     -27.912 -15.622  71.292  1.00  0.00     0.006 C 
BRANCH  12  13
ATOM     13  C   UNL     1     -28.318 -15.871  72.757  1.00  0.00     0.053 C 
BRANCH  13  14
ATOM     14  C   UNL     1     -27.336 -16.734  73.490  1.00  0.00     0.041 C 
ATOM     15  O   UNL     1     -26.134 -16.786  73.119  1.00  0.00    -0.550 OA
ATOM     16  O   UNL     1     -27.743 -17.470  74.595  1.00  0.00    -0.550 OA
ENDBRANCH  13  14
ENDBRANCH  12  13
ENDBRANCH  11  12
ENDBRANCH  10  11
ENDBRANCH   9  10
ENDBRANCH   8   9
ENDBRANCH   7   8
ENDBRANCH   6   7
ENDBRANCH   5   6
ENDBRANCH   4   5
ENDBRANCH   3   4
ENDBRANCH   2   3
ENDBRANCH   1   2
BRANCH   1  17
ATOM     17  C   UNL     1     -26.174 -20.157  68.311  1.00  0.00     0.000 C 
BRANCH  17  18
ATOM     18  C   UNL     1     -27.679 -19.865  68.235  1.00  0.00     0.000 C 
BRANCH  18  19
ATOM     19  C   UNL     1     -28.299 -20.255  66.881  1.00  0.00     0.000 C 
BRANCH  19  20
ATOM     20  C   UNL     1     -29.839 -20.190  66.818  1.00  0.00     0.000 C 
BRANCH  20  21
ATOM     21  C   UNL     1     -30.546 -19.919  68.158  1.00  0.00     0.000 C 
BRANCH  21  22
ATOM     22  C   UNL     1     -31.797 -19.036  68.010  1.00  0.00    -0.000 C 
BRANCH  22  23
ATOM     23  C   UNL     1     -32.387 -18.614  69.365  1.00  0.00    -0.000 C 
BRANCH  23  24
ATOM     24  C   UNL     1     -31.770 -19.370  70.551  1.00  0.00    -0.000 C 
BRANCH  24  25
ATOM     25  C   UNL     1     -31.298 -18.394  71.636  1.00  0.00    -0.000 C 
BRANCH  25  26
ATOM     26  C   UNL     1     -30.173 -19.009  72.482  1.00  0.00    -0.000 C 
BRANCH  26  27
ATOM     27  C   UNL     1     -28.996 -19.521  71.633  1.00  0.00    -0.000 C 
BRANCH  27  28
ATOM     28  C   UNL     1     -28.210 -20.694  72.248  1.00  0.00    -0.000 C 
BRANCH  28  29
ATOM     29  C   UNL     1     -28.100 -21.900  71.306  1.00  0.00    -0.003 C 
ATOM     30  C   UNL     1     -29.472 -22.309  70.777  1.00  0.00     0.004 C 
ENDBRANCH  28  29
ENDBRANCH  27  28
ENDBRANCH  26  27
ENDBRANCH  25  26
ENDBRANCH  24  25
ENDBRANCH  23  24
ENDBRANCH  22  23
ENDBRANCH  21  22
ENDBRANCH  20  21
ENDBRANCH  19  20
ENDBRANCH  18  19
ENDBRANCH  17  18
ENDBRANCH   1  17
TORSDOF 26
ENDMDL
MODEL 7
REMARK VINA RESULT:    -0.355     13.058     16.353
REMARK INTER + INTRA:          -7.501
REMARK INTER:                  -0.928
REMARK INTRA:                  -6.572
REMARK UNBOUND:                -6.606
REMARK SMILES CCCCCCCCCCCCCCCCCCCCCCCCCCCC(=O)[O-]
REMARK SMILES IDX 15 1 16 2 17 3 18 4 19 5 20 6 21 7 22 8 23 9 24 10 25 11
REMARK SMILES IDX 26 12 27 13 28 14 29 15 30 16 14 17 13 18 12 19 11 20 10 21
REMARK SMILES IDX 9 22 8 23 7 24 6 25 5 26 4 27 3 28 2 29 1 30
REMARK H PARENT
REMARK Flexibility Score: inf
ROOT
ATOM      1  C   UNL     1     -28.539 -18.383  71.681  1.00  0.00     0.000 C 
ENDROOT
BRANCH   1   2
ATOM      2  C   UNL     1     -27.599 -19.439  71.078  1.00  0.00     0.000 C 
BRANCH   2   3
ATOM      3  C   UNL     1     -26.556 -18.827  70.128  1.00  0.00     0.000 C 
BRANCH   3   4
ATOM      4  C   UNL     1     -25.320 -19.735  69.955  1.00  0.00     0.000 C 
BRANCH   4   5
ATOM      5  C   UNL     1     -25.053 -20.146  68.497  1.00  0.00     0.000 C 
BRANCH   5   6
ATOM      6  C   UNL     1     -23.719 -19.604  67.958  1.00  0.00     0.000 C 
BRANCH   6   7
ATOM      7  C   UNL     1     -23.829 -19.099  66.512  1.00  0.00     0.000 C 
BRANCH   7   8
ATOM      8  C   UNL     1     -25.286 -18.853  66.079  1.00  0.00     0.000 C 
BRANCH   8   9
ATOM      9  C   UNL     1     -25.597 -17.361  65.875  1.00  0.00     0.000 C 
BRANCH   9  10
ATOM     10  C   UNL     1     -25.964 -16.651  67.186  1.00  0.00     0.000 C 
BRANCH  10  11
ATOM     11  C   UNL     1     -24.824 -15.736  67.657  1.00  0.00     0.000 C 
BRANCH  11  12
ATOM     12  C   UNL     1     -24.344 -16.053  69.085  1.00  0.00     0.006 C 
BRANCH  12  13
ATOM     13  C   UNL     1     -24.744 -14.992  70.128  1.00  0.00     0.053 C 
BRANCH  13  14
ATOM     14  C   UNL     1     -25.986 -15.362  70.881  1.00  0.00     0.041 C 
ATOM     15  O   UNL     1     -27.120 -15.188  70.362  1.00  0.00    -0.550 OA
ATOM     16  O   UNL     1     -25.893 -15.914  72.152  1.00  0.00    -0.550 OA
ENDBRANCH  13  14
ENDBRANCH  12  13
ENDBRANCH  11  12
ENDBRANCH  10  11
ENDBRANCH   9  10
ENDBRANCH   8   9
ENDBRANCH   7   8
ENDBRANCH   6   7
ENDBRANCH   5   6
ENDBRANCH   4   5
ENDBRANCH   3   4
ENDBRANCH   2   3
ENDBRANCH   1   2
BRANCH   1  17
ATOM     17  C   UNL     1     -30.022 -18.740  71.501  1.00  0.00     0.000 C 
BRANCH  17  18
ATOM     18  C   UNL     1     -30.175 -20.078  70.763  1.00  0.00     0.000 C 
BRANCH  18  19
ATOM     19  C   UNL     1     -31.591 -20.297  70.202  1.00  0.00     0.000 C 
BRANCH  19  20
ATOM     20  C   UNL     1     -31.665 -21.128  68.904  1.00  0.00     0.000 C 
BRANCH  20  21
ATOM     21  C   UNL     1     -32.316 -20.420  67.702  1.00  0.00     0.000 C 
BRANCH  21  22
ATOM     22  C   UNL     1     -32.712 -18.964  68.004  1.00  0.00    -0.000 C 
BRANCH  22  23
ATOM     23  C   UNL     1     -31.805 -17.946  67.295  1.00  0.00    -0.000 C 
BRANCH  23  24
ATOM     24  C   UNL     1     -30.961 -17.112  68.270  1.00  0.00    -0.000 C 
BRANCH  24  25
ATOM     25  C   UNL     1     -29.466 -17.409  68.091  1.00  0.00    -0.000 C 
BRANCH  25  26
ATOM     26  C   UNL     1     -29.235 -18.410  66.950  1.00  0.00    -0.000 C 
BRANCH  26  27
ATOM     27  C   UNL     1     -28.575 -19.718  67.423  1.00  0.00    -0.000 C 
BRANCH  27  28
ATOM     28  C   UNL     1     -28.751 -20.918  66.473  1.00  0.00    -0.000 C 
BRANCH  28  29
ATOM     29  C   UNL     1     -28.133 -22.211  67.021  1.00  0.00    -0.003 C 
ATOM     30  C   UNL     1     -28.108 -22.202  68.547  1.00  0.00     0.004 C 
ENDBRANCH  28  29
ENDBRANCH  27  28
ENDBRANCH  26  27
ENDBRANCH  25  26
ENDBRANCH  24  25
ENDBRANCH  23  24
ENDBRANCH  22  23
ENDBRANCH  21  22
ENDBRANCH  20  21
ENDBRANCH  19  20
ENDBRANCH  18  19
ENDBRANCH  17  18
ENDBRANCH   1  17
TORSDOF 26
ENDMDL
MODEL 8
REMARK VINA RESULT:    -0.350      7.225      9.918
REMARK INTER + INTRA:          -7.489
REMARK INTER:                  -1.401
REMARK INTRA:                  -6.088
REMARK UNBOUND:                -6.606
REMARK SMILES CCCCCCCCCCCCCCCCCCCCCCCCCCCC(=O)[O-]
REMARK SMILES IDX 15 1 16 2 17 3 18 4 19 5 20 6 21 7 22 8 23 9 24 10 25 11
REMARK SMILES IDX 26 12 27 13 28 14 29 15 30 16 14 17 13 18 12 19 11 20 10 21
REMARK SMILES IDX 9 22 8 23 7 24 6 25 5 26 4 27 3 28 2 29 1 30
REMARK H PARENT
REMARK Flexibility Score: inf
ROOT
ATOM      1  C   UNL     1     -14.133 -22.821  81.507  1.00  0.00     0.000 C 
ENDROOT
BRANCH   1   2
ATOM      2  C   UNL     1     -13.108 -22.620  82.634  1.00  0.00     0.000 C 
BRANCH   2   3
ATOM      3  C   UNL     1     -13.570 -23.233  83.968  1.00  0.00     0.000 C 
BRANCH   3   4
ATOM      4  C   UNL     1     -14.010 -22.156  84.983  1.00  0.00     0.000 C 
BRANCH   4   5
ATOM      5  C   UNL     1     -15.107 -22.632  85.952  1.00  0.00     0.000 C 
BRANCH   5   6
ATOM      6  C   UNL     1     -16.457 -22.870  85.256  1.00  0.00     0.000 C 
BRANCH   6   7
ATOM      7  C   UNL     1     -16.873 -24.348  85.265  1.00  0.00     0.000 C 
BRANCH   7   8
ATOM      8  C   UNL     1     -17.893 -24.683  84.161  1.00  0.00     0.000 C 
BRANCH   8   9
ATOM      9  C   UNL     1     -17.410 -25.807  83.231  1.00  0.00     0.000 C 
BRANCH   9  10
ATOM     10  C   UNL     1     -15.889 -25.789  83.026  1.00  0.00     0.000 C 
BRANCH  10  11
ATOM     11  C   UNL     1     -15.504 -26.434  81.686  1.00  0.00     0.000 C 
BRANCH  11  12
ATOM     12  C   UNL     1     -16.404 -25.987  80.520  1.00  0.00     0.006 C 
BRANCH  12  13
ATOM     13  C   UNL     1     -15.629 -25.440  79.306  1.00  0.00     0.053 C 
BRANCH  13  14
ATOM     14  C   UNL     1     -16.444 -24.491  78.481  1.00  0.00     0.041 C 
ATOM     15  O   UNL     1     -15.917 -23.455  77.997  1.00  0.00    -0.550 OA
ATOM     16  O   UNL     1     -17.784 -24.756  78.231  1.00  0.00    -0.550 OA
ENDBRANCH  13  14
ENDBRANCH  12  13
ENDBRANCH  11  12
ENDBRANCH  10  11
ENDBRANCH   9  10
ENDBRANCH   8   9
ENDBRANCH   7   8
ENDBRANCH   6   7
ENDBRANCH   5   6
ENDBRANCH   4   5
ENDBRANCH   3   4
ENDBRANCH   2   3
ENDBRANCH   1   2
BRANCH   1  17
ATOM     17  C   UNL     1     -15.274 -21.794  81.553  1.00  0.00     0.000 C 
BRANCH  17  18
ATOM     18  C   UNL     1     -16.640 -22.493  81.499  1.00  0.00     0.000 C 
BRANCH  18  19
ATOM     19  C   UNL     1     -17.782 -21.624  82.054  1.00  0.00     0.000 C 
BRANCH  19  20
ATOM     20  C   UNL     1     -19.182 -21.929  81.481  1.00  0.00     0.000 C 
BRANCH  20  21
ATOM     21  C   UNL     1     -19.425 -23.394  81.075  1.00  0.00     0.000 C 
BRANCH  21  22
ATOM     22  C   UNL     1     -20.726 -23.589  80.278  1.00  0.00    -0.000 C 
BRANCH  22  23
ATOM     23  C   UNL     1     -21.068 -25.070  80.056  1.00  0.00    -0.000 C 
BRANCH  23  24
ATOM     24  C   UNL     1     -20.042 -26.025  80.685  1.00  0.00    -0.000 C 
BRANCH  24  25
ATOM     25  C   UNL     1     -20.716 -27.322  81.150  1.00  0.00    -0.000 C 
BRANCH  25  26
ATOM     26  C   UNL     1     -20.707 -27.431  82.682  1.00  0.00    -0.000 C 
BRANCH  26  27
ATOM     27  C   UNL     1     -21.877 -26.681  83.344  1.00  0.00    -0.000 C 
BRANCH  27  28
ATOM     28  C   UNL     1     -21.468 -25.505  84.252  1.00  0.00    -0.000 C 
BRANCH  28  29
ATOM     29  C   UNL     1     -21.988 -24.152  83.749  1.00  0.00    -0.003 C 
ATOM     30  C   UNL     1     -21.235 -22.998  84.405  1.00  0.00     0.004 C 
ENDBRANCH  28  29
ENDBRANCH  27  28
ENDBRANCH  26  27
ENDBRANCH  25  26
ENDBRANCH  24  25
ENDBRANCH  23  24
ENDBRANCH  22  23
ENDBRANCH  21  22
ENDBRANCH  20  21
ENDBRANCH  19  20
ENDBRANCH  18  19
ENDBRANCH  17  18
ENDBRANCH   1  17
TORSDOF 26
ENDMDL
