MODEL 1
REMARK VINA RESULT:    -4.574      0.000      0.000
REMARK INTER + INTRA:          -9.449
REMARK INTER:                  -7.783
REMARK INTRA:                  -1.666
REMARK UNBOUND:                -1.666
REMARK SMILES CCCCCCCCCCCCCC(=O)[O-]
REMARK SMILES IDX 8 1 9 2 10 3 11 4 12 5 13 6 14 7 15 8 16 9 7 10 6 11 5 12
REMARK SMILES IDX 4 13 3 14 2 15 1 16
REMARK H PARENT
REMARK Flexibility Score: inf
ROOT
ATOM      1  C   UNL     1      41.034  20.814   8.474  1.00  0.00     0.000 C 
ENDROOT
BRANCH   1   2
ATOM      2  C   UNL     1      42.449  21.127   9.004  1.00  0.00     0.000 C 
BRANCH   2   3
ATOM      3  C   UNL     1      42.582  22.536   9.606  1.00  0.00     0.000 C 
BRANCH   3   4
ATOM      4  C   UNL     1      42.567  22.532  11.143  1.00  0.00     0.000 C 
BRANCH   4   5
ATOM      5  C   UNL     1      42.935  21.161  11.734  1.00  0.00     0.006 C 
BRANCH   5   6
ATOM      6  C   UNL     1      43.397  21.254  13.194  1.00  0.00     0.053 C 
BRANCH   6   7
ATOM      7  C   UNL     1      42.236  21.548  14.092  1.00  0.00     0.041 C 
ATOM      8  O   UNL     1      41.406  20.644  14.369  1.00  0.00    -0.550 OA
ATOM      9  O   UNL     1      42.100  22.807  14.663  1.00  0.00    -0.550 OA
ENDBRANCH   6   7
ENDBRANCH   5   6
ENDBRANCH   4   5
ENDBRANCH   3   4
ENDBRANCH   2   3
ENDBRANCH   1   2
BRANCH   1  10
ATOM     10  C   UNL     1      40.419  19.577   9.151  1.00  0.00     0.000 C 
BRANCH  10  11
ATOM     11  C   UNL     1      39.472  19.939  10.308  1.00  0.00    -0.000 C 
BRANCH  11  12
ATOM     12  C   UNL     1      39.545  18.998  11.529  1.00  0.00    -0.000 C 
BRANCH  12  13
ATOM     13  C   UNL     1      40.488  17.793  11.369  1.00  0.00    -0.000 C 
BRANCH  13  14
ATOM     14  C   UNL     1      41.686  17.841  12.329  1.00  0.00    -0.000 C 
BRANCH  14  15
ATOM     15  C   UNL     1      42.982  17.449  11.610  1.00  0.00    -0.003 C 
ATOM     16  C   UNL     1      44.078  17.082  12.606  1.00  0.00     0.004 C 
ENDBRANCH  14  15
ENDBRANCH  13  14
ENDBRANCH  12  13
ENDBRANCH  11  12
ENDBRANCH  10  11
ENDBRANCH   1  10
TORSDOF 12
ENDMDL
MODEL 2
REMARK VINA RESULT:    -4.481      2.644      4.151
REMARK INTER + INTRA:          -9.291
REMARK INTER:                  -7.855
REMARK INTRA:                  -1.436
REMARK UNBOUND:                -1.666
REMARK SMILES CCCCCCCCCCCCCC(=O)[O-]
REMARK SMILES IDX 8 1 9 2 10 3 11 4 12 5 13 6 14 7 15 8 16 9 7 10 6 11 5 12
REMARK SMILES IDX 4 13 3 14 2 15 1 16
REMARK H PARENT
REMARK Flexibility Score: inf
ROOT
ATOM      1  C   UNL     1      42.935  21.072  13.168  1.00  0.00     0.000 C 
ENDROOT
BRANCH   1   2
ATOM      2  C   UNL     1      43.111  22.585  12.916  1.00  0.00     0.000 C 
BRANCH   2   3
ATOM      3  C   UNL     1      42.847  22.999  11.458  1.00  0.00     0.000 C 
BRANCH   3   4
ATOM      4  C   UNL     1      42.906  21.814  10.481  1.00  0.00     0.000 C 
BRANCH   4   5
ATOM      5  C   UNL     1      42.081  22.056   9.207  1.00  0.00     0.006 C 
BRANCH   5   6
ATOM      6  C   UNL     1      41.104  20.912   8.911  1.00  0.00     0.053 C 
BRANCH   6   7
ATOM      7  C   UNL     1      41.792  19.819   8.155  1.00  0.00     0.041 C 
ATOM      8  O   UNL     1      41.658  18.620   8.514  1.00  0.00    -0.550 OA
ATOM      9  O   UNL     1      42.541  20.120   7.025  1.00  0.00    -0.550 OA
ENDBRANCH   6   7
ENDBRANCH   5   6
ENDBRANCH   4   5
ENDBRANCH   3   4
ENDBRANCH   2   3
ENDBRANCH   1   2
BRANCH   1  10
ATOM     10  C   UNL     1      41.819  20.778  14.185  1.00  0.00     0.000 C 
BRANCH  10  11
ATOM     11  C   UNL     1      40.832  19.704  13.695  1.00  0.00    -0.000 C 
BRANCH  11  12
ATOM     12  C   UNL     1      41.066  19.213  12.252  1.00  0.00    -0.000 C 
BRANCH  12  13
ATOM     13  C   UNL     1      41.521  17.749  12.126  1.00  0.00    -0.000 C 
BRANCH  13  14
ATOM     14  C   UNL     1      42.965  17.612  11.624  1.00  0.00    -0.000 C 
BRANCH  14  15
ATOM     15  C   UNL     1      43.879  17.058  12.722  1.00  0.00    -0.003 C 
ATOM     16  C   UNL     1      44.563  15.769  12.275  1.00  0.00     0.004 C 
ENDBRANCH  14  15
ENDBRANCH  13  14
ENDBRANCH  12  13
ENDBRANCH  11  12
ENDBRANCH  10  11
ENDBRANCH   1  10
TORSDOF 12
ENDMDL
MODEL 3
REMARK VINA RESULT:    -4.474      2.229      4.590
REMARK INTER + INTRA:          -9.280
REMARK INTER:                  -7.585
REMARK INTRA:                  -1.695
REMARK UNBOUND:                -1.666
REMARK SMILES CCCCCCCCCCCCCC(=O)[O-]
REMARK SMILES IDX 8 1 9 2 10 3 11 4 12 5 13 6 14 7 15 8 16 9 7 10 6 11 5 12
REMARK SMILES IDX 4 13 3 14 2 15 1 16
REMARK H PARENT
REMARK Flexibility Score: inf
ROOT
ATOM      1  C   UNL     1      42.846  22.640  12.092  1.00  0.00     0.000 C 
ENDROOT
BRANCH   1   2
ATOM      2  C   UNL     1      43.204  21.408  12.950  1.00  0.00     0.000 C 
BRANCH   2   3
ATOM      3  C   UNL     1      42.023  20.869  13.775  1.00  0.00     0.000 C 
BRANCH   3   4
ATOM      4  C   UNL     1      41.511  19.512  13.267  1.00  0.00     0.000 C 
BRANCH   4   5
ATOM      5  C   UNL     1      42.422  18.902  12.190  1.00  0.00     0.006 C 
BRANCH   5   6
ATOM      6  C   UNL     1      42.452  17.369  12.242  1.00  0.00     0.053 C 
BRANCH   6   7
ATOM      7  C   UNL     1      43.860  16.871  12.162  1.00  0.00     0.041 C 
ATOM      8  O   UNL     1      44.820  17.685  12.134  1.00  0.00    -0.550 OA
ATOM      9  O   UNL     1      44.116  15.505  12.169  1.00  0.00    -0.550 OA
ENDBRANCH   6   7
ENDBRANCH   5   6
ENDBRANCH   4   5
ENDBRANCH   3   4
ENDBRANCH   2   3
ENDBRANCH   1   2
BRANCH   1  10
ATOM     10  C   UNL     1      43.001  22.365  10.586  1.00  0.00     0.000 C 
BRANCH  10  11
ATOM     11  C   UNL     1      41.705  21.850   9.937  1.00  0.00    -0.000 C 
BRANCH  11  12
ATOM     12  C   UNL     1      41.891  20.684   8.944  1.00  0.00    -0.000 C 
BRANCH  12  13
ATOM     13  C   UNL     1      40.789  19.611   8.985  1.00  0.00    -0.000 C 
BRANCH  13  14
ATOM     14  C   UNL     1      39.694  19.917  10.016  1.00  0.00    -0.000 C 
BRANCH  14  15
ATOM     15  C   UNL     1      39.099  18.625  10.587  1.00  0.00    -0.003 C 
ATOM     16  C   UNL     1      37.719  18.871  11.190  1.00  0.00     0.004 C 
ENDBRANCH  14  15
ENDBRANCH  13  14
ENDBRANCH  12  13
ENDBRANCH  11  12
ENDBRANCH  10  11
ENDBRANCH   1  10
TORSDOF 12
ENDMDL
MODEL 4
REMARK VINA RESULT:    -4.433      3.333      5.102
REMARK INTER + INTRA:          -9.208
REMARK INTER:                  -7.575
REMARK INTRA:                  -1.633
REMARK UNBOUND:                -1.666
REMARK SMILES CCCCCCCCCCCCCC(=O)[O-]
REMARK SMILES IDX 8 1 9 2 10 3 11 4 12 5 13 6 14 7 15 8 16 9 7 10 6 11 5 12
REMARK SMILES IDX 4 13 3 14 2 15 1 16
REMARK H PARENT
REMARK Flexibility Score: inf
ROOT
ATOM      1  C   UNL     1      43.063  20.624  13.283  1.00  0.00     0.000 C 
ENDROOT
BRANCH   1   2
ATOM      2  C   UNL     1      42.747  21.826  12.368  1.00  0.00     0.000 C 
BRANCH   2   3
ATOM      3  C   UNL     1      43.048  21.563  10.882  1.00  0.00     0.000 C 
BRANCH   3   4
ATOM      4  C   UNL     1      41.808  21.717   9.987  1.00  0.00     0.000 C 
BRANCH   4   5
ATOM      5  C   UNL     1      42.039  21.191   8.561  1.00  0.00     0.006 C 
BRANCH   5   6
ATOM      6  C   UNL     1      43.405  21.602   7.996  1.00  0.00     0.053 C 
BRANCH   6   7
ATOM      7  C   UNL     1      43.555  21.116   6.589  1.00  0.00     0.041 C 
ATOM      8  O   UNL     1      43.096  19.993   6.254  1.00  0.00    -0.550 OA
ATOM      9  O   UNL     1      44.158  21.926   5.634  1.00  0.00    -0.550 OA
ENDBRANCH   6   7
ENDBRANCH   5   6
ENDBRANCH   4   5
ENDBRANCH   3   4
ENDBRANCH   2   3
ENDBRANCH   1   2
BRANCH   1  10
ATOM     10  C   UNL     1      43.881  19.540  12.559  1.00  0.00     0.000 C 
BRANCH  10  11
ATOM     11  C   UNL     1      43.204  18.159  12.595  1.00  0.00    -0.000 C 
BRANCH  11  12
ATOM     12  C   UNL     1      42.912  17.539  11.213  1.00  0.00    -0.000 C 
BRANCH  12  13
ATOM     13  C   UNL     1      41.618  18.028  10.540  1.00  0.00    -0.000 C 
BRANCH  13  14
ATOM     14  C   UNL     1      40.384  17.890  11.444  1.00  0.00    -0.000 C 
BRANCH  14  15
ATOM     15  C   UNL     1      39.553  19.177  11.440  1.00  0.00    -0.003 C 
ATOM     16  C   UNL     1      38.256  18.996  10.657  1.00  0.00     0.004 C 
ENDBRANCH  14  15
ENDBRANCH  13  14
ENDBRANCH  12  13
ENDBRANCH  11  12
ENDBRANCH  10  11
ENDBRANCH   1  10
TORSDOF 12
ENDMDL
MODEL 5
REMARK VINA RESULT:    -4.376      2.348      4.457
REMARK INTER + INTRA:          -9.112
REMARK INTER:                  -7.631
REMARK INTRA:                  -1.481
REMARK UNBOUND:                -1.666
REMARK SMILES CCCCCCCCCCCCCC(=O)[O-]
REMARK SMILES IDX 8 1 9 2 10 3 11 4 12 5 13 6 14 7 15 8 16 9 7 10 6 11 5 12
REMARK SMILES IDX 4 13 3 14 2 15 1 16
REMARK H PARENT
REMARK Flexibility Score: inf
ROOT
ATOM      1  C   UNL     1      44.032  19.361  12.266  1.00  0.00     0.000 C 
ENDROOT
BRANCH   1   2
ATOM      2  C   UNL     1      43.500  20.539  13.110  1.00  0.00     0.000 C 
BRANCH   2   3
ATOM      3  C   UNL     1      42.429  21.376  12.390  1.00  0.00     0.000 C 
BRANCH   3   4
ATOM      4  C   UNL     1      43.024  22.548  11.593  1.00  0.00     0.000 C 
BRANCH   4   5
ATOM      5  C   UNL     1      42.495  22.612  10.151  1.00  0.00     0.006 C 
BRANCH   5   6
ATOM      6  C   UNL     1      42.493  21.240   9.464  1.00  0.00     0.053 C 
BRANCH   6   7
ATOM      7  C   UNL     1      41.147  20.952   8.877  1.00  0.00     0.041 C 
ATOM      8  O   UNL     1      40.993  19.977   8.096  1.00  0.00    -0.550 OA
ATOM      9  O   UNL     1      40.052  21.729   9.233  1.00  0.00    -0.550 OA
ENDBRANCH   6   7
ENDBRANCH   5   6
ENDBRANCH   4   5
ENDBRANCH   3   4
ENDBRANCH   2   3
ENDBRANCH   1   2
BRANCH   1  10
ATOM     10  C   UNL     1      43.735  17.999  12.917  1.00  0.00     0.000 C 
BRANCH  10  11
ATOM     11  C   UNL     1      42.648  17.206  12.172  1.00  0.00    -0.000 C 
BRANCH  11  12
ATOM     12  C   UNL     1      41.828  18.022  11.152  1.00  0.00    -0.000 C 
BRANCH  12  13
ATOM     13  C   UNL     1      40.309  17.784  11.197  1.00  0.00    -0.000 C 
BRANCH  13  14
ATOM     14  C   UNL     1      39.523  19.018  11.664  1.00  0.00    -0.000 C 
BRANCH  14  15
ATOM     15  C   UNL     1      38.249  19.205  10.833  1.00  0.00    -0.003 C 
ATOM     16  C   UNL     1      37.011  18.780  11.617  1.00  0.00     0.004 C 
ENDBRANCH  14  15
ENDBRANCH  13  14
ENDBRANCH  12  13
ENDBRANCH  11  12
ENDBRANCH  10  11
ENDBRANCH   1  10
TORSDOF 12
ENDMDL
MODEL 6
REMARK VINA RESULT:    -4.357      2.312      3.795
REMARK INTER + INTRA:          -9.080
REMARK INTER:                  -7.626
REMARK INTRA:                  -1.454
REMARK UNBOUND:                -1.666
REMARK SMILES CCCCCCCCCCCCCC(=O)[O-]
REMARK SMILES IDX 8 1 9 2 10 3 11 4 12 5 13 6 14 7 15 8 16 9 7 10 6 11 5 12
REMARK SMILES IDX 4 13 3 14 2 15 1 16
REMARK H PARENT
REMARK Flexibility Score: inf
ROOT
ATOM      1  C   UNL     1      42.817  22.014  11.058  1.00  0.00     0.000 C 
ENDROOT
BRANCH   1   2
ATOM      2  C   UNL     1      42.695  21.941   9.521  1.00  0.00     0.000 C 
BRANCH   2   3
ATOM      3  C   UNL     1      41.312  21.476   9.035  1.00  0.00     0.000 C 
BRANCH   3   4
ATOM      4  C   UNL     1      41.328  20.047   8.469  1.00  0.00     0.000 C 
BRANCH   4   5
ATOM      5  C   UNL     1      40.529  19.059   9.334  1.00  0.00     0.006 C 
BRANCH   5   6
ATOM      6  C   UNL     1      39.447  19.752  10.171  1.00  0.00     0.053 C 
BRANCH   6   7
ATOM      7  C   UNL     1      38.652  18.741  10.937  1.00  0.00     0.041 C 
ATOM      8  O   UNL     1      39.182  17.656  11.292  1.00  0.00    -0.550 OA
ATOM      9  O   UNL     1      37.341  19.019  11.303  1.00  0.00    -0.550 OA
ENDBRANCH   6   7
ENDBRANCH   5   6
ENDBRANCH   4   5
ENDBRANCH   3   4
ENDBRANCH   2   3
ENDBRANCH   1   2
BRANCH   1  10
ATOM     10  C   UNL     1      43.105  20.638  11.684  1.00  0.00     0.000 C 
BRANCH  10  11
ATOM     11  C   UNL     1      42.201  20.331  12.891  1.00  0.00    -0.000 C 
BRANCH  11  12
ATOM     12  C   UNL     1      41.755  18.860  13.014  1.00  0.00    -0.000 C 
BRANCH  12  13
ATOM     13  C   UNL     1      42.573  17.858  12.180  1.00  0.00    -0.000 C 
BRANCH  13  14
ATOM     14  C   UNL     1      43.700  17.192  12.982  1.00  0.00    -0.000 C 
BRANCH  14  15
ATOM     15  C   UNL     1      44.714  16.519  12.050  1.00  0.00    -0.003 C 
ATOM     16  C   UNL     1      44.714  15.004  12.233  1.00  0.00     0.004 C 
ENDBRANCH  14  15
ENDBRANCH  13  14
ENDBRANCH  12  13
ENDBRANCH  11  12
ENDBRANCH  10  11
ENDBRANCH   1  10
TORSDOF 12
ENDMDL
MODEL 7
REMARK VINA RESULT:    -4.318      2.300      3.916
REMARK INTER + INTRA:          -9.013
REMARK INTER:                  -7.408
REMARK INTRA:                  -1.605
REMARK UNBOUND:                -1.666
REMARK SMILES CCCCCCCCCCCCCC(=O)[O-]
REMARK SMILES IDX 8 1 9 2 10 3 11 4 12 5 13 6 14 7 15 8 16 9 7 10 6 11 5 12
REMARK SMILES IDX 4 13 3 14 2 15 1 16
REMARK H PARENT
REMARK Flexibility Score: inf
ROOT
ATOM      1  C   UNL     1      42.070  21.859   9.441  1.00  0.00     0.000 C 
ENDROOT
BRANCH   1   2
ATOM      2  C   UNL     1      43.131  21.698  10.551  1.00  0.00     0.000 C 
BRANCH   2   3
ATOM      3  C   UNL     1      42.530  21.481  11.950  1.00  0.00     0.000 C 
BRANCH   3   4
ATOM      4  C   UNL     1      43.471  20.711  12.890  1.00  0.00     0.000 C 
BRANCH   4   5
ATOM      5  C   UNL     1      43.206  19.197  12.881  1.00  0.00     0.006 C 
BRANCH   5   6
ATOM      6  C   UNL     1      44.354  18.402  12.247  1.00  0.00     0.053 C 
BRANCH   6   7
ATOM      7  C   UNL     1      44.070  16.934  12.308  1.00  0.00     0.041 C 
ATOM      8  O   UNL     1      45.005  16.102  12.173  1.00  0.00    -0.550 OA
ATOM      9  O   UNL     1      42.781  16.485  12.565  1.00  0.00    -0.550 OA
ENDBRANCH   6   7
ENDBRANCH   5   6
ENDBRANCH   4   5
ENDBRANCH   3   4
ENDBRANCH   2   3
ENDBRANCH   1   2
BRANCH   1  10
ATOM     10  C   UNL     1      42.518  21.228   8.112  1.00  0.00     0.000 C 
BRANCH  10  11
ATOM     11  C   UNL     1      41.995  19.793   7.926  1.00  0.00    -0.000 C 
BRANCH  11  12
ATOM     12  C   UNL     1      40.856  19.385   8.882  1.00  0.00    -0.000 C 
BRANCH  12  13
ATOM     13  C   UNL     1      41.196  18.238   9.851  1.00  0.00    -0.000 C 
BRANCH  13  14
ATOM     14  C   UNL     1      40.240  18.166  11.050  1.00  0.00    -0.000 C 
BRANCH  14  15
ATOM     15  C   UNL     1      39.263  19.347  11.046  1.00  0.00    -0.003 C 
ATOM     16  C   UNL     1      37.821  18.871  10.894  1.00  0.00     0.004 C 
ENDBRANCH  14  15
ENDBRANCH  13  14
ENDBRANCH  12  13
ENDBRANCH  11  12
ENDBRANCH  10  11
ENDBRANCH   1  10
TORSDOF 12
ENDMDL
MODEL 8
REMARK VINA RESULT:    -4.312      2.079      4.480
REMARK INTER + INTRA:          -9.003
REMARK INTER:                  -7.528
REMARK INTRA:                  -1.475
REMARK UNBOUND:                -1.666
REMARK SMILES CCCCCCCCCCCCCC(=O)[O-]
REMARK SMILES IDX 8 1 9 2 10 3 11 4 12 5 13 6 14 7 15 8 16 9 7 10 6 11 5 12
REMARK SMILES IDX 4 13 3 14 2 15 1 16
REMARK H PARENT
REMARK Flexibility Score: inf
ROOT
ATOM      1  C   UNL     1      39.734  20.311   9.744  1.00  0.00     0.000 C 
ENDROOT
BRANCH   1   2
ATOM      2  C   UNL     1      38.912  19.228  10.474  1.00  0.00     0.000 C 
BRANCH   2   3
ATOM      3  C   UNL     1      39.771  18.259  11.304  1.00  0.00     0.000 C 
BRANCH   3   4
ATOM      4  C   UNL     1      40.465  18.946  12.492  1.00  0.00     0.000 C 
BRANCH   4   5
ATOM      5  C   UNL     1      41.963  18.613  12.574  1.00  0.00     0.006 C 
BRANCH   5   6
ATOM      6  C   UNL     1      42.262  17.149  12.225  1.00  0.00     0.053 C 
BRANCH   6   7
ATOM      7  C   UNL     1      43.738  16.904  12.214  1.00  0.00     0.041 C 
ATOM      8  O   UNL     1      44.184  15.728  12.196  1.00  0.00    -0.550 OA
ATOM      9  O   UNL     1      44.620  17.976  12.172  1.00  0.00    -0.550 OA
ENDBRANCH   6   7
ENDBRANCH   5   6
ENDBRANCH   4   5
ENDBRANCH   3   4
ENDBRANCH   2   3
ENDBRANCH   1   2
BRANCH   1  10
ATOM     10  C   UNL     1      40.794  19.705   8.809  1.00  0.00     0.000 C 
BRANCH  10  11
ATOM     11  C   UNL     1      42.134  20.458   8.858  1.00  0.00    -0.000 C 
BRANCH  11  12
ATOM     12  C   UNL     1      42.018  21.996   8.879  1.00  0.00    -0.000 C 
BRANCH  12  13
ATOM     13  C   UNL     1      42.632  22.680  10.112  1.00  0.00    -0.000 C 
BRANCH  13  14
ATOM     14  C   UNL     1      43.102  21.680  11.179  1.00  0.00    -0.000 C 
BRANCH  14  15
ATOM     15  C   UNL     1      42.813  22.205  12.589  1.00  0.00    -0.003 C 
ATOM     16  C   UNL     1      43.639  21.462  13.636  1.00  0.00     0.004 C 
ENDBRANCH  14  15
ENDBRANCH  13  14
ENDBRANCH  12  13
ENDBRANCH  11  12
ENDBRANCH  10  11
ENDBRANCH   1  10
TORSDOF 12
ENDMDL
MODEL 9
REMARK VINA RESULT:    -4.278      3.864      5.119
REMARK INTER + INTRA:          -8.945
REMARK INTER:                  -7.324
REMARK INTRA:                  -1.621
REMARK UNBOUND:                -1.666
REMARK SMILES CCCCCCCCCCCCCC(=O)[O-]
REMARK SMILES IDX 8 1 9 2 10 3 11 4 12 5 13 6 14 7 15 8 16 9 7 10 6 11 5 12
REMARK SMILES IDX 4 13 3 14 2 15 1 16
REMARK H PARENT
REMARK Flexibility Score: inf
ROOT
ATOM      1  C   UNL     1      40.436  19.677   9.558  1.00  0.00     0.000 C 
ENDROOT
BRANCH   1   2
ATOM      2  C   UNL     1      40.239  21.199   9.396  1.00  0.00     0.000 C 
BRANCH   2   3
ATOM      3  C   UNL     1      41.555  21.995   9.413  1.00  0.00     0.000 C 
BRANCH   3   4
ATOM      4  C   UNL     1      42.769  21.148   8.996  1.00  0.00     0.000 C 
BRANCH   4   5
ATOM      5  C   UNL     1      43.412  21.639   7.689  1.00  0.00     0.006 C 
BRANCH   5   6
ATOM      6  C   UNL     1      43.297  20.614   6.554  1.00  0.00     0.053 C 
BRANCH   6   7
ATOM      7  C   UNL     1      44.194  20.990   5.417  1.00  0.00     0.041 C 
ATOM      8  O   UNL     1      44.657  20.101   4.656  1.00  0.00    -0.550 OA
ATOM      9  O   UNL     1      44.477  22.326   5.167  1.00  0.00    -0.550 OA
ENDBRANCH   6   7
ENDBRANCH   5   6
ENDBRANCH   4   5
ENDBRANCH   3   4
ENDBRANCH   2   3
ENDBRANCH   1   2
BRANCH   1  10
ATOM     10  C   UNL     1      39.732  19.129  10.811  1.00  0.00     0.000 C 
BRANCH  10  11
ATOM     11  C   UNL     1      40.448  17.906  11.411  1.00  0.00    -0.000 C 
BRANCH  11  12
ATOM     12  C   UNL     1      41.982  17.902  11.247  1.00  0.00    -0.000 C 
BRANCH  12  13
ATOM     13  C   UNL     1      42.771  18.354  12.488  1.00  0.00    -0.000 C 
BRANCH  13  14
ATOM     14  C   UNL     1      43.730  19.517  12.195  1.00  0.00    -0.000 C 
BRANCH  14  15
ATOM     15  C   UNL     1      43.151  20.845  12.694  1.00  0.00    -0.003 C 
ATOM     16  C   UNL     1      41.963  20.616  13.624  1.00  0.00     0.004 C 
ENDBRANCH  14  15
ENDBRANCH  13  14
ENDBRANCH  12  13
ENDBRANCH  11  12
ENDBRANCH  10  11
ENDBRANCH   1  10
TORSDOF 12
ENDMDL
