MODEL 1
REMARK VINA RESULT:    -5.602      0.000      0.000
REMARK INTER + INTRA:          -6.884
REMARK INTER:                  -6.585
REMARK INTRA:                  -0.299
REMARK UNBOUND:                -0.299
REMARK SMILES O=c1c(O)c(-c2ccc(O)cc2)oc2cc(O)cc(O)c12
REMARK SMILES IDX 5 1 3 2 2 3 1 4 21 5 19 6 18 7 16 8 15 9 14 10 13 11 6 12
REMARK SMILES IDX 7 13 8 14 9 15 12 16 11 17 10 18 4 20 20 22 17 24
REMARK H PARENT 10 19 4 21 20 23 17 25
REMARK Flexibility Score: inf
ROOT
ATOM      1  C   UNL     1       0.950  -2.529   6.430  1.00  0.00     0.180 A 
ATOM      2  C   UNL     1      -0.308  -1.909   6.524  1.00  0.00     0.208 A 
ATOM      3  C   UNL     1      -0.393  -0.516   6.371  1.00  0.00     0.238 A 
ATOM      4  O   UNL     1      -1.528   0.027   6.402  1.00  0.00    -0.285 OA
ATOM      5  C   UNL     1       0.781   0.241   6.143  1.00  0.00     0.111 A 
ATOM      6  C   UNL     1       0.816   1.663   6.012  1.00  0.00     0.134 A 
ATOM      7  C   UNL     1       2.015   2.294   5.657  1.00  0.00     0.093 A 
ATOM      8  C   UNL     1       3.192   1.564   5.492  1.00  0.00     0.123 A 
ATOM      9  C   UNL     1       3.181   0.181   5.675  1.00  0.00     0.094 A 
ATOM     10  C   UNL     1       1.993  -0.481   5.994  1.00  0.00     0.146 A 
ATOM     11  O   UNL     1       2.023  -1.800   6.149  1.00  0.00    -0.452 OA
ENDROOT
BRANCH   1  12
ATOM     12  C   UNL     1       1.124  -3.989   6.605  1.00  0.00     0.021 A 
ATOM     13  C   UNL     1       1.143  -4.824   5.476  1.00  0.00     0.016 A 
ATOM     14  C   UNL     1       1.328  -6.203   5.618  1.00  0.00     0.047 A 
ATOM     15  C   UNL     1       1.513  -6.762   6.888  1.00  0.00     0.115 A 
ATOM     16  C   UNL     1       1.330  -4.556   7.877  1.00  0.00     0.016 A 
ATOM     17  C   UNL     1       1.516  -5.934   8.015  1.00  0.00     0.047 A 
BRANCH  15  18
ATOM     18  O   UNL     1       1.698  -8.133   7.041  1.00  0.00    -0.508 OA
ATOM     19  H   UNL     1       2.133  -8.520   7.872  1.00  0.00     0.293 HD
ENDBRANCH  15  18
ENDBRANCH   1  12
BRANCH   2  20
ATOM     20  O   UNL     1      -1.457  -2.678   6.728  1.00  0.00    -0.502 OA
ATOM     21  H   UNL     1      -2.180  -2.773   6.025  1.00  0.00     0.293 HD
ENDBRANCH   2  20
BRANCH   6  22
ATOM     22  O   UNL     1      -0.282   2.495   6.246  1.00  0.00    -0.507 OA
ATOM     23  H   UNL     1      -0.239   3.503   6.292  1.00  0.00     0.293 HD
ENDBRANCH   6  22
BRANCH   8  24
ATOM     24  O   UNL     1       4.370   2.227   5.154  1.00  0.00    -0.508 OA
ATOM     25  H   UNL     1       5.279   1.817   5.335  1.00  0.00     0.293 HD
ENDBRANCH   8  24
TORSDOF 5
ENDMDL
MODEL 2
REMARK VINA RESULT:    -5.540      1.553      6.415
REMARK INTER + INTRA:          -6.811
REMARK INTER:                  -6.510
REMARK INTRA:                  -0.300
REMARK UNBOUND:                -0.299
REMARK SMILES O=c1c(O)c(-c2ccc(O)cc2)oc2cc(O)cc(O)c12
REMARK SMILES IDX 5 1 3 2 2 3 1 4 21 5 19 6 18 7 16 8 15 9 14 10 13 11 6 12
REMARK SMILES IDX 7 13 8 14 9 15 12 16 11 17 10 18 4 20 20 22 17 24
REMARK H PARENT 10 19 4 21 20 23 17 25
REMARK Flexibility Score: inf
ROOT
ATOM      1  C   UNL     1       2.076  -0.848   6.338  1.00  0.00     0.180 A 
ATOM      2  C   UNL     1       0.780  -0.691   6.859  1.00  0.00     0.208 A 
ATOM      3  C   UNL     1      -0.066  -1.810   6.928  1.00  0.00     0.238 A 
ATOM      4  O   UNL     1      -1.205  -1.675   7.445  1.00  0.00    -0.285 OA
ATOM      5  C   UNL     1       0.389  -3.067   6.462  1.00  0.00     0.111 A 
ATOM      6  C   UNL     1      -0.397  -4.259   6.448  1.00  0.00     0.134 A 
ATOM      7  C   UNL     1       0.199  -5.474   6.087  1.00  0.00     0.093 A 
ATOM      8  C   UNL     1       1.531  -5.530   5.677  1.00  0.00     0.123 A 
ATOM      9  C   UNL     1       2.290  -4.361   5.630  1.00  0.00     0.094 A 
ATOM     10  C   UNL     1       1.735  -3.140   6.019  1.00  0.00     0.146 A 
ATOM     11  O   UNL     1       2.496  -2.052   5.970  1.00  0.00    -0.452 OA
ENDROOT
BRANCH   1  12
ATOM     12  C   UNL     1       3.016   0.289   6.209  1.00  0.00     0.021 A 
ATOM     13  C   UNL     1       3.939   0.543   7.236  1.00  0.00     0.016 A 
ATOM     14  C   UNL     1       4.851   1.599   7.125  1.00  0.00     0.047 A 
ATOM     15  C   UNL     1       4.861   2.401   5.977  1.00  0.00     0.115 A 
ATOM     16  C   UNL     1       3.045   1.088   5.051  1.00  0.00     0.016 A 
ATOM     17  C   UNL     1       3.959   2.141   4.942  1.00  0.00     0.047 A 
BRANCH  15  18
ATOM     18  O   UNL     1       5.764   3.455   5.855  1.00  0.00    -0.508 OA
ATOM     19  H   UNL     1       6.145   3.724   4.955  1.00  0.00     0.293 HD
ENDBRANCH  15  18
ENDBRANCH   1  12
BRANCH   2  20
ATOM     20  O   UNL     1       0.359   0.554   7.334  1.00  0.00    -0.502 OA
ATOM     21  H   UNL     1       0.360   0.789   8.319  1.00  0.00     0.293 HD
ENDBRANCH   2  20
BRANCH   6  22
ATOM     22  O   UNL     1      -1.761  -4.298   6.751  1.00  0.00    -0.507 OA
ATOM     23  H   UNL     1      -2.195  -4.978   7.358  1.00  0.00     0.293 HD
ENDBRANCH   6  22
BRANCH   8  24
ATOM     24  O   UNL     1       2.085  -6.754   5.309  1.00  0.00    -0.508 OA
ATOM     25  H   UNL     1       1.889  -7.174   4.407  1.00  0.00     0.293 HD
ENDBRANCH   8  24
TORSDOF 5
ENDMDL
MODEL 3
REMARK VINA RESULT:    -5.452      2.155      7.019
REMARK INTER + INTRA:          -6.707
REMARK INTER:                  -6.417
REMARK INTRA:                  -0.290
REMARK UNBOUND:                -0.299
REMARK SMILES O=c1c(O)c(-c2ccc(O)cc2)oc2cc(O)cc(O)c12
REMARK SMILES IDX 5 1 3 2 2 3 1 4 21 5 19 6 18 7 16 8 15 9 14 10 13 11 6 12
REMARK SMILES IDX 7 13 8 14 9 15 12 16 11 17 10 18 4 20 20 22 17 24
REMARK H PARENT 10 19 4 21 20 23 17 25
REMARK Flexibility Score: inf
ROOT
ATOM      1  C   UNL     1       3.008   1.520   5.805  1.00  0.00     0.180 A 
ATOM      2  C   UNL     1       1.682   1.983   5.865  1.00  0.00     0.208 A 
ATOM      3  C   UNL     1       0.642   1.051   6.007  1.00  0.00     0.238 A 
ATOM      4  O   UNL     1      -0.539   1.475   6.115  1.00  0.00    -0.285 OA
ATOM      5  C   UNL     1       0.938  -0.331   6.071  1.00  0.00     0.111 A 
ATOM      6  C   UNL     1      -0.041  -1.366   6.175  1.00  0.00     0.134 A 
ATOM      7  C   UNL     1       0.373  -2.691   6.363  1.00  0.00     0.093 A 
ATOM      8  C   UNL     1       1.726  -3.027   6.386  1.00  0.00     0.123 A 
ATOM      9  C   UNL     1       2.690  -2.031   6.225  1.00  0.00     0.094 A 
ATOM     10  C   UNL     1       2.309  -0.696   6.073  1.00  0.00     0.146 A 
ATOM     11  O   UNL     1       3.258   0.223   5.934  1.00  0.00    -0.452 OA
ENDROOT
BRANCH   1  12
ATOM     12  C   UNL     1       4.156   2.438   5.630  1.00  0.00     0.021 A 
ATOM     13  C   UNL     1       4.912   2.822   6.750  1.00  0.00     0.016 A 
ATOM     14  C   UNL     1       6.014   3.671   6.604  1.00  0.00     0.047 A 
ATOM     15  C   UNL     1       6.383   4.134   5.335  1.00  0.00     0.115 A 
ATOM     16  C   UNL     1       4.545   2.892   4.356  1.00  0.00     0.016 A 
ATOM     17  C   UNL     1       5.647   3.739   4.213  1.00  0.00     0.047 A 
BRANCH  15  18
ATOM     18  O   UNL     1       7.478   4.979   5.177  1.00  0.00    -0.508 OA
ATOM     19  H   UNL     1       7.906   5.130   4.271  1.00  0.00     0.293 HD
ENDBRANCH  15  18
ENDBRANCH   1  12
BRANCH   2  20
ATOM     20  O   UNL     1       1.414   3.354   5.822  1.00  0.00    -0.502 OA
ATOM     21  H   UNL     1       1.104   3.874   6.635  1.00  0.00     0.293 HD
ENDBRANCH   2  20
BRANCH   6  22
ATOM     22  O   UNL     1      -1.418  -1.151   6.073  1.00  0.00    -0.507 OA
ATOM     23  H   UNL     1      -1.849  -0.456   5.483  1.00  0.00     0.293 HD
ENDBRANCH   6  22
BRANCH   8  24
ATOM     24  O   UNL     1       2.100  -4.358   6.559  1.00  0.00    -0.508 OA
ATOM     25  H   UNL     1       1.490  -5.025   7.017  1.00  0.00     0.293 HD
ENDBRANCH   8  24
TORSDOF 5
ENDMDL
MODEL 4
REMARK VINA RESULT:    -5.269      2.415      3.714
REMARK INTER + INTRA:          -6.493
REMARK INTER:                  -6.213
REMARK INTRA:                  -0.280
REMARK UNBOUND:                -0.299
REMARK SMILES O=c1c(O)c(-c2ccc(O)cc2)oc2cc(O)cc(O)c12
REMARK SMILES IDX 5 1 3 2 2 3 1 4 21 5 19 6 18 7 16 8 15 9 14 10 13 11 6 12
REMARK SMILES IDX 7 13 8 14 9 15 12 16 11 17 10 18 4 20 20 22 17 24
REMARK H PARENT 10 19 4 21 20 23 17 25
REMARK Flexibility Score: inf
ROOT
ATOM      1  C   UNL     1       2.987  -1.343   6.784  1.00  0.00     0.180 A 
ATOM      2  C   UNL     1       3.725  -1.189   7.970  1.00  0.00     0.208 A 
ATOM      3  C   UNL     1       4.534  -0.053   8.126  1.00  0.00     0.238 A 
ATOM      4  O   UNL     1       5.150   0.106   9.212  1.00  0.00    -0.285 OA
ATOM      5  C   UNL     1       4.607   0.908   7.088  1.00  0.00     0.111 A 
ATOM      6  C   UNL     1       5.426   2.078   7.123  1.00  0.00     0.134 A 
ATOM      7  C   UNL     1       5.319   3.025   6.097  1.00  0.00     0.093 A 
ATOM      8  C   UNL     1       4.475   2.815   5.007  1.00  0.00     0.123 A 
ATOM      9  C   UNL     1       3.716   1.646   4.934  1.00  0.00     0.094 A 
ATOM     10  C   UNL     1       3.773   0.700   5.960  1.00  0.00     0.146 A 
ATOM     11  O   UNL     1       3.026  -0.393   5.857  1.00  0.00    -0.452 OA
ENDROOT
BRANCH   1  12
ATOM     12  C   UNL     1       2.132  -2.526   6.535  1.00  0.00     0.021 A 
ATOM     13  C   UNL     1       2.664  -3.633   5.854  1.00  0.00     0.016 A 
ATOM     14  C   UNL     1       1.880  -4.769   5.627  1.00  0.00     0.047 A 
ATOM     15  C   UNL     1       0.560  -4.818   6.093  1.00  0.00     0.115 A 
ATOM     16  C   UNL     1       0.811  -2.590   7.016  1.00  0.00     0.016 A 
ATOM     17  C   UNL     1       0.031  -3.727   6.790  1.00  0.00     0.047 A 
BRANCH  15  18
ATOM     18  O   UNL     1      -0.230  -5.943   5.873  1.00  0.00    -0.508 OA
ATOM     19  H   UNL     1       0.086  -6.872   6.129  1.00  0.00     0.293 HD
ENDBRANCH  15  18
ENDBRANCH   1  12
BRANCH   2  20
ATOM     20  O   UNL     1       3.622  -2.138   8.990  1.00  0.00    -0.502 OA
ATOM     21  H   UNL     1       2.946  -2.059   9.741  1.00  0.00     0.293 HD
ENDBRANCH   2  20
BRANCH   6  22
ATOM     22  O   UNL     1       6.370   2.341   8.119  1.00  0.00    -0.507 OA
ATOM     23  H   UNL     1       7.367   2.376   7.971  1.00  0.00     0.293 HD
ENDBRANCH   6  22
BRANCH   8  24
ATOM     24  O   UNL     1       4.407   3.771   3.996  1.00  0.00    -0.508 OA
ATOM     25  H   UNL     1       5.086   3.795   3.243  1.00  0.00     0.293 HD
ENDBRANCH   8  24
TORSDOF 5
ENDMDL
MODEL 5
REMARK VINA RESULT:    -5.253      4.999      7.674
REMARK INTER + INTRA:          -6.474
REMARK INTER:                  -6.256
REMARK INTRA:                  -0.218
REMARK UNBOUND:                -0.299
REMARK SMILES O=c1c(O)c(-c2ccc(O)cc2)oc2cc(O)cc(O)c12
REMARK SMILES IDX 5 1 3 2 2 3 1 4 21 5 19 6 18 7 16 8 15 9 14 10 13 11 6 12
REMARK SMILES IDX 7 13 8 14 9 15 12 16 11 17 10 18 4 20 20 22 17 24
REMARK H PARENT 10 19 4 21 20 23 17 25
REMARK Flexibility Score: inf
ROOT
ATOM      1  C   UNL     1       3.684   4.505   5.186  1.00  0.00     0.180 A 
ATOM      2  C   UNL     1       2.416   5.104   5.269  1.00  0.00     0.208 A 
ATOM      3  C   UNL     1       2.244   6.405   4.768  1.00  0.00     0.238 A 
ATOM      4  O   UNL     1       1.094   6.915   4.795  1.00  0.00    -0.285 OA
ATOM      5  C   UNL     1       3.345   7.095   4.206  1.00  0.00     0.111 A 
ATOM      6  C   UNL     1       3.293   8.431   3.704  1.00  0.00     0.134 A 
ATOM      7  C   UNL     1       4.410   8.967   3.051  1.00  0.00     0.093 A 
ATOM      8  C   UNL     1       5.596   8.241   2.939  1.00  0.00     0.123 A 
ATOM      9  C   UNL     1       5.676   6.957   3.479  1.00  0.00     0.094 A 
ATOM     10  C   UNL     1       4.567   6.382   4.104  1.00  0.00     0.146 A 
ATOM     11  O   UNL     1       4.681   5.153   4.594  1.00  0.00    -0.452 OA
ENDROOT
BRANCH   1  12
ATOM     12  C   UNL     1       3.951   3.148   5.715  1.00  0.00     0.021 A 
ATOM     13  C   UNL     1       3.499   2.026   5.002  1.00  0.00     0.016 A 
ATOM     14  C   UNL     1       3.759   0.735   5.472  1.00  0.00     0.047 A 
ATOM     15  C   UNL     1       4.489   0.550   6.653  1.00  0.00     0.115 A 
ATOM     16  C   UNL     1       4.700   2.953   6.891  1.00  0.00     0.016 A 
ATOM     17  C   UNL     1       4.959   1.662   7.358  1.00  0.00     0.047 A 
BRANCH  15  18
ATOM     18  O   UNL     1       4.753  -0.731   7.132  1.00  0.00    -0.508 OA
ATOM     19  H   UNL     1       4.352  -1.553   6.696  1.00  0.00     0.293 HD
ENDBRANCH  15  18
ENDBRANCH   1  12
BRANCH   2  20
ATOM     20  O   UNL     1       1.338   4.397   5.807  1.00  0.00    -0.502 OA
ATOM     21  H   UNL     1       0.375   4.661   5.638  1.00  0.00     0.293 HD
ENDBRANCH   2  20
BRANCH   6  22
ATOM     22  O   UNL     1       2.188   9.276   3.845  1.00  0.00    -0.507 OA
ATOM     23  H   UNL     1       1.745   9.501   4.723  1.00  0.00     0.293 HD
ENDBRANCH   6  22
BRANCH   8  24
ATOM     24  O   UNL     1       6.693   8.812   2.298  1.00  0.00    -0.508 OA
ATOM     25  H   UNL     1       6.742   9.809   2.119  1.00  0.00     0.293 HD
ENDBRANCH   8  24
TORSDOF 5
ENDMDL
MODEL 6
REMARK VINA RESULT:    -5.175      3.307      8.384
REMARK INTER + INTRA:          -6.382
REMARK INTER:                  -6.330
REMARK INTRA:                  -0.051
REMARK UNBOUND:                -0.299
REMARK SMILES O=c1c(O)c(-c2ccc(O)cc2)oc2cc(O)cc(O)c12
REMARK SMILES IDX 5 1 3 2 2 3 1 4 21 5 19 6 18 7 16 8 15 9 14 10 13 11 6 12
REMARK SMILES IDX 7 13 8 14 9 15 12 16 11 17 10 18 4 20 20 22 17 24
REMARK H PARENT 10 19 4 21 20 23 17 25
REMARK Flexibility Score: inf
ROOT
ATOM      1  C   UNL     1       3.704   3.693   4.999  1.00  0.00     0.180 A 
ATOM      2  C   UNL     1       2.509   4.145   5.585  1.00  0.00     0.208 A 
ATOM      3  C   UNL     1       1.546   3.203   5.980  1.00  0.00     0.238 A 
ATOM      4  O   UNL     1       0.503   3.610   6.553  1.00  0.00    -0.285 OA
ATOM      5  C   UNL     1       1.783   1.823   5.770  1.00  0.00     0.111 A 
ATOM      6  C   UNL     1       0.860   0.783   6.096  1.00  0.00     0.134 A 
ATOM      7  C   UNL     1       1.253  -0.555   5.965  1.00  0.00     0.093 A 
ATOM      8  C   UNL     1       2.509  -0.891   5.461  1.00  0.00     0.123 A 
ATOM      9  C   UNL     1       3.396   0.118   5.084  1.00  0.00     0.094 A 
ATOM     10  C   UNL     1       3.047   1.461   5.236  1.00  0.00     0.146 A 
ATOM     11  O   UNL     1       3.925   2.390   4.876  1.00  0.00    -0.452 OA
ENDROOT
BRANCH   1  12
ATOM     12  C   UNL     1       4.756   4.626   4.533  1.00  0.00     0.021 A 
ATOM     13  C   UNL     1       6.080   4.447   4.964  1.00  0.00     0.016 A 
ATOM     14  C   UNL     1       7.092   5.304   4.519  1.00  0.00     0.047 A 
ATOM     15  C   UNL     1       6.795   6.340   3.625  1.00  0.00     0.115 A 
ATOM     16  C   UNL     1       4.468   5.658   3.620  1.00  0.00     0.016 A 
ATOM     17  C   UNL     1       5.482   6.511   3.176  1.00  0.00     0.047 A 
BRANCH  15  18
ATOM     18  O   UNL     1       7.795   7.199   3.175  1.00  0.00    -0.508 OA
ATOM     19  H   UNL     1       8.386   6.958   2.388  1.00  0.00     0.293 HD
ENDBRANCH  15  18
ENDBRANCH   1  12
BRANCH   2  20
ATOM     20  O   UNL     1       2.305   5.510   5.803  1.00  0.00    -0.502 OA
ATOM     21  H   UNL     1       2.728   6.223   5.220  1.00  0.00     0.293 HD
ENDBRANCH   2  20
BRANCH   6  22
ATOM     22  O   UNL     1      -0.452   1.010   6.521  1.00  0.00    -0.507 OA
ATOM     23  H   UNL     1      -1.036   1.769   6.204  1.00  0.00     0.293 HD
ENDBRANCH   6  22
BRANCH   8  24
ATOM     24  O   UNL     1       2.859  -2.233   5.330  1.00  0.00    -0.508 OA
ATOM     25  H   UNL     1       3.110  -2.629   4.431  1.00  0.00     0.293 HD
ENDBRANCH   8  24
TORSDOF 5
ENDMDL
MODEL 7
REMARK VINA RESULT:    -5.120      2.828      7.814
REMARK INTER + INTRA:          -6.317
REMARK INTER:                  -6.068
REMARK INTRA:                  -0.249
REMARK UNBOUND:                -0.299
REMARK SMILES O=c1c(O)c(-c2ccc(O)cc2)oc2cc(O)cc(O)c12
REMARK SMILES IDX 5 1 3 2 2 3 1 4 21 5 19 6 18 7 16 8 15 9 14 10 13 11 6 12
REMARK SMILES IDX 7 13 8 14 9 15 12 16 11 17 10 18 4 20 20 22 17 24
REMARK H PARENT 10 19 4 21 20 23 17 25
REMARK Flexibility Score: inf
ROOT
ATOM      1  C   UNL     1       3.470   2.021   6.062  1.00  0.00     0.180 A 
ATOM      2  C   UNL     1       4.280   1.249   6.913  1.00  0.00     0.208 A 
ATOM      3  C   UNL     1       3.752   0.075   7.473  1.00  0.00     0.238 A 
ATOM      4  O   UNL     1       4.499  -0.641   8.190  1.00  0.00    -0.285 OA
ATOM      5  C   UNL     1       2.418  -0.304   7.188  1.00  0.00     0.111 A 
ATOM      6  C   UNL     1       1.768  -1.453   7.733  1.00  0.00     0.134 A 
ATOM      7  C   UNL     1       0.490  -1.803   7.280  1.00  0.00     0.093 A 
ATOM      8  C   UNL     1      -0.187  -1.012   6.352  1.00  0.00     0.123 A 
ATOM      9  C   UNL     1       0.415   0.146   5.859  1.00  0.00     0.094 A 
ATOM     10  C   UNL     1       1.703   0.501   6.264  1.00  0.00     0.146 A 
ATOM     11  O   UNL     1       2.246   1.605   5.762  1.00  0.00    -0.452 OA
ENDROOT
BRANCH   1  12
ATOM     12  C   UNL     1       3.946   3.285   5.453  1.00  0.00     0.021 A 
ATOM     13  C   UNL     1       4.770   3.239   4.318  1.00  0.00     0.016 A 
ATOM     14  C   UNL     1       5.213   4.421   3.715  1.00  0.00     0.047 A 
ATOM     15  C   UNL     1       4.823   5.663   4.230  1.00  0.00     0.115 A 
ATOM     16  C   UNL     1       3.543   4.537   5.955  1.00  0.00     0.016 A 
ATOM     17  C   UNL     1       3.986   5.716   5.349  1.00  0.00     0.047 A 
BRANCH  15  18
ATOM     18  O   UNL     1       5.258   6.846   3.639  1.00  0.00    -0.508 OA
ATOM     19  H   UNL     1       4.623   7.617   3.467  1.00  0.00     0.293 HD
ENDBRANCH  15  18
ENDBRANCH   1  12
BRANCH   2  20
ATOM     20  O   UNL     1       5.601   1.630   7.162  1.00  0.00    -0.502 OA
ATOM     21  H   UNL     1       6.312   1.633   6.441  1.00  0.00     0.293 HD
ENDBRANCH   2  20
BRANCH   6  22
ATOM     22  O   UNL     1       2.318  -2.261   8.732  1.00  0.00    -0.507 OA
ATOM     23  H   UNL     1       2.036  -2.250   9.701  1.00  0.00     0.293 HD
ENDBRANCH   6  22
BRANCH   8  24
ATOM     24  O   UNL     1      -1.465  -1.382   5.937  1.00  0.00    -0.508 OA
ATOM     25  H   UNL     1      -1.640  -1.711   4.994  1.00  0.00     0.293 HD
ENDBRANCH   8  24
TORSDOF 5
ENDMDL
MODEL 8
REMARK VINA RESULT:    -5.092      1.621      6.430
REMARK INTER + INTRA:          -6.284
REMARK INTER:                  -5.998
REMARK INTRA:                  -0.286
REMARK UNBOUND:                -0.299
REMARK SMILES O=c1c(O)c(-c2ccc(O)cc2)oc2cc(O)cc(O)c12
REMARK SMILES IDX 5 1 3 2 2 3 1 4 21 5 19 6 18 7 16 8 15 9 14 10 13 11 6 12
REMARK SMILES IDX 7 13 8 14 9 15 12 16 11 17 10 18 4 20 20 22 17 24
REMARK H PARENT 10 19 4 21 20 23 17 25
REMARK Flexibility Score: inf
ROOT
ATOM      1  C   UNL     1       0.727  -1.435   6.768  1.00  0.00     0.180 A 
ATOM      2  C   UNL     1      -0.557  -1.648   7.298  1.00  0.00     0.208 A 
ATOM      3  C   UNL     1      -1.100  -2.942   7.268  1.00  0.00     0.238 A 
ATOM      4  O   UNL     1      -2.227  -3.137   7.792  1.00  0.00    -0.285 OA
ATOM      5  C   UNL     1      -0.359  -4.004   6.696  1.00  0.00     0.111 A 
ATOM      6  C   UNL     1      -0.827  -5.348   6.577  1.00  0.00     0.134 A 
ATOM      7  C   UNL     1       0.042  -6.343   6.112  1.00  0.00     0.093 A 
ATOM      8  C   UNL     1       1.338  -6.034   5.702  1.00  0.00     0.123 A 
ATOM      9  C   UNL     1       1.786  -4.714   5.758  1.00  0.00     0.094 A 
ATOM     10  C   UNL     1       0.955  -3.705   6.251  1.00  0.00     0.146 A 
ATOM     11  O   UNL     1       1.424  -2.463   6.298  1.00  0.00    -0.452 OA
ENDROOT
BRANCH   1  12
ATOM     12  C   UNL     1       1.357  -0.095   6.740  1.00  0.00     0.021 A 
ATOM     13  C   UNL     1       1.078   0.778   5.676  1.00  0.00     0.016 A 
ATOM     14  C   UNL     1       1.645   2.056   5.641  1.00  0.00     0.047 A 
ATOM     15  C   UNL     1       2.485   2.483   6.677  1.00  0.00     0.115 A 
ATOM     16  C   UNL     1       2.187   0.347   7.787  1.00  0.00     0.016 A 
ATOM     17  C   UNL     1       2.751   1.626   7.750  1.00  0.00     0.047 A 
BRANCH  15  18
ATOM     18  O   UNL     1       3.055   3.753   6.653  1.00  0.00    -0.508 OA
ATOM     19  H   UNL     1       3.791   3.991   5.998  1.00  0.00     0.293 HD
ENDBRANCH  15  18
ENDBRANCH   1  12
BRANCH   2  20
ATOM     20  O   UNL     1      -1.262  -0.590   7.878  1.00  0.00    -0.502 OA
ATOM     21  H   UNL     1      -0.830   0.303   8.084  1.00  0.00     0.293 HD
ENDBRANCH   2  20
BRANCH   6  22
ATOM     22  O   UNL     1      -2.133  -5.748   6.872  1.00  0.00    -0.507 OA
ATOM     23  H   UNL     1      -2.466  -6.699   6.828  1.00  0.00     0.293 HD
ENDBRANCH   6  22
BRANCH   8  24
ATOM     24  O   UNL     1       2.170  -7.048   5.230  1.00  0.00    -0.508 OA
ATOM     25  H   UNL     1       2.208  -7.954   5.683  1.00  0.00     0.293 HD
ENDBRANCH   8  24
TORSDOF 5
ENDMDL
MODEL 9
REMARK VINA RESULT:    -5.082      3.905      7.357
REMARK INTER + INTRA:          -6.273
REMARK INTER:                  -5.992
REMARK INTRA:                  -0.281
REMARK UNBOUND:                -0.299
REMARK SMILES O=c1c(O)c(-c2ccc(O)cc2)oc2cc(O)cc(O)c12
REMARK SMILES IDX 5 1 3 2 2 3 1 4 21 5 19 6 18 7 16 8 15 9 14 10 13 11 6 12
REMARK SMILES IDX 7 13 8 14 9 15 12 16 11 17 10 18 4 20 20 22 17 24
REMARK H PARENT 10 19 4 21 20 23 17 25
REMARK Flexibility Score: inf
ROOT
ATOM      1  C   UNL     1       2.931   2.382   5.635  1.00  0.00     0.180 A 
ATOM      2  C   UNL     1       2.738   1.038   5.270  1.00  0.00     0.208 A 
ATOM      3  C   UNL     1       1.508   0.425   5.555  1.00  0.00     0.238 A 
ATOM      4  O   UNL     1       1.322  -0.761   5.177  1.00  0.00    -0.285 OA
ATOM      5  C   UNL     1       0.491   1.157   6.215  1.00  0.00     0.111 A 
ATOM      6  C   UNL     1      -0.780   0.624   6.588  1.00  0.00     0.134 A 
ATOM      7  C   UNL     1      -1.756   1.475   7.119  1.00  0.00     0.093 A 
ATOM      8  C   UNL     1      -1.488   2.824   7.351  1.00  0.00     0.123 A 
ATOM      9  C   UNL     1      -0.228   3.342   7.045  1.00  0.00     0.094 A 
ATOM     10  C   UNL     1       0.754   2.526   6.481  1.00  0.00     0.146 A 
ATOM     11  O   UNL     1       1.935   3.061   6.194  1.00  0.00    -0.452 OA
ENDROOT
BRANCH   1  12
ATOM     12  C   UNL     1       4.208   3.090   5.392  1.00  0.00     0.021 A 
ATOM     13  C   UNL     1       4.427   3.717   4.155  1.00  0.00     0.016 A 
ATOM     14  C   UNL     1       5.618   4.409   3.912  1.00  0.00     0.047 A 
ATOM     15  C   UNL     1       6.597   4.497   4.910  1.00  0.00     0.115 A 
ATOM     16  C   UNL     1       5.189   3.198   6.396  1.00  0.00     0.016 A 
ATOM     17  C   UNL     1       6.377   3.892   6.151  1.00  0.00     0.047 A 
BRANCH  15  18
ATOM     18  O   UNL     1       7.787   5.183   4.680  1.00  0.00    -0.508 OA
ATOM     19  H   UNL     1       7.970   5.645   3.796  1.00  0.00     0.293 HD
ENDBRANCH  15  18
ENDBRANCH   1  12
BRANCH   2  20
ATOM     20  O   UNL     1       3.746   0.341   4.600  1.00  0.00    -0.502 OA
ATOM     21  H   UNL     1       4.457  -0.191   5.088  1.00  0.00     0.293 HD
ENDBRANCH   2  20
BRANCH   6  22
ATOM     22  O   UNL     1      -1.120  -0.728   6.485  1.00  0.00    -0.507 OA
ATOM     23  H   UNL     1      -2.041  -1.103   6.654  1.00  0.00     0.293 HD
ENDBRANCH   6  22
BRANCH   8  24
ATOM     24  O   UNL     1      -2.478   3.638   7.896  1.00  0.00    -0.508 OA
ATOM     25  H   UNL     1      -2.787   4.482   7.427  1.00  0.00     0.293 HD
ENDBRANCH   8  24
TORSDOF 5
ENDMDL
