MODEL 1
REMARK VINA RESULT:    -6.121      0.000      0.000
REMARK INTER + INTRA:          -7.630
REMARK INTER:                  -7.374
REMARK INTRA:                  -0.256
REMARK UNBOUND:                -0.256
REMARK SMILES O=c1c(O)c(-c2ccc(O)c(O)c2)oc2cc(O)cc(O)c12
REMARK SMILES IDX 5 1 3 2 2 3 1 4 22 5 20 6 19 7 17 8 16 9 15 10 14 11 6 12
REMARK SMILES IDX 7 13 8 14 9 15 13 16 11 17 10 18 12 20 4 22 21 24 18 26
REMARK H PARENT 10 19 12 21 4 23 21 25 18 27
REMARK Flexibility Score: inf
ROOT
ATOM      1  C   UNL     1      -8.403 -14.730   4.896  1.00  0.00     0.180 A 
ATOM      2  C   UNL     1      -8.479 -16.082   4.520  1.00  0.00     0.208 A 
ATOM      3  C   UNL     1      -8.728 -16.403   3.177  1.00  0.00     0.238 A 
ATOM      4  O   UNL     1      -8.740 -17.614   2.836  1.00  0.00    -0.285 OA
ATOM      5  C   UNL     1      -8.916 -15.368   2.229  1.00  0.00     0.111 A 
ATOM      6  C   UNL     1      -9.214 -15.576   0.849  1.00  0.00     0.134 A 
ATOM      7  C   UNL     1      -9.249 -14.482  -0.024  1.00  0.00     0.093 A 
ATOM      8  C   UNL     1      -9.063 -13.182   0.444  1.00  0.00     0.123 A 
ATOM      9  C   UNL     1      -8.830 -12.960   1.802  1.00  0.00     0.094 A 
ATOM     10  C   UNL     1      -8.752 -14.036   2.691  1.00  0.00     0.146 A 
ATOM     11  O   UNL     1      -8.518 -13.783   3.973  1.00  0.00    -0.452 OA
ENDROOT
BRANCH   1  12
ATOM     12  C   UNL     1      -8.169 -14.314   6.298  1.00  0.00     0.025 A 
ATOM     13  C   UNL     1      -9.203 -14.445   7.239  1.00  0.00     0.016 A 
ATOM     14  C   UNL     1      -8.998 -14.078   8.572  1.00  0.00     0.051 A 
ATOM     15  C   UNL     1      -7.752 -13.589   8.986  1.00  0.00     0.157 A 
ATOM     16  C   UNL     1      -6.914 -13.842   6.723  1.00  0.00     0.062 A 
ATOM     17  C   UNL     1      -6.707 -13.476   8.060  1.00  0.00     0.158 A 
BRANCH  15  18
ATOM     18  O   UNL     1      -7.544 -13.220  10.313  1.00  0.00    -0.504 OA
ATOM     19  H   UNL     1      -8.071 -13.639  11.069  1.00  0.00     0.293 HD
ENDBRANCH  15  18
BRANCH  17  20
ATOM     20  O   UNL     1      -5.464 -13.002   8.477  1.00  0.00    -0.504 OA
ATOM     21  H   UNL     1      -4.994 -13.388   9.287  1.00  0.00     0.293 HD
ENDBRANCH  17  20
ENDBRANCH   1  12
BRANCH   2  22
ATOM     22  O   UNL     1      -8.269 -17.088   5.468  1.00  0.00    -0.502 OA
ATOM     23  H   UNL     1      -7.522 -17.768   5.383  1.00  0.00     0.293 HD
ENDBRANCH   2  22
BRANCH   6  24
ATOM     24  O   UNL     1      -9.508 -16.826   0.295  1.00  0.00    -0.507 OA
ATOM     25  H   UNL     1      -9.423 -17.055  -0.683  1.00  0.00     0.293 HD
ENDBRANCH   6  24
BRANCH   8  26
ATOM     26  O   UNL     1      -9.120 -12.115  -0.450  1.00  0.00    -0.508 OA
ATOM     27  H   UNL     1      -8.790 -11.191  -0.195  1.00  0.00     0.293 HD
ENDBRANCH   8  26
TORSDOF 6
ENDMDL
MODEL 2
REMARK VINA RESULT:    -5.998     17.168     19.905
REMARK INTER + INTRA:          -7.481
REMARK INTER:                  -7.422
REMARK INTRA:                  -0.059
REMARK UNBOUND:                -0.256
REMARK SMILES O=c1c(O)c(-c2ccc(O)c(O)c2)oc2cc(O)cc(O)c12
REMARK SMILES IDX 5 1 3 2 2 3 1 4 22 5 20 6 19 7 17 8 16 9 15 10 14 11 6 12
REMARK SMILES IDX 7 13 8 14 9 15 13 16 11 17 10 18 12 20 4 22 21 24 18 26
REMARK H PARENT 10 19 12 21 4 23 21 25 18 27
REMARK Flexibility Score: inf
ROOT
ATOM      1  C   UNL     1       2.036 -26.323  -5.609  1.00  0.00     0.180 A 
ATOM      2  C   UNL     1       3.185 -25.990  -6.346  1.00  0.00     0.208 A 
ATOM      3  C   UNL     1       4.431 -26.476  -5.922  1.00  0.00     0.238 A 
ATOM      4  O   UNL     1       5.448 -26.220  -6.617  1.00  0.00    -0.285 OA
ATOM      5  C   UNL     1       4.516 -27.274  -4.756  1.00  0.00     0.111 A 
ATOM      6  C   UNL     1       5.731 -27.787  -4.212  1.00  0.00     0.134 A 
ATOM      7  C   UNL     1       5.684 -28.673  -3.129  1.00  0.00     0.093 A 
ATOM      8  C   UNL     1       4.472 -29.014  -2.531  1.00  0.00     0.123 A 
ATOM      9  C   UNL     1       3.281 -28.471  -3.017  1.00  0.00     0.094 A 
ATOM     10  C   UNL     1       3.294 -27.613  -4.119  1.00  0.00     0.146 A 
ATOM     11  O   UNL     1       2.139 -27.127  -4.558  1.00  0.00    -0.452 OA
ENDROOT
BRANCH   1  12
ATOM     12  C   UNL     1       0.690 -25.827  -5.979  1.00  0.00     0.025 A 
ATOM     13  C   UNL     1      -0.042 -25.062  -5.057  1.00  0.00     0.016 A 
ATOM     14  C   UNL     1      -1.305 -24.567  -5.392  1.00  0.00     0.051 A 
ATOM     15  C   UNL     1      -1.848 -24.817  -6.660  1.00  0.00     0.157 A 
ATOM     16  C   UNL     1       0.150 -26.058  -7.257  1.00  0.00     0.062 A 
ATOM     17  C   UNL     1      -1.116 -25.561  -7.595  1.00  0.00     0.158 A 
BRANCH  15  18
ATOM     18  O   UNL     1      -3.108 -24.327  -6.998  1.00  0.00    -0.504 OA
ATOM     19  H   UNL     1      -3.224 -23.592  -7.685  1.00  0.00     0.293 HD
ENDBRANCH  15  18
BRANCH  17  20
ATOM     20  O   UNL     1      -1.652 -25.797  -8.860  1.00  0.00    -0.504 OA
ATOM     21  H   UNL     1      -2.604 -25.537  -9.089  1.00  0.00     0.293 HD
ENDBRANCH  17  20
ENDBRANCH   1  12
BRANCH   2  22
ATOM     22  O   UNL     1       3.075 -25.219  -7.507  1.00  0.00    -0.502 OA
ATOM     23  H   UNL     1       2.265 -25.262  -8.115  1.00  0.00     0.293 HD
ENDBRANCH   2  22
BRANCH   6  24
ATOM     24  O   UNL     1       7.003 -27.437  -4.676  1.00  0.00    -0.507 OA
ATOM     25  H   UNL     1       7.845 -27.466  -4.123  1.00  0.00     0.293 HD
ENDBRANCH   6  24
BRANCH   8  26
ATOM     26  O   UNL     1       4.463 -29.887  -1.444  1.00  0.00    -0.508 OA
ATOM     27  H   UNL     1       4.084 -30.824  -1.521  1.00  0.00     0.293 HD
ENDBRANCH   8  26
TORSDOF 6
ENDMDL
MODEL 3
REMARK VINA RESULT:    -5.640      1.970      3.785
REMARK INTER + INTRA:          -7.050
REMARK INTER:                  -6.752
REMARK INTRA:                  -0.299
REMARK UNBOUND:                -0.256
REMARK SMILES O=c1c(O)c(-c2ccc(O)c(O)c2)oc2cc(O)cc(O)c12
REMARK SMILES IDX 5 1 3 2 2 3 1 4 22 5 20 6 19 7 17 8 16 9 15 10 14 11 6 12
REMARK SMILES IDX 7 13 8 14 9 15 13 16 11 17 10 18 12 20 4 22 21 24 18 26
REMARK H PARENT 10 19 12 21 4 23 21 25 18 27
REMARK Flexibility Score: inf
ROOT
ATOM      1  C   UNL     1      -8.113 -13.113   6.262  1.00  0.00     0.180 A 
ATOM      2  C   UNL     1      -9.098 -12.290   5.691  1.00  0.00     0.208 A 
ATOM      3  C   UNL     1      -9.817 -12.757   4.580  1.00  0.00     0.238 A 
ATOM      4  O   UNL     1     -10.735 -12.038   4.108  1.00  0.00    -0.285 OA
ATOM      5  C   UNL     1      -9.530 -14.035   4.042  1.00  0.00     0.111 A 
ATOM      6  C   UNL     1     -10.168 -14.594   2.894  1.00  0.00     0.134 A 
ATOM      7  C   UNL     1      -9.898 -15.918   2.529  1.00  0.00     0.093 A 
ATOM      8  C   UNL     1      -8.967 -16.682   3.230  1.00  0.00     0.123 A 
ATOM      9  C   UNL     1      -8.292 -16.127   4.319  1.00  0.00     0.094 A 
ATOM     10  C   UNL     1      -8.568 -14.820   4.729  1.00  0.00     0.146 A 
ATOM     11  O   UNL     1      -7.912 -14.332   5.776  1.00  0.00    -0.452 OA
ENDROOT
BRANCH   1  12
ATOM     12  C   UNL     1      -7.296 -12.680   7.419  1.00  0.00     0.025 A 
ATOM     13  C   UNL     1      -6.200 -11.828   7.210  1.00  0.00     0.016 A 
ATOM     14  C   UNL     1      -5.427 -11.390   8.289  1.00  0.00     0.051 A 
ATOM     15  C   UNL     1      -5.750 -11.785   9.594  1.00  0.00     0.157 A 
ATOM     16  C   UNL     1      -7.628 -13.056   8.732  1.00  0.00     0.062 A 
ATOM     17  C   UNL     1      -6.856 -12.616   9.816  1.00  0.00     0.158 A 
BRANCH  15  18
ATOM     18  O   UNL     1      -4.982 -11.352  10.673  1.00  0.00    -0.504 OA
ATOM     19  H   UNL     1      -5.409 -11.045  11.539  1.00  0.00     0.293 HD
ENDBRANCH  15  18
BRANCH  17  20
ATOM     20  O   UNL     1      -7.183 -12.996  11.117  1.00  0.00    -0.504 OA
ATOM     21  H   UNL     1      -7.972 -12.589  11.605  1.00  0.00     0.293 HD
ENDBRANCH  17  20
ENDBRANCH   1  12
BRANCH   2  22
ATOM     22  O   UNL     1      -9.381 -11.041   6.251  1.00  0.00    -0.502 OA
ATOM     23  H   UNL     1      -8.886 -10.199   5.982  1.00  0.00     0.293 HD
ENDBRANCH   2  22
BRANCH   6  24
ATOM     24  O   UNL     1     -11.046 -13.885   2.068  1.00  0.00    -0.507 OA
ATOM     25  H   UNL     1     -10.763 -13.284   1.310  1.00  0.00     0.293 HD
ENDBRANCH   6  24
BRANCH   8  26
ATOM     26  O   UNL     1      -8.711 -17.992   2.829  1.00  0.00    -0.508 OA
ATOM     27  H   UNL     1      -9.462 -18.660   2.691  1.00  0.00     0.293 HD
ENDBRANCH   8  26
TORSDOF 6
ENDMDL
MODEL 4
REMARK VINA RESULT:    -5.629      1.957      7.123
REMARK INTER + INTRA:          -7.036
REMARK INTER:                  -6.734
REMARK INTRA:                  -0.302
REMARK UNBOUND:                -0.256
REMARK SMILES O=c1c(O)c(-c2ccc(O)c(O)c2)oc2cc(O)cc(O)c12
REMARK SMILES IDX 5 1 3 2 2 3 1 4 22 5 20 6 19 7 17 8 16 9 15 10 14 11 6 12
REMARK SMILES IDX 7 13 8 14 9 15 13 16 11 17 10 18 12 20 4 22 21 24 18 26
REMARK H PARENT 10 19 12 21 4 23 21 25 18 27
REMARK Flexibility Score: inf
ROOT
ATOM      1  C   UNL     1      -8.413 -14.356   4.544  1.00  0.00     0.180 A 
ATOM      2  C   UNL     1      -7.612 -13.258   4.187  1.00  0.00     0.208 A 
ATOM      3  C   UNL     1      -7.013 -12.494   5.201  1.00  0.00     0.238 A 
ATOM      4  O   UNL     1      -6.253 -11.546   4.874  1.00  0.00    -0.285 OA
ATOM      5  C   UNL     1      -7.237 -12.825   6.559  1.00  0.00     0.111 A 
ATOM      6  C   UNL     1      -6.713 -12.096   7.668  1.00  0.00     0.134 A 
ATOM      7  C   UNL     1      -6.891 -12.591   8.966  1.00  0.00     0.093 A 
ATOM      8  C   UNL     1      -7.627 -13.752   9.199  1.00  0.00     0.123 A 
ATOM      9  C   UNL     1      -8.194 -14.441   8.127  1.00  0.00     0.094 A 
ATOM     10  C   UNL     1      -8.003 -13.991   6.818  1.00  0.00     0.146 A 
ATOM     11  O   UNL     1      -8.551 -14.681   5.824  1.00  0.00    -0.452 OA
ENDROOT
BRANCH   1  12
ATOM     12  C   UNL     1      -9.098 -15.193   3.533  1.00  0.00     0.025 A 
ATOM     13  C   UNL     1      -8.581 -16.461   3.222  1.00  0.00     0.016 A 
ATOM     14  C   UNL     1      -9.222 -17.278   2.286  1.00  0.00     0.051 A 
ATOM     15  C   UNL     1     -10.398 -16.844   1.659  1.00  0.00     0.157 A 
ATOM     16  C   UNL     1     -10.290 -14.772   2.916  1.00  0.00     0.062 A 
ATOM     17  C   UNL     1     -10.935 -15.590   1.979  1.00  0.00     0.158 A 
BRANCH  15  18
ATOM     18  O   UNL     1     -11.039 -17.653   0.724  1.00  0.00    -0.504 OA
ATOM     19  H   UNL     1     -10.519 -18.263   0.104  1.00  0.00     0.293 HD
ENDBRANCH  15  18
BRANCH  17  20
ATOM     20  O   UNL     1     -12.112 -15.167   1.364  1.00  0.00    -0.504 OA
ATOM     21  H   UNL     1     -12.379 -15.497   0.445  1.00  0.00     0.293 HD
ENDBRANCH  17  20
ENDBRANCH   1  12
BRANCH   2  22
ATOM     22  O   UNL     1      -7.386 -12.961   2.840  1.00  0.00    -0.502 OA
ATOM     23  H   UNL     1      -6.504 -13.153   2.381  1.00  0.00     0.293 HD
ENDBRANCH   2  22
BRANCH   6  24
ATOM     24  O   UNL     1      -6.042 -10.875   7.553  1.00  0.00    -0.507 OA
ATOM     25  H   UNL     1      -6.240 -10.056   8.105  1.00  0.00     0.293 HD
ENDBRANCH   6  24
BRANCH   8  26
ATOM     26  O   UNL     1      -7.797 -14.207  10.506  1.00  0.00    -0.508 OA
ATOM     27  H   UNL     1      -8.625 -13.977  11.043  1.00  0.00     0.293 HD
ENDBRANCH   8  26
TORSDOF 6
ENDMDL
MODEL 5
REMARK VINA RESULT:    -5.584     11.110     12.689
REMARK INTER + INTRA:          -6.982
REMARK INTER:                  -6.686
REMARK INTRA:                  -0.296
REMARK UNBOUND:                -0.256
REMARK SMILES O=c1c(O)c(-c2ccc(O)c(O)c2)oc2cc(O)cc(O)c12
REMARK SMILES IDX 5 1 3 2 2 3 1 4 22 5 20 6 19 7 17 8 16 9 15 10 14 11 6 12
REMARK SMILES IDX 7 13 8 14 9 15 13 16 11 17 10 18 12 20 4 22 21 24 18 26
REMARK H PARENT 10 19 12 21 4 23 21 25 18 27
REMARK Flexibility Score: inf
ROOT
ATOM      1  C   UNL     1       0.611 -18.775  -0.254  1.00  0.00     0.180 A 
ATOM      2  C   UNL     1       0.703 -20.090   0.234  1.00  0.00     0.208 A 
ATOM      3  C   UNL     1       1.972 -20.646   0.457  1.00  0.00     0.238 A 
ATOM      4  O   UNL     1       2.048 -21.803   0.945  1.00  0.00    -0.285 OA
ATOM      5  C   UNL     1       3.133 -19.888   0.172  1.00  0.00     0.111 A 
ATOM      6  C   UNL     1       4.470 -20.365   0.322  1.00  0.00     0.134 A 
ATOM      7  C   UNL     1       5.543 -19.485   0.135  1.00  0.00     0.093 A 
ATOM      8  C   UNL     1       5.331 -18.164  -0.257  1.00  0.00     0.123 A 
ATOM      9  C   UNL     1       4.030 -17.703  -0.465  1.00  0.00     0.094 A 
ATOM     10  C   UNL     1       2.938 -18.547  -0.251  1.00  0.00     0.146 A 
ATOM     11  O   UNL     1       1.716 -18.066  -0.449  1.00  0.00    -0.452 OA
ENDROOT
BRANCH   1  12
ATOM     12  C   UNL     1      -0.692 -18.129  -0.537  1.00  0.00     0.025 A 
ATOM     13  C   UNL     1      -1.189 -17.160   0.349  1.00  0.00     0.016 A 
ATOM     14  C   UNL     1      -2.406 -16.522   0.092  1.00  0.00     0.051 A 
ATOM     15  C   UNL     1      -3.135 -16.834  -1.064  1.00  0.00     0.157 A 
ATOM     16  C   UNL     1      -1.418 -18.423  -1.705  1.00  0.00     0.062 A 
ATOM     17  C   UNL     1      -2.637 -17.783  -1.966  1.00  0.00     0.158 A 
BRANCH  15  18
ATOM     18  O   UNL     1      -4.349 -16.203  -1.323  1.00  0.00    -0.504 OA
ATOM     19  H   UNL     1      -4.716 -16.124  -2.265  1.00  0.00     0.293 HD
ENDBRANCH  15  18
BRANCH  17  20
ATOM     20  O   UNL     1      -3.358 -18.082  -3.121  1.00  0.00    -0.504 OA
ATOM     21  H   UNL     1      -2.907 -18.465  -3.943  1.00  0.00     0.293 HD
ENDBRANCH  17  20
ENDBRANCH   1  12
BRANCH   2  22
ATOM     22  O   UNL     1      -0.456 -20.812   0.529  1.00  0.00    -0.502 OA
ATOM     23  H   UNL     1      -0.924 -21.394  -0.155  1.00  0.00     0.293 HD
ENDBRANCH   2  22
BRANCH   6  24
ATOM     24  O   UNL     1       4.796 -21.692   0.621  1.00  0.00    -0.507 OA
ATOM     25  H   UNL     1       5.650 -21.987   1.068  1.00  0.00     0.293 HD
ENDBRANCH   6  24
BRANCH   8  26
ATOM     26  O   UNL     1       6.423 -17.320  -0.449  1.00  0.00    -0.508 OA
ATOM     27  H   UNL     1       6.391 -16.555  -1.113  1.00  0.00     0.293 HD
ENDBRANCH   8  26
TORSDOF 6
ENDMDL
MODEL 6
REMARK VINA RESULT:    -5.552     15.944     18.258
REMARK INTER + INTRA:          -6.944
REMARK INTER:                  -6.623
REMARK INTRA:                  -0.321
REMARK UNBOUND:                -0.256
REMARK SMILES O=c1c(O)c(-c2ccc(O)c(O)c2)oc2cc(O)cc(O)c12
REMARK SMILES IDX 5 1 3 2 2 3 1 4 22 5 20 6 19 7 17 8 16 9 15 10 14 11 6 12
REMARK SMILES IDX 7 13 8 14 9 15 13 16 11 17 10 18 12 20 4 22 21 24 18 26
REMARK H PARENT 10 19 12 21 4 23 21 25 18 27
REMARK Flexibility Score: inf
ROOT
ATOM      1  C   UNL     1       1.903 -25.742  -5.104  1.00  0.00     0.180 A 
ATOM      2  C   UNL     1       2.399 -24.445  -4.887  1.00  0.00     0.208 A 
ATOM      3  C   UNL     1       1.614 -23.344  -5.263  1.00  0.00     0.238 A 
ATOM      4  O   UNL     1       2.039 -22.186  -5.016  1.00  0.00    -0.285 OA
ATOM      5  C   UNL     1       0.350 -23.552  -5.867  1.00  0.00     0.111 A 
ATOM      6  C   UNL     1      -0.512 -22.511  -6.324  1.00  0.00     0.134 A 
ATOM      7  C   UNL     1      -1.794 -22.829  -6.786  1.00  0.00     0.093 A 
ATOM      8  C   UNL     1      -2.222 -24.153  -6.868  1.00  0.00     0.123 A 
ATOM      9  C   UNL     1      -1.366 -25.184  -6.480  1.00  0.00     0.094 A 
ATOM     10  C   UNL     1      -0.093 -24.895  -5.980  1.00  0.00     0.146 A 
ATOM     11  O   UNL     1       0.687 -25.904  -5.612  1.00  0.00    -0.452 OA
ENDROOT
BRANCH   1  12
ATOM     12  C   UNL     1       2.683 -26.952  -4.758  1.00  0.00     0.025 A 
ATOM     13  C   UNL     1       3.614 -27.461  -5.678  1.00  0.00     0.016 A 
ATOM     14  C   UNL     1       4.375 -28.590  -5.365  1.00  0.00     0.051 A 
ATOM     15  C   UNL     1       4.229 -29.216  -4.120  1.00  0.00     0.157 A 
ATOM     16  C   UNL     1       2.555 -27.572  -3.502  1.00  0.00     0.062 A 
ATOM     17  C   UNL     1       3.320 -28.704  -3.186  1.00  0.00     0.158 A 
BRANCH  15  18
ATOM     18  O   UNL     1       4.985 -30.343  -3.804  1.00  0.00    -0.504 OA
ATOM     19  H   UNL     1       5.997 -30.333  -3.850  1.00  0.00     0.293 HD
ENDBRANCH  15  18
BRANCH  17  20
ATOM     20  O   UNL     1       3.186 -29.321  -1.943  1.00  0.00    -0.504 OA
ATOM     21  H   UNL     1       3.866 -29.992  -1.608  1.00  0.00     0.293 HD
ENDBRANCH  17  20
ENDBRANCH   1  12
BRANCH   2  22
ATOM     22  O   UNL     1       3.639 -24.261  -4.270  1.00  0.00    -0.502 OA
ATOM     23  H   UNL     1       3.735 -23.817  -3.364  1.00  0.00     0.293 HD
ENDBRANCH   2  22
BRANCH   6  24
ATOM     24  O   UNL     1      -0.148 -21.162  -6.371  1.00  0.00    -0.507 OA
ATOM     25  H   UNL     1       0.331 -20.723  -7.142  1.00  0.00     0.293 HD
ENDBRANCH   6  24
BRANCH   8  26
ATOM     26  O   UNL     1      -3.500 -24.434  -7.348  1.00  0.00    -0.508 OA
ATOM     27  H   UNL     1      -4.138 -23.695  -7.621  1.00  0.00     0.293 HD
ENDBRANCH   8  26
TORSDOF 6
ENDMDL
MODEL 7
REMARK VINA RESULT:    -5.533      1.493      2.726
REMARK INTER + INTRA:          -6.920
REMARK INTER:                  -7.126
REMARK INTRA:                   0.205
REMARK UNBOUND:                -0.256
REMARK SMILES O=c1c(O)c(-c2ccc(O)c(O)c2)oc2cc(O)cc(O)c12
REMARK SMILES IDX 5 1 3 2 2 3 1 4 22 5 20 6 19 7 17 8 16 9 15 10 14 11 6 12
REMARK SMILES IDX 7 13 8 14 9 15 13 16 11 17 10 18 12 20 4 22 21 24 18 26
REMARK H PARENT 10 19 12 21 4 23 21 25 18 27
REMARK Flexibility Score: inf
ROOT
ATOM      1  C   UNL     1      -7.742 -14.039   4.769  1.00  0.00     0.180 A 
ATOM      2  C   UNL     1      -6.998 -13.257   3.870  1.00  0.00     0.208 A 
ATOM      3  C   UNL     1      -7.083 -13.531   2.496  1.00  0.00     0.238 A 
ATOM      4  O   UNL     1      -6.457 -12.793   1.692  1.00  0.00    -0.285 OA
ATOM      5  C   UNL     1      -7.898 -14.595   2.040  1.00  0.00     0.111 A 
ATOM      6  C   UNL     1      -8.028 -14.989   0.674  1.00  0.00     0.134 A 
ATOM      7  C   UNL     1      -8.962 -15.970   0.323  1.00  0.00     0.093 A 
ATOM      8  C   UNL     1      -9.723 -16.619   1.294  1.00  0.00     0.123 A 
ATOM      9  C   UNL     1      -9.562 -16.285   2.640  1.00  0.00     0.094 A 
ATOM     10  C   UNL     1      -8.664 -15.283   3.016  1.00  0.00     0.146 A 
ATOM     11  O   UNL     1      -8.547 -14.988   4.305  1.00  0.00    -0.452 OA
ENDROOT
BRANCH   1  12
ATOM     12  C   UNL     1      -7.684 -13.827   6.234  1.00  0.00     0.025 A 
ATOM     13  C   UNL     1      -8.812 -14.116   7.018  1.00  0.00     0.016 A 
ATOM     14  C   UNL     1      -8.775 -13.942   8.405  1.00  0.00     0.051 A 
ATOM     15  C   UNL     1      -7.603 -13.492   9.027  1.00  0.00     0.157 A 
ATOM     16  C   UNL     1      -6.505 -13.395   6.866  1.00  0.00     0.062 A 
ATOM     17  C   UNL     1      -6.465 -13.222   8.257  1.00  0.00     0.158 A 
BRANCH  15  18
ATOM     18  O   UNL     1      -7.561 -13.315  10.409  1.00  0.00    -0.504 OA
ATOM     19  H   UNL     1      -7.075 -13.968  11.012  1.00  0.00     0.293 HD
ENDBRANCH  15  18
BRANCH  17  20
ATOM     20  O   UNL     1      -5.296 -12.788   8.880  1.00  0.00    -0.504 OA
ATOM     21  H   UNL     1      -5.320 -12.270   9.750  1.00  0.00     0.293 HD
ENDBRANCH  17  20
ENDBRANCH   1  12
BRANCH   2  22
ATOM     22  O   UNL     1      -6.218 -12.197   4.340  1.00  0.00    -0.502 OA
ATOM     23  H   UNL     1      -6.622 -11.359   4.740  1.00  0.00     0.293 HD
ENDBRANCH   2  22
BRANCH   6  24
ATOM     24  O   UNL     1      -7.248 -14.469  -0.365  1.00  0.00    -0.507 OA
ATOM     25  H   UNL     1      -6.597 -15.005  -0.917  1.00  0.00     0.293 HD
ENDBRANCH   6  24
BRANCH   8  26
ATOM     26  O   UNL     1     -10.633 -17.603   0.911  1.00  0.00    -0.508 OA
ATOM     27  H   UNL     1     -10.325 -18.478   0.501  1.00  0.00     0.293 HD
ENDBRANCH   8  26
TORSDOF 6
ENDMDL
MODEL 8
REMARK VINA RESULT:    -5.341      1.844      7.091
REMARK INTER + INTRA:          -6.689
REMARK INTER:                  -6.590
REMARK INTRA:                  -0.099
REMARK UNBOUND:                -0.256
REMARK SMILES O=c1c(O)c(-c2ccc(O)c(O)c2)oc2cc(O)cc(O)c12
REMARK SMILES IDX 5 1 3 2 2 3 1 4 22 5 20 6 19 7 17 8 16 9 15 10 14 11 6 12
REMARK SMILES IDX 7 13 8 14 9 15 13 16 11 17 10 18 12 20 4 22 21 24 18 26
REMARK H PARENT 10 19 12 21 4 23 21 25 18 27
REMARK Flexibility Score: inf
ROOT
ATOM      1  C   UNL     1      -8.353 -14.639   3.696  1.00  0.00     0.180 A 
ATOM      2  C   UNL     1      -7.658 -13.439   3.467  1.00  0.00     0.208 A 
ATOM      3  C   UNL     1      -7.163 -12.719   4.565  1.00  0.00     0.238 A 
ATOM      4  O   UNL     1      -6.494 -11.674   4.351  1.00  0.00    -0.285 OA
ATOM      5  C   UNL     1      -7.384 -13.197   5.879  1.00  0.00     0.111 A 
ATOM      6  C   UNL     1      -6.963 -12.527   7.067  1.00  0.00     0.134 A 
ATOM      7  C   UNL     1      -7.120 -13.157   8.308  1.00  0.00     0.093 A 
ATOM      8  C   UNL     1      -7.741 -14.400   8.410  1.00  0.00     0.123 A 
ATOM      9  C   UNL     1      -8.211 -15.038   7.261  1.00  0.00     0.094 A 
ATOM     10  C   UNL     1      -8.035 -14.451   6.006  1.00  0.00     0.146 A 
ATOM     11  O   UNL     1      -8.487 -15.095   4.936  1.00  0.00    -0.452 OA
ENDROOT
BRANCH   1  12
ATOM     12  C   UNL     1      -8.926 -15.441   2.591  1.00  0.00     0.025 A 
ATOM     13  C   UNL     1     -10.314 -15.641   2.531  1.00  0.00     0.016 A 
ATOM     14  C   UNL     1     -10.879 -16.378   1.486  1.00  0.00     0.051 A 
ATOM     15  C   UNL     1     -10.065 -16.911   0.478  1.00  0.00     0.157 A 
ATOM     16  C   UNL     1      -8.116 -15.962   1.566  1.00  0.00     0.062 A 
ATOM     17  C   UNL     1      -8.681 -16.699   0.517  1.00  0.00     0.158 A 
BRANCH  15  18
ATOM     18  O   UNL     1     -10.624 -17.648  -0.564  1.00  0.00    -0.504 OA
ATOM     19  H   UNL     1     -11.230 -18.440  -0.389  1.00  0.00     0.293 HD
ENDBRANCH  15  18
BRANCH  17  20
ATOM     20  O   UNL     1      -7.875 -17.220  -0.495  1.00  0.00    -0.504 OA
ATOM     21  H   UNL     1      -7.365 -16.617  -1.129  1.00  0.00     0.293 HD
ENDBRANCH  17  20
ENDBRANCH   1  12
BRANCH   2  22
ATOM     22  O   UNL     1      -7.431 -12.997   2.161  1.00  0.00    -0.502 OA
ATOM     23  H   UNL     1      -7.715 -13.532   1.348  1.00  0.00     0.293 HD
ENDBRANCH   2  22
BRANCH   6  24
ATOM     24  O   UNL     1      -6.414 -11.241   7.085  1.00  0.00    -0.507 OA
ATOM     25  H   UNL     1      -5.427 -11.037   7.064  1.00  0.00     0.293 HD
ENDBRANCH   6  24
BRANCH   8  26
ATOM     26  O   UNL     1      -7.895 -14.990   9.664  1.00  0.00    -0.508 OA
ATOM     27  H   UNL     1      -7.885 -15.997   9.780  1.00  0.00     0.293 HD
ENDBRANCH   8  26
TORSDOF 6
ENDMDL
MODEL 9
REMARK VINA RESULT:    -5.335     12.941     14.024
REMARK INTER + INTRA:          -6.682
REMARK INTER:                  -6.359
REMARK INTRA:                  -0.323
REMARK UNBOUND:                -0.256
REMARK SMILES O=c1c(O)c(-c2ccc(O)c(O)c2)oc2cc(O)cc(O)c12
REMARK SMILES IDX 5 1 3 2 2 3 1 4 22 5 20 6 19 7 17 8 16 9 15 10 14 11 6 12
REMARK SMILES IDX 7 13 8 14 9 15 13 16 11 17 10 18 12 20 4 22 21 24 18 26
REMARK H PARENT 10 19 12 21 4 23 21 25 18 27
REMARK Flexibility Score: inf
ROOT
ATOM      1  C   UNL     1       3.712 -16.498   0.055  1.00  0.00     0.180 A 
ATOM      2  C   UNL     1       2.359 -16.701  -0.268  1.00  0.00     0.208 A 
ATOM      3  C   UNL     1       1.818 -17.991  -0.155  1.00  0.00     0.238 A 
ATOM      4  O   UNL     1       0.593 -18.155  -0.392  1.00  0.00    -0.285 OA
ATOM      5  C   UNL     1       2.640 -19.066   0.262  1.00  0.00     0.111 A 
ATOM      6  C   UNL     1       2.207 -20.421   0.373  1.00  0.00     0.134 A 
ATOM      7  C   UNL     1       3.069 -21.379   0.920  1.00  0.00     0.093 A 
ATOM      8  C   UNL     1       4.368 -21.045   1.300  1.00  0.00     0.123 A 
ATOM      9  C   UNL     1       4.822 -19.735   1.141  1.00  0.00     0.094 A 
ATOM     10  C   UNL     1       3.973 -18.749   0.632  1.00  0.00     0.146 A 
ATOM     11  O   UNL     1       4.440 -17.513   0.505  1.00  0.00    -0.452 OA
ENDROOT
BRANCH   1  12
ATOM     12  C   UNL     1       4.360 -15.172  -0.064  1.00  0.00     0.025 A 
ATOM     13  C   UNL     1       4.951 -14.798  -1.281  1.00  0.00     0.016 A 
ATOM     14  C   UNL     1       5.551 -13.544  -1.422  1.00  0.00     0.051 A 
ATOM     15  C   UNL     1       5.554 -12.639  -0.352  1.00  0.00     0.157 A 
ATOM     16  C   UNL     1       4.349 -14.253   1.001  1.00  0.00     0.062 A 
ATOM     17  C   UNL     1       4.948 -12.993   0.860  1.00  0.00     0.158 A 
BRANCH  15  18
ATOM     18  O   UNL     1       6.153 -11.388  -0.487  1.00  0.00    -0.504 OA
ATOM     19  H   UNL     1       6.032 -10.830  -1.324  1.00  0.00     0.293 HD
ENDBRANCH  15  18
BRANCH  17  20
ATOM     20  O   UNL     1       4.941 -12.086   1.919  1.00  0.00    -0.504 OA
ATOM     21  H   UNL     1       5.186 -12.368   2.860  1.00  0.00     0.293 HD
ENDBRANCH  17  20
ENDBRANCH   1  12
BRANCH   2  22
ATOM     22  O   UNL     1       1.560 -15.622  -0.656  1.00  0.00    -0.502 OA
ATOM     23  H   UNL     1       0.994 -15.100   0.002  1.00  0.00     0.293 HD
ENDBRANCH   2  22
BRANCH   6  24
ATOM     24  O   UNL     1       0.960 -20.880  -0.063  1.00  0.00    -0.507 OA
ATOM     25  H   UNL     1       0.076 -20.462   0.181  1.00  0.00     0.293 HD
ENDBRANCH   6  24
BRANCH   8  26
ATOM     26  O   UNL     1       5.205 -22.028   1.827  1.00  0.00    -0.508 OA
ATOM     27  H   UNL     1       4.846 -22.934   2.106  1.00  0.00     0.293 HD
ENDBRANCH   8  26
TORSDOF 6
ENDMDL
