MODEL 1
REMARK VINA RESULT:    -3.954      0.000      0.000
REMARK INTER + INTRA:         -10.249
REMARK INTER:                  -7.421
REMARK INTRA:                  -2.827
REMARK UNBOUND:                -2.827
REMARK SMILES CCCCCCCCC=CCCCCCCCC(=O)[O-]
REMARK SMILES IDX 10 1 9 2 11 3 12 4 13 5 14 6 15 7 16 8 17 9 18 10 19 11
REMARK SMILES IDX 20 12 8 13 7 14 6 15 5 16 4 17 3 18 2 19 1 20
REMARK H PARENT
REMARK Flexibility Score: inf
ROOT
ATOM      1  C   UNL     1      -3.888  -3.104  -4.121  1.00  0.00    -0.031 C 
ATOM      2  C   UNL     1      -2.906  -2.339  -4.636  1.00  0.00    -0.031 C 
ENDROOT
BRANCH   1   3
ATOM      3  C   UNL     1      -4.856  -3.943  -4.922  1.00  0.00     0.027 C 
BRANCH   3   4
ATOM      4  C   UNL     1      -4.395  -5.406  -5.038  1.00  0.00     0.004 C 
BRANCH   4   5
ATOM      5  C   UNL     1      -4.025  -5.859  -6.462  1.00  0.00     0.000 C 
BRANCH   5   6
ATOM      6  C   UNL     1      -2.517  -5.770  -6.748  1.00  0.00     0.000 C 
BRANCH   6   7
ATOM      7  C   UNL     1      -1.705  -6.429  -5.624  1.00  0.00     0.000 C 
BRANCH   7   8
ATOM      8  C   UNL     1      -0.761  -5.441  -4.919  1.00  0.00     0.006 C 
BRANCH   8   9
ATOM      9  C   UNL     1      -0.999  -5.375  -3.405  1.00  0.00     0.053 C 
BRANCH   9  10
ATOM     10  C   UNL     1       0.009  -6.211  -2.681  1.00  0.00     0.041 C 
ATOM     11  O   UNL     1      -0.261  -6.691  -1.548  1.00  0.00    -0.550 OA
ATOM     12  O   UNL     1       1.234  -6.494  -3.275  1.00  0.00    -0.550 OA
ENDBRANCH   9  10
ENDBRANCH   8   9
ENDBRANCH   7   8
ENDBRANCH   6   7
ENDBRANCH   5   6
ENDBRANCH   4   5
ENDBRANCH   3   4
ENDBRANCH   1   3
BRANCH   2  13
ATOM     13  C   UNL     1      -2.618  -2.166  -6.107  1.00  0.00     0.027 C 
BRANCH  13  14
ATOM     14  C   UNL     1      -3.620  -1.210  -6.766  1.00  0.00     0.004 C 
BRANCH  14  15
ATOM     15  C   UNL     1      -3.186   0.252  -6.582  1.00  0.00     0.000 C 
BRANCH  15  16
ATOM     16  C   UNL     1      -4.282   1.123  -5.948  1.00  0.00     0.000 C 
BRANCH  16  17
ATOM     17  C   UNL     1      -5.548   0.324  -5.591  1.00  0.00    -0.000 C 
BRANCH  17  18
ATOM     18  C   UNL     1      -5.777   0.238  -4.073  1.00  0.00    -0.000 C 
BRANCH  18  19
ATOM     19  C   UNL     1      -6.751  -0.888  -3.689  1.00  0.00    -0.003 C 
ATOM     20  C   UNL     1      -7.531  -1.378  -4.907  1.00  0.00     0.004 C 
ENDBRANCH  18  19
ENDBRANCH  17  18
ENDBRANCH  16  17
ENDBRANCH  15  16
ENDBRANCH  14  15
ENDBRANCH  13  14
ENDBRANCH   2  13
TORSDOF 15
ENDMDL
MODEL 2
REMARK VINA RESULT:    -3.752      6.219      9.361
REMARK INTER + INTRA:          -9.870
REMARK INTER:                  -9.178
REMARK INTRA:                  -0.692
REMARK UNBOUND:                -2.827
REMARK SMILES CCCCCCCCC=CCCCCCCCC(=O)[O-]
REMARK SMILES IDX 10 1 9 2 11 3 12 4 13 5 14 6 15 7 16 8 17 9 18 10 19 11
REMARK SMILES IDX 20 12 8 13 7 14 6 15 5 16 4 17 3 18 2 19 1 20
REMARK H PARENT
REMARK Flexibility Score: inf
ROOT
ATOM      1  C   UNL     1       1.610  -8.630  -0.199  1.00  0.00    -0.031 C 
ATOM      2  C   UNL     1       0.957  -7.875  -1.103  1.00  0.00    -0.031 C 
ENDROOT
BRANCH   1   3
ATOM      3  C   UNL     1       3.020  -8.389   0.289  1.00  0.00     0.027 C 
BRANCH   3   4
ATOM      4  C   UNL     1       3.089  -8.261   1.820  1.00  0.00     0.004 C 
BRANCH   4   5
ATOM      5  C   UNL     1       2.064  -9.115   2.589  1.00  0.00     0.000 C 
BRANCH   5   6
ATOM      6  C   UNL     1       2.308  -9.125   4.106  1.00  0.00     0.000 C 
BRANCH   6   7
ATOM      7  C   UNL     1       0.981  -9.071   4.877  1.00  0.00     0.000 C 
BRANCH   7   8
ATOM      8  C   UNL     1       1.096  -8.297   6.199  1.00  0.00     0.006 C 
BRANCH   8   9
ATOM      9  C   UNL     1      -0.270  -8.000   6.830  1.00  0.00     0.053 C 
BRANCH   9  10
ATOM     10  C   UNL     1      -0.098  -7.376   8.180  1.00  0.00     0.041 C 
ATOM     11  O   UNL     1      -0.945  -7.585   9.088  1.00  0.00    -0.550 OA
ATOM     12  O   UNL     1       1.020  -6.593   8.447  1.00  0.00    -0.550 OA
ENDBRANCH   9  10
ENDBRANCH   8   9
ENDBRANCH   7   8
ENDBRANCH   6   7
ENDBRANCH   5   6
ENDBRANCH   4   5
ENDBRANCH   3   4
ENDBRANCH   1   3
BRANCH   2  13
ATOM     13  C   UNL     1       1.531  -6.672  -1.810  1.00  0.00     0.027 C 
BRANCH  13  14
ATOM     14  C   UNL     1       1.019  -6.570  -3.253  1.00  0.00     0.004 C 
BRANCH  14  15
ATOM     15  C   UNL     1      -0.372  -5.919  -3.296  1.00  0.00     0.000 C 
BRANCH  15  16
ATOM     16  C   UNL     1      -1.444  -6.846  -3.890  1.00  0.00     0.000 C 
BRANCH  16  17
ATOM     17  C   UNL     1      -2.799  -6.144  -4.085  1.00  0.00    -0.000 C 
BRANCH  17  18
ATOM     18  C   UNL     1      -2.679  -4.861  -4.925  1.00  0.00    -0.000 C 
BRANCH  18  19
ATOM     19  C   UNL     1      -3.054  -3.600  -4.130  1.00  0.00    -0.003 C 
ATOM     20  C   UNL     1      -4.409  -3.054  -4.574  1.00  0.00     0.004 C 
ENDBRANCH  18  19
ENDBRANCH  17  18
ENDBRANCH  16  17
ENDBRANCH  15  16
ENDBRANCH  14  15
ENDBRANCH  13  14
ENDBRANCH   2  13
TORSDOF 15
ENDMDL
MODEL 3
REMARK VINA RESULT:    -3.719      1.100      2.545
REMARK INTER + INTRA:          -9.808
REMARK INTER:                  -7.565
REMARK INTRA:                  -2.243
REMARK UNBOUND:                -2.827
REMARK SMILES CCCCCCCCC=CCCCCCCCC(=O)[O-]
REMARK SMILES IDX 10 1 9 2 11 3 12 4 13 5 14 6 15 7 16 8 17 9 18 10 19 11
REMARK SMILES IDX 20 12 8 13 7 14 6 15 5 16 4 17 3 18 2 19 1 20
REMARK H PARENT
REMARK Flexibility Score: inf
ROOT
ATOM      1  C   UNL     1      -2.951  -1.510  -6.467  1.00  0.00    -0.031 C 
ATOM      2  C   UNL     1      -3.578  -0.458  -7.028  1.00  0.00    -0.031 C 
ENDROOT
BRANCH   1   3
ATOM      3  C   UNL     1      -2.530  -1.611  -5.019  1.00  0.00     0.027 C 
BRANCH   3   4
ATOM      4  C   UNL     1      -2.940  -2.953  -4.390  1.00  0.00     0.004 C 
BRANCH   4   5
ATOM      5  C   UNL     1      -4.257  -3.545  -4.925  1.00  0.00     0.000 C 
BRANCH   5   6
ATOM      6  C   UNL     1      -4.090  -4.960  -5.501  1.00  0.00     0.000 C 
BRANCH   6   7
ATOM      7  C   UNL     1      -3.832  -5.981  -4.383  1.00  0.00     0.000 C 
BRANCH   7   8
ATOM      8  C   UNL     1      -2.457  -6.657  -4.506  1.00  0.00     0.006 C 
BRANCH   8   9
ATOM      9  C   UNL     1      -1.641  -6.573  -3.209  1.00  0.00     0.053 C 
BRANCH   9  10
ATOM     10  C   UNL     1      -0.398  -5.767  -3.424  1.00  0.00     0.041 C 
ATOM     11  O   UNL     1       0.437  -5.629  -2.492  1.00  0.00    -0.550 OA
ATOM     12  O   UNL     1      -0.143  -5.201  -4.668  1.00  0.00    -0.550 OA
ENDBRANCH   9  10
ENDBRANCH   8   9
ENDBRANCH   7   8
ENDBRANCH   6   7
ENDBRANCH   5   6
ENDBRANCH   4   5
ENDBRANCH   3   4
ENDBRANCH   1   3
BRANCH   2  13
ATOM     13  C   UNL     1      -3.945   0.818  -6.312  1.00  0.00     0.027 C 
BRANCH  13  14
ATOM     14  C   UNL     1      -5.457   1.078  -6.367  1.00  0.00     0.004 C 
BRANCH  14  15
ATOM     15  C   UNL     1      -6.033   1.264  -4.955  1.00  0.00     0.000 C 
BRANCH  15  16
ATOM     16  C   UNL     1      -5.563   0.179  -3.973  1.00  0.00     0.000 C 
BRANCH  16  17
ATOM     17  C   UNL     1      -6.622  -0.912  -3.737  1.00  0.00    -0.000 C 
BRANCH  17  18
ATOM     18  C   UNL     1      -8.026  -0.472  -4.187  1.00  0.00    -0.000 C 
BRANCH  18  19
ATOM     19  C   UNL     1      -8.618  -1.402  -5.258  1.00  0.00    -0.003 C 
ATOM     20  C   UNL     1      -7.516  -2.155  -6.001  1.00  0.00     0.004 C 
ENDBRANCH  18  19
ENDBRANCH  17  18
ENDBRANCH  16  17
ENDBRANCH  15  16
ENDBRANCH  14  15
ENDBRANCH  13  14
ENDBRANCH   2  13
TORSDOF 15
ENDMDL
MODEL 4
REMARK VINA RESULT:    -3.709      1.389      2.965
REMARK INTER + INTRA:          -9.788
REMARK INTER:                  -7.734
REMARK INTRA:                  -2.054
REMARK UNBOUND:                -2.827
REMARK SMILES CCCCCCCCC=CCCCCCCCC(=O)[O-]
REMARK SMILES IDX 10 1 9 2 11 3 12 4 13 5 14 6 15 7 16 8 17 9 18 10 19 11
REMARK SMILES IDX 20 12 8 13 7 14 6 15 5 16 4 17 3 18 2 19 1 20
REMARK H PARENT
REMARK Flexibility Score: inf
ROOT
ATOM      1  C   UNL     1      -2.880  -1.257  -6.639  1.00  0.00    -0.031 C 
ATOM      2  C   UNL     1      -3.554  -0.145  -6.993  1.00  0.00    -0.031 C 
ENDROOT
BRANCH   1   3
ATOM      3  C   UNL     1      -2.508  -1.644  -5.226  1.00  0.00     0.027 C 
BRANCH   3   4
ATOM      4  C   UNL     1      -2.450  -3.170  -5.041  1.00  0.00     0.004 C 
BRANCH   4   5
ATOM      5  C   UNL     1      -1.480  -3.901  -5.988  1.00  0.00     0.000 C 
BRANCH   5   6
ATOM      6  C   UNL     1      -0.591  -4.925  -5.264  1.00  0.00     0.000 C 
BRANCH   6   7
ATOM      7  C   UNL     1      -1.414  -5.767  -4.278  1.00  0.00     0.000 C 
BRANCH   7   8
ATOM      8  C   UNL     1      -0.829  -5.755  -2.858  1.00  0.00     0.006 C 
BRANCH   8   9
ATOM      9  C   UNL     1      -0.696  -7.163  -2.262  1.00  0.00     0.053 C 
BRANCH   9  10
ATOM     10  C   UNL     1       0.618  -7.312  -1.562  1.00  0.00     0.041 C 
ATOM     11  O   UNL     1       1.467  -6.383  -1.603  1.00  0.00    -0.550 OA
ATOM     12  O   UNL     1       0.889  -8.462  -0.829  1.00  0.00    -0.550 OA
ENDBRANCH   9  10
ENDBRANCH   8   9
ENDBRANCH   7   8
ENDBRANCH   6   7
ENDBRANCH   5   6
ENDBRANCH   4   5
ENDBRANCH   3   4
ENDBRANCH   1   3
BRANCH   2  13
ATOM     13  C   UNL     1      -4.032   0.923  -6.040  1.00  0.00     0.027 C 
BRANCH  13  14
ATOM     14  C   UNL     1      -5.475   0.666  -5.586  1.00  0.00     0.004 C 
BRANCH  14  15
ATOM     15  C   UNL     1      -5.509   0.146  -4.140  1.00  0.00     0.000 C 
BRANCH  15  16
ATOM     16  C   UNL     1      -6.041  -1.293  -4.039  1.00  0.00     0.000 C 
BRANCH  16  17
ATOM     17  C   UNL     1      -7.393  -1.482  -4.750  1.00  0.00    -0.000 C 
BRANCH  17  18
ATOM     18  C   UNL     1      -7.390  -2.689  -5.703  1.00  0.00    -0.000 C 
BRANCH  18  19
ATOM     19  C   UNL     1      -6.072  -3.478  -5.648  1.00  0.00    -0.003 C 
ATOM     20  C   UNL     1      -5.545  -3.766  -7.052  1.00  0.00     0.004 C 
ENDBRANCH  18  19
ENDBRANCH  17  18
ENDBRANCH  16  17
ENDBRANCH  15  16
ENDBRANCH  14  15
ENDBRANCH  13  14
ENDBRANCH   2  13
TORSDOF 15
ENDMDL
MODEL 5
REMARK VINA RESULT:    -3.643     11.272     13.703
REMARK INTER + INTRA:          -9.665
REMARK INTER:                  -7.593
REMARK INTRA:                  -2.072
REMARK UNBOUND:                -2.827
REMARK SMILES CCCCCCCCC=CCCCCCCCC(=O)[O-]
REMARK SMILES IDX 10 1 9 2 11 3 12 4 13 5 14 6 15 7 16 8 17 9 18 10 19 11
REMARK SMILES IDX 20 12 8 13 7 14 6 15 5 16 4 17 3 18 2 19 1 20
REMARK H PARENT
REMARK Flexibility Score: inf
ROOT
ATOM      1  C   UNL     1       1.047   8.443  -5.439  1.00  0.00    -0.031 C 
ATOM      2  C   UNL     1       0.502   8.494  -4.209  1.00  0.00    -0.031 C 
ENDROOT
BRANCH   1   3
ATOM      3  C   UNL     1       2.158   9.334  -5.944  1.00  0.00     0.027 C 
BRANCH   3   4
ATOM      4  C   UNL     1       3.412   8.532  -6.332  1.00  0.00     0.004 C 
BRANCH   4   5
ATOM      5  C   UNL     1       3.552   7.169  -5.631  1.00  0.00     0.000 C 
BRANCH   5   6
ATOM      6  C   UNL     1       4.120   6.076  -6.550  1.00  0.00     0.000 C 
BRANCH   6   7
ATOM      7  C   UNL     1       5.654   6.117  -6.572  1.00  0.00     0.000 C 
BRANCH   7   8
ATOM      8  C   UNL     1       6.286   5.162  -5.547  1.00  0.00     0.006 C 
BRANCH   8   9
ATOM      9  C   UNL     1       5.721   3.738  -5.641  1.00  0.00     0.053 C 
BRANCH   9  10
ATOM     10  C   UNL     1       6.026   2.972  -4.392  1.00  0.00     0.041 C 
ATOM     11  O   UNL     1       5.723   1.752  -4.307  1.00  0.00    -0.550 OA
ATOM     12  O   UNL     1       6.680   3.595  -3.335  1.00  0.00    -0.550 OA
ENDBRANCH   9  10
ENDBRANCH   8   9
ENDBRANCH   7   8
ENDBRANCH   6   7
ENDBRANCH   5   6
ENDBRANCH   4   5
ENDBRANCH   3   4
ENDBRANCH   1   3
BRANCH   2  13
ATOM     13  C   UNL     1       0.888   9.471  -3.126  1.00  0.00     0.027 C 
BRANCH  13  14
ATOM     14  C   UNL     1       2.024   8.922  -2.253  1.00  0.00     0.004 C 
BRANCH  14  15
ATOM     15  C   UNL     1       2.700  10.052  -1.459  1.00  0.00     0.000 C 
BRANCH  15  16
ATOM     16  C   UNL     1       4.216  10.121  -1.698  1.00  0.00     0.000 C 
BRANCH  16  17
ATOM     17  C   UNL     1       4.672   9.265  -2.893  1.00  0.00    -0.000 C 
BRANCH  17  18
ATOM     18  C   UNL     1       5.960   9.803  -3.540  1.00  0.00    -0.000 C 
BRANCH  18  19
ATOM     19  C   UNL     1       6.827   8.684  -4.140  1.00  0.00    -0.003 C 
ATOM     20  C   UNL     1       8.058   9.259  -4.838  1.00  0.00     0.004 C 
ENDBRANCH  18  19
ENDBRANCH  17  18
ENDBRANCH  16  17
ENDBRANCH  15  16
ENDBRANCH  14  15
ENDBRANCH  13  14
ENDBRANCH   2  13
TORSDOF 15
ENDMDL
MODEL 6
REMARK VINA RESULT:    -3.579      1.784      3.756
REMARK INTER + INTRA:          -9.545
REMARK INTER:                  -7.311
REMARK INTRA:                  -2.234
REMARK UNBOUND:                -2.827
REMARK SMILES CCCCCCCCC=CCCCCCCCC(=O)[O-]
REMARK SMILES IDX 10 1 9 2 11 3 12 4 13 5 14 6 15 7 16 8 17 9 18 10 19 11
REMARK SMILES IDX 20 12 8 13 7 14 6 15 5 16 4 17 3 18 2 19 1 20
REMARK H PARENT
REMARK Flexibility Score: inf
ROOT
ATOM      1  C   UNL     1      -4.940   0.040  -4.658  1.00  0.00    -0.031 C 
ATOM      2  C   UNL     1      -5.847  -0.797  -4.119  1.00  0.00    -0.031 C 
ENDROOT
BRANCH   1   3
ATOM      3  C   UNL     1      -4.469   0.015  -6.094  1.00  0.00     0.027 C 
BRANCH   3   4
ATOM      4  C   UNL     1      -3.032  -0.517  -6.222  1.00  0.00     0.004 C 
BRANCH   4   5
ATOM      5  C   UNL     1      -2.911  -2.051  -6.283  1.00  0.00     0.000 C 
BRANCH   5   6
ATOM      6  C   UNL     1      -2.493  -2.675  -4.942  1.00  0.00     0.000 C 
BRANCH   6   7
ATOM      7  C   UNL     1      -3.453  -3.804  -4.539  1.00  0.00     0.000 C 
BRANCH   7   8
ATOM      8  C   UNL     1      -2.746  -5.163  -4.414  1.00  0.00     0.006 C 
BRANCH   8   9
ATOM      9  C   UNL     1      -1.244  -5.077  -4.715  1.00  0.00     0.053 C 
BRANCH   9  10
ATOM     10  C   UNL     1      -0.459  -5.808  -3.671  1.00  0.00     0.041 C 
ATOM     11  O   UNL     1      -0.545  -5.470  -2.461  1.00  0.00    -0.550 OA
ATOM     12  O   UNL     1       0.338  -6.890  -4.030  1.00  0.00    -0.550 OA
ENDBRANCH   9  10
ENDBRANCH   8   9
ENDBRANCH   7   8
ENDBRANCH   6   7
ENDBRANCH   5   6
ENDBRANCH   4   5
ENDBRANCH   3   4
ENDBRANCH   1   3
BRANCH   2  13
ATOM     13  C   UNL     1      -6.531  -1.926  -4.849  1.00  0.00     0.027 C 
BRANCH  13  14
ATOM     14  C   UNL     1      -8.003  -1.599  -5.137  1.00  0.00     0.004 C 
BRANCH  14  15
ATOM     15  C   UNL     1      -8.529  -0.536  -4.160  1.00  0.00     0.000 C 
BRANCH  15  16
ATOM     16  C   UNL     1      -9.441   0.497  -4.840  1.00  0.00     0.000 C 
BRANCH  16  17
ATOM     17  C   UNL     1      -8.659   1.670  -5.458  1.00  0.00    -0.000 C 
BRANCH  17  18
ATOM     18  C   UNL     1      -7.869   2.465  -4.405  1.00  0.00    -0.000 C 
BRANCH  18  19
ATOM     19  C   UNL     1      -6.598   3.108  -4.986  1.00  0.00    -0.003 C 
ATOM     20  C   UNL     1      -6.612   3.067  -6.512  1.00  0.00     0.004 C 
ENDBRANCH  18  19
ENDBRANCH  17  18
ENDBRANCH  16  17
ENDBRANCH  15  16
ENDBRANCH  14  15
ENDBRANCH  13  14
ENDBRANCH   2  13
TORSDOF 15
ENDMDL
MODEL 7
REMARK VINA RESULT:    -3.534     11.760     13.969
REMARK INTER + INTRA:          -9.460
REMARK INTER:                  -7.261
REMARK INTRA:                  -2.198
REMARK UNBOUND:                -2.827
REMARK SMILES CCCCCCCCC=CCCCCCCCC(=O)[O-]
REMARK SMILES IDX 10 1 9 2 11 3 12 4 13 5 14 6 15 7 16 8 17 9 18 10 19 11
REMARK SMILES IDX 20 12 8 13 7 14 6 15 5 16 4 17 3 18 2 19 1 20
REMARK H PARENT
REMARK Flexibility Score: inf
ROOT
ATOM      1  C   UNL     1       3.955   7.321  -5.682  1.00  0.00    -0.031 C 
ATOM      2  C   UNL     1       2.789   7.652  -6.270  1.00  0.00    -0.031 C 
ENDROOT
BRANCH   1   3
ATOM      3  C   UNL     1       4.513   7.950  -4.427  1.00  0.00     0.027 C 
BRANCH   3   4
ATOM      4  C   UNL     1       5.599   8.994  -4.736  1.00  0.00     0.004 C 
BRANCH   4   5
ATOM      5  C   UNL     1       6.857   8.903  -3.853  1.00  0.00     0.000 C 
BRANCH   5   6
ATOM      6  C   UNL     1       8.014   8.152  -4.532  1.00  0.00     0.000 C 
BRANCH   6   7
ATOM      7  C   UNL     1       8.182   6.747  -3.936  1.00  0.00     0.000 C 
BRANCH   7   8
ATOM      8  C   UNL     1       8.159   5.645  -5.007  1.00  0.00     0.006 C 
BRANCH   8   9
ATOM      9  C   UNL     1       6.764   5.037  -5.199  1.00  0.00     0.053 C 
BRANCH   9  10
ATOM     10  C   UNL     1       6.687   3.690  -4.552  1.00  0.00     0.041 C 
ATOM     11  O   UNL     1       6.785   3.581  -3.301  1.00  0.00    -0.550 OA
ATOM     12  O   UNL     1       6.468   2.556  -5.327  1.00  0.00    -0.550 OA
ENDBRANCH   9  10
ENDBRANCH   8   9
ENDBRANCH   7   8
ENDBRANCH   6   7
ENDBRANCH   5   6
ENDBRANCH   4   5
ENDBRANCH   3   4
ENDBRANCH   1   3
BRANCH   2  13
ATOM     13  C   UNL     1       1.848   8.730  -5.791  1.00  0.00     0.027 C 
BRANCH  13  14
ATOM     14  C   UNL     1       0.504   8.143  -5.340  1.00  0.00     0.004 C 
BRANCH  14  15
ATOM     15  C   UNL     1       0.087   8.714  -3.976  1.00  0.00     0.000 C 
BRANCH  15  16
ATOM     16  C   UNL     1       1.276   8.902  -3.021  1.00  0.00     0.000 C 
BRANCH  16  17
ATOM     17  C   UNL     1       1.428  10.354  -2.534  1.00  0.00    -0.000 C 
BRANCH  17  18
ATOM     18  C   UNL     1       2.893  10.822  -2.536  1.00  0.00    -0.000 C 
BRANCH  18  19
ATOM     19  C   UNL     1       3.751  10.076  -1.502  1.00  0.00    -0.003 C 
ATOM     20  C   UNL     1       5.029  10.850  -1.188  1.00  0.00     0.004 C 
ENDBRANCH  18  19
ENDBRANCH  17  18
ENDBRANCH  16  17
ENDBRANCH  15  16
ENDBRANCH  14  15
ENDBRANCH  13  14
ENDBRANCH   2  13
TORSDOF 15
ENDMDL
MODEL 8
REMARK VINA RESULT:    -3.495      1.750      3.673
REMARK INTER + INTRA:          -9.388
REMARK INTER:                  -7.509
REMARK INTRA:                  -1.879
REMARK UNBOUND:                -2.827
REMARK SMILES CCCCCCCCC=CCCCCCCCC(=O)[O-]
REMARK SMILES IDX 10 1 9 2 11 3 12 4 13 5 14 6 15 7 16 8 17 9 18 10 19 11
REMARK SMILES IDX 20 12 8 13 7 14 6 15 5 16 4 17 3 18 2 19 1 20
REMARK H PARENT
REMARK Flexibility Score: inf
ROOT
ATOM      1  C   UNL     1      -4.367   0.627  -6.187  1.00  0.00    -0.031 C 
ATOM      2  C   UNL     1      -5.065   1.763  -5.994  1.00  0.00    -0.031 C 
ENDROOT
BRANCH   1   3
ATOM      3  C   UNL     1      -4.149  -0.454  -5.154  1.00  0.00     0.027 C 
BRANCH   3   4
ATOM      4  C   UNL     1      -2.856  -1.247  -5.411  1.00  0.00     0.004 C 
BRANCH   4   5
ATOM      5  C   UNL     1      -2.699  -2.523  -4.564  1.00  0.00     0.000 C 
BRANCH   5   6
ATOM      6  C   UNL     1      -3.982  -3.367  -4.506  1.00  0.00     0.000 C 
BRANCH   6   7
ATOM      7  C   UNL     1      -3.653  -4.867  -4.501  1.00  0.00     0.000 C 
BRANCH   7   8
ATOM      8  C   UNL     1      -2.150  -5.143  -4.662  1.00  0.00     0.006 C 
BRANCH   8   9
ATOM      9  C   UNL     1      -1.573  -5.964  -3.501  1.00  0.00     0.053 C 
BRANCH   9  10
ATOM     10  C   UNL     1      -0.084  -5.821  -3.449  1.00  0.00     0.041 C 
ATOM     11  O   UNL     1       0.591  -5.828  -4.513  1.00  0.00    -0.550 OA
ATOM     12  O   UNL     1       0.556  -5.641  -2.228  1.00  0.00    -0.550 OA
ENDBRANCH   9  10
ENDBRANCH   8   9
ENDBRANCH   7   8
ENDBRANCH   6   7
ENDBRANCH   5   6
ENDBRANCH   4   5
ENDBRANCH   3   4
ENDBRANCH   1   3
BRANCH   2  13
ATOM     13  C   UNL     1      -5.728   2.168  -4.700  1.00  0.00     0.027 C 
BRANCH  13  14
ATOM     14  C   UNL     1      -6.944   3.069  -4.950  1.00  0.00     0.004 C 
BRANCH  14  15
ATOM     15  C   UNL     1      -8.081   2.281  -5.620  1.00  0.00     0.000 C 
BRANCH  15  16
ATOM     16  C   UNL     1      -9.108   1.745  -4.611  1.00  0.00     0.000 C 
BRANCH  16  17
ATOM     17  C   UNL     1      -9.229   0.211  -4.640  1.00  0.00    -0.000 C 
BRANCH  17  18
ATOM     18  C   UNL     1      -7.971  -0.486  -4.092  1.00  0.00    -0.000 C 
BRANCH  18  19
ATOM     19  C   UNL     1      -7.528  -1.670  -4.967  1.00  0.00    -0.003 C 
ATOM     20  C   UNL     1      -7.580  -1.307  -6.449  1.00  0.00     0.004 C 
ENDBRANCH  18  19
ENDBRANCH  17  18
ENDBRANCH  16  17
ENDBRANCH  15  16
ENDBRANCH  14  15
ENDBRANCH  13  14
ENDBRANCH   2  13
TORSDOF 15
ENDMDL
MODEL 9
REMARK VINA RESULT:    -3.467      6.951     10.858
REMARK INTER + INTRA:          -9.335
REMARK INTER:                  -8.247
REMARK INTRA:                  -1.088
REMARK UNBOUND:                -2.827
REMARK SMILES CCCCCCCCC=CCCCCCCCC(=O)[O-]
REMARK SMILES IDX 10 1 9 2 11 3 12 4 13 5 14 6 15 7 16 8 17 9 18 10 19 11
REMARK SMILES IDX 20 12 8 13 7 14 6 15 5 16 4 17 3 18 2 19 1 20
REMARK H PARENT
REMARK Flexibility Score: inf
ROOT
ATOM      1  C   UNL     1       2.729  -7.650   1.111  1.00  0.00    -0.031 C 
ATOM      2  C   UNL     1       2.256  -7.630  -0.150  1.00  0.00    -0.031 C 
ENDROOT
BRANCH   1   3
ATOM      3  C   UNL     1       3.788  -8.592   1.635  1.00  0.00     0.027 C 
BRANCH   3   4
ATOM      4  C   UNL     1       3.479  -9.072   3.064  1.00  0.00     0.004 C 
BRANCH   4   5
ATOM      5  C   UNL     1       1.983  -9.117   3.423  1.00  0.00     0.000 C 
BRANCH   5   6
ATOM      6  C   UNL     1       1.729  -9.125   4.940  1.00  0.00     0.000 C 
BRANCH   6   7
ATOM      7  C   UNL     1       0.313  -8.626   5.263  1.00  0.00     0.000 C 
BRANCH   7   8
ATOM      8  C   UNL     1       0.164  -8.177   6.725  1.00  0.00     0.006 C 
BRANCH   8   9
ATOM      9  C   UNL     1       1.506  -8.124   7.466  1.00  0.00     0.053 C 
BRANCH   9  10
ATOM     10  C   UNL     1       1.307  -8.382   8.927  1.00  0.00     0.041 C 
ATOM     11  O   UNL     1       2.218  -8.102   9.750  1.00  0.00    -0.550 OA
ATOM     12  O   UNL     1       0.098  -8.896   9.384  1.00  0.00    -0.550 OA
ENDBRANCH   9  10
ENDBRANCH   8   9
ENDBRANCH   7   8
ENDBRANCH   6   7
ENDBRANCH   5   6
ENDBRANCH   4   5
ENDBRANCH   3   4
ENDBRANCH   1   3
BRANCH   2  13
ATOM     13  C   UNL     1       2.682  -8.565  -1.254  1.00  0.00     0.027 C 
BRANCH  13  14
ATOM     14  C   UNL     1       1.599  -8.691  -2.333  1.00  0.00     0.004 C 
BRANCH  14  15
ATOM     15  C   UNL     1       0.240  -8.206  -1.805  1.00  0.00     0.000 C 
BRANCH  15  16
ATOM     16  C   UNL     1      -0.611  -7.525  -2.889  1.00  0.00     0.000 C 
BRANCH  16  17
ATOM     17  C   UNL     1      -0.128  -6.103  -3.222  1.00  0.00    -0.000 C 
BRANCH  17  18
ATOM     18  C   UNL     1       0.037  -5.879  -4.735  1.00  0.00    -0.000 C 
BRANCH  18  19
ATOM     19  C   UNL     1       1.426  -6.297  -5.243  1.00  0.00    -0.003 C 
ATOM     20  C   UNL     1       1.607  -5.927  -6.714  1.00  0.00     0.004 C 
ENDBRANCH  18  19
ENDBRANCH  17  18
ENDBRANCH  16  17
ENDBRANCH  15  16
ENDBRANCH  14  15
ENDBRANCH  13  14
ENDBRANCH   2  13
TORSDOF 15
ENDMDL
