MODEL 1
REMARK VINA RESULT:    13.974      0.000      0.000
REMARK INTER + INTRA:          23.359
REMARK INTER:                  23.777
REMARK INTRA:                  -0.418
REMARK UNBOUND:                -0.418
REMARK SMILES CCCCCCCCCCCCCC(=O)[O-]
REMARK SMILES IDX 8 1 9 2 10 3 11 4 12 5 13 6 14 7 15 8 16 9 7 10 6 11 5 12
REMARK SMILES IDX 4 13 3 14 2 15 1 16
REMARK H PARENT
REMARK Flexibility Score: inf
ROOT
ATOM      1  C   UNL     1      -6.169 -11.330  24.017  1.00  0.00     0.000 C 
ENDROOT
BRANCH   1   2
ATOM      2  C   UNL     1      -6.550 -12.559  24.856  1.00  0.00     0.000 C 
BRANCH   2   3
ATOM      3  C   UNL     1      -5.496 -13.665  24.720  1.00  0.00     0.000 C 
BRANCH   3   4
ATOM      4  C   UNL     1      -5.376 -14.474  26.021  1.00  0.00     0.000 C 
BRANCH   4   5
ATOM      5  C   UNL     1      -4.466 -15.708  25.875  1.00  0.00     0.006 C 
BRANCH   5   6
ATOM      6  C   UNL     1      -5.207 -17.053  25.951  1.00  0.00     0.053 C 
BRANCH   6   7
ATOM      7  C   UNL     1      -5.091 -17.829  24.676  1.00  0.00     0.041 C 
ATOM      8  O   UNL     1      -4.345 -17.416  23.749  1.00  0.00    -0.550 OA
ATOM      9  O   UNL     1      -5.832 -18.990  24.498  1.00  0.00    -0.550 OA
ENDBRANCH   6   7
ENDBRANCH   5   6
ENDBRANCH   4   5
ENDBRANCH   3   4
ENDBRANCH   2   3
ENDBRANCH   1   2
BRANCH   1  10
ATOM     10  C   UNL     1      -5.798 -10.113  24.879  1.00  0.00     0.000 C 
BRANCH  10  11
ATOM     11  C   UNL     1      -4.850  -9.143  24.152  1.00  0.00    -0.000 C 
BRANCH  11  12
ATOM     12  C   UNL     1      -3.632  -8.756  25.006  1.00  0.00    -0.000 C 
BRANCH  12  13
ATOM     13  C   UNL     1      -2.333  -8.662  24.186  1.00  0.00    -0.000 C 
BRANCH  13  14
ATOM     14  C   UNL     1      -1.136  -9.308  24.914  1.00  0.00    -0.000 C 
BRANCH  14  15
ATOM     15  C   UNL     1      -0.146  -8.287  25.498  1.00  0.00    -0.003 C 
ATOM     16  C   UNL     1       0.654  -8.836  26.677  1.00  0.00     0.004 C 
ENDBRANCH  14  15
ENDBRANCH  13  14
ENDBRANCH  12  13
ENDBRANCH  11  12
ENDBRANCH  10  11
ENDBRANCH   1  10
TORSDOF 12
ENDMDL
MODEL 2
REMARK VINA RESULT:    14.435      0.937      1.705
REMARK INTER + INTRA:          24.143
REMARK INTER:                  24.692
REMARK INTRA:                  -0.550
REMARK UNBOUND:                -0.418
REMARK SMILES CCCCCCCCCCCCCC(=O)[O-]
REMARK SMILES IDX 8 1 9 2 10 3 11 4 12 5 13 6 14 7 15 8 16 9 7 10 6 11 5 12
REMARK SMILES IDX 4 13 3 14 2 15 1 16
REMARK H PARENT
REMARK Flexibility Score: inf
ROOT
ATOM      1  C   UNL     1      -6.530 -12.665  24.058  1.00  0.00     0.000 C 
ENDROOT
BRANCH   1   2
ATOM      2  C   UNL     1      -6.258 -13.005  25.531  1.00  0.00     0.000 C 
BRANCH   2   3
ATOM      3  C   UNL     1      -5.014 -13.892  25.669  1.00  0.00     0.000 C 
BRANCH   3   4
ATOM      4  C   UNL     1      -5.344 -15.188  26.426  1.00  0.00     0.000 C 
BRANCH   4   5
ATOM      5  C   UNL     1      -4.564 -16.405  25.897  1.00  0.00     0.006 C 
BRANCH   5   6
ATOM      6  C   UNL     1      -5.387 -17.701  25.822  1.00  0.00     0.053 C 
BRANCH   6   7
ATOM      7  C   UNL     1      -5.337 -18.319  24.459  1.00  0.00     0.041 C 
ATOM      8  O   UNL     1      -5.778 -19.484  24.275  1.00  0.00    -0.550 OA
ATOM      9  O   UNL     1      -4.774 -17.621  23.399  1.00  0.00    -0.550 OA
ENDBRANCH   6   7
ENDBRANCH   5   6
ENDBRANCH   4   5
ENDBRANCH   3   4
ENDBRANCH   2   3
ENDBRANCH   1   2
BRANCH   1  10
ATOM     10  C   UNL     1      -6.117 -11.232  23.691  1.00  0.00     0.000 C 
BRANCH  10  11
ATOM     11  C   UNL     1      -5.883 -10.350  24.931  1.00  0.00    -0.000 C 
BRANCH  11  12
ATOM     12  C   UNL     1      -5.364  -8.949  24.570  1.00  0.00    -0.000 C 
BRANCH  12  13
ATOM     13  C   UNL     1      -3.883  -8.747  24.939  1.00  0.00    -0.000 C 
BRANCH  13  14
ATOM     14  C   UNL     1      -3.093  -8.049  23.812  1.00  0.00    -0.000 C 
BRANCH  14  15
ATOM     15  C   UNL     1      -1.598  -8.411  23.794  1.00  0.00    -0.003 C 
ATOM     16  C   UNL     1      -1.156  -9.187  25.033  1.00  0.00     0.004 C 
ENDBRANCH  14  15
ENDBRANCH  13  14
ENDBRANCH  12  13
ENDBRANCH  11  12
ENDBRANCH  10  11
ENDBRANCH   1  10
TORSDOF 12
ENDMDL
MODEL 3
REMARK VINA RESULT:    14.463      4.024      7.879
REMARK INTER + INTRA:          24.190
REMARK INTER:                  24.766
REMARK INTRA:                  -0.576
REMARK UNBOUND:                -0.418
REMARK SMILES CCCCCCCCCCCCCC(=O)[O-]
REMARK SMILES IDX 8 1 9 2 10 3 11 4 12 5 13 6 14 7 15 8 16 9 7 10 6 11 5 12
REMARK SMILES IDX 4 13 3 14 2 15 1 16
REMARK H PARENT
REMARK Flexibility Score: inf
ROOT
ATOM      1  C   UNL     1      -5.510 -10.669  23.991  1.00  0.00     0.000 C 
ENDROOT
BRANCH   1   2
ATOM      2  C   UNL     1      -5.751  -9.440  24.881  1.00  0.00     0.000 C 
BRANCH   2   3
ATOM      3  C   UNL     1      -4.425  -8.777  25.273  1.00  0.00     0.000 C 
BRANCH   3   4
ATOM      4  C   UNL     1      -3.315  -9.131  24.271  1.00  0.00     0.000 C 
BRANCH   4   5
ATOM      5  C   UNL     1      -1.994  -8.396  24.559  1.00  0.00     0.006 C 
BRANCH   5   6
ATOM      6  C   UNL     1      -0.878  -9.295  25.116  1.00  0.00     0.053 C 
BRANCH   6   7
ATOM      7  C   UNL     1       0.091  -8.526  25.960  1.00  0.00     0.041 C 
ATOM      8  O   UNL     1       0.604  -9.058  26.981  1.00  0.00    -0.550 OA
ATOM      9  O   UNL     1       0.404  -7.212  25.639  1.00  0.00    -0.550 OA
ENDBRANCH   6   7
ENDBRANCH   5   6
ENDBRANCH   4   5
ENDBRANCH   3   4
ENDBRANCH   2   3
ENDBRANCH   1   2
BRANCH   1  10
ATOM     10  C   UNL     1      -6.518 -11.799  24.251  1.00  0.00     0.000 C 
BRANCH  10  11
ATOM     11  C   UNL     1      -5.859 -13.189  24.258  1.00  0.00    -0.000 C 
BRANCH  11  12
ATOM     12  C   UNL     1      -5.771 -13.795  25.668  1.00  0.00    -0.000 C 
BRANCH  12  13
ATOM     13  C   UNL     1      -4.713 -14.907  25.775  1.00  0.00    -0.000 C 
BRANCH  13  14
ATOM     14  C   UNL     1      -5.175 -16.064  26.686  1.00  0.00    -0.000 C 
BRANCH  14  15
ATOM     15  C   UNL     1      -5.157 -17.437  25.994  1.00  0.00    -0.003 C 
ATOM     16  C   UNL     1      -4.922 -17.344  24.488  1.00  0.00     0.004 C 
ENDBRANCH  14  15
ENDBRANCH  13  14
ENDBRANCH  12  13
ENDBRANCH  11  12
ENDBRANCH  10  11
ENDBRANCH   1  10
TORSDOF 12
ENDMDL
MODEL 4
REMARK VINA RESULT:    15.003      3.322      7.788
REMARK INTER + INTRA:          25.110
REMARK INTER:                  25.700
REMARK INTRA:                  -0.590
REMARK UNBOUND:                -0.418
REMARK SMILES CCCCCCCCCCCCCC(=O)[O-]
REMARK SMILES IDX 8 1 9 2 10 3 11 4 12 5 13 6 14 7 15 8 16 9 7 10 6 11 5 12
REMARK SMILES IDX 4 13 3 14 2 15 1 16
REMARK H PARENT
REMARK Flexibility Score: inf
ROOT
ATOM      1  C   UNL     1      -6.128 -12.911  24.116  1.00  0.00     0.000 C 
ENDROOT
BRANCH   1   2
ATOM      2  C   UNL     1      -6.455 -11.432  23.856  1.00  0.00     0.000 C 
BRANCH   2   3
ATOM      3  C   UNL     1      -5.952 -10.549  25.005  1.00  0.00     0.000 C 
BRANCH   3   4
ATOM      4  C   UNL     1      -5.374  -9.228  24.472  1.00  0.00     0.000 C 
BRANCH   4   5
ATOM      5  C   UNL     1      -4.037  -8.851  25.135  1.00  0.00     0.006 C 
BRANCH   5   6
ATOM      6  C   UNL     1      -2.923  -8.478  24.143  1.00  0.00     0.053 C 
BRANCH   6   7
ATOM      7  C   UNL     1      -1.655  -9.224  24.420  1.00  0.00     0.041 C 
ATOM      8  O   UNL     1      -0.864  -8.821  25.313  1.00  0.00    -0.550 OA
ATOM      9  O   UNL     1      -1.330 -10.347  23.669  1.00  0.00    -0.550 OA
ENDBRANCH   6   7
ENDBRANCH   5   6
ENDBRANCH   4   5
ENDBRANCH   3   4
ENDBRANCH   2   3
ENDBRANCH   1   2
BRANCH   1  10
ATOM     10  C   UNL     1      -6.104 -13.260  25.613  1.00  0.00     0.000 C 
BRANCH  10  11
ATOM     11  C   UNL     1      -4.936 -14.192  25.982  1.00  0.00    -0.000 C 
BRANCH  11  12
ATOM     12  C   UNL     1      -5.411 -15.574  26.458  1.00  0.00    -0.000 C 
BRANCH  12  13
ATOM     13  C   UNL     1      -4.630 -16.730  25.808  1.00  0.00    -0.000 C 
BRANCH  13  14
ATOM     14  C   UNL     1      -5.399 -18.066  25.881  1.00  0.00    -0.000 C 
BRANCH  14  15
ATOM     15  C   UNL     1      -5.728 -18.663  24.503  1.00  0.00    -0.003 C 
ATOM     16  C   UNL     1      -5.277 -17.777  23.344  1.00  0.00     0.004 C 
ENDBRANCH  14  15
ENDBRANCH  13  14
ENDBRANCH  12  13
ENDBRANCH  11  12
ENDBRANCH  10  11
ENDBRANCH   1  10
TORSDOF 12
ENDMDL
MODEL 5
REMARK VINA RESULT:    15.181      3.866      6.828
REMARK INTER + INTRA:          25.413
REMARK INTER:                  25.846
REMARK INTRA:                  -0.434
REMARK UNBOUND:                -0.418
REMARK SMILES CCCCCCCCCCCCCC(=O)[O-]
REMARK SMILES IDX 8 1 9 2 10 3 11 4 12 5 13 6 14 7 15 8 16 9 7 10 6 11 5 12
REMARK SMILES IDX 4 13 3 14 2 15 1 16
REMARK H PARENT
REMARK Flexibility Score: inf
ROOT
ATOM      1  C   UNL     1      -6.143 -12.314  23.963  1.00  0.00     0.000 C 
ENDROOT
BRANCH   1   2
ATOM      2  C   UNL     1      -6.395 -13.167  25.215  1.00  0.00     0.000 C 
BRANCH   2   3
ATOM      3  C   UNL     1      -5.088 -13.780  25.735  1.00  0.00     0.000 C 
BRANCH   3   4
ATOM      4  C   UNL     1      -5.349 -15.126  26.429  1.00  0.00     0.000 C 
BRANCH   4   5
ATOM      5  C   UNL     1      -4.513 -16.275  25.836  1.00  0.00     0.006 C 
BRANCH   5   6
ATOM      6  C   UNL     1      -5.238 -17.630  25.800  1.00  0.00     0.053 C 
BRANCH   6   7
ATOM      7  C   UNL     1      -5.325 -18.182  24.411  1.00  0.00     0.041 C 
ATOM      8  O   UNL     1      -6.061 -19.175  24.168  1.00  0.00    -0.550 OA
ATOM      9  O   UNL     1      -4.570 -17.620  23.390  1.00  0.00    -0.550 OA
ENDBRANCH   6   7
ENDBRANCH   5   6
ENDBRANCH   4   5
ENDBRANCH   3   4
ENDBRANCH   2   3
ENDBRANCH   1   2
BRANCH   1  10
ATOM     10  C   UNL     1      -7.395 -12.162  23.084  1.00  0.00     0.000 C 
BRANCH  10  11
ATOM     11  C   UNL     1      -7.566 -13.328  22.095  1.00  0.00    -0.000 C 
BRANCH  11  12
ATOM     12  C   UNL     1      -8.690 -13.078  21.076  1.00  0.00    -0.000 C 
BRANCH  12  13
ATOM     13  C   UNL     1      -8.859 -14.237  20.078  1.00  0.00    -0.000 C 
BRANCH  13  14
ATOM     14  C   UNL     1      -8.692 -13.775  18.615  1.00  0.00    -0.000 C 
BRANCH  14  15
ATOM     15  C   UNL     1      -9.579 -14.543  17.621  1.00  0.00    -0.003 C 
ATOM     16  C   UNL     1      -9.612 -16.046  17.888  1.00  0.00     0.004 C 
ENDBRANCH  14  15
ENDBRANCH  13  14
ENDBRANCH  12  13
ENDBRANCH  11  12
ENDBRANCH  10  11
ENDBRANCH   1  10
TORSDOF 12
ENDMDL
MODEL 6
REMARK VINA RESULT:    15.188      1.280      1.714
REMARK INTER + INTRA:          25.425
REMARK INTER:                  26.109
REMARK INTRA:                  -0.684
REMARK UNBOUND:                -0.418
REMARK SMILES CCCCCCCCCCCCCC(=O)[O-]
REMARK SMILES IDX 8 1 9 2 10 3 11 4 12 5 13 6 14 7 15 8 16 9 7 10 6 11 5 12
REMARK SMILES IDX 4 13 3 14 2 15 1 16
REMARK H PARENT
REMARK Flexibility Score: inf
ROOT
ATOM      1  C   UNL     1      -6.456 -12.109  23.793  1.00  0.00     0.000 C 
ENDROOT
BRANCH   1   2
ATOM      2  C   UNL     1      -6.337 -12.887  25.112  1.00  0.00     0.000 C 
BRANCH   2   3
ATOM      3  C   UNL     1      -5.390 -14.083  24.961  1.00  0.00     0.000 C 
BRANCH   3   4
ATOM      4  C   UNL     1      -5.157 -14.776  26.313  1.00  0.00     0.000 C 
BRANCH   4   5
ATOM      5  C   UNL     1      -4.469 -16.146  26.171  1.00  0.00     0.006 C 
BRANCH   5   6
ATOM      6  C   UNL     1      -5.437 -17.320  25.951  1.00  0.00     0.053 C 
BRANCH   6   7
ATOM      7  C   UNL     1      -5.189 -18.013  24.647  1.00  0.00     0.041 C 
ATOM      8  O   UNL     1      -4.477 -17.466  23.764  1.00  0.00    -0.550 OA
ATOM      9  O   UNL     1      -5.770 -19.249  24.394  1.00  0.00    -0.550 OA
ENDBRANCH   6   7
ENDBRANCH   5   6
ENDBRANCH   4   5
ENDBRANCH   3   4
ENDBRANCH   2   3
ENDBRANCH   1   2
BRANCH   1  10
ATOM     10  C   UNL     1      -5.762 -10.739  23.845  1.00  0.00     0.000 C 
BRANCH  10  11
ATOM     11  C   UNL     1      -6.072  -9.969  25.140  1.00  0.00    -0.000 C 
BRANCH  11  12
ATOM     12  C   UNL     1      -4.907  -9.071  25.587  1.00  0.00    -0.000 C 
BRANCH  12  13
ATOM     13  C   UNL     1      -4.028  -8.606  24.413  1.00  0.00    -0.000 C 
BRANCH  13  14
ATOM     14  C   UNL     1      -2.547  -8.996  24.605  1.00  0.00    -0.000 C 
BRANCH  14  15
ATOM     15  C   UNL     1      -1.593  -8.293  23.625  1.00  0.00    -0.003 C 
ATOM     16  C   UNL     1      -2.324  -7.463  22.571  1.00  0.00     0.004 C 
ENDBRANCH  14  15
ENDBRANCH  13  14
ENDBRANCH  12  13
ENDBRANCH  11  12
ENDBRANCH  10  11
ENDBRANCH   1  10
TORSDOF 12
ENDMDL
MODEL 7
REMARK VINA RESULT:    16.739     13.909     16.035
REMARK INTER + INTRA:          28.064
REMARK INTER:                  28.844
REMARK INTRA:                  -0.780
REMARK UNBOUND:                -0.418
REMARK SMILES CCCCCCCCCCCCCC(=O)[O-]
REMARK SMILES IDX 8 1 9 2 10 3 11 4 12 5 13 6 14 7 15 8 16 9 7 10 6 11 5 12
REMARK SMILES IDX 4 13 3 14 2 15 1 16
REMARK H PARENT
REMARK Flexibility Score: inf
ROOT
ATOM      1  C   UNL     1       4.335 -19.274  13.270  1.00  0.00     0.000 C 
ENDROOT
BRANCH   1   2
ATOM      2  C   UNL     1       4.259 -17.826  12.761  1.00  0.00     0.000 C 
BRANCH   2   3
ATOM      3  C   UNL     1       4.952 -16.865  13.735  1.00  0.00     0.000 C 
BRANCH   3   4
ATOM      4  C   UNL     1       5.124 -17.513  15.118  1.00  0.00     0.000 C 
BRANCH   4   5
ATOM      5  C   UNL     1       4.803 -16.547  16.274  1.00  0.00     0.006 C 
BRANCH   5   6
ATOM      6  C   UNL     1       4.793 -17.206  17.663  1.00  0.00     0.053 C 
BRANCH   6   7
ATOM      7  C   UNL     1       4.108 -16.350  18.683  1.00  0.00     0.041 C 
ATOM      8  O   UNL     1       4.488 -15.164  18.873  1.00  0.00    -0.550 OA
ATOM      9  O   UNL     1       3.072 -16.871  19.447  1.00  0.00    -0.550 OA
ENDBRANCH   6   7
ENDBRANCH   5   6
ENDBRANCH   4   5
ENDBRANCH   3   4
ENDBRANCH   2   3
ENDBRANCH   1   2
BRANCH   1  10
ATOM     10  C   UNL     1       5.123 -20.196  12.325  1.00  0.00     0.000 C 
BRANCH  10  11
ATOM     11  C   UNL     1       4.291 -21.397  11.844  1.00  0.00    -0.000 C 
BRANCH  11  12
ATOM     12  C   UNL     1       3.036 -20.972  11.064  1.00  0.00    -0.000 C 
BRANCH  12  13
ATOM     13  C   UNL     1       1.759 -21.009  11.922  1.00  0.00    -0.000 C 
BRANCH  13  14
ATOM     14  C   UNL     1       0.680 -20.037  11.401  1.00  0.00    -0.000 C 
BRANCH  14  15
ATOM     15  C   UNL     1       1.117 -18.563  11.422  1.00  0.00    -0.003 C 
ATOM     16  C   UNL     1       0.076 -17.640  12.051  1.00  0.00     0.004 C 
ENDBRANCH  14  15
ENDBRANCH  13  14
ENDBRANCH  12  13
ENDBRANCH  11  12
ENDBRANCH  10  11
ENDBRANCH   1  10
TORSDOF 12
ENDMDL
