MODEL 1
REMARK VINA RESULT:    -4.226      0.000      0.000
REMARK INTER + INTRA:         -16.661
REMARK INTER:                 -11.143
REMARK INTRA:                  -5.519
REMARK UNBOUND:                -5.519
REMARK SMILES CCCCCCCCCCCCCCCCCCCCCCCCCCCCCC(=O)[O-]
REMARK SMILES IDX 16 1 17 2 18 3 19 4 20 5 21 6 22 7 23 8 24 9 25 10 26 11
REMARK SMILES IDX 27 12 28 13 29 14 30 15 31 16 32 17 15 18 14 19 13 20 12 21
REMARK SMILES IDX 11 22 10 23 9 24 8 25 7 26 6 27 5 28 4 29 3 30 2 31 1 32
REMARK H PARENT
REMARK Flexibility Score: inf
ROOT
ATOM      1  C   UNL     1       4.799  13.706  12.129  1.00  0.00     0.000 C 
ENDROOT
BRANCH   1   2
ATOM      2  C   UNL     1       3.768  14.842  12.022  1.00  0.00     0.000 C 
BRANCH   2   3
ATOM      3  C   UNL     1       2.522  14.433  11.221  1.00  0.00     0.000 C 
BRANCH   3   4
ATOM      4  C   UNL     1       1.853  15.658  10.582  1.00  0.00     0.000 C 
BRANCH   4   5
ATOM      5  C   UNL     1       1.418  15.400   9.129  1.00  0.00     0.000 C 
BRANCH   5   6
ATOM      6  C   UNL     1       1.010  13.935   8.890  1.00  0.00     0.000 C 
BRANCH   6   7
ATOM      7  C   UNL     1       1.701  13.320   7.654  1.00  0.00     0.000 C 
BRANCH   7   8
ATOM      8  C   UNL     1       3.226  13.542   7.613  1.00  0.00     0.000 C 
BRANCH   8   9
ATOM      9  C   UNL     1       4.074  12.411   8.222  1.00  0.00     0.000 C 
BRANCH   9  10
ATOM     10  C   UNL     1       3.299  11.126   8.568  1.00  0.00     0.000 C 
BRANCH  10  11
ATOM     11  C   UNL     1       3.112  10.930  10.080  1.00  0.00     0.000 C 
BRANCH  11  12
ATOM     12  C   UNL     1       1.937   9.990  10.371  1.00  0.00     0.000 C 
BRANCH  12  13
ATOM     13  C   UNL     1       1.119  10.488  11.572  1.00  0.00     0.006 C 
BRANCH  13  14
ATOM     14  C   UNL     1       2.007  11.076  12.677  1.00  0.00     0.053 C 
BRANCH  14  15
ATOM     15  C   UNL     1       1.197  11.619  13.814  1.00  0.00     0.041 C 
ATOM     16  O   UNL     1       1.265  12.841  14.112  1.00  0.00    -0.550 OA
ATOM     17  O   UNL     1       0.356  10.780  14.534  1.00  0.00    -0.550 OA
ENDBRANCH  14  15
ENDBRANCH  13  14
ENDBRANCH  12  13
ENDBRANCH  11  12
ENDBRANCH  10  11
ENDBRANCH   9  10
ENDBRANCH   8   9
ENDBRANCH   7   8
ENDBRANCH   6   7
ENDBRANCH   5   6
ENDBRANCH   4   5
ENDBRANCH   3   4
ENDBRANCH   2   3
ENDBRANCH   1   2
BRANCH   1  18
ATOM     18  C   UNL     1       5.941  13.851  11.107  1.00  0.00     0.000 C 
BRANCH  18  19
ATOM     19  C   UNL     1       7.000  12.747  11.238  1.00  0.00     0.000 C 
BRANCH  19  20
ATOM     20  C   UNL     1       6.379  11.362  11.492  1.00  0.00     0.000 C 
BRANCH  20  21
ATOM     21  C   UNL     1       6.925  10.290  10.533  1.00  0.00     0.000 C 
BRANCH  21  22
ATOM     22  C   UNL     1       7.544  10.902   9.265  1.00  0.00     0.000 C 
BRANCH  22  23
ATOM     23  C   UNL     1       7.080  10.201   7.976  1.00  0.00     0.000 C 
BRANCH  23  24
ATOM     24  C   UNL     1       6.111   9.021   8.187  1.00  0.00    -0.000 C 
BRANCH  24  25
ATOM     25  C   UNL     1       6.598   7.661   7.644  1.00  0.00    -0.000 C 
BRANCH  25  26
ATOM     26  C   UNL     1       8.005   7.677   7.017  1.00  0.00    -0.000 C 
BRANCH  26  27
ATOM     27  C   UNL     1       8.949   6.571   7.523  1.00  0.00    -0.000 C 
BRANCH  27  28
ATOM     28  C   UNL     1       8.870   6.338   9.046  1.00  0.00    -0.000 C 
BRANCH  28  29
ATOM     29  C   UNL     1      10.076   6.932   9.793  1.00  0.00    -0.000 C 
BRANCH  29  30
ATOM     30  C   UNL     1       9.693   8.127  10.680  1.00  0.00    -0.000 C 
BRANCH  30  31
ATOM     31  C   UNL     1      10.659   9.311  10.521  1.00  0.00    -0.003 C 
ATOM     32  C   UNL     1      10.462  10.333  11.639  1.00  0.00     0.004 C 
ENDBRANCH  30  31
ENDBRANCH  29  30
ENDBRANCH  28  29
ENDBRANCH  27  28
ENDBRANCH  26  27
ENDBRANCH  25  26
ENDBRANCH  24  25
ENDBRANCH  23  24
ENDBRANCH  22  23
ENDBRANCH  21  22
ENDBRANCH  20  21
ENDBRANCH  19  20
ENDBRANCH  18  19
ENDBRANCH   1  18
TORSDOF 28
ENDMDL
MODEL 2
REMARK VINA RESULT:    -4.105      1.490      3.380
REMARK INTER + INTRA:         -16.343
REMARK INTER:                 -10.968
REMARK INTRA:                  -5.375
REMARK UNBOUND:                -5.519
REMARK SMILES CCCCCCCCCCCCCCCCCCCCCCCCCCCCCC(=O)[O-]
REMARK SMILES IDX 16 1 17 2 18 3 19 4 20 5 21 6 22 7 23 8 24 9 25 10 26 11
REMARK SMILES IDX 27 12 28 13 29 14 30 15 31 16 32 17 15 18 14 19 13 20 12 21
REMARK SMILES IDX 11 22 10 23 9 24 8 25 7 26 6 27 5 28 4 29 3 30 2 31 1 32
REMARK H PARENT
REMARK Flexibility Score: inf
ROOT
ATOM      1  C   UNL     1       4.580  13.831  12.249  1.00  0.00     0.000 C 
ENDROOT
BRANCH   1   2
ATOM      2  C   UNL     1       3.396  14.804  12.123  1.00  0.00     0.000 C 
BRANCH   2   3
ATOM      3  C   UNL     1       2.217  14.199  11.345  1.00  0.00     0.000 C 
BRANCH   3   4
ATOM      4  C   UNL     1       1.767  15.134  10.213  1.00  0.00     0.000 C 
BRANCH   4   5
ATOM      5  C   UNL     1       2.166  14.609   8.823  1.00  0.00     0.000 C 
BRANCH   5   6
ATOM      6  C   UNL     1       1.269  13.449   8.354  1.00  0.00     0.000 C 
BRANCH   6   7
ATOM      7  C   UNL     1       2.078  12.273   7.764  1.00  0.00     0.000 C 
BRANCH   7   8
ATOM      8  C   UNL     1       3.549  12.230   8.225  1.00  0.00     0.000 C 
BRANCH   8   9
ATOM      9  C   UNL     1       3.955  10.974   9.017  1.00  0.00     0.000 C 
BRANCH   9  10
ATOM     10  C   UNL     1       3.328  10.853  10.419  1.00  0.00     0.000 C 
BRANCH  10  11
ATOM     11  C   UNL     1       2.071   9.973  10.437  1.00  0.00     0.000 C 
BRANCH  11  12
ATOM     12  C   UNL     1       0.965  10.612  11.285  1.00  0.00     0.000 C 
BRANCH  12  13
ATOM     13  C   UNL     1       1.451  10.871  12.719  1.00  0.00     0.006 C 
BRANCH  13  14
ATOM     14  C   UNL     1       0.288  11.066  13.701  1.00  0.00     0.053 C 
BRANCH  14  15
ATOM     15  C   UNL     1       0.743  11.675  14.991  1.00  0.00     0.041 C 
ATOM     16  O   UNL     1       1.026  12.902  15.048  1.00  0.00    -0.550 OA
ATOM     17  O   UNL     1       0.840  10.893  16.136  1.00  0.00    -0.550 OA
ENDBRANCH  14  15
ENDBRANCH  13  14
ENDBRANCH  12  13
ENDBRANCH  11  12
ENDBRANCH  10  11
ENDBRANCH   9  10
ENDBRANCH   8   9
ENDBRANCH   7   8
ENDBRANCH   6   7
ENDBRANCH   5   6
ENDBRANCH   4   5
ENDBRANCH   3   4
ENDBRANCH   2   3
ENDBRANCH   1   2
BRANCH   1  18
ATOM     18  C   UNL     1       5.471  13.824  10.995  1.00  0.00     0.000 C 
BRANCH  18  19
ATOM     19  C   UNL     1       6.831  13.151  11.235  1.00  0.00     0.000 C 
BRANCH  19  20
ATOM     20  C   UNL     1       6.702  11.809  11.976  1.00  0.00     0.000 C 
BRANCH  20  21
ATOM     21  C   UNL     1       6.972  10.605  11.058  1.00  0.00     0.000 C 
BRANCH  21  22
ATOM     22  C   UNL     1       8.474  10.388  10.806  1.00  0.00     0.000 C 
BRANCH  22  23
ATOM     23  C   UNL     1       8.820  10.279   9.310  1.00  0.00     0.000 C 
BRANCH  23  24
ATOM     24  C   UNL     1       7.620  10.412   8.352  1.00  0.00    -0.000 C 
BRANCH  24  25
ATOM     25  C   UNL     1       7.138   9.095   7.709  1.00  0.00    -0.000 C 
BRANCH  25  26
ATOM     26  C   UNL     1       7.471   7.821   8.508  1.00  0.00    -0.000 C 
BRANCH  26  27
ATOM     27  C   UNL     1       6.264   6.912   8.805  1.00  0.00    -0.000 C 
BRANCH  27  28
ATOM     28  C   UNL     1       4.934   7.439   8.225  1.00  0.00    -0.000 C 
BRANCH  28  29
ATOM     29  C   UNL     1       4.424   6.577   7.058  1.00  0.00    -0.000 C 
BRANCH  29  30
ATOM     30  C   UNL     1       3.081   7.073   6.499  1.00  0.00    -0.000 C 
BRANCH  30  31
ATOM     31  C   UNL     1       2.402   8.098   7.421  1.00  0.00    -0.003 C 
ATOM     32  C   UNL     1       1.240   8.788   6.712  1.00  0.00     0.004 C 
ENDBRANCH  30  31
ENDBRANCH  29  30
ENDBRANCH  28  29
ENDBRANCH  27  28
ENDBRANCH  26  27
ENDBRANCH  25  26
ENDBRANCH  24  25
ENDBRANCH  23  24
ENDBRANCH  22  23
ENDBRANCH  21  22
ENDBRANCH  20  21
ENDBRANCH  19  20
ENDBRANCH  18  19
ENDBRANCH   1  18
TORSDOF 28
ENDMDL
MODEL 3
REMARK VINA RESULT:    -4.090      2.407      7.391
REMARK INTER + INTRA:         -16.304
REMARK INTER:                 -11.529
REMARK INTRA:                  -4.775
REMARK UNBOUND:                -5.519
REMARK SMILES CCCCCCCCCCCCCCCCCCCCCCCCCCCCCC(=O)[O-]
REMARK SMILES IDX 16 1 17 2 18 3 19 4 20 5 21 6 22 7 23 8 24 9 25 10 26 11
REMARK SMILES IDX 27 12 28 13 29 14 30 15 31 16 32 17 15 18 14 19 13 20 12 21
REMARK SMILES IDX 11 22 10 23 9 24 8 25 7 26 6 27 5 28 4 29 3 30 2 31 1 32
REMARK H PARENT
REMARK Flexibility Score: inf
ROOT
ATOM      1  C   UNL     1       3.981  14.875  12.432  1.00  0.00     0.000 C 
ENDROOT
BRANCH   1   2
ATOM      2  C   UNL     1       4.556  13.536  11.941  1.00  0.00     0.000 C 
BRANCH   2   3
ATOM      3  C   UNL     1       5.830  13.715  11.100  1.00  0.00     0.000 C 
BRANCH   3   4
ATOM      4  C   UNL     1       6.878  12.650  11.456  1.00  0.00     0.000 C 
BRANCH   4   5
ATOM      5  C   UNL     1       6.343  11.218  11.284  1.00  0.00     0.000 C 
BRANCH   5   6
ATOM      6  C   UNL     1       7.254  10.353  10.396  1.00  0.00     0.000 C 
BRANCH   6   7
ATOM      7  C   UNL     1       8.417  11.157   9.775  1.00  0.00     0.000 C 
BRANCH   7   8
ATOM      8  C   UNL     1       9.790  10.466   9.891  1.00  0.00     0.000 C 
BRANCH   8   9
ATOM      9  C   UNL     1      10.146   9.938  11.293  1.00  0.00     0.000 C 
BRANCH   9  10
ATOM     10  C   UNL     1       9.930  10.939  12.443  1.00  0.00     0.000 C 
BRANCH  10  11
ATOM     11  C   UNL     1      11.222  11.257  13.208  1.00  0.00     0.000 C 
BRANCH  11  12
ATOM     12  C   UNL     1      10.923  12.040  14.492  1.00  0.00     0.000 C 
BRANCH  12  13
ATOM     13  C   UNL     1       9.437  12.422  14.569  1.00  0.00     0.006 C 
BRANCH  13  14
ATOM     14  C   UNL     1       8.741  11.807  15.791  1.00  0.00     0.053 C 
BRANCH  14  15
ATOM     15  C   UNL     1       7.267  12.068  15.784  1.00  0.00     0.041 C 
ATOM     16  O   UNL     1       6.562  11.695  14.809  1.00  0.00    -0.550 OA
ATOM     17  O   UNL     1       6.667  12.708  16.863  1.00  0.00    -0.550 OA
ENDBRANCH  14  15
ENDBRANCH  13  14
ENDBRANCH  12  13
ENDBRANCH  11  12
ENDBRANCH  10  11
ENDBRANCH   9  10
ENDBRANCH   8   9
ENDBRANCH   7   8
ENDBRANCH   6   7
ENDBRANCH   5   6
ENDBRANCH   4   5
ENDBRANCH   3   4
ENDBRANCH   2   3
ENDBRANCH   1   2
BRANCH   1  18
ATOM     18  C   UNL     1       2.692  15.267  11.690  1.00  0.00     0.000 C 
BRANCH  18  19
ATOM     19  C   UNL     1       2.146  14.135  10.807  1.00  0.00     0.000 C 
BRANCH  19  20
ATOM     20  C   UNL     1       1.741  14.624   9.405  1.00  0.00     0.000 C 
BRANCH  20  21
ATOM     21  C   UNL     1       2.078  13.600   8.308  1.00  0.00     0.000 C 
BRANCH  21  22
ATOM     22  C   UNL     1       3.595  13.421   8.123  1.00  0.00     0.000 C 
BRANCH  22  23
ATOM     23  C   UNL     1       4.048  11.959   8.280  1.00  0.00     0.000 C 
BRANCH  23  24
ATOM     24  C   UNL     1       2.938  10.974   8.696  1.00  0.00    -0.000 C 
BRANCH  24  25
ATOM     25  C   UNL     1       3.029  10.451  10.145  1.00  0.00    -0.000 C 
BRANCH  25  26
ATOM     26  C   UNL     1       1.679  10.318  10.875  1.00  0.00    -0.000 C 
BRANCH  26  27
ATOM     27  C   UNL     1       1.673  10.844  12.322  1.00  0.00    -0.000 C 
BRANCH  27  28
ATOM     28  C   UNL     1       0.297  11.372  12.783  1.00  0.00    -0.000 C 
BRANCH  28  29
ATOM     29  C   UNL     1       0.421  12.568  13.741  1.00  0.00    -0.000 C 
BRANCH  29  30
ATOM     30  C   UNL     1       1.745  12.567  14.521  1.00  0.00    -0.000 C 
BRANCH  30  31
ATOM     31  C   UNL     1       1.532  12.531  16.042  1.00  0.00    -0.003 C 
ATOM     32  C   UNL     1       0.885  11.218  16.474  1.00  0.00     0.004 C 
ENDBRANCH  30  31
ENDBRANCH  29  30
ENDBRANCH  28  29
ENDBRANCH  27  28
ENDBRANCH  26  27
ENDBRANCH  25  26
ENDBRANCH  24  25
ENDBRANCH  23  24
ENDBRANCH  22  23
ENDBRANCH  21  22
ENDBRANCH  20  21
ENDBRANCH  19  20
ENDBRANCH  18  19
ENDBRANCH   1  18
TORSDOF 28
ENDMDL
MODEL 4
REMARK VINA RESULT:    -4.088      2.853      7.508
REMARK INTER + INTRA:         -16.297
REMARK INTER:                 -11.148
REMARK INTRA:                  -5.149
REMARK UNBOUND:                -5.519
REMARK SMILES CCCCCCCCCCCCCCCCCCCCCCCCCCCCCC(=O)[O-]
REMARK SMILES IDX 16 1 17 2 18 3 19 4 20 5 21 6 22 7 23 8 24 9 25 10 26 11
REMARK SMILES IDX 27 12 28 13 29 14 30 15 31 16 32 17 15 18 14 19 13 20 12 21
REMARK SMILES IDX 11 22 10 23 9 24 8 25 7 26 6 27 5 28 4 29 3 30 2 31 1 32
REMARK H PARENT
REMARK Flexibility Score: inf
ROOT
ATOM      1  C   UNL     1       2.649  14.889  11.441  1.00  0.00     0.000 C 
ENDROOT
BRANCH   1   2
ATOM      2  C   UNL     1       3.749  13.824  11.302  1.00  0.00     0.000 C 
BRANCH   2   3
ATOM      3  C   UNL     1       4.906  14.041  12.290  1.00  0.00     0.000 C 
BRANCH   3   4
ATOM      4  C   UNL     1       4.767  13.119  13.511  1.00  0.00     0.000 C 
BRANCH   4   5
ATOM      5  C   UNL     1       5.914  12.099  13.611  1.00  0.00     0.000 C 
BRANCH   5   6
ATOM      6  C   UNL     1       7.085  12.437  12.671  1.00  0.00     0.000 C 
BRANCH   6   7
ATOM      7  C   UNL     1       8.451  11.998  13.241  1.00  0.00     0.000 C 
BRANCH   7   8
ATOM      8  C   UNL     1       9.585  11.967  12.198  1.00  0.00     0.000 C 
BRANCH   8   9
ATOM      9  C   UNL     1      10.116  10.566  11.842  1.00  0.00     0.000 C 
BRANCH   9  10
ATOM     10  C   UNL     1       9.394   9.872  10.672  1.00  0.00     0.000 C 
BRANCH  10  11
ATOM     11  C   UNL     1       9.010  10.843   9.547  1.00  0.00     0.000 C 
BRANCH  11  12
ATOM     12  C   UNL     1       7.496  10.835   9.305  1.00  0.00     0.000 C 
BRANCH  12  13
ATOM     13  C   UNL     1       6.884   9.484   9.706  1.00  0.00     0.006 C 
BRANCH  13  14
ATOM     14  C   UNL     1       6.439   8.663   8.488  1.00  0.00     0.053 C 
BRANCH  14  15
ATOM     15  C   UNL     1       6.755   7.208   8.650  1.00  0.00     0.041 C 
ATOM     16  O   UNL     1       5.839   6.388   8.926  1.00  0.00    -0.550 OA
ATOM     17  O   UNL     1       8.058   6.754   8.479  1.00  0.00    -0.550 OA
ENDBRANCH  14  15
ENDBRANCH  13  14
ENDBRANCH  12  13
ENDBRANCH  11  12
ENDBRANCH  10  11
ENDBRANCH   9  10
ENDBRANCH   8   9
ENDBRANCH   7   8
ENDBRANCH   6   7
ENDBRANCH   5   6
ENDBRANCH   4   5
ENDBRANCH   3   4
ENDBRANCH   2   3
ENDBRANCH   1   2
BRANCH   1  18
ATOM     18  C   UNL     1       1.915  15.152  10.113  1.00  0.00     0.000 C 
BRANCH  18  19
ATOM     19  C   UNL     1       1.012  13.984   9.692  1.00  0.00     0.000 C 
BRANCH  19  20
ATOM     20  C   UNL     1       1.310  13.493   8.264  1.00  0.00     0.000 C 
BRANCH  20  21
ATOM     21  C   UNL     1       2.727  13.870   7.799  1.00  0.00     0.000 C 
BRANCH  21  22
ATOM     22  C   UNL     1       3.716  12.699   7.931  1.00  0.00     0.000 C 
BRANCH  22  23
ATOM     23  C   UNL     1       3.027  11.373   8.299  1.00  0.00     0.000 C 
BRANCH  23  24
ATOM     24  C   UNL     1       3.448  10.774   9.655  1.00  0.00    -0.000 C 
BRANCH  24  25
ATOM     25  C   UNL     1       2.351   9.981  10.395  1.00  0.00    -0.000 C 
BRANCH  25  26
ATOM     26  C   UNL     1       1.930  10.567  11.756  1.00  0.00    -0.000 C 
BRANCH  26  27
ATOM     27  C   UNL     1       0.455  10.997  11.845  1.00  0.00    -0.000 C 
BRANCH  27  28
ATOM     28  C   UNL     1       0.212  12.181  12.806  1.00  0.00    -0.000 C 
BRANCH  28  29
ATOM     29  C   UNL     1       1.301  12.290  13.887  1.00  0.00    -0.000 C 
BRANCH  29  30
ATOM     30  C   UNL     1       0.909  13.241  15.028  1.00  0.00    -0.000 C 
BRANCH  30  31
ATOM     31  C   UNL     1       1.526  14.638  14.868  1.00  0.00    -0.003 C 
ATOM     32  C   UNL     1       2.631  14.870  15.896  1.00  0.00     0.004 C 
ENDBRANCH  30  31
ENDBRANCH  29  30
ENDBRANCH  28  29
ENDBRANCH  27  28
ENDBRANCH  26  27
ENDBRANCH  25  26
ENDBRANCH  24  25
ENDBRANCH  23  24
ENDBRANCH  22  23
ENDBRANCH  21  22
ENDBRANCH  20  21
ENDBRANCH  19  20
ENDBRANCH  18  19
ENDBRANCH   1  18
TORSDOF 28
ENDMDL
MODEL 5
REMARK VINA RESULT:    -4.077      1.312      3.391
REMARK INTER + INTRA:         -16.269
REMARK INTER:                 -10.696
REMARK INTRA:                  -5.574
REMARK UNBOUND:                -5.519
REMARK SMILES CCCCCCCCCCCCCCCCCCCCCCCCCCCCCC(=O)[O-]
REMARK SMILES IDX 16 1 17 2 18 3 19 4 20 5 21 6 22 7 23 8 24 9 25 10 26 11
REMARK SMILES IDX 27 12 28 13 29 14 30 15 31 16 32 17 15 18 14 19 13 20 12 21
REMARK SMILES IDX 11 22 10 23 9 24 8 25 7 26 6 27 5 28 4 29 3 30 2 31 1 32
REMARK H PARENT
REMARK Flexibility Score: inf
ROOT
ATOM      1  C   UNL     1       2.427  15.294  10.929  1.00  0.00     0.000 C 
ENDROOT
BRANCH   1   2
ATOM      2  C   UNL     1       1.326  14.247  10.689  1.00  0.00     0.000 C 
BRANCH   2   3
ATOM      3  C   UNL     1       0.679  14.381   9.302  1.00  0.00     0.000 C 
BRANCH   3   4
ATOM      4  C   UNL     1       0.479  13.003   8.654  1.00  0.00     0.000 C 
BRANCH   4   5
ATOM      5  C   UNL     1       1.459  12.751   7.495  1.00  0.00     0.000 C 
BRANCH   5   6
ATOM      6  C   UNL     1       2.675  13.693   7.538  1.00  0.00     0.000 C 
BRANCH   6   7
ATOM      7  C   UNL     1       3.867  13.089   8.312  1.00  0.00     0.000 C 
BRANCH   7   8
ATOM      8  C   UNL     1       3.957  11.553   8.227  1.00  0.00     0.000 C 
BRANCH   8   9
ATOM      9  C   UNL     1       4.137  10.827   9.573  1.00  0.00     0.000 C 
BRANCH   9  10
ATOM     10  C   UNL     1       3.093  11.179  10.651  1.00  0.00     0.000 C 
BRANCH  10  11
ATOM     11  C   UNL     1       2.003  10.108  10.797  1.00  0.00     0.000 C 
BRANCH  11  12
ATOM     12  C   UNL     1       0.736  10.697  11.427  1.00  0.00     0.000 C 
BRANCH  12  13
ATOM     13  C   UNL     1       0.922  10.912  12.937  1.00  0.00     0.006 C 
BRANCH  13  14
ATOM     14  C   UNL     1       0.027  12.034  13.480  1.00  0.00     0.053 C 
BRANCH  14  15
ATOM     15  C   UNL     1      -1.073  11.502  14.346  1.00  0.00     0.041 C 
ATOM     16  O   UNL     1      -1.502  12.184  15.314  1.00  0.00    -0.550 OA
ATOM     17  O   UNL     1      -1.635  10.260  14.075  1.00  0.00    -0.550 OA
ENDBRANCH  14  15
ENDBRANCH  13  14
ENDBRANCH  12  13
ENDBRANCH  11  12
ENDBRANCH  10  11
ENDBRANCH   9  10
ENDBRANCH   8   9
ENDBRANCH   7   8
ENDBRANCH   6   7
ENDBRANCH   5   6
ENDBRANCH   4   5
ENDBRANCH   3   4
ENDBRANCH   2   3
ENDBRANCH   1   2
BRANCH   1  18
ATOM     18  C   UNL     1       3.609  14.728  11.736  1.00  0.00     0.000 C 
BRANCH  18  19
ATOM     19  C   UNL     1       3.174  14.103  13.070  1.00  0.00     0.000 C 
BRANCH  19  20
ATOM     20  C   UNL     1       4.170  13.047  13.579  1.00  0.00     0.000 C 
BRANCH  20  21
ATOM     21  C   UNL     1       5.512  13.098  12.830  1.00  0.00     0.000 C 
BRANCH  21  22
ATOM     22  C   UNL     1       6.326  11.803  13.000  1.00  0.00     0.000 C 
BRANCH  22  23
ATOM     23  C   UNL     1       6.900  11.279  11.672  1.00  0.00     0.000 C 
BRANCH  23  24
ATOM     24  C   UNL     1       7.926  12.207  10.993  1.00  0.00    -0.000 C 
BRANCH  24  25
ATOM     25  C   UNL     1       9.368  12.103  11.533  1.00  0.00    -0.000 C 
BRANCH  25  26
ATOM     26  C   UNL     1       9.877  10.667  11.758  1.00  0.00    -0.000 C 
BRANCH  26  27
ATOM     27  C   UNL     1      10.189   9.884  10.469  1.00  0.00    -0.000 C 
BRANCH  27  28
ATOM     28  C   UNL     1       9.879   8.376  10.570  1.00  0.00    -0.000 C 
BRANCH  28  29
ATOM     29  C   UNL     1       8.414   8.055  10.231  1.00  0.00    -0.000 C 
BRANCH  29  30
ATOM     30  C   UNL     1       8.110   8.190   8.731  1.00  0.00    -0.000 C 
BRANCH  30  31
ATOM     31  C   UNL     1       6.989   9.201   8.446  1.00  0.00    -0.003 C 
ATOM     32  C   UNL     1       7.517  10.397   7.657  1.00  0.00     0.004 C 
ENDBRANCH  30  31
ENDBRANCH  29  30
ENDBRANCH  28  29
ENDBRANCH  27  28
ENDBRANCH  26  27
ENDBRANCH  25  26
ENDBRANCH  24  25
ENDBRANCH  23  24
ENDBRANCH  22  23
ENDBRANCH  21  22
ENDBRANCH  20  21
ENDBRANCH  19  20
ENDBRANCH  18  19
ENDBRANCH   1  18
TORSDOF 28
ENDMDL
MODEL 6
REMARK VINA RESULT:    -4.072      2.509      7.324
REMARK INTER + INTRA:         -16.255
REMARK INTER:                 -10.608
REMARK INTRA:                  -5.647
REMARK UNBOUND:                -5.519
REMARK SMILES CCCCCCCCCCCCCCCCCCCCCCCCCCCCCC(=O)[O-]
REMARK SMILES IDX 16 1 17 2 18 3 19 4 20 5 21 6 22 7 23 8 24 9 25 10 26 11
REMARK SMILES IDX 27 12 28 13 29 14 30 15 31 16 32 17 15 18 14 19 13 20 12 21
REMARK SMILES IDX 11 22 10 23 9 24 8 25 7 26 6 27 5 28 4 29 3 30 2 31 1 32
REMARK H PARENT
REMARK Flexibility Score: inf
ROOT
ATOM      1  C   UNL     1       3.812  14.617  12.335  1.00  0.00     0.000 C 
ENDROOT
BRANCH   1   2
ATOM      2  C   UNL     1       3.935  14.031  13.751  1.00  0.00     0.000 C 
BRANCH   2   3
ATOM      3  C   UNL     1       4.934  12.865  13.821  1.00  0.00     0.000 C 
BRANCH   3   4
ATOM      4  C   UNL     1       5.999  12.987  12.721  1.00  0.00     0.000 C 
BRANCH   4   5
ATOM      5  C   UNL     1       6.328  11.633  12.070  1.00  0.00     0.000 C 
BRANCH   5   6
ATOM      6  C   UNL     1       7.838  11.338  12.058  1.00  0.00     0.000 C 
BRANCH   6   7
ATOM      7  C   UNL     1       8.531  11.833  10.770  1.00  0.00     0.000 C 
BRANCH   7   8
ATOM      8  C   UNL     1      10.057  11.615  10.755  1.00  0.00     0.000 C 
BRANCH   8   9
ATOM      9  C   UNL     1      10.599  10.671  11.844  1.00  0.00     0.000 C 
BRANCH   9  10
ATOM     10  C   UNL     1      11.281   9.393  11.321  1.00  0.00     0.000 C 
BRANCH  10  11
ATOM     11  C   UNL     1      10.548   8.773  10.123  1.00  0.00     0.000 C 
BRANCH  11  12
ATOM     12  C   UNL     1       9.443   7.818  10.590  1.00  0.00     0.000 C 
BRANCH  12  13
ATOM     13  C   UNL     1       8.098   8.172   9.937  1.00  0.00     0.006 C 
BRANCH  13  14
ATOM     14  C   UNL     1       8.270   8.736   8.520  1.00  0.00     0.053 C 
BRANCH  14  15
ATOM     15  C   UNL     1       7.102   9.579   8.109  1.00  0.00     0.041 C 
ATOM     16  O   UNL     1       5.960   9.357   8.591  1.00  0.00    -0.550 OA
ATOM     17  O   UNL     1       7.278  10.621   7.206  1.00  0.00    -0.550 OA
ENDBRANCH  14  15
ENDBRANCH  13  14
ENDBRANCH  12  13
ENDBRANCH  11  12
ENDBRANCH  10  11
ENDBRANCH   9  10
ENDBRANCH   8   9
ENDBRANCH   7   8
ENDBRANCH   6   7
ENDBRANCH   5   6
ENDBRANCH   4   5
ENDBRANCH   3   4
ENDBRANCH   2   3
ENDBRANCH   1   2
BRANCH   1  18
ATOM     18  C   UNL     1       2.352  14.682  11.851  1.00  0.00     0.000 C 
BRANCH  18  19
ATOM     19  C   UNL     1       2.223  15.233  10.423  1.00  0.00     0.000 C 
BRANCH  19  20
ATOM     20  C   UNL     1       0.828  14.991   9.822  1.00  0.00     0.000 C 
BRANCH  20  21
ATOM     21  C   UNL     1       0.368  13.532   9.977  1.00  0.00     0.000 C 
BRANCH  21  22
ATOM     22  C   UNL     1      -0.303  12.992   8.702  1.00  0.00     0.000 C 
BRANCH  22  23
ATOM     23  C   UNL     1       0.298  11.657   8.229  1.00  0.00     0.000 C 
BRANCH  23  24
ATOM     24  C   UNL     1       1.232  11.759   7.007  1.00  0.00    -0.000 C 
BRANCH  24  25
ATOM     25  C   UNL     1       1.792  13.168   6.720  1.00  0.00    -0.000 C 
BRANCH  25  26
ATOM     26  C   UNL     1       3.122  13.495   7.425  1.00  0.00    -0.000 C 
BRANCH  26  27
ATOM     27  C   UNL     1       3.887  12.270   7.959  1.00  0.00    -0.000 C 
BRANCH  27  28
ATOM     28  C   UNL     1       3.932  12.192   9.500  1.00  0.00    -0.000 C 
BRANCH  28  29
ATOM     29  C   UNL     1       3.271  10.913  10.040  1.00  0.00    -0.000 C 
BRANCH  29  30
ATOM     30  C   UNL     1       2.774  11.068  11.486  1.00  0.00    -0.000 C 
BRANCH  30  31
ATOM     31  C   UNL     1       1.395  10.429  11.707  1.00  0.00    -0.003 C 
ATOM     32  C   UNL     1       0.646  11.120  12.844  1.00  0.00     0.004 C 
ENDBRANCH  30  31
ENDBRANCH  29  30
ENDBRANCH  28  29
ENDBRANCH  27  28
ENDBRANCH  26  27
ENDBRANCH  25  26
ENDBRANCH  24  25
ENDBRANCH  23  24
ENDBRANCH  22  23
ENDBRANCH  21  22
ENDBRANCH  20  21
ENDBRANCH  19  20
ENDBRANCH  18  19
ENDBRANCH   1  18
TORSDOF 28
ENDMDL
MODEL 7
REMARK VINA RESULT:    -4.066      2.860      5.392
REMARK INTER + INTRA:         -16.241
REMARK INTER:                 -11.052
REMARK INTRA:                  -5.189
REMARK UNBOUND:                -5.519
REMARK SMILES CCCCCCCCCCCCCCCCCCCCCCCCCCCCCC(=O)[O-]
REMARK SMILES IDX 16 1 17 2 18 3 19 4 20 5 21 6 22 7 23 8 24 9 25 10 26 11
REMARK SMILES IDX 27 12 28 13 29 14 30 15 31 16 32 17 15 18 14 19 13 20 12 21
REMARK SMILES IDX 11 22 10 23 9 24 8 25 7 26 6 27 5 28 4 29 3 30 2 31 1 32
REMARK H PARENT
REMARK Flexibility Score: inf
ROOT
ATOM      1  C   UNL     1       0.520  10.772   6.567  1.00  0.00     0.000 C 
ENDROOT
BRANCH   1   2
ATOM      2  C   UNL     1       0.653  12.150   7.236  1.00  0.00     0.000 C 
BRANCH   2   3
ATOM      3  C   UNL     1       1.940  12.882   6.826  1.00  0.00     0.000 C 
BRANCH   3   4
ATOM      4  C   UNL     1       2.304  13.969   7.848  1.00  0.00     0.000 C 
BRANCH   4   5
ATOM      5  C   UNL     1       1.173  14.228   8.858  1.00  0.00     0.000 C 
BRANCH   5   6
ATOM      6  C   UNL     1       1.400  15.511   9.678  1.00  0.00     0.000 C 
BRANCH   6   7
ATOM      7  C   UNL     1       2.359  15.294  10.869  1.00  0.00     0.000 C 
BRANCH   7   8
ATOM      8  C   UNL     1       2.229  13.909  11.533  1.00  0.00     0.000 C 
BRANCH   8   9
ATOM      9  C   UNL     1       3.465  13.436  12.320  1.00  0.00     0.000 C 
BRANCH   9  10
ATOM     10  C   UNL     1       4.762  14.217  12.031  1.00  0.00     0.000 C 
BRANCH  10  11
ATOM     11  C   UNL     1       5.934  13.304  11.642  1.00  0.00     0.000 C 
BRANCH  11  12
ATOM     12  C   UNL     1       6.100  12.163  12.652  1.00  0.00     0.000 C 
BRANCH  12  13
ATOM     13  C   UNL     1       7.567  12.020  13.083  1.00  0.00     0.006 C 
BRANCH  13  14
ATOM     14  C   UNL     1       8.434  11.378  11.991  1.00  0.00     0.053 C 
BRANCH  14  15
ATOM     15  C   UNL     1       9.852  11.197  12.438  1.00  0.00     0.041 C 
ATOM     16  O   UNL     1      10.156  11.338  13.653  1.00  0.00    -0.550 OA
ATOM     17  O   UNL     1      10.836  10.858  11.517  1.00  0.00    -0.550 OA
ENDBRANCH  14  15
ENDBRANCH  13  14
ENDBRANCH  12  13
ENDBRANCH  11  12
ENDBRANCH  10  11
ENDBRANCH   9  10
ENDBRANCH   8   9
ENDBRANCH   7   8
ENDBRANCH   6   7
ENDBRANCH   5   6
ENDBRANCH   4   5
ENDBRANCH   3   4
ENDBRANCH   2   3
ENDBRANCH   1   2
BRANCH   1  18
ATOM     18  C   UNL     1       0.691   9.614   7.566  1.00  0.00     0.000 C 
BRANCH  18  19
ATOM     19  C   UNL     1       1.938   8.763   7.284  1.00  0.00     0.000 C 
BRANCH  19  20
ATOM     20  C   UNL     1       2.990   8.870   8.401  1.00  0.00     0.000 C 
BRANCH  20  21
ATOM     21  C   UNL     1       2.589   9.881   9.489  1.00  0.00     0.000 C 
BRANCH  21  22
ATOM     22  C   UNL     1       3.673  10.947   9.724  1.00  0.00     0.000 C 
BRANCH  22  23
ATOM     23  C   UNL     1       4.756  10.949   8.630  1.00  0.00     0.000 C 
BRANCH  23  24
ATOM     24  C   UNL     1       6.180  10.625   9.123  1.00  0.00    -0.000 C 
BRANCH  24  25
ATOM     25  C   UNL     1       7.248  10.495   8.017  1.00  0.00    -0.000 C 
BRANCH  25  26
ATOM     26  C   UNL     1       8.694  10.339   8.523  1.00  0.00    -0.000 C 
BRANCH  26  27
ATOM     27  C   UNL     1       9.215   8.891   8.551  1.00  0.00    -0.000 C 
BRANCH  27  28
ATOM     28  C   UNL     1       9.060   8.202   9.923  1.00  0.00    -0.000 C 
BRANCH  28  29
ATOM     29  C   UNL     1       8.201   6.929   9.845  1.00  0.00    -0.000 C 
BRANCH  29  30
ATOM     30  C   UNL     1       6.700   7.234   9.718  1.00  0.00    -0.000 C 
BRANCH  30  31
ATOM     31  C   UNL     1       6.018   6.390   8.631  1.00  0.00    -0.003 C 
ATOM     32  C   UNL     1       6.044   7.106   7.283  1.00  0.00     0.004 C 
ENDBRANCH  30  31
ENDBRANCH  29  30
ENDBRANCH  28  29
ENDBRANCH  27  28
ENDBRANCH  26  27
ENDBRANCH  25  26
ENDBRANCH  24  25
ENDBRANCH  23  24
ENDBRANCH  22  23
ENDBRANCH  21  22
ENDBRANCH  20  21
ENDBRANCH  19  20
ENDBRANCH  18  19
ENDBRANCH   1  18
TORSDOF 28
ENDMDL
MODEL 8
REMARK VINA RESULT:    -4.062      2.642      7.330
REMARK INTER + INTRA:         -16.229
REMARK INTER:                 -10.988
REMARK INTRA:                  -5.241
REMARK UNBOUND:                -5.519
REMARK SMILES CCCCCCCCCCCCCCCCCCCCCCCCCCCCCC(=O)[O-]
REMARK SMILES IDX 16 1 17 2 18 3 19 4 20 5 21 6 22 7 23 8 24 9 25 10 26 11
REMARK SMILES IDX 27 12 28 13 29 14 30 15 31 16 32 17 15 18 14 19 13 20 12 21
REMARK SMILES IDX 11 22 10 23 9 24 8 25 7 26 6 27 5 28 4 29 3 30 2 31 1 32
REMARK H PARENT
REMARK Flexibility Score: inf
ROOT
ATOM      1  C   UNL     1       0.809  11.309  11.660  1.00  0.00     0.000 C 
ENDROOT
BRANCH   1   2
ATOM      2  C   UNL     1       1.801  10.256  11.138  1.00  0.00     0.000 C 
BRANCH   2   3
ATOM      3  C   UNL     1       1.671  10.024   9.625  1.00  0.00     0.000 C 
BRANCH   3   4
ATOM      4  C   UNL     1       2.370   8.722   9.206  1.00  0.00     0.000 C 
BRANCH   4   5
ATOM      5  C   UNL     1       3.699   8.976   8.476  1.00  0.00     0.000 C 
BRANCH   5   6
ATOM      6  C   UNL     1       4.482   7.678   8.211  1.00  0.00     0.000 C 
BRANCH   6   7
ATOM      7  C   UNL     1       5.995   7.924   8.022  1.00  0.00     0.000 C 
BRANCH   7   8
ATOM      8  C   UNL     1       6.859   7.463   9.213  1.00  0.00     0.000 C 
BRANCH   8   9
ATOM      9  C   UNL     1       7.848   8.510   9.756  1.00  0.00     0.000 C 
BRANCH   9  10
ATOM     10  C   UNL     1       7.228   9.878  10.100  1.00  0.00     0.000 C 
BRANCH  10  11
ATOM     11  C   UNL     1       8.098  11.059   9.649  1.00  0.00     0.000 C 
BRANCH  11  12
ATOM     12  C   UNL     1       8.406  11.996  10.822  1.00  0.00     0.000 C 
BRANCH  12  13
ATOM     13  C   UNL     1       8.383  11.232  12.156  1.00  0.00     0.006 C 
BRANCH  13  14
ATOM     14  C   UNL     1       7.796  12.073  13.297  1.00  0.00     0.053 C 
BRANCH  14  15
ATOM     15  C   UNL     1       8.792  12.301  14.392  1.00  0.00     0.041 C 
ATOM     16  O   UNL     1       8.450  12.166  15.597  1.00  0.00    -0.550 OA
ATOM     17  O   UNL     1      10.102  12.648  14.082  1.00  0.00    -0.550 OA
ENDBRANCH  14  15
ENDBRANCH  13  14
ENDBRANCH  12  13
ENDBRANCH  11  12
ENDBRANCH  10  11
ENDBRANCH   9  10
ENDBRANCH   8   9
ENDBRANCH   7   8
ENDBRANCH   6   7
ENDBRANCH   5   6
ENDBRANCH   4   5
ENDBRANCH   3   4
ENDBRANCH   2   3
ENDBRANCH   1   2
BRANCH   1  18
ATOM     18  C   UNL     1       1.073  12.707  11.073  1.00  0.00     0.000 C 
BRANCH  18  19
ATOM     19  C   UNL     1       0.051  13.104   9.998  1.00  0.00     0.000 C 
BRANCH  19  20
ATOM     20  C   UNL     1       0.338  14.490   9.395  1.00  0.00     0.000 C 
BRANCH  20  21
ATOM     21  C   UNL     1       1.757  14.593   8.812  1.00  0.00     0.000 C 
BRANCH  21  22
ATOM     22  C   UNL     1       1.984  13.612   7.649  1.00  0.00     0.000 C 
BRANCH  22  23
ATOM     23  C   UNL     1       3.287  12.805   7.793  1.00  0.00     0.000 C 
BRANCH  23  24
ATOM     24  C   UNL     1       4.234  13.289   8.909  1.00  0.00    -0.000 C 
BRANCH  24  25
ATOM     25  C   UNL     1       4.558  12.245   9.998  1.00  0.00    -0.000 C 
BRANCH  25  26
ATOM     26  C   UNL     1       4.750  12.820  11.414  1.00  0.00    -0.000 C 
BRANCH  26  27
ATOM     27  C   UNL     1       4.402  14.313  11.556  1.00  0.00    -0.000 C 
BRANCH  27  28
ATOM     28  C   UNL     1       4.015  14.725  12.993  1.00  0.00    -0.000 C 
BRANCH  28  29
ATOM     29  C   UNL     1       4.174  13.569  13.995  1.00  0.00    -0.000 C 
BRANCH  29  30
ATOM     30  C   UNL     1       2.979  13.448  14.953  1.00  0.00    -0.000 C 
BRANCH  30  31
ATOM     31  C   UNL     1       1.745  14.216  14.455  1.00  0.00    -0.003 C 
ATOM     32  C   UNL     1       0.467  13.417  14.697  1.00  0.00     0.004 C 
ENDBRANCH  30  31
ENDBRANCH  29  30
ENDBRANCH  28  29
ENDBRANCH  27  28
ENDBRANCH  26  27
ENDBRANCH  25  26
ENDBRANCH  24  25
ENDBRANCH  23  24
ENDBRANCH  22  23
ENDBRANCH  21  22
ENDBRANCH  20  21
ENDBRANCH  19  20
ENDBRANCH  18  19
ENDBRANCH   1  18
TORSDOF 28
ENDMDL
MODEL 9
REMARK VINA RESULT:    -4.034      2.530      7.068
REMARK INTER + INTRA:         -16.154
REMARK INTER:                 -11.304
REMARK INTRA:                  -4.850
REMARK UNBOUND:                -5.519
REMARK SMILES CCCCCCCCCCCCCCCCCCCCCCCCCCCCCC(=O)[O-]
REMARK SMILES IDX 16 1 17 2 18 3 19 4 20 5 21 6 22 7 23 8 24 9 25 10 26 11
REMARK SMILES IDX 27 12 28 13 29 14 30 15 31 16 32 17 15 18 14 19 13 20 12 21
REMARK SMILES IDX 11 22 10 23 9 24 8 25 7 26 6 27 5 28 4 29 3 30 2 31 1 32
REMARK H PARENT
REMARK Flexibility Score: inf
ROOT
ATOM      1  C   UNL     1       3.345  14.874  12.432  1.00  0.00     0.000 C 
ENDROOT
BRANCH   1   2
ATOM      2  C   UNL     1       4.679  14.186  12.098  1.00  0.00     0.000 C 
BRANCH   2   3
ATOM      3  C   UNL     1       4.658  12.680  12.406  1.00  0.00     0.000 C 
BRANCH   3   4
ATOM      4  C   UNL     1       5.971  12.012  11.971  1.00  0.00     0.000 C 
BRANCH   4   5
ATOM      5  C   UNL     1       6.916  12.988  11.248  1.00  0.00     0.000 C 
BRANCH   5   6
ATOM      6  C   UNL     1       8.251  12.331  10.858  1.00  0.00     0.000 C 
BRANCH   6   7
ATOM      7  C   UNL     1       9.020  11.776  12.077  1.00  0.00     0.000 C 
BRANCH   7   8
ATOM      8  C   UNL     1      10.341  11.068  11.716  1.00  0.00     0.000 C 
BRANCH   8   9
ATOM      9  C   UNL     1      10.189   9.686  11.054  1.00  0.00     0.000 C 
BRANCH   9  10
ATOM     10  C   UNL     1       8.737   9.235  10.808  1.00  0.00     0.000 C 
BRANCH  10  11
ATOM     11  C   UNL     1       8.577   8.417   9.519  1.00  0.00     0.000 C 
BRANCH  11  12
ATOM     12  C   UNL     1       8.273   9.329   8.324  1.00  0.00     0.000 C 
BRANCH  12  13
ATOM     13  C   UNL     1       7.159   8.734   7.448  1.00  0.00     0.006 C 
BRANCH  13  14
ATOM     14  C   UNL     1       6.894   7.257   7.769  1.00  0.00     0.053 C 
BRANCH  14  15
ATOM     15  C   UNL     1       5.438   6.918   7.675  1.00  0.00     0.041 C 
ATOM     16  O   UNL     1       4.759   7.311   6.690  1.00  0.00    -0.550 OA
ATOM     17  O   UNL     1       4.835   6.154   8.668  1.00  0.00    -0.550 OA
ENDBRANCH  14  15
ENDBRANCH  13  14
ENDBRANCH  12  13
ENDBRANCH  11  12
ENDBRANCH  10  11
ENDBRANCH   9  10
ENDBRANCH   8   9
ENDBRANCH   7   8
ENDBRANCH   6   7
ENDBRANCH   5   6
ENDBRANCH   4   5
ENDBRANCH   3   4
ENDBRANCH   2   3
ENDBRANCH   1   2
BRANCH   1  18
ATOM     18  C   UNL     1       2.235  14.522  11.425  1.00  0.00     0.000 C 
BRANCH  18  19
ATOM     19  C   UNL     1       1.929  15.671  10.452  1.00  0.00     0.000 C 
BRANCH  19  20
ATOM     20  C   UNL     1       1.083  15.216   9.251  1.00  0.00     0.000 C 
BRANCH  20  21
ATOM     21  C   UNL     1       1.327  13.741   8.887  1.00  0.00     0.000 C 
BRANCH  21  22
ATOM     22  C   UNL     1       1.910  13.578   7.472  1.00  0.00     0.000 C 
BRANCH  22  23
ATOM     23  C   UNL     1       3.432  13.353   7.475  1.00  0.00     0.000 C 
BRANCH  23  24
ATOM     24  C   UNL     1       3.994  12.712   8.760  1.00  0.00    -0.000 C 
BRANCH  24  25
ATOM     25  C   UNL     1       4.798  11.412   8.551  1.00  0.00    -0.000 C 
BRANCH  25  26
ATOM     26  C   UNL     1       4.085  10.126   9.007  1.00  0.00    -0.000 C 
BRANCH  26  27
ATOM     27  C   UNL     1       2.694   9.904   8.385  1.00  0.00    -0.000 C 
BRANCH  27  28
ATOM     28  C   UNL     1       1.532  10.076   9.387  1.00  0.00    -0.000 C 
BRANCH  28  29
ATOM     29  C   UNL     1       2.029  10.292  10.827  1.00  0.00    -0.000 C 
BRANCH  29  30
ATOM     30  C   UNL     1       0.883  10.559  11.814  1.00  0.00    -0.000 C 
BRANCH  30  31
ATOM     31  C   UNL     1       1.360  11.265  13.093  1.00  0.00    -0.003 C 
ATOM     32  C   UNL     1       0.178  11.661  13.974  1.00  0.00     0.004 C 
ENDBRANCH  30  31
ENDBRANCH  29  30
ENDBRANCH  28  29
ENDBRANCH  27  28
ENDBRANCH  26  27
ENDBRANCH  25  26
ENDBRANCH  24  25
ENDBRANCH  23  24
ENDBRANCH  22  23
ENDBRANCH  21  22
ENDBRANCH  20  21
ENDBRANCH  19  20
ENDBRANCH  18  19
ENDBRANCH   1  18
TORSDOF 28
ENDMDL
