MODEL 1
REMARK VINA RESULT:     0.423      0.000      0.000
REMARK INTER + INTRA:          -0.304
REMARK INTER:                   0.967
REMARK INTRA:                  -1.270
REMARK UNBOUND:                -1.270
REMARK SMILES CCCCCCCCCCCCCCCCCCCCCCCC(=O)[O-]
REMARK SMILES IDX 13 1 14 2 15 3 16 4 17 5 18 6 19 7 20 8 21 9 22 10 23 11
REMARK SMILES IDX 24 12 25 13 26 14 12 15 11 16 10 17 9 18 8 19 7 20 6 21 5 22
REMARK SMILES IDX 4 23 3 24 2 25 1 26
REMARK H PARENT
REMARK Flexibility Score: inf
ROOT
ATOM      1  C   UNL     1       0.733   4.242  -2.849  1.00  0.00     0.000 C 
ENDROOT
BRANCH   1   2
ATOM      2  C   UNL     1       2.150   4.162  -2.258  1.00  0.00     0.000 C 
BRANCH   2   3
ATOM      3  C   UNL     1       2.268   3.111  -1.141  1.00  0.00     0.000 C 
BRANCH   3   4
ATOM      4  C   UNL     1       2.285   1.666  -1.676  1.00  0.00     0.000 C 
BRANCH   4   5
ATOM      5  C   UNL     1       2.347   0.571  -0.595  1.00  0.00     0.000 C 
BRANCH   5   6
ATOM      6  C   UNL     1       2.827   1.095   0.767  1.00  0.00     0.000 C 
BRANCH   6   7
ATOM      7  C   UNL     1       2.405   0.149   1.901  1.00  0.00     0.000 C 
BRANCH   7   8
ATOM      8  C   UNL     1       1.572  -1.047   1.404  1.00  0.00     0.000 C 
BRANCH   8   9
ATOM      9  C   UNL     1       0.917  -1.895   2.515  1.00  0.00     0.000 C 
BRANCH   9  10
ATOM     10  C   UNL     1      -0.561  -1.566   2.805  1.00  0.00     0.006 C 
BRANCH  10  11
ATOM     11  C   UNL     1      -1.049  -2.015   4.192  1.00  0.00     0.053 C 
BRANCH  11  12
ATOM     12  C   UNL     1      -1.277  -0.851   5.108  1.00  0.00     0.041 C 
ATOM     13  O   UNL     1      -0.966   0.312   4.742  1.00  0.00    -0.550 OA
ATOM     14  O   UNL     1      -1.854  -1.050   6.356  1.00  0.00    -0.550 OA
ENDBRANCH  11  12
ENDBRANCH  10  11
ENDBRANCH   9  10
ENDBRANCH   8   9
ENDBRANCH   7   8
ENDBRANCH   6   7
ENDBRANCH   5   6
ENDBRANCH   4   5
ENDBRANCH   3   4
ENDBRANCH   2   3
ENDBRANCH   1   2
BRANCH   1  15
ATOM     15  C   UNL     1       0.379   5.649  -3.364  1.00  0.00     0.000 C 
BRANCH  15  16
ATOM     16  C   UNL     1      -0.401   5.617  -4.692  1.00  0.00     0.000 C 
BRANCH  16  17
ATOM     17  C   UNL     1       0.463   5.377  -5.945  1.00  0.00     0.000 C 
BRANCH  17  18
ATOM     18  C   UNL     1       0.193   6.404  -7.058  1.00  0.00    -0.000 C 
BRANCH  18  19
ATOM     19  C   UNL     1       1.003   6.118  -8.338  1.00  0.00    -0.000 C 
BRANCH  19  20
ATOM     20  C   UNL     1       0.607   6.991  -9.545  1.00  0.00    -0.000 C 
BRANCH  20  21
ATOM     21  C   UNL     1       1.026   8.473  -9.409  1.00  0.00    -0.000 C 
BRANCH  21  22
ATOM     22  C   UNL     1      -0.130   9.466  -9.633  1.00  0.00    -0.000 C 
BRANCH  22  23
ATOM     23  C   UNL     1      -1.469   9.055  -8.989  1.00  0.00    -0.000 C 
BRANCH  23  24
ATOM     24  C   UNL     1      -2.103  10.117  -8.071  1.00  0.00    -0.000 C 
BRANCH  24  25
ATOM     25  C   UNL     1      -1.802   9.883  -6.584  1.00  0.00    -0.003 C 
ATOM     26  C   UNL     1      -0.298   9.805  -6.334  1.00  0.00     0.004 C 
ENDBRANCH  24  25
ENDBRANCH  23  24
ENDBRANCH  22  23
ENDBRANCH  21  22
ENDBRANCH  20  21
ENDBRANCH  19  20
ENDBRANCH  18  19
ENDBRANCH  17  18
ENDBRANCH  16  17
ENDBRANCH  15  16
ENDBRANCH   1  15
TORSDOF 22
ENDMDL
MODEL 2
REMARK VINA RESULT:     0.900      4.465     12.728
REMARK INTER + INTRA:           0.787
REMARK INTER:                   1.584
REMARK INTRA:                  -0.797
REMARK UNBOUND:                -1.270
REMARK SMILES CCCCCCCCCCCCCCCCCCCCCCCC(=O)[O-]
REMARK SMILES IDX 13 1 14 2 15 3 16 4 17 5 18 6 19 7 20 8 21 9 22 10 23 11
REMARK SMILES IDX 24 12 25 13 26 14 12 15 11 16 10 17 9 18 8 19 7 20 6 21 5 22
REMARK SMILES IDX 4 23 3 24 2 25 1 26
REMARK H PARENT
REMARK Flexibility Score: inf
ROOT
ATOM      1  C   UNL     1       2.031   3.828  -1.836  1.00  0.00     0.000 C 
ENDROOT
BRANCH   1   2
ATOM      2  C   UNL     1       1.592   4.509  -3.143  1.00  0.00     0.000 C 
BRANCH   2   3
ATOM      3  C   UNL     1       0.403   5.464  -2.943  1.00  0.00     0.000 C 
BRANCH   3   4
ATOM      4  C   UNL     1      -0.377   5.731  -4.244  1.00  0.00     0.000 C 
BRANCH   4   5
ATOM      5  C   UNL     1       0.349   5.316  -5.537  1.00  0.00     0.000 C 
BRANCH   5   6
ATOM      6  C   UNL     1       0.032   6.234  -6.728  1.00  0.00     0.000 C 
BRANCH   6   7
ATOM      7  C   UNL     1       1.007   5.987  -7.888  1.00  0.00     0.000 C 
BRANCH   7   8
ATOM      8  C   UNL     1       0.477   6.506  -9.237  1.00  0.00     0.000 C 
BRANCH   8   9
ATOM      9  C   UNL     1       1.173   7.777  -9.768  1.00  0.00     0.000 C 
BRANCH   9  10
ATOM     10  C   UNL     1       1.143   8.988  -8.814  1.00  0.00     0.006 C 
BRANCH  10  11
ATOM     11  C   UNL     1      -0.240   9.641  -8.665  1.00  0.00     0.053 C 
BRANCH  11  12
ATOM     12  C   UNL     1      -0.618   9.827  -7.227  1.00  0.00     0.041 C 
ATOM     13  O   UNL     1       0.274   9.913  -6.344  1.00  0.00    -0.550 OA
ATOM     14  O   UNL     1      -1.956   9.927  -6.866  1.00  0.00    -0.550 OA
ENDBRANCH  11  12
ENDBRANCH  10  11
ENDBRANCH   9  10
ENDBRANCH   8   9
ENDBRANCH   7   8
ENDBRANCH   6   7
ENDBRANCH   5   6
ENDBRANCH   4   5
ENDBRANCH   3   4
ENDBRANCH   2   3
ENDBRANCH   1   2
BRANCH   1  15
ATOM     15  C   UNL     1       2.340   2.331  -2.017  1.00  0.00     0.000 C 
BRANCH  15  16
ATOM     16  C   UNL     1       1.885   1.480  -0.816  1.00  0.00     0.000 C 
BRANCH  16  17
ATOM     17  C   UNL     1       2.990   0.617  -0.177  1.00  0.00     0.000 C 
BRANCH  17  18
ATOM     18  C   UNL     1       3.274   1.002   1.285  1.00  0.00    -0.000 C 
BRANCH  18  19
ATOM     19  C   UNL     1       2.372   0.248   2.282  1.00  0.00    -0.000 C 
BRANCH  19  20
ATOM     20  C   UNL     1       1.469  -0.819   1.635  1.00  0.00    -0.000 C 
BRANCH  20  21
ATOM     21  C   UNL     1       0.927  -1.869   2.633  1.00  0.00    -0.000 C 
BRANCH  21  22
ATOM     22  C   UNL     1      -0.610  -1.876   2.749  1.00  0.00    -0.000 C 
BRANCH  22  23
ATOM     23  C   UNL     1      -1.156  -2.457   4.069  1.00  0.00    -0.000 C 
BRANCH  23  24
ATOM     24  C   UNL     1      -1.009  -1.537   5.296  1.00  0.00    -0.000 C 
BRANCH  24  25
ATOM     25  C   UNL     1      -1.748  -0.201   5.136  1.00  0.00    -0.003 C 
ATOM     26  C   UNL     1      -0.967   0.755   4.238  1.00  0.00     0.004 C 
ENDBRANCH  24  25
ENDBRANCH  23  24
ENDBRANCH  22  23
ENDBRANCH  21  22
ENDBRANCH  20  21
ENDBRANCH  19  20
ENDBRANCH  18  19
ENDBRANCH  17  18
ENDBRANCH  16  17
ENDBRANCH  15  16
ENDBRANCH   1  15
TORSDOF 22
ENDMDL
MODEL 3
REMARK VINA RESULT:     1.096      8.166     11.922
REMARK INTER + INTRA:           1.236
REMARK INTER:                   2.737
REMARK INTRA:                  -1.502
REMARK UNBOUND:                -1.270
REMARK SMILES CCCCCCCCCCCCCCCCCCCCCCCC(=O)[O-]
REMARK SMILES IDX 13 1 14 2 15 3 16 4 17 5 18 6 19 7 20 8 21 9 22 10 23 11
REMARK SMILES IDX 24 12 25 13 26 14 12 15 11 16 10 17 9 18 8 19 7 20 6 21 5 22
REMARK SMILES IDX 4 23 3 24 2 25 1 26
REMARK H PARENT
REMARK Flexibility Score: inf
ROOT
ATOM      1  C   UNL     1       4.868   1.874   0.425  1.00  0.00     0.000 C 
ENDROOT
BRANCH   1   2
ATOM      2  C   UNL     1       6.140   1.183   0.945  1.00  0.00     0.000 C 
BRANCH   2   3
ATOM      3  C   UNL     1       7.328   1.324  -0.022  1.00  0.00     0.000 C 
BRANCH   3   4
ATOM      4  C   UNL     1       7.924   2.744  -0.037  1.00  0.00     0.000 C 
BRANCH   4   5
ATOM      5  C   UNL     1       9.188   2.913  -0.900  1.00  0.00     0.000 C 
BRANCH   5   6
ATOM      6  C   UNL     1       9.869   4.277  -0.711  1.00  0.00     0.000 C 
BRANCH   6   7
ATOM      7  C   UNL     1       8.902   5.293  -0.087  1.00  0.00     0.000 C 
BRANCH   7   8
ATOM      8  C   UNL     1       9.624   6.414   0.682  1.00  0.00     0.000 C 
BRANCH   8   9
ATOM      9  C   UNL     1       9.202   6.570   2.158  1.00  0.00     0.000 C 
BRANCH   9  10
ATOM     10  C   UNL     1       8.594   7.939   2.525  1.00  0.00     0.006 C 
BRANCH  10  11
ATOM     11  C   UNL     1       7.097   8.073   2.204  1.00  0.00     0.053 C 
BRANCH  11  12
ATOM     12  C   UNL     1       6.789   9.363   1.507  1.00  0.00     0.041 C 
ATOM     13  O   UNL     1       7.722  10.087   1.072  1.00  0.00    -0.550 OA
ATOM     14  O   UNL     1       5.469   9.754   1.317  1.00  0.00    -0.550 OA
ENDBRANCH  11  12
ENDBRANCH  10  11
ENDBRANCH   9  10
ENDBRANCH   8   9
ENDBRANCH   7   8
ENDBRANCH   6   7
ENDBRANCH   5   6
ENDBRANCH   4   5
ENDBRANCH   3   4
ENDBRANCH   2   3
ENDBRANCH   1   2
BRANCH   1  15
ATOM     15  C   UNL     1       3.580   1.132   0.824  1.00  0.00     0.000 C 
BRANCH  15  16
ATOM     16  C   UNL     1       2.707   0.761  -0.389  1.00  0.00     0.000 C 
BRANCH  16  17
ATOM     17  C   UNL     1       1.592  -0.261  -0.098  1.00  0.00     0.000 C 
BRANCH  17  18
ATOM     18  C   UNL     1       1.477  -0.605   1.397  1.00  0.00    -0.000 C 
BRANCH  18  19
ATOM     19  C   UNL     1       1.468  -2.125   1.656  1.00  0.00    -0.000 C 
BRANCH  19  20
ATOM     20  C   UNL     1       0.658  -2.549   2.897  1.00  0.00    -0.000 C 
BRANCH  20  21
ATOM     21  C   UNL     1      -0.715  -1.848   3.017  1.00  0.00    -0.000 C 
BRANCH  21  22
ATOM     22  C   UNL     1      -1.306  -1.885   4.440  1.00  0.00    -0.000 C 
BRANCH  22  23
ATOM     23  C   UNL     1      -1.573  -0.502   5.064  1.00  0.00    -0.000 C 
BRANCH  23  24
ATOM     24  C   UNL     1      -0.948   0.686   4.308  1.00  0.00    -0.000 C 
BRANCH  24  25
ATOM     25  C   UNL     1       0.562   0.822   4.547  1.00  0.00    -0.003 C 
ATOM     26  C   UNL     1       1.141   1.988   3.749  1.00  0.00     0.004 C 
ENDBRANCH  24  25
ENDBRANCH  23  24
ENDBRANCH  22  23
ENDBRANCH  21  22
ENDBRANCH  20  21
ENDBRANCH  19  20
ENDBRANCH  18  19
ENDBRANCH  17  18
ENDBRANCH  16  17
ENDBRANCH  15  16
ENDBRANCH   1  15
TORSDOF 22
ENDMDL
MODEL 4
REMARK VINA RESULT:     1.182      4.186     12.480
REMARK INTER + INTRA:           1.432
REMARK INTER:                   2.593
REMARK INTRA:                  -1.161
REMARK UNBOUND:                -1.270
REMARK SMILES CCCCCCCCCCCCCCCCCCCCCCCC(=O)[O-]
REMARK SMILES IDX 13 1 14 2 15 3 16 4 17 5 18 6 19 7 20 8 21 9 22 10 23 11
REMARK SMILES IDX 24 12 25 13 26 14 12 15 11 16 10 17 9 18 8 19 7 20 6 21 5 22
REMARK SMILES IDX 4 23 3 24 2 25 1 26
REMARK H PARENT
REMARK Flexibility Score: inf
ROOT
ATOM      1  C   UNL     1      -0.003   5.921  -3.408  1.00  0.00     0.000 C 
ENDROOT
BRANCH   1   2
ATOM      2  C   UNL     1      -0.219   6.711  -2.107  1.00  0.00     0.000 C 
BRANCH   2   3
ATOM      3  C   UNL     1      -0.759   8.130  -2.358  1.00  0.00     0.000 C 
BRANCH   3   4
ATOM      4  C   UNL     1      -0.210   8.760  -3.652  1.00  0.00     0.000 C 
BRANCH   4   5
ATOM      5  C   UNL     1      -1.257   9.479  -4.523  1.00  0.00     0.000 C 
BRANCH   5   6
ATOM      6  C   UNL     1      -0.696   9.953  -5.872  1.00  0.00     0.000 C 
BRANCH   6   7
ATOM      7  C   UNL     1      -1.265   9.117  -7.028  1.00  0.00     0.000 C 
BRANCH   7   8
ATOM      8  C   UNL     1      -1.464   9.935  -8.318  1.00  0.00     0.000 C 
BRANCH   8   9
ATOM      9  C   UNL     1      -1.366   9.124  -9.627  1.00  0.00     0.000 C 
BRANCH   9  10
ATOM     10  C   UNL     1      -0.035   8.374  -9.836  1.00  0.00     0.006 C 
BRANCH  10  11
ATOM     11  C   UNL     1      -0.104   6.868  -9.541  1.00  0.00     0.053 C 
BRANCH  11  12
ATOM     12  C   UNL     1       1.001   6.426  -8.631  1.00  0.00     0.041 C 
ATOM     13  O   UNL     1       2.201   6.533  -8.994  1.00  0.00    -0.550 OA
ATOM     14  O   UNL     1       0.706   5.917  -7.372  1.00  0.00    -0.550 OA
ENDBRANCH  11  12
ENDBRANCH  10  11
ENDBRANCH   9  10
ENDBRANCH   8   9
ENDBRANCH   7   8
ENDBRANCH   6   7
ENDBRANCH   5   6
ENDBRANCH   4   5
ENDBRANCH   3   4
ENDBRANCH   2   3
ENDBRANCH   1   2
BRANCH   1  15
ATOM     15  C   UNL     1       1.082   4.838  -3.276  1.00  0.00     0.000 C 
BRANCH  15  16
ATOM     16  C   UNL     1       1.365   4.454  -1.811  1.00  0.00     0.000 C 
BRANCH  16  17
ATOM     17  C   UNL     1       2.435   3.362  -1.622  1.00  0.00     0.000 C 
BRANCH  17  18
ATOM     18  C   UNL     1       2.037   2.318  -0.565  1.00  0.00    -0.000 C 
BRANCH  18  19
ATOM     19  C   UNL     1       2.569   0.909  -0.895  1.00  0.00    -0.000 C 
BRANCH  19  20
ATOM     20  C   UNL     1       1.903  -0.223  -0.089  1.00  0.00    -0.000 C 
BRANCH  20  21
ATOM     21  C   UNL     1       1.892   0.020   1.438  1.00  0.00    -0.000 C 
BRANCH  21  22
ATOM     22  C   UNL     1       1.524  -1.231   2.260  1.00  0.00    -0.000 C 
BRANCH  22  23
ATOM     23  C   UNL     1       0.048  -1.664   2.153  1.00  0.00    -0.000 C 
BRANCH  23  24
ATOM     24  C   UNL     1      -0.699  -1.764   3.497  1.00  0.00    -0.000 C 
BRANCH  24  25
ATOM     25  C   UNL     1      -0.937  -0.398   4.155  1.00  0.00    -0.003 C 
ATOM     26  C   UNL     1      -1.705  -0.547   5.467  1.00  0.00     0.004 C 
ENDBRANCH  24  25
ENDBRANCH  23  24
ENDBRANCH  22  23
ENDBRANCH  21  22
ENDBRANCH  20  21
ENDBRANCH  19  20
ENDBRANCH  18  19
ENDBRANCH  17  18
ENDBRANCH  16  17
ENDBRANCH  15  16
ENDBRANCH   1  15
TORSDOF 22
ENDMDL
MODEL 5
REMARK VINA RESULT:     1.304      1.214      2.756
REMARK INTER + INTRA:           1.711
REMARK INTER:                   2.768
REMARK INTRA:                  -1.057
REMARK UNBOUND:                -1.270
REMARK SMILES CCCCCCCCCCCCCCCCCCCCCCCC(=O)[O-]
REMARK SMILES IDX 13 1 14 2 15 3 16 4 17 5 18 6 19 7 20 8 21 9 22 10 23 11
REMARK SMILES IDX 24 12 25 13 26 14 12 15 11 16 10 17 9 18 8 19 7 20 6 21 5 22
REMARK SMILES IDX 4 23 3 24 2 25 1 26
REMARK H PARENT
REMARK Flexibility Score: inf
ROOT
ATOM      1  C   UNL     1       1.351   5.091  -3.004  1.00  0.00     0.000 C 
ENDROOT
BRANCH   1   2
ATOM      2  C   UNL     1       1.509   4.262  -1.719  1.00  0.00     0.000 C 
BRANCH   2   3
ATOM      3  C   UNL     1       2.237   2.928  -1.961  1.00  0.00     0.000 C 
BRANCH   3   4
ATOM      4  C   UNL     1       2.421   2.103  -0.673  1.00  0.00     0.000 C 
BRANCH   4   5
ATOM      5  C   UNL     1       2.615   0.590  -0.888  1.00  0.00     0.000 C 
BRANCH   5   6
ATOM      6  C   UNL     1       1.876  -0.266   0.151  1.00  0.00     0.000 C 
BRANCH   6   7
ATOM      7  C   UNL     1       2.329   0.086   1.576  1.00  0.00     0.000 C 
BRANCH   7   8
ATOM      8  C   UNL     1       1.540  -0.672   2.659  1.00  0.00     0.000 C 
BRANCH   8   9
ATOM      9  C   UNL     1       0.678  -1.842   2.142  1.00  0.00     0.000 C 
BRANCH   9  10
ATOM     10  C   UNL     1      -0.780  -1.853   2.642  1.00  0.00     0.006 C 
BRANCH  10  11
ATOM     11  C   UNL     1      -0.936  -2.190   4.133  1.00  0.00     0.053 C 
BRANCH  11  12
ATOM     12  C   UNL     1      -1.235  -0.972   4.953  1.00  0.00     0.041 C 
ATOM     13  O   UNL     1      -1.313  -1.055   6.206  1.00  0.00    -0.550 OA
ATOM     14  O   UNL     1      -1.404   0.260   4.333  1.00  0.00    -0.550 OA
ENDBRANCH  11  12
ENDBRANCH  10  11
ENDBRANCH   9  10
ENDBRANCH   8   9
ENDBRANCH   7   8
ENDBRANCH   6   7
ENDBRANCH   5   6
ENDBRANCH   4   5
ENDBRANCH   3   4
ENDBRANCH   2   3
ENDBRANCH   1   2
BRANCH   1  15
ATOM     15  C   UNL     1      -0.015   5.795  -3.095  1.00  0.00     0.000 C 
BRANCH  15  16
ATOM     16  C   UNL     1      -0.216   6.849  -1.990  1.00  0.00     0.000 C 
BRANCH  16  17
ATOM     17  C   UNL     1      -0.689   8.228  -2.487  1.00  0.00     0.000 C 
BRANCH  17  18
ATOM     18  C   UNL     1      -0.473   8.421  -3.998  1.00  0.00    -0.000 C 
BRANCH  18  19
ATOM     19  C   UNL     1      -1.098   9.729  -4.524  1.00  0.00    -0.000 C 
BRANCH  19  20
ATOM     20  C   UNL     1      -0.712  10.074  -5.975  1.00  0.00    -0.000 C 
BRANCH  20  21
ATOM     21  C   UNL     1      -1.626   9.421  -7.038  1.00  0.00    -0.000 C 
BRANCH  21  22
ATOM     22  C   UNL     1      -1.384   9.944  -8.467  1.00  0.00    -0.000 C 
BRANCH  22  23
ATOM     23  C   UNL     1      -1.105   8.849  -9.517  1.00  0.00    -0.000 C 
BRANCH  23  24
ATOM     24  C   UNL     1      -0.067   7.792  -9.095  1.00  0.00    -0.000 C 
BRANCH  24  25
ATOM     25  C   UNL     1       1.312   8.017  -9.731  1.00  0.00    -0.003 C 
ATOM     26  C   UNL     1       2.146   6.739  -9.702  1.00  0.00     0.004 C 
ENDBRANCH  24  25
ENDBRANCH  23  24
ENDBRANCH  22  23
ENDBRANCH  21  22
ENDBRANCH  20  21
ENDBRANCH  19  20
ENDBRANCH  18  19
ENDBRANCH  17  18
ENDBRANCH  16  17
ENDBRANCH  15  16
ENDBRANCH   1  15
TORSDOF 22
ENDMDL
MODEL 6
REMARK VINA RESULT:     1.389      1.060      2.799
REMARK INTER + INTRA:           1.905
REMARK INTER:                   2.896
REMARK INTRA:                  -0.991
REMARK UNBOUND:                -1.270
REMARK SMILES CCCCCCCCCCCCCCCCCCCCCCCC(=O)[O-]
REMARK SMILES IDX 13 1 14 2 15 3 16 4 17 5 18 6 19 7 20 8 21 9 22 10 23 11
REMARK SMILES IDX 24 12 25 13 26 14 12 15 11 16 10 17 9 18 8 19 7 20 6 21 5 22
REMARK SMILES IDX 4 23 3 24 2 25 1 26
REMARK H PARENT
REMARK Flexibility Score: inf
ROOT
ATOM      1  C   UNL     1       2.204   2.194  -1.905  1.00  0.00     0.000 C 
ENDROOT
BRANCH   1   2
ATOM      2  C   UNL     1       2.960   1.432  -0.804  1.00  0.00     0.000 C 
BRANCH   2   3
ATOM      3  C   UNL     1       2.057   1.053   0.382  1.00  0.00     0.000 C 
BRANCH   3   4
ATOM      4  C   UNL     1       2.853   0.638   1.634  1.00  0.00     0.000 C 
BRANCH   4   5
ATOM      5  C   UNL     1       2.207  -0.475   2.479  1.00  0.00     0.000 C 
BRANCH   5   6
ATOM      6  C   UNL     1       1.222  -1.344   1.681  1.00  0.00     0.000 C 
BRANCH   6   7
ATOM      7  C   UNL     1       0.576  -2.409   2.578  1.00  0.00     0.000 C 
BRANCH   7   8
ATOM      8  C   UNL     1      -0.813  -1.995   3.095  1.00  0.00     0.000 C 
BRANCH   8   9
ATOM      9  C   UNL     1      -1.137  -2.448   4.535  1.00  0.00     0.000 C 
BRANCH   9  10
ATOM     10  C   UNL     1      -1.155  -1.321   5.587  1.00  0.00     0.006 C 
BRANCH  10  11
ATOM     11  C   UNL     1      -2.128  -0.175   5.271  1.00  0.00     0.053 C 
BRANCH  11  12
ATOM     12  C   UNL     1      -1.476   0.905   4.463  1.00  0.00     0.041 C 
ATOM     13  O   UNL     1      -0.227   0.915   4.310  1.00  0.00    -0.550 OA
ATOM     14  O   UNL     1      -2.251   1.888   3.859  1.00  0.00    -0.550 OA
ENDBRANCH  11  12
ENDBRANCH  10  11
ENDBRANCH   9  10
ENDBRANCH   8   9
ENDBRANCH   7   8
ENDBRANCH   6   7
ENDBRANCH   5   6
ENDBRANCH   4   5
ENDBRANCH   3   4
ENDBRANCH   2   3
ENDBRANCH   1   2
BRANCH   1  15
ATOM     15  C   UNL     1       2.183   3.715  -1.671  1.00  0.00     0.000 C 
BRANCH  15  16
ATOM     16  C   UNL     1       1.980   4.515  -2.972  1.00  0.00     0.000 C 
BRANCH  16  17
ATOM     17  C   UNL     1       0.612   5.212  -3.098  1.00  0.00     0.000 C 
BRANCH  17  18
ATOM     18  C   UNL     1      -0.127   4.840  -4.394  1.00  0.00    -0.000 C 
BRANCH  18  19
ATOM     19  C   UNL     1      -0.021   5.936  -5.473  1.00  0.00    -0.000 C 
BRANCH  19  20
ATOM     20  C   UNL     1       0.329   5.408  -6.878  1.00  0.00    -0.000 C 
BRANCH  20  21
ATOM     21  C   UNL     1       1.019   6.453  -7.785  1.00  0.00    -0.000 C 
BRANCH  21  22
ATOM     22  C   UNL     1       0.161   6.889  -8.988  1.00  0.00    -0.000 C 
BRANCH  22  23
ATOM     23  C   UNL     1      -0.060   8.411  -9.106  1.00  0.00    -0.000 C 
BRANCH  23  24
ATOM     24  C   UNL     1       0.412   9.233  -7.891  1.00  0.00    -0.000 C 
BRANCH  24  25
ATOM     25  C   UNL     1      -0.671   9.389  -6.814  1.00  0.00    -0.003 C 
ATOM     26  C   UNL     1      -1.956   9.960  -7.406  1.00  0.00     0.004 C 
ENDBRANCH  24  25
ENDBRANCH  23  24
ENDBRANCH  22  23
ENDBRANCH  21  22
ENDBRANCH  20  21
ENDBRANCH  19  20
ENDBRANCH  18  19
ENDBRANCH  17  18
ENDBRANCH  16  17
ENDBRANCH  15  16
ENDBRANCH   1  15
TORSDOF 22
ENDMDL
MODEL 7
REMARK VINA RESULT:     1.600      1.048      2.437
REMARK INTER + INTRA:           2.388
REMARK INTER:                   3.683
REMARK INTRA:                  -1.295
REMARK UNBOUND:                -1.270
REMARK SMILES CCCCCCCCCCCCCCCCCCCCCCCC(=O)[O-]
REMARK SMILES IDX 13 1 14 2 15 3 16 4 17 5 18 6 19 7 20 8 21 9 22 10 23 11
REMARK SMILES IDX 24 12 25 13 26 14 12 15 11 16 10 17 9 18 8 19 7 20 6 21 5 22
REMARK SMILES IDX 4 23 3 24 2 25 1 26
REMARK H PARENT
REMARK Flexibility Score: inf
ROOT
ATOM      1  C   UNL     1       1.507   4.889  -3.248  1.00  0.00     0.000 C 
ENDROOT
BRANCH   1   2
ATOM      2  C   UNL     1       1.755   4.027  -1.999  1.00  0.00     0.000 C 
BRANCH   2   3
ATOM      3  C   UNL     1       2.417   2.678  -2.332  1.00  0.00     0.000 C 
BRANCH   3   4
ATOM      4  C   UNL     1       1.874   1.518  -1.477  1.00  0.00     0.000 C 
BRANCH   4   5
ATOM      5  C   UNL     1       2.840   0.994  -0.398  1.00  0.00     0.000 C 
BRANCH   5   6
ATOM      6  C   UNL     1       2.180   0.001   0.571  1.00  0.00     0.000 C 
BRANCH   6   7
ATOM      7  C   UNL     1       2.623   0.266   2.017  1.00  0.00     0.000 C 
BRANCH   7   8
ATOM      8  C   UNL     1       1.704  -0.401   3.057  1.00  0.00     0.000 C 
BRANCH   8   9
ATOM      9  C   UNL     1       0.885  -1.599   2.532  1.00  0.00     0.000 C 
BRANCH   9  10
ATOM     10  C   UNL     1      -0.637  -1.499   2.752  1.00  0.00     0.006 C 
BRANCH  10  11
ATOM     11  C   UNL     1      -1.125  -2.088   4.085  1.00  0.00     0.053 C 
BRANCH  11  12
ATOM     12  C   UNL     1      -1.317  -1.029   5.127  1.00  0.00     0.041 C 
ATOM     13  O   UNL     1      -1.090  -1.284   6.338  1.00  0.00    -0.550 OA
ATOM     14  O   UNL     1      -1.724   0.247   4.756  1.00  0.00    -0.550 OA
ENDBRANCH  11  12
ENDBRANCH  10  11
ENDBRANCH   9  10
ENDBRANCH   8   9
ENDBRANCH   7   8
ENDBRANCH   6   7
ENDBRANCH   5   6
ENDBRANCH   4   5
ENDBRANCH   3   4
ENDBRANCH   2   3
ENDBRANCH   1   2
BRANCH   1  15
ATOM     15  C   UNL     1       0.074   4.753  -3.793  1.00  0.00     0.000 C 
BRANCH  15  16
ATOM     16  C   UNL     1      -0.335   5.936  -4.691  1.00  0.00     0.000 C 
BRANCH  16  17
ATOM     17  C   UNL     1       0.173   5.853  -6.143  1.00  0.00     0.000 C 
BRANCH  17  18
ATOM     18  C   UNL     1       0.233   7.227  -6.831  1.00  0.00    -0.000 C 
BRANCH  18  19
ATOM     19  C   UNL     1      -0.940   8.144  -6.429  1.00  0.00    -0.000 C 
BRANCH  19  20
ATOM     20  C   UNL     1      -0.823   9.587  -6.957  1.00  0.00    -0.000 C 
BRANCH  20  21
ATOM     21  C   UNL     1       0.224   9.759  -8.082  1.00  0.00    -0.000 C 
BRANCH  21  22
ATOM     22  C   UNL     1      -0.271   9.294  -9.465  1.00  0.00    -0.000 C 
BRANCH  22  23
ATOM     23  C   UNL     1       0.581   8.187 -10.118  1.00  0.00    -0.000 C 
BRANCH  23  24
ATOM     24  C   UNL     1       2.100   8.444 -10.106  1.00  0.00    -0.000 C 
BRANCH  24  25
ATOM     25  C   UNL     1       2.923   7.172  -9.853  1.00  0.00    -0.003 C 
ATOM     26  C   UNL     1       2.017   5.951  -9.721  1.00  0.00     0.004 C 
ENDBRANCH  24  25
ENDBRANCH  23  24
ENDBRANCH  22  23
ENDBRANCH  21  22
ENDBRANCH  20  21
ENDBRANCH  19  20
ENDBRANCH  18  19
ENDBRANCH  17  18
ENDBRANCH  16  17
ENDBRANCH  15  16
ENDBRANCH   1  15
TORSDOF 22
ENDMDL
MODEL 8
REMARK VINA RESULT:     1.696      1.125      2.018
REMARK INTER + INTRA:           2.606
REMARK INTER:                   3.913
REMARK INTRA:                  -1.307
REMARK UNBOUND:                -1.270
REMARK SMILES CCCCCCCCCCCCCCCCCCCCCCCC(=O)[O-]
REMARK SMILES IDX 13 1 14 2 15 3 16 4 17 5 18 6 19 7 20 8 21 9 22 10 23 11
REMARK SMILES IDX 24 12 25 13 26 14 12 15 11 16 10 17 9 18 8 19 7 20 6 21 5 22
REMARK SMILES IDX 4 23 3 24 2 25 1 26
REMARK H PARENT
REMARK Flexibility Score: inf
ROOT
ATOM      1  C   UNL     1       1.614   3.678  -2.644  1.00  0.00     0.000 C 
ENDROOT
BRANCH   1   2
ATOM      2  C   UNL     1       2.259   3.147  -1.354  1.00  0.00     0.000 C 
BRANCH   2   3
ATOM      3  C   UNL     1       2.244   1.610  -1.272  1.00  0.00     0.000 C 
BRANCH   3   4
ATOM      4  C   UNL     1       2.737   1.077   0.086  1.00  0.00     0.000 C 
BRANCH   4   5
ATOM      5  C   UNL     1       2.192  -0.309   0.480  1.00  0.00     0.000 C 
BRANCH   5   6
ATOM      6  C   UNL     1       1.562  -0.333   1.881  1.00  0.00     0.000 C 
BRANCH   6   7
ATOM      7  C   UNL     1       0.849  -1.668   2.140  1.00  0.00     0.000 C 
BRANCH   7   8
ATOM      8  C   UNL     1      -0.546  -1.489   2.767  1.00  0.00     0.000 C 
BRANCH   8   9
ATOM      9  C   UNL     1      -0.768  -2.246   4.094  1.00  0.00     0.000 C 
BRANCH   9  10
ATOM     10  C   UNL     1      -1.553  -1.469   5.169  1.00  0.00     0.006 C 
BRANCH  10  11
ATOM     11  C   UNL     1      -0.718  -1.064   6.394  1.00  0.00     0.053 C 
BRANCH  11  12
ATOM     12  C   UNL     1      -1.181  -1.758   7.639  1.00  0.00     0.041 C 
ATOM     13  O   UNL     1      -2.345  -2.232   7.704  1.00  0.00    -0.550 OA
ATOM     14  O   UNL     1      -0.318  -1.902   8.718  1.00  0.00    -0.550 OA
ENDBRANCH  11  12
ENDBRANCH  10  11
ENDBRANCH   9  10
ENDBRANCH   8   9
ENDBRANCH   7   8
ENDBRANCH   6   7
ENDBRANCH   5   6
ENDBRANCH   4   5
ENDBRANCH   3   4
ENDBRANCH   2   3
ENDBRANCH   1   2
BRANCH   1  15
ATOM     15  C   UNL     1       1.001   5.079  -2.472  1.00  0.00     0.000 C 
BRANCH  15  16
ATOM     16  C   UNL     1       0.395   5.627  -3.778  1.00  0.00     0.000 C 
BRANCH  16  17
ATOM     17  C   UNL     1      -0.375   4.592  -4.620  1.00  0.00     0.000 C 
BRANCH  17  18
ATOM     18  C   UNL     1      -0.217   4.820  -6.133  1.00  0.00    -0.000 C 
BRANCH  18  19
ATOM     19  C   UNL     1       0.321   6.226  -6.468  1.00  0.00    -0.000 C 
BRANCH  19  20
ATOM     20  C   UNL     1       1.023   6.324  -7.836  1.00  0.00    -0.000 C 
BRANCH  20  21
ATOM     21  C   UNL     1       0.166   7.003  -8.930  1.00  0.00    -0.000 C 
BRANCH  21  22
ATOM     22  C   UNL     1       0.721   8.364  -9.394  1.00  0.00    -0.000 C 
BRANCH  22  23
ATOM     23  C   UNL     1       0.218   9.576  -8.586  1.00  0.00    -0.000 C 
BRANCH  23  24
ATOM     24  C   UNL     1      -1.314   9.688  -8.466  1.00  0.00    -0.000 C 
BRANCH  24  25
ATOM     25  C   UNL     1      -1.795   9.809  -7.013  1.00  0.00    -0.003 C 
ATOM     26  C   UNL     1      -0.616   9.828  -6.044  1.00  0.00     0.004 C 
ENDBRANCH  24  25
ENDBRANCH  23  24
ENDBRANCH  22  23
ENDBRANCH  21  22
ENDBRANCH  20  21
ENDBRANCH  19  20
ENDBRANCH  18  19
ENDBRANCH  17  18
ENDBRANCH  16  17
ENDBRANCH  15  16
ENDBRANCH   1  15
TORSDOF 22
ENDMDL
MODEL 9
REMARK VINA RESULT:     1.771      1.294      2.819
REMARK INTER + INTRA:           2.778
REMARK INTER:                   3.714
REMARK INTRA:                  -0.935
REMARK UNBOUND:                -1.270
REMARK SMILES CCCCCCCCCCCCCCCCCCCCCCCC(=O)[O-]
REMARK SMILES IDX 13 1 14 2 15 3 16 4 17 5 18 6 19 7 20 8 21 9 22 10 23 11
REMARK SMILES IDX 24 12 25 13 26 14 12 15 11 16 10 17 9 18 8 19 7 20 6 21 5 22
REMARK SMILES IDX 4 23 3 24 2 25 1 26
REMARK H PARENT
REMARK Flexibility Score: inf
ROOT
ATOM      1  C   UNL     1       1.575   3.130  -2.313  1.00  0.00     0.000 C 
ENDROOT
BRANCH   1   2
ATOM      2  C   UNL     1       2.253   2.895  -0.953  1.00  0.00     0.000 C 
BRANCH   2   3
ATOM      3  C   UNL     1       2.254   1.412  -0.540  1.00  0.00     0.000 C 
BRANCH   3   4
ATOM      4  C   UNL     1       3.246   1.108   0.598  1.00  0.00     0.000 C 
BRANCH   4   5
ATOM      5  C   UNL     1       2.647   0.359   1.803  1.00  0.00     0.000 C 
BRANCH   5   6
ATOM      6  C   UNL     1       1.758  -0.825   1.394  1.00  0.00     0.000 C 
BRANCH   6   7
ATOM      7  C   UNL     1       1.107  -1.475   2.624  1.00  0.00     0.000 C 
BRANCH   7   8
ATOM      8  C   UNL     1      -0.334  -1.949   2.359  1.00  0.00     0.000 C 
BRANCH   8   9
ATOM      9  C   UNL     1      -1.132  -2.348   3.618  1.00  0.00     0.000 C 
BRANCH   9  10
ATOM     10  C   UNL     1      -0.737  -1.604   4.908  1.00  0.00     0.006 C 
BRANCH  10  11
ATOM     11  C   UNL     1      -1.728  -0.510   5.338  1.00  0.00     0.053 C 
BRANCH  11  12
ATOM     12  C   UNL     1      -1.565   0.740   4.527  1.00  0.00     0.041 C 
ATOM     13  O   UNL     1      -2.559   1.475   4.291  1.00  0.00    -0.550 OA
ATOM     14  O   UNL     1      -0.311   1.104   4.053  1.00  0.00    -0.550 OA
ENDBRANCH  11  12
ENDBRANCH  10  11
ENDBRANCH   9  10
ENDBRANCH   8   9
ENDBRANCH   7   8
ENDBRANCH   6   7
ENDBRANCH   5   6
ENDBRANCH   4   5
ENDBRANCH   3   4
ENDBRANCH   2   3
ENDBRANCH   1   2
BRANCH   1  15
ATOM     15  C   UNL     1       1.900   4.510  -2.911  1.00  0.00     0.000 C 
BRANCH  15  16
ATOM     16  C   UNL     1       0.643   5.260  -3.394  1.00  0.00     0.000 C 
BRANCH  16  17
ATOM     17  C   UNL     1      -0.144   4.552  -4.513  1.00  0.00     0.000 C 
BRANCH  17  18
ATOM     18  C   UNL     1       0.213   5.078  -5.914  1.00  0.00    -0.000 C 
BRANCH  18  19
ATOM     19  C   UNL     1       0.042   6.605  -6.036  1.00  0.00    -0.000 C 
BRANCH  19  20
ATOM     20  C   UNL     1      -0.197   7.102  -7.475  1.00  0.00    -0.000 C 
BRANCH  20  21
ATOM     21  C   UNL     1      -0.404   8.630  -7.583  1.00  0.00    -0.000 C 
BRANCH  21  22
ATOM     22  C   UNL     1       0.591   9.323  -8.534  1.00  0.00    -0.000 C 
BRANCH  22  23
ATOM     23  C   UNL     1       0.922   8.528  -9.813  1.00  0.00    -0.000 C 
BRANCH  23  24
ATOM     24  C   UNL     1       2.425   8.394 -10.125  1.00  0.00    -0.000 C 
BRANCH  24  25
ATOM     25  C   UNL     1       2.963   6.975  -9.891  1.00  0.00    -0.003 C 
ATOM     26  C   UNL     1       1.843   6.026  -9.474  1.00  0.00     0.004 C 
ENDBRANCH  24  25
ENDBRANCH  23  24
ENDBRANCH  22  23
ENDBRANCH  21  22
ENDBRANCH  20  21
ENDBRANCH  19  20
ENDBRANCH  18  19
ENDBRANCH  17  18
ENDBRANCH  16  17
ENDBRANCH  15  16
ENDBRANCH   1  15
TORSDOF 22
ENDMDL
