MODEL 1
REMARK VINA RESULT:    -7.283      0.000      0.000
REMARK INTER + INTRA:          -8.939
REMARK INTER:                  -8.773
REMARK INTRA:                  -0.166
REMARK UNBOUND:                -0.166
REMARK SMILES O=c1c(O)c(-c2ccc(O)c(O)c2)oc2cc(O)cc(O)c12
REMARK SMILES IDX 5 1 3 2 2 3 1 4 22 5 20 6 19 7 17 8 16 9 15 10 14 11 6 12
REMARK SMILES IDX 7 13 8 14 9 15 13 16 11 17 10 18 12 20 4 22 21 24 18 26
REMARK H PARENT 10 19 12 21 4 23 21 25 18 27
REMARK Flexibility Score: inf
ROOT
ATOM      1  C   UNL     1      15.609 -19.724  12.634  1.00  0.00     0.180 A 
ATOM      2  C   UNL     1      16.886 -19.687  12.046  1.00  0.00     0.208 A 
ATOM      3  C   UNL     1      18.014 -19.900  12.854  1.00  0.00     0.238 A 
ATOM      4  O   UNL     1      19.149 -19.919  12.313  1.00  0.00    -0.285 OA
ATOM      5  C   UNL     1      17.853 -20.132  14.241  1.00  0.00     0.111 A 
ATOM      6  C   UNL     1      18.928 -20.321  15.161  1.00  0.00     0.134 A 
ATOM      7  C   UNL     1      18.649 -20.673  16.487  1.00  0.00     0.093 A 
ATOM      8  C   UNL     1      17.331 -20.779  16.942  1.00  0.00     0.123 A 
ATOM      9  C   UNL     1      16.276 -20.538  16.067  1.00  0.00     0.094 A 
ATOM     10  C   UNL     1      16.523 -20.221  14.729  1.00  0.00     0.146 A 
ATOM     11  O   UNL     1      15.488 -20.010  13.925  1.00  0.00    -0.452 OA
ENDROOT
BRANCH   1  12
ATOM     12  C   UNL     1      14.374 -19.484  11.852  1.00  0.00     0.025 A 
ATOM     13  C   UNL     1      13.970 -20.365  10.837  1.00  0.00     0.016 A 
ATOM     14  C   UNL     1      12.815 -20.105  10.097  1.00  0.00     0.051 A 
ATOM     15  C   UNL     1      12.050 -18.961  10.344  1.00  0.00     0.157 A 
ATOM     16  C   UNL     1      13.621 -18.324  12.087  1.00  0.00     0.062 A 
ATOM     17  C   UNL     1      12.461 -18.055  11.351  1.00  0.00     0.158 A 
BRANCH  15  18
ATOM     18  O   UNL     1      10.903 -18.762   9.572  1.00  0.00    -0.504 OA
ATOM     19  H   UNL     1      10.303 -19.507   9.249  1.00  0.00     0.293 HD
ENDBRANCH  15  18
BRANCH  17  20
ATOM     20  O   UNL     1      11.755 -16.888  11.649  1.00  0.00    -0.504 OA
ATOM     21  H   UNL     1      11.719 -16.079  11.044  1.00  0.00     0.293 HD
ENDBRANCH  17  20
ENDBRANCH   1  12
BRANCH   2  22
ATOM     22  O   UNL     1      17.020 -19.477  10.670  1.00  0.00    -0.502 OA
ATOM     23  H   UNL     1      16.542 -18.729  10.185  1.00  0.00     0.293 HD
ENDBRANCH   2  22
BRANCH   6  24
ATOM     24  O   UNL     1      20.276 -20.149  14.832  1.00  0.00    -0.507 OA
ATOM     25  H   UNL     1      20.690 -19.276  14.543  1.00  0.00     0.293 HD
ENDBRANCH   6  24
BRANCH   8  26
ATOM     26  O   UNL     1      17.062 -21.115  18.267  1.00  0.00    -0.508 OA
ATOM     27  H   UNL     1      16.163 -21.488  18.547  1.00  0.00     0.293 HD
ENDBRANCH   8  26
TORSDOF 6
ENDMDL
MODEL 2
REMARK VINA RESULT:    -6.981      0.982      1.163
REMARK INTER + INTRA:          -8.575
REMARK INTER:                  -8.372
REMARK INTRA:                  -0.203
REMARK UNBOUND:                -0.166
REMARK SMILES O=c1c(O)c(-c2ccc(O)c(O)c2)oc2cc(O)cc(O)c12
REMARK SMILES IDX 5 1 3 2 2 3 1 4 22 5 20 6 19 7 17 8 16 9 15 10 14 11 6 12
REMARK SMILES IDX 7 13 8 14 9 15 13 16 11 17 10 18 12 20 4 22 21 24 18 26
REMARK H PARENT 10 19 12 21 4 23 21 25 18 27
REMARK Flexibility Score: inf
ROOT
ATOM      1  C   UNL     1      14.925 -19.404  11.807  1.00  0.00     0.180 A 
ATOM      2  C   UNL     1      16.144 -19.363  11.108  1.00  0.00     0.208 A 
ATOM      3  C   UNL     1      17.334 -19.644  11.798  1.00  0.00     0.238 A 
ATOM      4  O   UNL     1      18.416 -19.660  11.156  1.00  0.00    -0.285 OA
ATOM      5  C   UNL     1      17.292 -19.947  13.180  1.00  0.00     0.111 A 
ATOM      6  C   UNL     1      18.440 -20.208  13.988  1.00  0.00     0.134 A 
ATOM      7  C   UNL     1      18.271 -20.624  15.315  1.00  0.00     0.093 A 
ATOM      8  C   UNL     1      16.998 -20.725  15.881  1.00  0.00     0.123 A 
ATOM      9  C   UNL     1      15.875 -20.414  15.119  1.00  0.00     0.094 A 
ATOM     10  C   UNL     1      16.010 -20.031  13.782  1.00  0.00     0.146 A 
ATOM     11  O   UNL     1      14.913 -19.755  13.088  1.00  0.00    -0.452 OA
ENDROOT
BRANCH   1  12
ATOM     12  C   UNL     1      13.632 -19.095  11.154  1.00  0.00     0.025 A 
ATOM     13  C   UNL     1      13.081 -19.949  10.185  1.00  0.00     0.016 A 
ATOM     14  C   UNL     1      11.872 -19.625   9.566  1.00  0.00     0.051 A 
ATOM     15  C   UNL     1      11.198 -18.443   9.888  1.00  0.00     0.157 A 
ATOM     16  C   UNL     1      12.969 -17.898  11.464  1.00  0.00     0.062 A 
ATOM     17  C   UNL     1      11.756 -17.565  10.848  1.00  0.00     0.158 A 
BRANCH  15  18
ATOM     18  O   UNL     1       9.992 -18.180   9.237  1.00  0.00    -0.504 OA
ATOM     19  H   UNL     1       9.553 -17.271   9.205  1.00  0.00     0.293 HD
ENDBRANCH  15  18
BRANCH  17  20
ATOM     20  O   UNL     1      11.147 -16.363  11.215  1.00  0.00    -0.504 OA
ATOM     21  H   UNL     1      11.466 -15.775  11.972  1.00  0.00     0.293 HD
ENDBRANCH  17  20
ENDBRANCH   1  12
BRANCH   2  22
ATOM     22  O   UNL     1      16.161 -19.084   9.739  1.00  0.00    -0.502 OA
ATOM     23  H   UNL     1      15.618 -19.615   9.069  1.00  0.00     0.293 HD
ENDBRANCH   2  22
BRANCH   6  24
ATOM     24  O   UNL     1      19.757 -20.048  13.548  1.00  0.00    -0.507 OA
ATOM     25  H   UNL     1      20.247 -19.167  13.507  1.00  0.00     0.293 HD
ENDBRANCH   6  24
BRANCH   8  26
ATOM     26  O   UNL     1      16.840 -21.125  17.206  1.00  0.00    -0.508 OA
ATOM     27  H   UNL     1      17.172 -22.025  17.532  1.00  0.00     0.293 HD
ENDBRANCH   8  26
TORSDOF 6
ENDMDL
MODEL 3
REMARK VINA RESULT:    -6.662      1.391      2.141
REMARK INTER + INTRA:          -8.191
REMARK INTER:                  -8.164
REMARK INTRA:                  -0.027
REMARK UNBOUND:                -0.166
REMARK SMILES O=c1c(O)c(-c2ccc(O)c(O)c2)oc2cc(O)cc(O)c12
REMARK SMILES IDX 5 1 3 2 2 3 1 4 22 5 20 6 19 7 17 8 16 9 15 10 14 11 6 12
REMARK SMILES IDX 7 13 8 14 9 15 13 16 11 17 10 18 12 20 4 22 21 24 18 26
REMARK H PARENT 10 19 12 21 4 23 21 25 18 27
REMARK Flexibility Score: inf
ROOT
ATOM      1  C   UNL     1      14.700 -19.488  11.520  1.00  0.00     0.180 A 
ATOM      2  C   UNL     1      15.820 -19.783  10.724  1.00  0.00     0.208 A 
ATOM      3  C   UNL     1      16.986 -20.266  11.341  1.00  0.00     0.238 A 
ATOM      4  O   UNL     1      17.966 -20.580  10.618  1.00  0.00    -0.285 OA
ATOM      5  C   UNL     1      17.022 -20.430  12.746  1.00  0.00     0.111 A 
ATOM      6  C   UNL     1      18.163 -20.873  13.481  1.00  0.00     0.134 A 
ATOM      7  C   UNL     1      18.046 -21.125  14.854  1.00  0.00     0.093 A 
ATOM      8  C   UNL     1      16.846 -20.887  15.529  1.00  0.00     0.123 A 
ATOM      9  C   UNL     1      15.745 -20.397  14.833  1.00  0.00     0.094 A 
ATOM     10  C   UNL     1      15.821 -20.171  13.456  1.00  0.00     0.146 A 
ATOM     11  O   UNL     1      14.744 -19.715  12.828  1.00  0.00    -0.452 OA
ENDROOT
BRANCH   1  12
ATOM     12  C   UNL     1      13.444 -18.952  10.946  1.00  0.00     0.025 A 
ATOM     13  C   UNL     1      12.858 -17.776  11.440  1.00  0.00     0.016 A 
ATOM     14  C   UNL     1      11.661 -17.304  10.899  1.00  0.00     0.051 A 
ATOM     15  C   UNL     1      11.019 -17.998   9.868  1.00  0.00     0.157 A 
ATOM     16  C   UNL     1      12.792 -19.663   9.927  1.00  0.00     0.062 A 
ATOM     17  C   UNL     1      11.591 -19.196   9.377  1.00  0.00     0.158 A 
BRANCH  15  18
ATOM     18  O   UNL     1       9.828 -17.470   9.367  1.00  0.00    -0.504 OA
ATOM     19  H   UNL     1       8.910 -17.745   9.686  1.00  0.00     0.293 HD
ENDBRANCH  15  18
BRANCH  17  20
ATOM     20  O   UNL     1      11.005 -19.949   8.357  1.00  0.00    -0.504 OA
ATOM     21  H   UNL     1      11.525 -20.405   7.621  1.00  0.00     0.293 HD
ENDBRANCH  17  20
ENDBRANCH   1  12
BRANCH   2  22
ATOM     22  O   UNL     1      15.756 -19.634   9.336  1.00  0.00    -0.502 OA
ATOM     23  H   UNL     1      14.882 -19.489   8.845  1.00  0.00     0.293 HD
ENDBRANCH   2  22
BRANCH   6  24
ATOM     24  O   UNL     1      19.431 -21.054  12.920  1.00  0.00    -0.507 OA
ATOM     25  H   UNL     1      20.297 -21.028  13.437  1.00  0.00     0.293 HD
ENDBRANCH   6  24
BRANCH   8  26
ATOM     26  O   UNL     1      16.743 -21.125  16.899  1.00  0.00    -0.508 OA
ATOM     27  H   UNL     1      16.897 -20.389  17.578  1.00  0.00     0.293 HD
ENDBRANCH   8  26
TORSDOF 6
ENDMDL
MODEL 4
REMARK VINA RESULT:    -6.460      2.489      8.025
REMARK INTER + INTRA:          -7.948
REMARK INTER:                  -7.627
REMARK INTRA:                  -0.321
REMARK UNBOUND:                -0.166
REMARK SMILES O=c1c(O)c(-c2ccc(O)c(O)c2)oc2cc(O)cc(O)c12
REMARK SMILES IDX 5 1 3 2 2 3 1 4 22 5 20 6 19 7 17 8 16 9 15 10 14 11 6 12
REMARK SMILES IDX 7 13 8 14 9 15 13 16 11 17 10 18 12 20 4 22 21 24 18 26
REMARK H PARENT 10 19 12 21 4 23 21 25 18 27
REMARK Flexibility Score: inf
ROOT
ATOM      1  C   UNL     1      13.456 -18.367  10.554  1.00  0.00     0.180 A 
ATOM      2  C   UNL     1      13.590 -17.011  10.210  1.00  0.00     0.208 A 
ATOM      3  C   UNL     1      12.560 -16.386   9.489  1.00  0.00     0.238 A 
ATOM      4  O   UNL     1      12.661 -15.159   9.231  1.00  0.00    -0.285 OA
ATOM      5  C   UNL     1      11.417 -17.129   9.107  1.00  0.00     0.111 A 
ATOM      6  C   UNL     1      10.332 -16.608   8.339  1.00  0.00     0.134 A 
ATOM      7  C   UNL     1       9.193 -17.395   8.130  1.00  0.00     0.093 A 
ATOM      8  C   UNL     1       9.128 -18.708   8.606  1.00  0.00     0.123 A 
ATOM      9  C   UNL     1      10.206 -19.245   9.303  1.00  0.00     0.094 A 
ATOM     10  C   UNL     1      11.341 -18.471   9.559  1.00  0.00     0.146 A 
ATOM     11  O   UNL     1      12.342 -19.019  10.237  1.00  0.00    -0.452 OA
ENDROOT
BRANCH   1  12
ATOM     12  C   UNL     1      14.509 -19.101  11.292  1.00  0.00     0.025 A 
ATOM     13  C   UNL     1      14.560 -19.092  12.695  1.00  0.00     0.016 A 
ATOM     14  C   UNL     1      15.577 -19.772  13.367  1.00  0.00     0.051 A 
ATOM     15  C   UNL     1      16.567 -20.460  12.659  1.00  0.00     0.157 A 
ATOM     16  C   UNL     1      15.514 -19.772  10.578  1.00  0.00     0.062 A 
ATOM     17  C   UNL     1      16.537 -20.458  11.244  1.00  0.00     0.158 A 
BRANCH  15  18
ATOM     18  O   UNL     1      17.553 -21.124  13.392  1.00  0.00    -0.504 OA
ATOM     19  H   UNL     1      17.514 -21.269  14.391  1.00  0.00     0.293 HD
ENDBRANCH  15  18
BRANCH  17  20
ATOM     20  O   UNL     1      17.496 -21.113  10.469  1.00  0.00    -0.504 OA
ATOM     21  H   UNL     1      17.279 -21.817   9.777  1.00  0.00     0.293 HD
ENDBRANCH  17  20
ENDBRANCH   1  12
BRANCH   2  22
ATOM     22  O   UNL     1      14.717 -16.291  10.616  1.00  0.00    -0.502 OA
ATOM     23  H   UNL     1      15.621 -16.726  10.749  1.00  0.00     0.293 HD
ENDBRANCH   2  22
BRANCH   6  24
ATOM     24  O   UNL     1      10.334 -15.344   7.742  1.00  0.00    -0.507 OA
ATOM     25  H   UNL     1      10.061 -15.158   6.788  1.00  0.00     0.293 HD
ENDBRANCH   6  24
BRANCH   8  26
ATOM     26  O   UNL     1       7.997 -19.490   8.380  1.00  0.00    -0.508 OA
ATOM     27  H   UNL     1       7.274 -19.201   7.732  1.00  0.00     0.293 HD
ENDBRANCH   8  26
TORSDOF 6
ENDMDL
MODEL 5
REMARK VINA RESULT:    -6.407      1.890      3.691
REMARK INTER + INTRA:          -7.884
REMARK INTER:                  -7.595
REMARK INTRA:                  -0.289
REMARK UNBOUND:                -0.166
REMARK SMILES O=c1c(O)c(-c2ccc(O)c(O)c2)oc2cc(O)cc(O)c12
REMARK SMILES IDX 5 1 3 2 2 3 1 4 22 5 20 6 19 7 17 8 16 9 15 10 14 11 6 12
REMARK SMILES IDX 7 13 8 14 9 15 13 16 11 17 10 18 12 20 4 22 21 24 18 26
REMARK H PARENT 10 19 12 21 4 23 21 25 18 27
REMARK Flexibility Score: inf
ROOT
ATOM      1  C   UNL     1      15.823 -19.675  11.611  1.00  0.00     0.180 A 
ATOM      2  C   UNL     1      16.141 -20.350  12.802  1.00  0.00     0.208 A 
ATOM      3  C   UNL     1      17.490 -20.569  13.122  1.00  0.00     0.238 A 
ATOM      4  O   UNL     1      17.770 -21.125  14.215  1.00  0.00    -0.285 OA
ATOM      5  C   UNL     1      18.504 -20.125  12.238  1.00  0.00     0.111 A 
ATOM      6  C   UNL     1      19.902 -20.330  12.442  1.00  0.00     0.134 A 
ATOM      7  C   UNL     1      20.821 -19.734  11.569  1.00  0.00     0.093 A 
ATOM      8  C   UNL     1      20.390 -18.996  10.463  1.00  0.00     0.123 A 
ATOM      9  C   UNL     1      19.028 -18.842  10.223  1.00  0.00     0.094 A 
ATOM     10  C   UNL     1      18.087 -19.394  11.096  1.00  0.00     0.146 A 
ATOM     11  O   UNL     1      16.798 -19.214  10.836  1.00  0.00    -0.452 OA
ENDROOT
BRANCH   1  12
ATOM     12  C   UNL     1      14.423 -19.428  11.194  1.00  0.00     0.025 A 
ATOM     13  C   UNL     1      13.806 -20.213  10.207  1.00  0.00     0.016 A 
ATOM     14  C   UNL     1      12.493 -19.946   9.814  1.00  0.00     0.051 A 
ATOM     15  C   UNL     1      11.777 -18.888  10.383  1.00  0.00     0.157 A 
ATOM     16  C   UNL     1      13.715 -18.353  11.751  1.00  0.00     0.062 A 
ATOM     17  C   UNL     1      12.397 -18.078  11.363  1.00  0.00     0.158 A 
BRANCH  15  18
ATOM     18  O   UNL     1      10.467 -18.678   9.949  1.00  0.00    -0.504 OA
ATOM     19  H   UNL     1       9.658 -18.725  10.551  1.00  0.00     0.293 HD
ENDBRANCH  15  18
BRANCH  17  20
ATOM     20  O   UNL     1      11.750 -16.999  11.970  1.00  0.00    -0.504 OA
ATOM     21  H   UNL     1      10.772 -16.996  12.221  1.00  0.00     0.293 HD
ENDBRANCH  17  20
ENDBRANCH   1  12
BRANCH   2  22
ATOM     22  O   UNL     1      15.125 -20.760  13.671  1.00  0.00    -0.502 OA
ATOM     23  H   UNL     1      14.147 -20.744  13.409  1.00  0.00     0.293 HD
ENDBRANCH   2  22
BRANCH   6  24
ATOM     24  O   UNL     1      20.435 -21.125  13.461  1.00  0.00    -0.507 OA
ATOM     25  H   UNL     1      19.898 -21.751  14.041  1.00  0.00     0.293 HD
ENDBRANCH   6  24
BRANCH   8  26
ATOM     26  O   UNL     1      21.312 -18.420   9.591  1.00  0.00    -0.508 OA
ATOM     27  H   UNL     1      21.111 -17.555   9.104  1.00  0.00     0.293 HD
ENDBRANCH   8  26
TORSDOF 6
ENDMDL
MODEL 6
REMARK VINA RESULT:    -6.359      2.287      7.986
REMARK INTER + INTRA:          -7.826
REMARK INTER:                  -7.551
REMARK INTRA:                  -0.275
REMARK UNBOUND:                -0.166
REMARK SMILES O=c1c(O)c(-c2ccc(O)c(O)c2)oc2cc(O)cc(O)c12
REMARK SMILES IDX 5 1 3 2 2 3 1 4 22 5 20 6 19 7 17 8 16 9 15 10 14 11 6 12
REMARK SMILES IDX 7 13 8 14 9 15 13 16 11 17 10 18 12 20 4 22 21 24 18 26
REMARK H PARENT 10 19 12 21 4 23 21 25 18 27
REMARK Flexibility Score: inf
ROOT
ATOM      1  C   UNL     1      13.192 -18.680  10.679  1.00  0.00     0.180 A 
ATOM      2  C   UNL     1      12.588 -19.578   9.782  1.00  0.00     0.208 A 
ATOM      3  C   UNL     1      11.401 -19.200   9.135  1.00  0.00     0.238 A 
ATOM      4  O   UNL     1      10.896 -19.986   8.292  1.00  0.00    -0.285 OA
ATOM      5  C   UNL     1      10.824 -17.936   9.405  1.00  0.00     0.111 A 
ATOM      6  C   UNL     1       9.601 -17.466   8.836  1.00  0.00     0.134 A 
ATOM      7  C   UNL     1       9.192 -16.148   9.073  1.00  0.00     0.093 A 
ATOM      8  C   UNL     1       9.927 -15.305   9.911  1.00  0.00     0.123 A 
ATOM      9  C   UNL     1      11.089 -15.774  10.518  1.00  0.00     0.094 A 
ATOM     10  C   UNL     1      11.542 -17.072  10.271  1.00  0.00     0.146 A 
ATOM     11  O   UNL     1      12.661 -17.476  10.861  1.00  0.00    -0.452 OA
ENDROOT
BRANCH   1  12
ATOM     12  C   UNL     1      14.430 -19.017  11.418  1.00  0.00     0.025 A 
ATOM     13  C   UNL     1      15.680 -18.521  11.014  1.00  0.00     0.016 A 
ATOM     14  C   UNL     1      16.837 -18.872  11.712  1.00  0.00     0.051 A 
ATOM     15  C   UNL     1      16.775 -19.730  12.814  1.00  0.00     0.157 A 
ATOM     16  C   UNL     1      14.367 -19.895  12.510  1.00  0.00     0.062 A 
ATOM     17  C   UNL     1      15.522 -20.252  13.217  1.00  0.00     0.158 A 
BRANCH  15  18
ATOM     18  O   UNL     1      17.967 -20.037  13.472  1.00  0.00    -0.504 OA
ATOM     19  H   UNL     1      18.885 -19.865  13.087  1.00  0.00     0.293 HD
ENDBRANCH  15  18
BRANCH  17  20
ATOM     20  O   UNL     1      15.382 -21.121  14.301  1.00  0.00    -0.504 OA
ATOM     21  H   UNL     1      14.852 -21.981  14.271  1.00  0.00     0.293 HD
ENDBRANCH  17  20
ENDBRANCH   1  12
BRANCH   2  22
ATOM     22  O   UNL     1      13.187 -20.813   9.514  1.00  0.00    -0.502 OA
ATOM     23  H   UNL     1      13.169 -21.580  10.174  1.00  0.00     0.293 HD
ENDBRANCH   2  22
BRANCH   6  24
ATOM     24  O   UNL     1       8.747 -18.254   8.061  1.00  0.00    -0.507 OA
ATOM     25  H   UNL     1       8.621 -19.249   8.175  1.00  0.00     0.293 HD
ENDBRANCH   6  24
BRANCH   8  26
ATOM     26  O   UNL     1       9.504 -14.000  10.154  1.00  0.00    -0.508 OA
ATOM     27  H   UNL     1       8.864 -13.525   9.528  1.00  0.00     0.293 HD
ENDBRANCH   8  26
TORSDOF 6
ENDMDL
MODEL 7
REMARK VINA RESULT:    -6.215      1.390      6.813
REMARK INTER + INTRA:          -7.652
REMARK INTER:                  -7.640
REMARK INTRA:                  -0.012
REMARK UNBOUND:                -0.166
REMARK SMILES O=c1c(O)c(-c2ccc(O)c(O)c2)oc2cc(O)cc(O)c12
REMARK SMILES IDX 5 1 3 2 2 3 1 4 22 5 20 6 19 7 17 8 16 9 15 10 14 11 6 12
REMARK SMILES IDX 7 13 8 14 9 15 13 16 11 17 10 18 12 20 4 22 21 24 18 26
REMARK H PARENT 10 19 12 21 4 23 21 25 18 27
REMARK Flexibility Score: inf
ROOT
ATOM      1  C   UNL     1      15.753 -19.886  12.471  1.00  0.00     0.180 A 
ATOM      2  C   UNL     1      16.161 -20.358  11.211  1.00  0.00     0.208 A 
ATOM      3  C   UNL     1      15.405 -20.016  10.078  1.00  0.00     0.238 A 
ATOM      4  O   UNL     1      15.805 -20.396   8.948  1.00  0.00    -0.285 OA
ATOM      5  C   UNL     1      14.243 -19.220  10.221  1.00  0.00     0.111 A 
ATOM      6  C   UNL     1      13.380 -18.847   9.147  1.00  0.00     0.134 A 
ATOM      7  C   UNL     1      12.331 -17.949   9.384  1.00  0.00     0.093 A 
ATOM      8  C   UNL     1      12.076 -17.463  10.669  1.00  0.00     0.123 A 
ATOM      9  C   UNL     1      12.876 -17.868  11.734  1.00  0.00     0.094 A 
ATOM     10  C   UNL     1      13.952 -18.735  11.522  1.00  0.00     0.146 A 
ATOM     11  O   UNL     1      14.696 -19.087  12.563  1.00  0.00    -0.452 OA
ENDROOT
BRANCH   1  12
ATOM     12  C   UNL     1      16.484 -20.225  13.714  1.00  0.00     0.025 A 
ATOM     13  C   UNL     1      15.821 -20.768  14.826  1.00  0.00     0.016 A 
ATOM     14  C   UNL     1      16.527 -21.056  15.995  1.00  0.00     0.051 A 
ATOM     15  C   UNL     1      17.899 -20.799  16.085  1.00  0.00     0.157 A 
ATOM     16  C   UNL     1      17.856 -19.945  13.808  1.00  0.00     0.062 A 
ATOM     17  C   UNL     1      18.572 -20.232  14.976  1.00  0.00     0.158 A 
BRANCH  15  18
ATOM     18  O   UNL     1      18.547 -21.115  17.280  1.00  0.00    -0.504 OA
ATOM     19  H   UNL     1      19.406 -20.684  17.588  1.00  0.00     0.293 HD
ENDBRANCH  15  18
BRANCH  17  20
ATOM     20  O   UNL     1      19.937 -19.938  14.993  1.00  0.00    -0.504 OA
ATOM     21  H   UNL     1      20.355 -19.227  15.577  1.00  0.00     0.293 HD
ENDBRANCH  17  20
ENDBRANCH   1  12
BRANCH   2  22
ATOM     22  O   UNL     1      17.323 -21.125  11.090  1.00  0.00    -0.502 OA
ATOM     23  H   UNL     1      17.477 -21.762  10.318  1.00  0.00     0.293 HD
ENDBRANCH   2  22
BRANCH   6  24
ATOM     24  O   UNL     1      13.491 -19.346   7.846  1.00  0.00    -0.507 OA
ATOM     25  H   UNL     1      13.033 -18.952   7.038  1.00  0.00     0.293 HD
ENDBRANCH   6  24
BRANCH   8  26
ATOM     26  O   UNL     1      11.022 -16.582  10.899  1.00  0.00    -0.508 OA
ATOM     27  H   UNL     1      10.077 -16.914  11.050  1.00  0.00     0.293 HD
ENDBRANCH   8  26
TORSDOF 6
ENDMDL
