MODEL 1
REMARK VINA RESULT:    -4.125      0.000      0.000
REMARK INTER + INTRA:         -14.261
REMARK INTER:                  -9.430
REMARK INTRA:                  -4.831
REMARK UNBOUND:                -4.831
REMARK SMILES CCCCCCCCCCCCCCCCCCCCCCCC(=O)[O-]
REMARK SMILES IDX 13 1 14 2 15 3 16 4 17 5 18 6 19 7 20 8 21 9 22 10 23 11
REMARK SMILES IDX 24 12 25 13 26 14 12 15 11 16 10 17 9 18 8 19 7 20 6 21 5 22
REMARK SMILES IDX 4 23 3 24 2 25 1 26
REMARK H PARENT
REMARK Flexibility Score: inf
ROOT
ATOM      1  C   UNL     1      53.325  38.826  50.775  1.00  0.00     0.000 C 
ENDROOT
BRANCH   1   2
ATOM      2  C   UNL     1      53.302  39.926  51.849  1.00  0.00     0.000 C 
BRANCH   2   3
ATOM      3  C   UNL     1      52.126  40.901  51.678  1.00  0.00     0.000 C 
BRANCH   3   4
ATOM      4  C   UNL     1      52.291  42.184  52.509  1.00  0.00     0.000 C 
BRANCH   4   5
ATOM      5  C   UNL     1      53.566  42.167  53.370  1.00  0.00     0.000 C 
BRANCH   5   6
ATOM      6  C   UNL     1      54.416  43.440  53.204  1.00  0.00     0.000 C 
BRANCH   6   7
ATOM      7  C   UNL     1      55.915  43.202  52.920  1.00  0.00     0.000 C 
BRANCH   7   8
ATOM      8  C   UNL     1      56.238  41.965  52.062  1.00  0.00     0.000 C 
BRANCH   8   9
ATOM      9  C   UNL     1      57.359  41.097  52.658  1.00  0.00     0.000 C 
BRANCH   9  10
ATOM     10  C   UNL     1      56.867  39.703  53.087  1.00  0.00     0.006 C 
BRANCH  10  11
ATOM     11  C   UNL     1      56.011  39.696  54.362  1.00  0.00     0.053 C 
BRANCH  11  12
ATOM     12  C   UNL     1      56.697  40.385  55.501  1.00  0.00     0.041 C 
ATOM     13  O   UNL     1      57.759  39.909  55.984  1.00  0.00    -0.550 OA
ATOM     14  O   UNL     1      56.180  41.570  56.008  1.00  0.00    -0.550 OA
ENDBRANCH  11  12
ENDBRANCH  10  11
ENDBRANCH   9  10
ENDBRANCH   8   9
ENDBRANCH   7   8
ENDBRANCH   6   7
ENDBRANCH   5   6
ENDBRANCH   4   5
ENDBRANCH   3   4
ENDBRANCH   2   3
ENDBRANCH   1   2
BRANCH   1  15
ATOM     15  C   UNL     1      54.711  38.176  50.584  1.00  0.00     0.000 C 
BRANCH  15  16
ATOM     16  C   UNL     1      55.349  38.548  49.236  1.00  0.00     0.000 C 
BRANCH  16  17
ATOM     17  C   UNL     1      55.721  40.038  49.137  1.00  0.00     0.000 C 
BRANCH  17  18
ATOM     18  C   UNL     1      54.983  40.787  48.008  1.00  0.00    -0.000 C 
BRANCH  18  19
ATOM     19  C   UNL     1      54.171  39.834  47.112  1.00  0.00    -0.000 C 
BRANCH  19  20
ATOM     20  C   UNL     1      52.653  40.008  47.281  1.00  0.00    -0.000 C 
BRANCH  20  21
ATOM     21  C   UNL     1      52.292  41.253  48.110  1.00  0.00    -0.000 C 
BRANCH  21  22
ATOM     22  C   UNL     1      51.991  42.475  47.228  1.00  0.00    -0.000 C 
BRANCH  22  23
ATOM     23  C   UNL     1      52.644  43.762  47.763  1.00  0.00    -0.000 C 
BRANCH  23  24
ATOM     24  C   UNL     1      52.971  43.677  49.262  1.00  0.00    -0.000 C 
BRANCH  24  25
ATOM     25  C   UNL     1      54.383  44.188  49.585  1.00  0.00    -0.003 C 
ATOM     26  C   UNL     1      55.143  44.543  48.309  1.00  0.00     0.004 C 
ENDBRANCH  24  25
ENDBRANCH  23  24
ENDBRANCH  22  23
ENDBRANCH  21  22
ENDBRANCH  20  21
ENDBRANCH  19  20
ENDBRANCH  18  19
ENDBRANCH  17  18
ENDBRANCH  16  17
ENDBRANCH  15  16
ENDBRANCH   1  15
TORSDOF 22
ENDMDL
MODEL 2
REMARK VINA RESULT:    -4.002      2.735      5.132
REMARK INTER + INTRA:         -13.979
REMARK INTER:                  -9.543
REMARK INTRA:                  -4.436
REMARK UNBOUND:                -4.831
REMARK SMILES CCCCCCCCCCCCCCCCCCCCCCCC(=O)[O-]
REMARK SMILES IDX 13 1 14 2 15 3 16 4 17 5 18 6 19 7 20 8 21 9 22 10 23 11
REMARK SMILES IDX 24 12 25 13 26 14 12 15 11 16 10 17 9 18 8 19 7 20 6 21 5 22
REMARK SMILES IDX 4 23 3 24 2 25 1 26
REMARK H PARENT
REMARK Flexibility Score: inf
ROOT
ATOM      1  C   UNL     1      53.013  43.689  49.236  1.00  0.00     0.000 C 
ENDROOT
BRANCH   1   2
ATOM      2  C   UNL     1      54.297  43.064  49.805  1.00  0.00     0.000 C 
BRANCH   2   3
ATOM      3  C   UNL     1      55.485  43.155  48.834  1.00  0.00     0.000 C 
BRANCH   3   4
ATOM      4  C   UNL     1      56.123  41.787  48.543  1.00  0.00     0.000 C 
BRANCH   4   5
ATOM      5  C   UNL     1      55.887  40.775  49.678  1.00  0.00     0.000 C 
BRANCH   5   6
ATOM      6  C   UNL     1      55.933  39.314  49.195  1.00  0.00     0.000 C 
BRANCH   6   7
ATOM      7  C   UNL     1      55.707  38.248  50.288  1.00  0.00     0.000 C 
BRANCH   7   8
ATOM      8  C   UNL     1      56.445  38.496  51.617  1.00  0.00     0.000 C 
BRANCH   8   9
ATOM      9  C   UNL     1      57.594  37.503  51.861  1.00  0.00     0.000 C 
BRANCH   9  10
ATOM     10  C   UNL     1      58.757  37.682  50.868  1.00  0.00     0.006 C 
BRANCH  10  11
ATOM     11  C   UNL     1      59.307  36.369  50.290  1.00  0.00     0.053 C 
BRANCH  11  12
ATOM     12  C   UNL     1      60.236  35.683  51.244  1.00  0.00     0.041 C 
ATOM     13  O   UNL     1      61.457  35.993  51.274  1.00  0.00    -0.550 OA
ATOM     14  O   UNL     1      59.746  34.726  52.123  1.00  0.00    -0.550 OA
ENDBRANCH  11  12
ENDBRANCH  10  11
ENDBRANCH   9  10
ENDBRANCH   8   9
ENDBRANCH   7   8
ENDBRANCH   6   7
ENDBRANCH   5   6
ENDBRANCH   4   5
ENDBRANCH   3   4
ENDBRANCH   2   3
ENDBRANCH   1   2
BRANCH   1  15
ATOM     15  C   UNL     1      52.979  43.737  47.694  1.00  0.00     0.000 C 
BRANCH  15  16
ATOM     16  C   UNL     1      52.203  42.554  47.091  1.00  0.00     0.000 C 
BRANCH  16  17
ATOM     17  C   UNL     1      53.121  41.416  46.610  1.00  0.00     0.000 C 
BRANCH  17  18
ATOM     18  C   UNL     1      52.914  40.090  47.372  1.00  0.00    -0.000 C 
BRANCH  18  19
ATOM     19  C   UNL     1      51.808  40.198  48.437  1.00  0.00    -0.000 C 
BRANCH  19  20
ATOM     20  C   UNL     1      52.246  39.656  49.808  1.00  0.00    -0.000 C 
BRANCH  20  21
ATOM     21  C   UNL     1      51.827  40.578  50.966  1.00  0.00    -0.000 C 
BRANCH  21  22
ATOM     22  C   UNL     1      52.917  40.698  52.043  1.00  0.00    -0.000 C 
BRANCH  22  23
ATOM     23  C   UNL     1      52.674  41.880  52.998  1.00  0.00    -0.000 C 
BRANCH  23  24
ATOM     24  C   UNL     1      53.973  42.394  53.639  1.00  0.00    -0.000 C 
BRANCH  24  25
ATOM     25  C   UNL     1      55.178  41.494  53.328  1.00  0.00    -0.003 C 
ATOM     26  C   UNL     1      56.373  42.319  52.859  1.00  0.00     0.004 C 
ENDBRANCH  24  25
ENDBRANCH  23  24
ENDBRANCH  22  23
ENDBRANCH  21  22
ENDBRANCH  20  21
ENDBRANCH  19  20
ENDBRANCH  18  19
ENDBRANCH  17  18
ENDBRANCH  16  17
ENDBRANCH  15  16
ENDBRANCH   1  15
TORSDOF 22
ENDMDL
MODEL 3
REMARK VINA RESULT:    -4.001      1.342      4.589
REMARK INTER + INTRA:         -13.978
REMARK INTER:                  -9.416
REMARK INTRA:                  -4.562
REMARK UNBOUND:                -4.831
REMARK SMILES CCCCCCCCCCCCCCCCCCCCCCCC(=O)[O-]
REMARK SMILES IDX 13 1 14 2 15 3 16 4 17 5 18 6 19 7 20 8 21 9 22 10 23 11
REMARK SMILES IDX 24 12 25 13 26 14 12 15 11 16 10 17 9 18 8 19 7 20 6 21 5 22
REMARK SMILES IDX 4 23 3 24 2 25 1 26
REMARK H PARENT
REMARK Flexibility Score: inf
ROOT
ATOM      1  C   UNL     1      52.067  42.194  47.865  1.00  0.00     0.000 C 
ENDROOT
BRANCH   1   2
ATOM      2  C   UNL     1      52.358  40.696  47.673  1.00  0.00     0.000 C 
BRANCH   2   3
ATOM      3  C   UNL     1      53.352  40.423  46.532  1.00  0.00     0.000 C 
BRANCH   3   4
ATOM      4  C   UNL     1      54.692  39.861  47.032  1.00  0.00     0.000 C 
BRANCH   4   5
ATOM      5  C   UNL     1      54.518  38.886  48.211  1.00  0.00     0.000 C 
BRANCH   5   6
ATOM      6  C   UNL     1      55.556  39.105  49.326  1.00  0.00     0.000 C 
BRANCH   6   7
ATOM      7  C   UNL     1      55.393  38.206  50.569  1.00  0.00     0.000 C 
BRANCH   7   8
ATOM      8  C   UNL     1      56.294  38.560  51.766  1.00  0.00     0.000 C 
BRANCH   8   9
ATOM      9  C   UNL     1      56.768  40.023  51.750  1.00  0.00     0.000 C 
BRANCH   9  10
ATOM     10  C   UNL     1      56.370  40.791  53.023  1.00  0.00     0.006 C 
BRANCH  10  11
ATOM     11  C   UNL     1      55.190  40.178  53.793  1.00  0.00     0.053 C 
BRANCH  11  12
ATOM     12  C   UNL     1      55.582  39.756  55.175  1.00  0.00     0.041 C 
ATOM     13  O   UNL     1      56.551  38.969  55.348  1.00  0.00    -0.550 OA
ATOM     14  O   UNL     1      54.897  40.257  56.275  1.00  0.00    -0.550 OA
ENDBRANCH  11  12
ENDBRANCH  10  11
ENDBRANCH   9  10
ENDBRANCH   8   9
ENDBRANCH   7   8
ENDBRANCH   6   7
ENDBRANCH   5   6
ENDBRANCH   4   5
ENDBRANCH   3   4
ENDBRANCH   2   3
ENDBRANCH   1   2
BRANCH   1  15
ATOM     15  C   UNL     1      51.884  42.962  46.540  1.00  0.00     0.000 C 
BRANCH  15  16
ATOM     16  C   UNL     1      52.340  44.427  46.648  1.00  0.00     0.000 C 
BRANCH  16  17
ATOM     17  C   UNL     1      52.996  44.754  48.001  1.00  0.00     0.000 C 
BRANCH  17  18
ATOM     18  C   UNL     1      54.467  45.206  47.883  1.00  0.00    -0.000 C 
BRANCH  18  19
ATOM     19  C   UNL     1      55.393  44.061  47.434  1.00  0.00    -0.000 C 
BRANCH  19  20
ATOM     20  C   UNL     1      55.687  43.057  48.561  1.00  0.00    -0.000 C 
BRANCH  20  21
ATOM     21  C   UNL     1      56.172  43.746  49.849  1.00  0.00    -0.000 C 
BRANCH  21  22
ATOM     22  C   UNL     1      55.173  43.592  51.007  1.00  0.00    -0.000 C 
BRANCH  22  23
ATOM     23  C   UNL     1      54.124  42.498  50.738  1.00  0.00    -0.000 C 
BRANCH  23  24
ATOM     24  C   UNL     1      52.763  42.818  51.377  1.00  0.00    -0.000 C 
BRANCH  24  25
ATOM     25  C   UNL     1      52.197  41.633  52.173  1.00  0.00    -0.003 C 
ATOM     26  C   UNL     1      52.275  40.341  51.365  1.00  0.00     0.004 C 
ENDBRANCH  24  25
ENDBRANCH  23  24
ENDBRANCH  22  23
ENDBRANCH  21  22
ENDBRANCH  20  21
ENDBRANCH  19  20
ENDBRANCH  18  19
ENDBRANCH  17  18
ENDBRANCH  16  17
ENDBRANCH  15  16
ENDBRANCH   1  15
TORSDOF 22
ENDMDL
MODEL 4
REMARK VINA RESULT:    -3.984      2.703      5.736
REMARK INTER + INTRA:         -13.938
REMARK INTER:                  -9.158
REMARK INTRA:                  -4.780
REMARK UNBOUND:                -4.831
REMARK SMILES CCCCCCCCCCCCCCCCCCCCCCCC(=O)[O-]
REMARK SMILES IDX 13 1 14 2 15 3 16 4 17 5 18 6 19 7 20 8 21 9 22 10 23 11
REMARK SMILES IDX 24 12 25 13 26 14 12 15 11 16 10 17 9 18 8 19 7 20 6 21 5 22
REMARK SMILES IDX 4 23 3 24 2 25 1 26
REMARK H PARENT
REMARK Flexibility Score: inf
ROOT
ATOM      1  C   UNL     1      53.380  40.109  50.046  1.00  0.00     0.000 C 
ENDROOT
BRANCH   1   2
ATOM      2  C   UNL     1      51.905  40.043  49.613  1.00  0.00     0.000 C 
BRANCH   2   3
ATOM      3  C   UNL     1      51.721  40.224  48.098  1.00  0.00     0.000 C 
BRANCH   3   4
ATOM      4  C   UNL     1      53.054  40.221  47.332  1.00  0.00     0.000 C 
BRANCH   4   5
ATOM      5  C   UNL     1      53.340  41.568  46.643  1.00  0.00     0.000 C 
BRANCH   5   6
ATOM      6  C   UNL     1      52.182  42.572  46.789  1.00  0.00     0.000 C 
BRANCH   6   7
ATOM      7  C   UNL     1      52.494  43.822  47.639  1.00  0.00     0.000 C 
BRANCH   7   8
ATOM      8  C   UNL     1      53.308  43.566  48.921  1.00  0.00     0.000 C 
BRANCH   8   9
ATOM      9  C   UNL     1      54.383  44.636  49.174  1.00  0.00     0.000 C 
BRANCH   9  10
ATOM     10  C   UNL     1      55.803  44.047  49.250  1.00  0.00     0.006 C 
BRANCH  10  11
ATOM     11  C   UNL     1      55.876  42.532  49.003  1.00  0.00     0.053 C 
BRANCH  11  12
ATOM     12  C   UNL     1      56.980  42.172  48.056  1.00  0.00     0.041 C 
ATOM     13  O   UNL     1      58.040  41.646  48.488  1.00  0.00    -0.550 OA
ATOM     14  O   UNL     1      56.823  42.387  46.693  1.00  0.00    -0.550 OA
ENDBRANCH  11  12
ENDBRANCH  10  11
ENDBRANCH   9  10
ENDBRANCH   8   9
ENDBRANCH   7   8
ENDBRANCH   6   7
ENDBRANCH   5   6
ENDBRANCH   4   5
ENDBRANCH   3   4
ENDBRANCH   2   3
ENDBRANCH   1   2
BRANCH   1  15
ATOM     15  C   UNL     1      53.795  38.972  51.001  1.00  0.00     0.000 C 
BRANCH  15  16
ATOM     16  C   UNL     1      54.833  38.029  50.370  1.00  0.00     0.000 C 
BRANCH  16  17
ATOM     17  C   UNL     1      55.940  38.778  49.607  1.00  0.00     0.000 C 
BRANCH  17  18
ATOM     18  C   UNL     1      57.331  38.664  50.264  1.00  0.00    -0.000 C 
BRANCH  18  19
ATOM     19  C   UNL     1      57.308  37.781  51.525  1.00  0.00    -0.000 C 
BRANCH  19  20
ATOM     20  C   UNL     1      57.714  38.546  52.795  1.00  0.00    -0.000 C 
BRANCH  20  21
ATOM     21  C   UNL     1      56.503  39.144  53.534  1.00  0.00    -0.000 C 
BRANCH  21  22
ATOM     22  C   UNL     1      56.617  40.667  53.708  1.00  0.00    -0.000 C 
BRANCH  22  23
ATOM     23  C   UNL     1      56.095  41.441  52.484  1.00  0.00    -0.000 C 
BRANCH  23  24
ATOM     24  C   UNL     1      55.385  42.747  52.873  1.00  0.00    -0.000 C 
BRANCH  24  25
ATOM     25  C   UNL     1      53.906  42.756  52.460  1.00  0.00    -0.003 C 
ATOM     26  C   UNL     1      53.085  41.817  53.339  1.00  0.00     0.004 C 
ENDBRANCH  24  25
ENDBRANCH  23  24
ENDBRANCH  22  23
ENDBRANCH  21  22
ENDBRANCH  20  21
ENDBRANCH  19  20
ENDBRANCH  18  19
ENDBRANCH  17  18
ENDBRANCH  16  17
ENDBRANCH  15  16
ENDBRANCH   1  15
TORSDOF 22
ENDMDL
MODEL 5
REMARK VINA RESULT:    -3.945      2.114      6.203
REMARK INTER + INTRA:         -13.848
REMARK INTER:                  -9.040
REMARK INTRA:                  -4.809
REMARK UNBOUND:                -4.831
REMARK SMILES CCCCCCCCCCCCCCCCCCCCCCCC(=O)[O-]
REMARK SMILES IDX 13 1 14 2 15 3 16 4 17 5 18 6 19 7 20 8 21 9 22 10 23 11
REMARK SMILES IDX 24 12 25 13 26 14 12 15 11 16 10 17 9 18 8 19 7 20 6 21 5 22
REMARK SMILES IDX 4 23 3 24 2 25 1 26
REMARK H PARENT
REMARK Flexibility Score: inf
ROOT
ATOM      1  C   UNL     1      54.222  39.076  50.352  1.00  0.00     0.000 C 
ENDROOT
BRANCH   1   2
ATOM      2  C   UNL     1      55.034  40.309  49.919  1.00  0.00     0.000 C 
BRANCH   2   3
ATOM      3  C   UNL     1      55.304  40.343  48.406  1.00  0.00     0.000 C 
BRANCH   3   4
ATOM      4  C   UNL     1      54.489  39.294  47.633  1.00  0.00     0.000 C 
BRANCH   4   5
ATOM      5  C   UNL     1      53.389  39.928  46.762  1.00  0.00     0.000 C 
BRANCH   5   6
ATOM      6  C   UNL     1      52.219  40.487  47.592  1.00  0.00     0.000 C 
BRANCH   6   7
ATOM      7  C   UNL     1      51.946  41.997  47.418  1.00  0.00     0.000 C 
BRANCH   7   8
ATOM      8  C   UNL     1      52.652  42.918  48.430  1.00  0.00     0.000 C 
BRANCH   8   9
ATOM      9  C   UNL     1      53.787  43.744  47.801  1.00  0.00     0.000 C 
BRANCH   9  10
ATOM     10  C   UNL     1      54.483  44.669  48.816  1.00  0.00     0.006 C 
BRANCH  10  11
ATOM     11  C   UNL     1      54.768  44.017  50.178  1.00  0.00     0.053 C 
BRANCH  11  12
ATOM     12  C   UNL     1      56.236  43.833  50.414  1.00  0.00     0.041 C 
ATOM     13  O   UNL     1      56.975  43.388  49.497  1.00  0.00    -0.550 OA
ATOM     14  O   UNL     1      56.791  44.185  51.637  1.00  0.00    -0.550 OA
ENDBRANCH  11  12
ENDBRANCH  10  11
ENDBRANCH   9  10
ENDBRANCH   8   9
ENDBRANCH   7   8
ENDBRANCH   6   7
ENDBRANCH   5   6
ENDBRANCH   4   5
ENDBRANCH   3   4
ENDBRANCH   2   3
ENDBRANCH   1   2
BRANCH   1  15
ATOM     15  C   UNL     1      53.212  39.366  51.482  1.00  0.00     0.000 C 
BRANCH  15  16
ATOM     16  C   UNL     1      52.137  40.380  51.058  1.00  0.00     0.000 C 
BRANCH  16  17
ATOM     17  C   UNL     1      52.155  41.665  51.905  1.00  0.00     0.000 C 
BRANCH  17  18
ATOM     18  C   UNL     1      52.923  41.518  53.235  1.00  0.00    -0.000 C 
BRANCH  18  19
ATOM     19  C   UNL     1      54.081  42.525  53.352  1.00  0.00    -0.000 C 
BRANCH  19  20
ATOM     20  C   UNL     1      55.286  41.960  54.122  1.00  0.00    -0.000 C 
BRANCH  20  21
ATOM     21  C   UNL     1      56.067  40.915  53.305  1.00  0.00    -0.000 C 
BRANCH  21  22
ATOM     22  C   UNL     1      56.101  39.541  53.994  1.00  0.00    -0.000 C 
BRANCH  22  23
ATOM     23  C   UNL     1      57.046  38.552  53.287  1.00  0.00    -0.000 C 
BRANCH  23  24
ATOM     24  C   UNL     1      57.748  39.176  52.071  1.00  0.00    -0.000 C 
BRANCH  24  25
ATOM     25  C   UNL     1      57.783  38.227  50.863  1.00  0.00    -0.003 C 
ATOM     26  C   UNL     1      58.664  38.788  49.750  1.00  0.00     0.004 C 
ENDBRANCH  24  25
ENDBRANCH  23  24
ENDBRANCH  22  23
ENDBRANCH  21  22
ENDBRANCH  20  21
ENDBRANCH  19  20
ENDBRANCH  18  19
ENDBRANCH  17  18
ENDBRANCH  16  17
ENDBRANCH  15  16
ENDBRANCH   1  15
TORSDOF 22
ENDMDL
MODEL 6
REMARK VINA RESULT:    -3.932      2.076      2.921
REMARK INTER + INTRA:         -13.818
REMARK INTER:                  -9.273
REMARK INTRA:                  -4.545
REMARK UNBOUND:                -4.831
REMARK SMILES CCCCCCCCCCCCCCCCCCCCCCCC(=O)[O-]
REMARK SMILES IDX 13 1 14 2 15 3 16 4 17 5 18 6 19 7 20 8 21 9 22 10 23 11
REMARK SMILES IDX 24 12 25 13 26 14 12 15 11 16 10 17 9 18 8 19 7 20 6 21 5 22
REMARK SMILES IDX 4 23 3 24 2 25 1 26
REMARK H PARENT
REMARK Flexibility Score: inf
ROOT
ATOM      1  C   UNL     1      54.144  38.529  50.510  1.00  0.00     0.000 C 
ENDROOT
BRANCH   1   2
ATOM      2  C   UNL     1      53.888  39.924  51.105  1.00  0.00     0.000 C 
BRANCH   2   3
ATOM      3  C   UNL     1      52.428  40.127  51.541  1.00  0.00     0.000 C 
BRANCH   3   4
ATOM      4  C   UNL     1      52.267  41.257  52.571  1.00  0.00     0.000 C 
BRANCH   4   5
ATOM      5  C   UNL     1      53.473  42.212  52.591  1.00  0.00     0.000 C 
BRANCH   5   6
ATOM      6  C   UNL     1      54.153  42.288  53.970  1.00  0.00     0.000 C 
BRANCH   6   7
ATOM      7  C   UNL     1      55.516  41.572  54.076  1.00  0.00     0.000 C 
BRANCH   7   8
ATOM      8  C   UNL     1      55.449  40.061  54.365  1.00  0.00     0.000 C 
BRANCH   8   9
ATOM      9  C   UNL     1      56.809  39.358  54.210  1.00  0.00     0.000 C 
BRANCH   9  10
ATOM     10  C   UNL     1      56.940  38.604  52.875  1.00  0.00     0.006 C 
BRANCH  10  11
ATOM     11  C   UNL     1      57.587  39.420  51.745  1.00  0.00     0.053 C 
BRANCH  11  12
ATOM     12  C   UNL     1      58.158  38.542  50.675  1.00  0.00     0.041 C 
ATOM     13  O   UNL     1      58.407  39.012  49.533  1.00  0.00    -0.550 OA
ATOM     14  O   UNL     1      58.445  37.211  50.950  1.00  0.00    -0.550 OA
ENDBRANCH  11  12
ENDBRANCH  10  11
ENDBRANCH   9  10
ENDBRANCH   8   9
ENDBRANCH   7   8
ENDBRANCH   6   7
ENDBRANCH   5   6
ENDBRANCH   4   5
ENDBRANCH   3   4
ENDBRANCH   2   3
ENDBRANCH   1   2
BRANCH   1  15
ATOM     15  C   UNL     1      54.871  38.560  49.150  1.00  0.00     0.000 C 
BRANCH  15  16
ATOM     16  C   UNL     1      55.003  39.987  48.591  1.00  0.00     0.000 C 
BRANCH  16  17
ATOM     17  C   UNL     1      54.501  40.113  47.142  1.00  0.00     0.000 C 
BRANCH  17  18
ATOM     18  C   UNL     1      53.000  39.797  46.976  1.00  0.00    -0.000 C 
BRANCH  18  19
ATOM     19  C   UNL     1      52.125  40.604  47.952  1.00  0.00    -0.000 C 
BRANCH  19  20
ATOM     20  C   UNL     1      52.255  42.123  47.752  1.00  0.00    -0.000 C 
BRANCH  20  21
ATOM     21  C   UNL     1      52.675  42.852  49.040  1.00  0.00    -0.000 C 
BRANCH  21  22
ATOM     22  C   UNL     1      53.279  44.237  48.759  1.00  0.00    -0.000 C 
BRANCH  22  23
ATOM     23  C   UNL     1      54.791  44.175  48.483  1.00  0.00    -0.000 C 
BRANCH  23  24
ATOM     24  C   UNL     1      55.609  44.982  49.503  1.00  0.00    -0.000 C 
BRANCH  24  25
ATOM     25  C   UNL     1      55.869  44.199  50.798  1.00  0.00    -0.003 C 
ATOM     26  C   UNL     1      56.431  42.812  50.497  1.00  0.00     0.004 C 
ENDBRANCH  24  25
ENDBRANCH  23  24
ENDBRANCH  22  23
ENDBRANCH  21  22
ENDBRANCH  20  21
ENDBRANCH  19  20
ENDBRANCH  18  19
ENDBRANCH  17  18
ENDBRANCH  16  17
ENDBRANCH  15  16
ENDBRANCH   1  15
TORSDOF 22
ENDMDL
MODEL 7
REMARK VINA RESULT:    -3.904      1.982      5.559
REMARK INTER + INTRA:         -13.756
REMARK INTER:                  -9.432
REMARK INTRA:                  -4.324
REMARK UNBOUND:                -4.831
REMARK SMILES CCCCCCCCCCCCCCCCCCCCCCCC(=O)[O-]
REMARK SMILES IDX 13 1 14 2 15 3 16 4 17 5 18 6 19 7 20 8 21 9 22 10 23 11
REMARK SMILES IDX 24 12 25 13 26 14 12 15 11 16 10 17 9 18 8 19 7 20 6 21 5 22
REMARK SMILES IDX 4 23 3 24 2 25 1 26
REMARK H PARENT
REMARK Flexibility Score: inf
ROOT
ATOM      1  C   UNL     1      55.303  40.203  48.392  1.00  0.00     0.000 C 
ENDROOT
BRANCH   1   2
ATOM      2  C   UNL     1      54.583  39.202  47.473  1.00  0.00     0.000 C 
BRANCH   2   3
ATOM      3  C   UNL     1      53.381  39.824  46.743  1.00  0.00     0.000 C 
BRANCH   3   4
ATOM      4  C   UNL     1      53.477  41.354  46.634  1.00  0.00     0.000 C 
BRANCH   4   5
ATOM      5  C   UNL     1      52.256  42.066  47.242  1.00  0.00     0.000 C 
BRANCH   5   6
ATOM      6  C   UNL     1      51.928  43.396  46.540  1.00  0.00     0.000 C 
BRANCH   6   7
ATOM      7  C   UNL     1      52.607  44.646  47.140  1.00  0.00     0.000 C 
BRANCH   7   8
ATOM      8  C   UNL     1      52.986  44.543  48.629  1.00  0.00     0.000 C 
BRANCH   8   9
ATOM      9  C   UNL     1      54.506  44.556  48.864  1.00  0.00     0.000 C 
BRANCH   9  10
ATOM     10  C   UNL     1      54.958  43.506  49.895  1.00  0.00     0.006 C 
BRANCH  10  11
ATOM     11  C   UNL     1      55.693  44.087  51.113  1.00  0.00     0.053 C 
BRANCH  11  12
ATOM     12  C   UNL     1      57.177  43.913  51.006  1.00  0.00     0.041 C 
ATOM     13  O   UNL     1      57.686  43.425  49.962  1.00  0.00    -0.550 OA
ATOM     14  O   UNL     1      58.000  44.322  52.048  1.00  0.00    -0.550 OA
ENDBRANCH  11  12
ENDBRANCH  10  11
ENDBRANCH   9  10
ENDBRANCH   8   9
ENDBRANCH   7   8
ENDBRANCH   6   7
ENDBRANCH   5   6
ENDBRANCH   4   5
ENDBRANCH   3   4
ENDBRANCH   2   3
ENDBRANCH   1   2
BRANCH   1  15
ATOM     15  C   UNL     1      55.493  39.691  49.835  1.00  0.00     0.000 C 
BRANCH  15  16
ATOM     16  C   UNL     1      54.554  38.519  50.166  1.00  0.00     0.000 C 
BRANCH  16  17
ATOM     17  C   UNL     1      53.376  38.928  51.069  1.00  0.00     0.000 C 
BRANCH  17  18
ATOM     18  C   UNL     1      52.265  39.697  50.324  1.00  0.00    -0.000 C 
BRANCH  18  19
ATOM     19  C   UNL     1      52.256  41.195  50.679  1.00  0.00    -0.000 C 
BRANCH  19  20
ATOM     20  C   UNL     1      51.937  41.455  52.160  1.00  0.00    -0.000 C 
BRANCH  20  21
ATOM     21  C   UNL     1      53.008  42.319  52.850  1.00  0.00    -0.000 C 
BRANCH  21  22
ATOM     22  C   UNL     1      53.802  41.533  53.906  1.00  0.00    -0.000 C 
BRANCH  22  23
ATOM     23  C   UNL     1      55.268  41.310  53.495  1.00  0.00    -0.000 C 
BRANCH  23  24
ATOM     24  C   UNL     1      55.701  39.842  53.634  1.00  0.00    -0.000 C 
BRANCH  24  25
ATOM     25  C   UNL     1      57.156  39.616  53.196  1.00  0.00    -0.003 C 
ATOM     26  C   UNL     1      57.372  38.177  52.735  1.00  0.00     0.004 C 
ENDBRANCH  24  25
ENDBRANCH  23  24
ENDBRANCH  22  23
ENDBRANCH  21  22
ENDBRANCH  20  21
ENDBRANCH  19  20
ENDBRANCH  18  19
ENDBRANCH  17  18
ENDBRANCH  16  17
ENDBRANCH  15  16
ENDBRANCH   1  15
TORSDOF 22
ENDMDL
MODEL 8
REMARK VINA RESULT:    -3.901      1.384      2.296
REMARK INTER + INTRA:         -13.748
REMARK INTER:                  -9.399
REMARK INTRA:                  -4.348
REMARK UNBOUND:                -4.831
REMARK SMILES CCCCCCCCCCCCCCCCCCCCCCCC(=O)[O-]
REMARK SMILES IDX 13 1 14 2 15 3 16 4 17 5 18 6 19 7 20 8 21 9 22 10 23 11
REMARK SMILES IDX 24 12 25 13 26 14 12 15 11 16 10 17 9 18 8 19 7 20 6 21 5 22
REMARK SMILES IDX 4 23 3 24 2 25 1 26
REMARK H PARENT
REMARK Flexibility Score: inf
ROOT
ATOM      1  C   UNL     1      54.898  38.141  50.501  1.00  0.00     0.000 C 
ENDROOT
BRANCH   1   2
ATOM      2  C   UNL     1      54.028  39.270  51.078  1.00  0.00     0.000 C 
BRANCH   2   3
ATOM      3  C   UNL     1      52.571  39.207  50.591  1.00  0.00     0.000 C 
BRANCH   3   4
ATOM      4  C   UNL     1      51.725  40.389  51.092  1.00  0.00     0.000 C 
BRANCH   4   5
ATOM      5  C   UNL     1      52.289  41.012  52.381  1.00  0.00     0.000 C 
BRANCH   5   6
ATOM      6  C   UNL     1      52.449  42.540  52.285  1.00  0.00     0.000 C 
BRANCH   6   7
ATOM      7  C   UNL     1      53.750  43.029  51.614  1.00  0.00     0.000 C 
BRANCH   7   8
ATOM      8  C   UNL     1      54.918  43.327  52.573  1.00  0.00     0.000 C 
BRANCH   8   9
ATOM      9  C   UNL     1      55.931  42.173  52.662  1.00  0.00     0.000 C 
BRANCH   9  10
ATOM     10  C   UNL     1      56.050  41.594  54.084  1.00  0.00     0.006 C 
BRANCH  10  11
ATOM     11  C   UNL     1      55.400  40.213  54.263  1.00  0.00     0.053 C 
BRANCH  11  12
ATOM     12  C   UNL     1      54.682  40.098  55.573  1.00  0.00     0.041 C 
ATOM     13  O   UNL     1      55.087  39.291  56.451  1.00  0.00    -0.550 OA
ATOM     14  O   UNL     1      53.584  40.907  55.835  1.00  0.00    -0.550 OA
ENDBRANCH  11  12
ENDBRANCH  10  11
ENDBRANCH   9  10
ENDBRANCH   8   9
ENDBRANCH   7   8
ENDBRANCH   6   7
ENDBRANCH   5   6
ENDBRANCH   4   5
ENDBRANCH   3   4
ENDBRANCH   2   3
ENDBRANCH   1   2
BRANCH   1  15
ATOM     15  C   UNL     1      56.357  38.168  51.000  1.00  0.00     0.000 C 
BRANCH  15  16
ATOM     16  C   UNL     1      57.321  38.752  49.954  1.00  0.00     0.000 C 
BRANCH  16  17
ATOM     17  C   UNL     1      57.628  40.242  50.185  1.00  0.00     0.000 C 
BRANCH  17  18
ATOM     18  C   UNL     1      57.363  41.128  48.950  1.00  0.00    -0.000 C 
BRANCH  18  19
ATOM     19  C   UNL     1      55.867  41.448  48.774  1.00  0.00    -0.000 C 
BRANCH  19  20
ATOM     20  C   UNL     1      55.352  41.124  47.362  1.00  0.00    -0.000 C 
BRANCH  20  21
ATOM     21  C   UNL     1      54.379  39.931  47.351  1.00  0.00    -0.000 C 
BRANCH  21  22
ATOM     22  C   UNL     1      52.947  40.348  46.977  1.00  0.00    -0.000 C 
BRANCH  22  23
ATOM     23  C   UNL     1      52.458  41.562  47.786  1.00  0.00    -0.000 C 
BRANCH  23  24
ATOM     24  C   UNL     1      51.871  42.667  46.892  1.00  0.00    -0.000 C 
BRANCH  24  25
ATOM     25  C   UNL     1      52.697  43.960  46.940  1.00  0.00    -0.003 C 
ATOM     26  C   UNL     1      53.065  44.323  48.376  1.00  0.00     0.004 C 
ENDBRANCH  24  25
ENDBRANCH  23  24
ENDBRANCH  22  23
ENDBRANCH  21  22
ENDBRANCH  20  21
ENDBRANCH  19  20
ENDBRANCH  18  19
ENDBRANCH  17  18
ENDBRANCH  16  17
ENDBRANCH  15  16
ENDBRANCH   1  15
TORSDOF 22
ENDMDL
MODEL 9
REMARK VINA RESULT:    -3.842      1.412      3.030
REMARK INTER + INTRA:         -13.614
REMARK INTER:                  -9.052
REMARK INTRA:                  -4.561
REMARK UNBOUND:                -4.831
REMARK SMILES CCCCCCCCCCCCCCCCCCCCCCCC(=O)[O-]
REMARK SMILES IDX 13 1 14 2 15 3 16 4 17 5 18 6 19 7 20 8 21 9 22 10 23 11
REMARK SMILES IDX 24 12 25 13 26 14 12 15 11 16 10 17 9 18 8 19 7 20 6 21 5 22
REMARK SMILES IDX 4 23 3 24 2 25 1 26
REMARK H PARENT
REMARK Flexibility Score: inf
ROOT
ATOM      1  C   UNL     1      55.541  39.672  49.778  1.00  0.00     0.000 C 
ENDROOT
BRANCH   1   2
ATOM      2  C   UNL     1      54.588  38.504  50.082  1.00  0.00     0.000 C 
BRANCH   2   3
ATOM      3  C   UNL     1      53.530  38.858  51.139  1.00  0.00     0.000 C 
BRANCH   3   4
ATOM      4  C   UNL     1      52.325  39.608  50.547  1.00  0.00     0.000 C 
BRANCH   4   5
ATOM      5  C   UNL     1      51.873  40.785  51.429  1.00  0.00     0.000 C 
BRANCH   5   6
ATOM      6  C   UNL     1      52.749  42.038  51.248  1.00  0.00     0.000 C 
BRANCH   6   7
ATOM      7  C   UNL     1      53.504  42.506  52.510  1.00  0.00     0.000 C 
BRANCH   7   8
ATOM      8  C   UNL     1      53.362  41.594  53.743  1.00  0.00     0.000 C 
BRANCH   8   9
ATOM      9  C   UNL     1      54.679  41.422  54.518  1.00  0.00     0.000 C 
BRANCH   9  10
ATOM     10  C   UNL     1      55.269  40.007  54.382  1.00  0.00     0.006 C 
BRANCH  10  11
ATOM     11  C   UNL     1      56.375  39.878  53.323  1.00  0.00     0.053 C 
BRANCH  11  12
ATOM     12  C   UNL     1      57.060  38.548  53.387  1.00  0.00     0.041 C 
ATOM     13  O   UNL     1      57.313  37.913  52.329  1.00  0.00    -0.550 OA
ATOM     14  O   UNL     1      57.448  38.026  54.614  1.00  0.00    -0.550 OA
ENDBRANCH  11  12
ENDBRANCH  10  11
ENDBRANCH   9  10
ENDBRANCH   8   9
ENDBRANCH   7   8
ENDBRANCH   6   7
ENDBRANCH   5   6
ENDBRANCH   4   5
ENDBRANCH   3   4
ENDBRANCH   2   3
ENDBRANCH   1   2
BRANCH   1  15
ATOM     15  C   UNL     1      55.471  40.163  48.317  1.00  0.00     0.000 C 
BRANCH  15  16
ATOM     16  C   UNL     1      54.535  39.300  47.455  1.00  0.00     0.000 C 
BRANCH  16  17
ATOM     17  C   UNL     1      53.484  40.128  46.696  1.00  0.00     0.000 C 
BRANCH  17  18
ATOM     18  C   UNL     1      52.205  40.406  47.514  1.00  0.00    -0.000 C 
BRANCH  18  19
ATOM     19  C   UNL     1      51.880  41.909  47.592  1.00  0.00    -0.000 C 
BRANCH  19  20
ATOM     20  C   UNL     1      53.124  42.797  47.424  1.00  0.00    -0.000 C 
BRANCH  20  21
ATOM     21  C   UNL     1      53.029  44.102  48.234  1.00  0.00    -0.000 C 
BRANCH  21  22
ATOM     22  C   UNL     1      54.411  44.675  48.584  1.00  0.00    -0.000 C 
BRANCH  22  23
ATOM     23  C   UNL     1      55.558  43.903  47.908  1.00  0.00    -0.000 C 
BRANCH  23  24
ATOM     24  C   UNL     1      56.709  43.592  48.877  1.00  0.00    -0.000 C 
BRANCH  24  25
ATOM     25  C   UNL     1      56.220  43.362  50.315  1.00  0.00    -0.003 C 
ATOM     26  C   UNL     1      57.308  42.715  51.167  1.00  0.00     0.004 C 
ENDBRANCH  24  25
ENDBRANCH  23  24
ENDBRANCH  22  23
ENDBRANCH  21  22
ENDBRANCH  20  21
ENDBRANCH  19  20
ENDBRANCH  18  19
ENDBRANCH  17  18
ENDBRANCH  16  17
ENDBRANCH  15  16
ENDBRANCH   1  15
TORSDOF 22
ENDMDL
