MODEL 1
REMARK VINA RESULT:    -3.803      0.000      0.000
REMARK INTER + INTRA:         -12.791
REMARK INTER:                  -8.694
REMARK INTRA:                  -4.096
REMARK UNBOUND:                -4.096
REMARK SMILES CCCCCCCCCCCCCCCCCCCCCCCC(=O)[O-]
REMARK SMILES IDX 13 1 14 2 15 3 16 4 17 5 18 6 19 7 20 8 21 9 22 10 23 11
REMARK SMILES IDX 24 12 25 13 26 14 12 15 11 16 10 17 9 18 8 19 7 20 6 21 5 22
REMARK SMILES IDX 4 23 3 24 2 25 1 26
REMARK H PARENT
REMARK Flexibility Score: inf
ROOT
ATOM      1  C   UNL     1     -11.187  32.168  -8.687  1.00  0.00     0.000 C 
ENDROOT
BRANCH   1   2
ATOM      2  C   UNL     1     -12.679  31.975  -8.359  1.00  0.00     0.000 C 
BRANCH   2   3
ATOM      3  C   UNL     1     -13.129  32.855  -7.181  1.00  0.00     0.000 C 
BRANCH   3   4
ATOM      4  C   UNL     1     -13.210  32.084  -5.852  1.00  0.00     0.000 C 
BRANCH   4   5
ATOM      5  C   UNL     1     -13.593  30.594  -5.985  1.00  0.00     0.000 C 
BRANCH   5   6
ATOM      6  C   UNL     1     -12.846  29.633  -5.038  1.00  0.00     0.000 C 
BRANCH   6   7
ATOM      7  C   UNL     1     -12.083  28.496  -5.745  1.00  0.00     0.000 C 
BRANCH   7   8
ATOM      8  C   UNL     1     -12.472  28.354  -7.228  1.00  0.00     0.000 C 
BRANCH   8   9
ATOM      9  C   UNL     1     -11.611  27.314  -7.963  1.00  0.00     0.000 C 
BRANCH   9  10
ATOM     10  C   UNL     1     -12.113  27.036  -9.389  1.00  0.00     0.006 C 
BRANCH  10  11
ATOM     11  C   UNL     1     -12.891  28.224  -9.971  1.00  0.00     0.053 C 
BRANCH  11  12
ATOM     12  C   UNL     1     -13.840  27.795 -11.048  1.00  0.00     0.041 C 
ATOM     13  O   UNL     1     -14.431  28.657 -11.753  1.00  0.00    -0.550 OA
ATOM     14  O   UNL     1     -14.057  26.445 -11.287  1.00  0.00    -0.550 OA
ENDBRANCH  11  12
ENDBRANCH  10  11
ENDBRANCH   9  10
ENDBRANCH   8   9
ENDBRANCH   7   8
ENDBRANCH   6   7
ENDBRANCH   5   6
ENDBRANCH   4   5
ENDBRANCH   3   4
ENDBRANCH   2   3
ENDBRANCH   1   2
BRANCH   1  15
ATOM     15  C   UNL     1     -10.253  31.155  -7.990  1.00  0.00     0.000 C 
BRANCH  15  16
ATOM     16  C   UNL     1      -9.608  31.650  -6.677  1.00  0.00     0.000 C 
BRANCH  16  17
ATOM     17  C   UNL     1      -8.850  30.576  -5.868  1.00  0.00     0.000 C 
BRANCH  17  18
ATOM     18  C   UNL     1      -7.767  31.124  -4.919  1.00  0.00    -0.000 C 
BRANCH  18  19
ATOM     19  C   UNL     1      -6.317  30.833  -5.356  1.00  0.00    -0.000 C 
BRANCH  19  20
ATOM     20  C   UNL     1      -5.877  31.621  -6.612  1.00  0.00    -0.000 C 
BRANCH  20  21
ATOM     21  C   UNL     1      -4.909  30.832  -7.514  1.00  0.00    -0.000 C 
BRANCH  21  22
ATOM     22  C   UNL     1      -5.417  30.698  -8.970  1.00  0.00    -0.000 C 
BRANCH  22  23
ATOM     23  C   UNL     1      -6.843  30.132  -9.061  1.00  0.00    -0.000 C 
BRANCH  23  24
ATOM     24  C   UNL     1      -6.958  28.725  -8.459  1.00  0.00    -0.000 C 
BRANCH  24  25
ATOM     25  C   UNL     1      -8.001  27.893  -9.212  1.00  0.00    -0.003 C 
ATOM     26  C   UNL     1      -8.751  28.742 -10.234  1.00  0.00     0.004 C 
ENDBRANCH  24  25
ENDBRANCH  23  24
ENDBRANCH  22  23
ENDBRANCH  21  22
ENDBRANCH  20  21
ENDBRANCH  19  20
ENDBRANCH  18  19
ENDBRANCH  17  18
ENDBRANCH  16  17
ENDBRANCH  15  16
ENDBRANCH   1  15
TORSDOF 22
ENDMDL
MODEL 2
REMARK VINA RESULT:    -3.780      5.599      8.689
REMARK INTER + INTRA:         -12.737
REMARK INTER:                  -9.880
REMARK INTRA:                  -2.858
REMARK UNBOUND:                -4.096
REMARK SMILES CCCCCCCCCCCCCCCCCCCCCCCC(=O)[O-]
REMARK SMILES IDX 13 1 14 2 15 3 16 4 17 5 18 6 19 7 20 8 21 9 22 10 23 11
REMARK SMILES IDX 24 12 25 13 26 14 12 15 11 16 10 17 9 18 8 19 7 20 6 21 5 22
REMARK SMILES IDX 4 23 3 24 2 25 1 26
REMARK H PARENT
REMARK Flexibility Score: inf
ROOT
ATOM      1  C   UNL     1      -5.449  26.433 -12.732  1.00  0.00     0.000 C 
ENDROOT
BRANCH   1   2
ATOM      2  C   UNL     1      -6.571  26.521 -13.784  1.00  0.00     0.000 C 
BRANCH   2   3
ATOM      3  C   UNL     1      -7.934  26.839 -13.147  1.00  0.00     0.000 C 
BRANCH   3   4
ATOM      4  C   UNL     1      -9.118  26.288 -13.961  1.00  0.00     0.000 C 
BRANCH   4   5
ATOM      5  C   UNL     1      -9.863  25.104 -13.308  1.00  0.00     0.000 C 
BRANCH   5   6
ATOM      6  C   UNL     1      -9.440  24.773 -11.862  1.00  0.00     0.000 C 
BRANCH   6   7
ATOM      7  C   UNL     1     -10.504  25.081 -10.793  1.00  0.00     0.000 C 
BRANCH   7   8
ATOM      8  C   UNL     1     -10.119  26.276  -9.901  1.00  0.00     0.000 C 
BRANCH   8   9
ATOM      9  C   UNL     1     -11.179  27.389  -9.919  1.00  0.00     0.000 C 
BRANCH   9  10
ATOM     10  C   UNL     1     -12.611  26.840  -9.800  1.00  0.00     0.006 C 
BRANCH  10  11
ATOM     11  C   UNL     1     -13.668  27.937  -9.984  1.00  0.00     0.053 C 
BRANCH  11  12
ATOM     12  C   UNL     1     -14.556  27.664 -11.160  1.00  0.00     0.041 C 
ATOM     13  O   UNL     1     -15.799  27.529 -10.998  1.00  0.00    -0.550 OA
ATOM     14  O   UNL     1     -14.014  27.578 -12.436  1.00  0.00    -0.550 OA
ENDBRANCH  11  12
ENDBRANCH  10  11
ENDBRANCH   9  10
ENDBRANCH   8   9
ENDBRANCH   7   8
ENDBRANCH   6   7
ENDBRANCH   5   6
ENDBRANCH   4   5
ENDBRANCH   3   4
ENDBRANCH   2   3
ENDBRANCH   1   2
BRANCH   1  15
ATOM     15  C   UNL     1      -5.888  25.798 -11.395  1.00  0.00     0.000 C 
BRANCH  15  16
ATOM     16  C   UNL     1      -5.839  24.255 -11.352  1.00  0.00     0.000 C 
BRANCH  16  17
ATOM     17  C   UNL     1      -5.398  23.572 -12.665  1.00  0.00     0.000 C 
BRANCH  17  18
ATOM     18  C   UNL     1      -6.538  22.917 -13.468  1.00  0.00    -0.000 C 
BRANCH  18  19
ATOM     19  C   UNL     1      -6.868  21.468 -13.058  1.00  0.00    -0.000 C 
BRANCH  19  20
ATOM     20  C   UNL     1      -8.050  21.356 -12.067  1.00  0.00    -0.000 C 
BRANCH  20  21
ATOM     21  C   UNL     1      -7.634  20.812 -10.687  1.00  0.00    -0.000 C 
BRANCH  21  22
ATOM     22  C   UNL     1      -6.125  20.481 -10.600  1.00  0.00    -0.000 C 
BRANCH  22  23
ATOM     23  C   UNL     1      -5.749  19.714  -9.322  1.00  0.00    -0.000 C 
BRANCH  23  24
ATOM     24  C   UNL     1      -6.671  18.514  -9.062  1.00  0.00    -0.000 C 
BRANCH  24  25
ATOM     25  C   UNL     1      -6.915  18.330  -7.562  1.00  0.00    -0.003 C 
ATOM     26  C   UNL     1      -7.965  19.312  -7.049  1.00  0.00     0.004 C 
ENDBRANCH  24  25
ENDBRANCH  23  24
ENDBRANCH  22  23
ENDBRANCH  21  22
ENDBRANCH  20  21
ENDBRANCH  19  20
ENDBRANCH  18  19
ENDBRANCH  17  18
ENDBRANCH  16  17
ENDBRANCH  15  16
ENDBRANCH   1  15
TORSDOF 22
ENDMDL
MODEL 3
REMARK VINA RESULT:    -3.713      5.586      8.788
REMARK INTER + INTRA:         -12.585
REMARK INTER:                  -9.452
REMARK INTRA:                  -3.133
REMARK UNBOUND:                -4.096
REMARK SMILES CCCCCCCCCCCCCCCCCCCCCCCC(=O)[O-]
REMARK SMILES IDX 13 1 14 2 15 3 16 4 17 5 18 6 19 7 20 8 21 9 22 10 23 11
REMARK SMILES IDX 24 12 25 13 26 14 12 15 11 16 10 17 9 18 8 19 7 20 6 21 5 22
REMARK SMILES IDX 4 23 3 24 2 25 1 26
REMARK H PARENT
REMARK Flexibility Score: inf
ROOT
ATOM      1  C   UNL     1      -6.176  26.870 -13.380  1.00  0.00     0.000 C 
ENDROOT
BRANCH   1   2
ATOM      2  C   UNL     1      -7.713  26.774 -13.393  1.00  0.00     0.000 C 
BRANCH   2   3
ATOM      3  C   UNL     1      -8.205  25.353 -13.074  1.00  0.00     0.000 C 
BRANCH   3   4
ATOM      4  C   UNL     1      -8.879  25.247 -11.694  1.00  0.00     0.000 C 
BRANCH   4   5
ATOM      5  C   UNL     1      -7.909  25.054 -10.508  1.00  0.00     0.000 C 
BRANCH   5   6
ATOM      6  C   UNL     1      -8.116  26.019  -9.323  1.00  0.00     0.000 C 
BRANCH   6   7
ATOM      7  C   UNL     1      -6.869  26.831  -8.928  1.00  0.00     0.000 C 
BRANCH   7   8
ATOM      8  C   UNL     1      -6.618  28.025  -9.867  1.00  0.00     0.000 C 
BRANCH   8   9
ATOM      9  C   UNL     1      -7.198  29.338  -9.316  1.00  0.00     0.000 C 
BRANCH   9  10
ATOM     10  C   UNL     1      -8.604  29.636  -9.861  1.00  0.00     0.006 C 
BRANCH  10  11
ATOM     11  C   UNL     1      -9.674  29.583  -8.763  1.00  0.00     0.053 C 
BRANCH  11  12
ATOM     12  C   UNL     1     -10.851  30.451  -9.089  1.00  0.00     0.041 C 
ATOM     13  O   UNL     1     -10.721  31.704  -9.141  1.00  0.00    -0.550 OA
ATOM     14  O   UNL     1     -12.087  29.876  -9.355  1.00  0.00    -0.550 OA
ENDBRANCH  11  12
ENDBRANCH  10  11
ENDBRANCH   9  10
ENDBRANCH   8   9
ENDBRANCH   7   8
ENDBRANCH   6   7
ENDBRANCH   5   6
ENDBRANCH   4   5
ENDBRANCH   3   4
ENDBRANCH   2   3
ENDBRANCH   1   2
BRANCH   1  15
ATOM     15  C   UNL     1      -5.462  25.510 -13.215  1.00  0.00     0.000 C 
BRANCH  15  16
ATOM     16  C   UNL     1      -4.555  25.391 -11.971  1.00  0.00     0.000 C 
BRANCH  16  17
ATOM     17  C   UNL     1      -3.994  23.978 -11.696  1.00  0.00     0.000 C 
BRANCH  17  18
ATOM     18  C   UNL     1      -4.250  22.951 -12.815  1.00  0.00    -0.000 C 
BRANCH  18  19
ATOM     19  C   UNL     1      -5.163  21.775 -12.416  1.00  0.00    -0.000 C 
BRANCH  19  20
ATOM     20  C   UNL     1      -6.672  22.103 -12.498  1.00  0.00    -0.000 C 
BRANCH  20  21
ATOM     21  C   UNL     1      -7.478  21.553 -11.307  1.00  0.00    -0.000 C 
BRANCH  21  22
ATOM     22  C   UNL     1      -6.609  20.743 -10.315  1.00  0.00    -0.000 C 
BRANCH  22  23
ATOM     23  C   UNL     1      -7.380  19.604  -9.630  1.00  0.00    -0.000 C 
BRANCH  23  24
ATOM     24  C   UNL     1      -6.450  18.579  -8.965  1.00  0.00    -0.000 C 
BRANCH  24  25
ATOM     25  C   UNL     1      -6.757  18.454  -7.470  1.00  0.00    -0.003 C 
ATOM     26  C   UNL     1      -7.981  19.280  -7.086  1.00  0.00     0.004 C 
ENDBRANCH  24  25
ENDBRANCH  23  24
ENDBRANCH  22  23
ENDBRANCH  21  22
ENDBRANCH  20  21
ENDBRANCH  19  20
ENDBRANCH  18  19
ENDBRANCH  17  18
ENDBRANCH  16  17
ENDBRANCH  15  16
ENDBRANCH   1  15
TORSDOF 22
ENDMDL
MODEL 4
REMARK VINA RESULT:    -3.701      5.664      9.303
REMARK INTER + INTRA:         -12.558
REMARK INTER:                  -8.925
REMARK INTRA:                  -3.634
REMARK UNBOUND:                -4.096
REMARK SMILES CCCCCCCCCCCCCCCCCCCCCCCC(=O)[O-]
REMARK SMILES IDX 13 1 14 2 15 3 16 4 17 5 18 6 19 7 20 8 21 9 22 10 23 11
REMARK SMILES IDX 24 12 25 13 26 14 12 15 11 16 10 17 9 18 8 19 7 20 6 21 5 22
REMARK SMILES IDX 4 23 3 24 2 25 1 26
REMARK H PARENT
REMARK Flexibility Score: inf
ROOT
ATOM      1  C   UNL     1      -5.519  25.380 -14.123  1.00  0.00     0.000 C 
ENDROOT
BRANCH   1   2
ATOM      2  C   UNL     1      -4.264  24.828 -13.421  1.00  0.00     0.000 C 
BRANCH   2   3
ATOM      3  C   UNL     1      -4.386  24.889 -11.889  1.00  0.00     0.000 C 
BRANCH   3   4
ATOM      4  C   UNL     1      -5.118  23.671 -11.298  1.00  0.00     0.000 C 
BRANCH   4   5
ATOM      5  C   UNL     1      -6.052  23.985 -10.109  1.00  0.00     0.000 C 
BRANCH   5   6
ATOM      6  C   UNL     1      -5.961  25.423  -9.560  1.00  0.00     0.000 C 
BRANCH   6   7
ATOM      7  C   UNL     1      -7.318  26.075  -9.232  1.00  0.00     0.000 C 
BRANCH   7   8
ATOM      8  C   UNL     1      -7.526  27.411  -9.968  1.00  0.00     0.000 C 
BRANCH   8   9
ATOM      9  C   UNL     1      -6.538  28.495  -9.509  1.00  0.00     0.000 C 
BRANCH   9  10
ATOM     10  C   UNL     1      -7.222  29.850  -9.263  1.00  0.00     0.006 C 
BRANCH  10  11
ATOM     11  C   UNL     1      -8.717  29.814  -9.608  1.00  0.00     0.053 C 
BRANCH  11  12
ATOM     12  C   UNL     1      -9.574  29.965  -8.388  1.00  0.00     0.041 C 
ATOM     13  O   UNL     1     -10.095  28.951  -7.849  1.00  0.00    -0.550 OA
ATOM     14  O   UNL     1      -9.780  31.221  -7.833  1.00  0.00    -0.550 OA
ENDBRANCH  11  12
ENDBRANCH  10  11
ENDBRANCH   9  10
ENDBRANCH   8   9
ENDBRANCH   7   8
ENDBRANCH   6   7
ENDBRANCH   5   6
ENDBRANCH   4   5
ENDBRANCH   3   4
ENDBRANCH   2   3
ENDBRANCH   1   2
BRANCH   1  15
ATOM     15  C   UNL     1      -6.228  26.511 -13.347  1.00  0.00     0.000 C 
BRANCH  15  16
ATOM     16  C   UNL     1      -7.757  26.348 -13.197  1.00  0.00     0.000 C 
BRANCH  16  17
ATOM     17  C   UNL     1      -8.283  24.904 -13.335  1.00  0.00     0.000 C 
BRANCH  17  18
ATOM     18  C   UNL     1      -9.088  24.389 -12.126  1.00  0.00    -0.000 C 
BRANCH  18  19
ATOM     19  C   UNL     1      -8.970  22.874 -11.868  1.00  0.00    -0.000 C 
BRANCH  19  20
ATOM     20  C   UNL     1      -8.468  22.073 -13.092  1.00  0.00    -0.000 C 
BRANCH  20  21
ATOM     21  C   UNL     1      -7.552  20.895 -12.711  1.00  0.00    -0.000 C 
BRANCH  21  22
ATOM     22  C   UNL     1      -7.445  20.686 -11.181  1.00  0.00    -0.000 C 
BRANCH  22  23
ATOM     23  C   UNL     1      -6.218  19.856 -10.771  1.00  0.00    -0.000 C 
BRANCH  23  24
ATOM     24  C   UNL     1      -5.961  19.895  -9.258  1.00  0.00    -0.000 C 
BRANCH  24  25
ATOM     25  C   UNL     1      -7.272  19.759  -8.478  1.00  0.00    -0.003 C 
ATOM     26  C   UNL     1      -7.230  18.561  -7.532  1.00  0.00     0.004 C 
ENDBRANCH  24  25
ENDBRANCH  23  24
ENDBRANCH  22  23
ENDBRANCH  21  22
ENDBRANCH  20  21
ENDBRANCH  19  20
ENDBRANCH  18  19
ENDBRANCH  17  18
ENDBRANCH  16  17
ENDBRANCH  15  16
ENDBRANCH   1  15
TORSDOF 22
ENDMDL
MODEL 5
REMARK VINA RESULT:    -3.690      5.935      9.237
REMARK INTER + INTRA:         -12.531
REMARK INTER:                  -8.936
REMARK INTRA:                  -3.596
REMARK UNBOUND:                -4.096
REMARK SMILES CCCCCCCCCCCCCCCCCCCCCCCC(=O)[O-]
REMARK SMILES IDX 13 1 14 2 15 3 16 4 17 5 18 6 19 7 20 8 21 9 22 10 23 11
REMARK SMILES IDX 24 12 25 13 26 14 12 15 11 16 10 17 9 18 8 19 7 20 6 21 5 22
REMARK SMILES IDX 4 23 3 24 2 25 1 26
REMARK H PARENT
REMARK Flexibility Score: inf
ROOT
ATOM      1  C   UNL     1      -7.754  25.145 -10.172  1.00  0.00     0.000 C 
ENDROOT
BRANCH   1   2
ATOM      2  C   UNL     1      -6.677  26.226  -9.960  1.00  0.00     0.000 C 
BRANCH   2   3
ATOM      3  C   UNL     1      -6.622  27.223 -11.129  1.00  0.00     0.000 C 
BRANCH   3   4
ATOM      4  C   UNL     1      -5.570  26.848 -12.188  1.00  0.00     0.000 C 
BRANCH   4   5
ATOM      5  C   UNL     1      -6.139  26.507 -13.582  1.00  0.00     0.000 C 
BRANCH   5   6
ATOM      6  C   UNL     1      -7.677  26.411 -13.662  1.00  0.00     0.000 C 
BRANCH   6   7
ATOM      7  C   UNL     1      -8.211  25.093 -14.251  1.00  0.00     0.000 C 
BRANCH   7   8
ATOM      8  C   UNL     1      -9.662  24.799 -13.828  1.00  0.00     0.000 C 
BRANCH   8   9
ATOM      9  C   UNL     1     -10.142  25.724 -12.697  1.00  0.00     0.000 C 
BRANCH   9  10
ATOM     10  C   UNL     1     -11.455  25.241 -12.059  1.00  0.00     0.006 C 
BRANCH  10  11
ATOM     11  C   UNL     1     -12.577  25.083 -13.093  1.00  0.00     0.053 C 
BRANCH  11  12
ATOM     12  C   UNL     1     -13.748  25.965 -12.785  1.00  0.00     0.041 C 
ATOM     13  O   UNL     1     -14.629  25.587 -11.967  1.00  0.00    -0.550 OA
ATOM     14  O   UNL     1     -13.856  27.213 -13.384  1.00  0.00    -0.550 OA
ENDBRANCH  11  12
ENDBRANCH  10  11
ENDBRANCH   9  10
ENDBRANCH   8   9
ENDBRANCH   7   8
ENDBRANCH   6   7
ENDBRANCH   5   6
ENDBRANCH   4   5
ENDBRANCH   3   4
ENDBRANCH   2   3
ENDBRANCH   1   2
BRANCH   1  15
ATOM     15  C   UNL     1      -7.224  23.848 -10.821  1.00  0.00     0.000 C 
BRANCH  15  16
ATOM     16  C   UNL     1      -5.773  23.472 -10.448  1.00  0.00     0.000 C 
BRANCH  16  17
ATOM     17  C   UNL     1      -4.824  23.239 -11.643  1.00  0.00     0.000 C 
BRANCH  17  18
ATOM     18  C   UNL     1      -5.528  22.953 -12.983  1.00  0.00    -0.000 C 
BRANCH  18  19
ATOM     19  C   UNL     1      -5.302  21.534 -13.543  1.00  0.00    -0.000 C 
BRANCH  19  20
ATOM     20  C   UNL     1      -6.584  20.669 -13.580  1.00  0.00    -0.000 C 
BRANCH  20  21
ATOM     21  C   UNL     1      -7.227  20.479 -12.194  1.00  0.00    -0.000 C 
BRANCH  21  22
ATOM     22  C   UNL     1      -6.275  19.809 -11.175  1.00  0.00    -0.000 C 
BRANCH  22  23
ATOM     23  C   UNL     1      -6.812  19.843  -9.735  1.00  0.00    -0.000 C 
BRANCH  23  24
ATOM     24  C   UNL     1      -6.022  18.927  -8.789  1.00  0.00    -0.000 C 
BRANCH  24  25
ATOM     25  C   UNL     1      -6.936  18.335  -7.713  1.00  0.00    -0.003 C 
ATOM     26  C   UNL     1      -7.805  19.414  -7.072  1.00  0.00     0.004 C 
ENDBRANCH  24  25
ENDBRANCH  23  24
ENDBRANCH  22  23
ENDBRANCH  21  22
ENDBRANCH  20  21
ENDBRANCH  19  20
ENDBRANCH  18  19
ENDBRANCH  17  18
ENDBRANCH  16  17
ENDBRANCH  15  16
ENDBRANCH   1  15
TORSDOF 22
ENDMDL
MODEL 6
REMARK VINA RESULT:    -3.680      7.215     10.536
REMARK INTER + INTRA:         -12.509
REMARK INTER:                  -8.956
REMARK INTRA:                  -3.553
REMARK UNBOUND:                -4.096
REMARK SMILES CCCCCCCCCCCCCCCCCCCCCCCC(=O)[O-]
REMARK SMILES IDX 13 1 14 2 15 3 16 4 17 5 18 6 19 7 20 8 21 9 22 10 23 11
REMARK SMILES IDX 24 12 25 13 26 14 12 15 11 16 10 17 9 18 8 19 7 20 6 21 5 22
REMARK SMILES IDX 4 23 3 24 2 25 1 26
REMARK H PARENT
REMARK Flexibility Score: inf
ROOT
ATOM      1  C   UNL     1      -6.103  26.812 -11.658  1.00  0.00     0.000 C 
ENDROOT
BRANCH   1   2
ATOM      2  C   UNL     1      -5.351  26.719 -12.999  1.00  0.00     0.000 C 
BRANCH   2   3
ATOM      3  C   UNL     1      -4.251  25.646 -12.970  1.00  0.00     0.000 C 
BRANCH   3   4
ATOM      4  C   UNL     1      -4.483  24.579 -11.885  1.00  0.00     0.000 C 
BRANCH   4   5
ATOM      5  C   UNL     1      -4.434  23.119 -12.385  1.00  0.00     0.000 C 
BRANCH   5   6
ATOM      6  C   UNL     1      -4.386  22.946 -13.917  1.00  0.00     0.000 C 
BRANCH   6   7
ATOM      7  C   UNL     1      -5.442  21.984 -14.491  1.00  0.00     0.000 C 
BRANCH   7   8
ATOM      8  C   UNL     1      -5.591  22.110 -16.018  1.00  0.00     0.000 C 
BRANCH   8   9
ATOM      9  C   UNL     1      -5.731  23.571 -16.475  1.00  0.00     0.000 C 
BRANCH   9  10
ATOM     10  C   UNL     1      -6.788  23.745 -17.579  1.00  0.00     0.006 C 
BRANCH  10  11
ATOM     11  C   UNL     1      -8.167  24.100 -17.008  1.00  0.00     0.053 C 
BRANCH  11  12
ATOM     12  C   UNL     1      -8.688  25.387 -17.572  1.00  0.00     0.041 C 
ATOM     13  O   UNL     1      -7.942  26.120 -18.276  1.00  0.00    -0.550 OA
ATOM     14  O   UNL     1     -10.003  25.768 -17.338  1.00  0.00    -0.550 OA
ENDBRANCH  11  12
ENDBRANCH  10  11
ENDBRANCH   9  10
ENDBRANCH   8   9
ENDBRANCH   7   8
ENDBRANCH   6   7
ENDBRANCH   5   6
ENDBRANCH   4   5
ENDBRANCH   3   4
ENDBRANCH   2   3
ENDBRANCH   1   2
BRANCH   1  15
ATOM     15  C   UNL     1      -7.641  26.764 -11.795  1.00  0.00     0.000 C 
BRANCH  15  16
ATOM     16  C   UNL     1      -8.173  26.765 -13.245  1.00  0.00     0.000 C 
BRANCH  16  17
ATOM     17  C   UNL     1      -8.741  25.417 -13.739  1.00  0.00     0.000 C 
BRANCH  17  18
ATOM     18  C   UNL     1      -7.965  24.174 -13.266  1.00  0.00    -0.000 C 
BRANCH  18  19
ATOM     19  C   UNL     1      -8.715  23.292 -12.248  1.00  0.00    -0.000 C 
BRANCH  19  20
ATOM     20  C   UNL     1      -7.792  22.628 -11.200  1.00  0.00    -0.000 C 
BRANCH  20  21
ATOM     21  C   UNL     1      -7.978  21.103 -11.108  1.00  0.00    -0.000 C 
BRANCH  21  22
ATOM     22  C   UNL     1      -6.635  20.334 -11.075  1.00  0.00    -0.000 C 
BRANCH  22  23
ATOM     23  C   UNL     1      -5.981  20.321  -9.684  1.00  0.00    -0.000 C 
BRANCH  23  24
ATOM     24  C   UNL     1      -5.868  18.907  -9.099  1.00  0.00    -0.000 C 
BRANCH  24  25
ATOM     25  C   UNL     1      -7.224  18.423  -8.576  1.00  0.00    -0.003 C 
ATOM     26  C   UNL     1      -7.660  19.223  -7.351  1.00  0.00     0.004 C 
ENDBRANCH  24  25
ENDBRANCH  23  24
ENDBRANCH  22  23
ENDBRANCH  21  22
ENDBRANCH  20  21
ENDBRANCH  19  20
ENDBRANCH  18  19
ENDBRANCH  17  18
ENDBRANCH  16  17
ENDBRANCH  15  16
ENDBRANCH   1  15
TORSDOF 22
ENDMDL
MODEL 7
REMARK VINA RESULT:    -3.679      3.614      6.902
REMARK INTER + INTRA:         -12.507
REMARK INTER:                  -8.203
REMARK INTRA:                  -4.304
REMARK UNBOUND:                -4.096
REMARK SMILES CCCCCCCCCCCCCCCCCCCCCCCC(=O)[O-]
REMARK SMILES IDX 13 1 14 2 15 3 16 4 17 5 18 6 19 7 20 8 21 9 22 10 23 11
REMARK SMILES IDX 24 12 25 13 26 14 12 15 11 16 10 17 9 18 8 19 7 20 6 21 5 22
REMARK SMILES IDX 4 23 3 24 2 25 1 26
REMARK H PARENT
REMARK Flexibility Score: inf
ROOT
ATOM      1  C   UNL     1      -6.883  28.667  -8.920  1.00  0.00     0.000 C 
ENDROOT
BRANCH   1   2
ATOM      2  C   UNL     1      -6.801  30.205  -8.886  1.00  0.00     0.000 C 
BRANCH   2   3
ATOM      3  C   UNL     1      -5.365  30.711  -9.103  1.00  0.00     0.000 C 
BRANCH   3   4
ATOM      4  C   UNL     1      -4.600  30.925  -7.784  1.00  0.00     0.000 C 
BRANCH   4   5
ATOM      5  C   UNL     1      -5.431  31.545  -6.641  1.00  0.00     0.000 C 
BRANCH   5   6
ATOM      6  C   UNL     1      -5.279  30.860  -5.267  1.00  0.00     0.000 C 
BRANCH   6   7
ATOM      7  C   UNL     1      -4.981  29.351  -5.330  1.00  0.00     0.000 C 
BRANCH   7   8
ATOM      8  C   UNL     1      -4.732  28.738  -3.939  1.00  0.00     0.000 C 
BRANCH   8   9
ATOM      9  C   UNL     1      -6.005  28.126  -3.331  1.00  0.00     0.000 C 
BRANCH   9  10
ATOM     10  C   UNL     1      -6.539  26.941  -4.153  1.00  0.00     0.006 C 
BRANCH  10  11
ATOM     11  C   UNL     1      -5.626  25.712  -4.057  1.00  0.00     0.053 C 
BRANCH  11  12
ATOM     12  C   UNL     1      -5.373  25.099  -5.401  1.00  0.00     0.041 C 
ATOM     13  O   UNL     1      -4.938  25.806  -6.349  1.00  0.00    -0.550 OA
ATOM     14  O   UNL     1      -5.599  23.743  -5.601  1.00  0.00    -0.550 OA
ENDBRANCH  11  12
ENDBRANCH  10  11
ENDBRANCH   9  10
ENDBRANCH   8   9
ENDBRANCH   7   8
ENDBRANCH   6   7
ENDBRANCH   5   6
ENDBRANCH   4   5
ENDBRANCH   3   4
ENDBRANCH   2   3
ENDBRANCH   1   2
BRANCH   1  15
ATOM     15  C   UNL     1      -7.402  28.036  -7.609  1.00  0.00     0.000 C 
BRANCH  15  16
ATOM     16  C   UNL     1      -8.935  27.880  -7.516  1.00  0.00     0.000 C 
BRANCH  16  17
ATOM     17  C   UNL     1      -9.619  28.722  -6.418  1.00  0.00     0.000 C 
BRANCH  17  18
ATOM     18  C   UNL     1      -8.659  29.570  -5.561  1.00  0.00    -0.000 C 
BRANCH  18  19
ATOM     19  C   UNL     1      -9.092  31.037  -5.365  1.00  0.00    -0.000 C 
BRANCH  19  20
ATOM     20  C   UNL     1      -9.165  31.845  -6.682  1.00  0.00    -0.000 C 
BRANCH  20  21
ATOM     21  C   UNL     1     -10.515  32.558  -6.882  1.00  0.00    -0.000 C 
BRANCH  21  22
ATOM     22  C   UNL     1     -11.471  31.785  -7.821  1.00  0.00    -0.000 C 
BRANCH  22  23
ATOM     23  C   UNL     1     -10.755  31.164  -9.031  1.00  0.00    -0.000 C 
BRANCH  23  24
ATOM     24  C   UNL     1     -11.305  29.777  -9.392  1.00  0.00    -0.000 C 
BRANCH  24  25
ATOM     25  C   UNL     1     -12.578  29.470  -8.598  1.00  0.00    -0.003 C 
ATOM     26  C   UNL     1     -13.383  28.352  -9.255  1.00  0.00     0.004 C 
ENDBRANCH  24  25
ENDBRANCH  23  24
ENDBRANCH  22  23
ENDBRANCH  21  22
ENDBRANCH  20  21
ENDBRANCH  19  20
ENDBRANCH  18  19
ENDBRANCH  17  18
ENDBRANCH  16  17
ENDBRANCH  15  16
ENDBRANCH   1  15
TORSDOF 22
ENDMDL
MODEL 8
REMARK VINA RESULT:    -3.635      4.327      7.242
REMARK INTER + INTRA:         -12.405
REMARK INTER:                  -8.564
REMARK INTRA:                  -3.841
REMARK UNBOUND:                -4.096
REMARK SMILES CCCCCCCCCCCCCCCCCCCCCCCC(=O)[O-]
REMARK SMILES IDX 13 1 14 2 15 3 16 4 17 5 18 6 19 7 20 8 21 9 22 10 23 11
REMARK SMILES IDX 24 12 25 13 26 14 12 15 11 16 10 17 9 18 8 19 7 20 6 21 5 22
REMARK SMILES IDX 4 23 3 24 2 25 1 26
REMARK H PARENT
REMARK Flexibility Score: inf
ROOT
ATOM      1  C   UNL     1      -8.061  27.133 -11.628  1.00  0.00     0.000 C 
ENDROOT
BRANCH   1   2
ATOM      2  C   UNL     1      -8.921  26.456 -10.544  1.00  0.00     0.000 C 
BRANCH   2   3
ATOM      3  C   UNL     1      -8.248  26.500  -9.163  1.00  0.00     0.000 C 
BRANCH   3   4
ATOM      4  C   UNL     1      -6.999  27.399  -9.132  1.00  0.00     0.000 C 
BRANCH   4   5
ATOM      5  C   UNL     1      -6.907  28.348  -7.918  1.00  0.00     0.000 C 
BRANCH   5   6
ATOM      6  C   UNL     1      -7.495  29.757  -8.135  1.00  0.00     0.000 C 
BRANCH   6   7
ATOM      7  C   UNL     1      -7.686  30.156  -9.610  1.00  0.00     0.000 C 
BRANCH   7   8
ATOM      8  C   UNL     1      -9.169  30.242 -10.013  1.00  0.00     0.000 C 
BRANCH   8   9
ATOM      9  C   UNL     1     -10.104  30.332  -8.796  1.00  0.00     0.000 C 
BRANCH   9  10
ATOM     10  C   UNL     1     -10.999  29.091  -8.647  1.00  0.00     0.006 C 
BRANCH  10  11
ATOM     11  C   UNL     1     -12.491  29.444  -8.704  1.00  0.00     0.053 C 
BRANCH  11  12
ATOM     12  C   UNL     1     -12.951  30.123  -7.449  1.00  0.00     0.041 C 
ATOM     13  O   UNL     1     -13.280  29.440  -6.442  1.00  0.00    -0.550 OA
ATOM     14  O   UNL     1     -12.996  31.510  -7.386  1.00  0.00    -0.550 OA
ENDBRANCH  11  12
ENDBRANCH  10  11
ENDBRANCH   9  10
ENDBRANCH   8   9
ENDBRANCH   7   8
ENDBRANCH   6   7
ENDBRANCH   5   6
ENDBRANCH   4   5
ENDBRANCH   3   4
ENDBRANCH   2   3
ENDBRANCH   1   2
BRANCH   1  15
ATOM     15  C   UNL     1      -7.963  26.333 -12.944  1.00  0.00     0.000 C 
BRANCH  15  16
ATOM     16  C   UNL     1      -6.604  26.426 -13.672  1.00  0.00     0.000 C 
BRANCH  16  17
ATOM     17  C   UNL     1      -5.385  26.688 -12.761  1.00  0.00     0.000 C 
BRANCH  17  18
ATOM     18  C   UNL     1      -4.236  25.672 -12.908  1.00  0.00    -0.000 C 
BRANCH  18  19
ATOM     19  C   UNL     1      -4.419  24.369 -12.106  1.00  0.00    -0.000 C 
BRANCH  19  20
ATOM     20  C   UNL     1      -4.925  24.594 -10.662  1.00  0.00    -0.000 C 
BRANCH  20  21
ATOM     21  C   UNL     1      -6.223  23.826 -10.348  1.00  0.00    -0.000 C 
BRANCH  21  22
ATOM     22  C   UNL     1      -6.783  23.063 -11.572  1.00  0.00    -0.000 C 
BRANCH  22  23
ATOM     23  C   UNL     1      -8.293  22.794 -11.476  1.00  0.00    -0.000 C 
BRANCH  23  24
ATOM     24  C   UNL     1      -8.622  21.296 -11.432  1.00  0.00    -0.000 C 
BRANCH  24  25
ATOM     25  C   UNL     1      -7.374  20.472 -11.102  1.00  0.00    -0.003 C 
ATOM     26  C   UNL     1      -7.355  20.063  -9.631  1.00  0.00     0.004 C 
ENDBRANCH  24  25
ENDBRANCH  23  24
ENDBRANCH  22  23
ENDBRANCH  21  22
ENDBRANCH  20  21
ENDBRANCH  19  20
ENDBRANCH  18  19
ENDBRANCH  17  18
ENDBRANCH  16  17
ENDBRANCH  15  16
ENDBRANCH   1  15
TORSDOF 22
ENDMDL
MODEL 9
REMARK VINA RESULT:    -3.632      6.354      9.639
REMARK INTER + INTRA:         -12.399
REMARK INTER:                  -8.626
REMARK INTRA:                  -3.773
REMARK UNBOUND:                -4.096
REMARK SMILES CCCCCCCCCCCCCCCCCCCCCCCC(=O)[O-]
REMARK SMILES IDX 13 1 14 2 15 3 16 4 17 5 18 6 19 7 20 8 21 9 22 10 23 11
REMARK SMILES IDX 24 12 25 13 26 14 12 15 11 16 10 17 9 18 8 19 7 20 6 21 5 22
REMARK SMILES IDX 4 23 3 24 2 25 1 26
REMARK H PARENT
REMARK Flexibility Score: inf
ROOT
ATOM      1  C   UNL     1      -4.382  24.217 -11.681  1.00  0.00     0.000 C 
ENDROOT
BRANCH   1   2
ATOM      2  C   UNL     1      -4.986  24.703 -10.351  1.00  0.00     0.000 C 
BRANCH   2   3
ATOM      3  C   UNL     1      -6.455  25.129 -10.506  1.00  0.00     0.000 C 
BRANCH   3   4
ATOM      4  C   UNL     1      -6.653  26.651 -10.397  1.00  0.00     0.000 C 
BRANCH   4   5
ATOM      5  C   UNL     1      -7.739  27.237 -11.325  1.00  0.00     0.000 C 
BRANCH   5   6
ATOM      6  C   UNL     1      -8.210  26.305 -12.460  1.00  0.00     0.000 C 
BRANCH   6   7
ATOM      7  C   UNL     1      -8.060  26.887 -13.877  1.00  0.00     0.000 C 
BRANCH   7   8
ATOM      8  C   UNL     1      -9.124  26.353 -14.853  1.00  0.00     0.000 C 
BRANCH   8   9
ATOM      9  C   UNL     1     -10.322  25.720 -14.127  1.00  0.00     0.000 C 
BRANCH   9  10
ATOM     10  C   UNL     1     -10.456  24.215 -14.413  1.00  0.00     0.006 C 
BRANCH  10  11
ATOM     11  C   UNL     1     -10.582  23.390 -13.126  1.00  0.00     0.053 C 
BRANCH  11  12
ATOM     12  C   UNL     1     -11.110  22.014 -13.396  1.00  0.00     0.041 C 
ATOM     13  O   UNL     1     -12.049  21.845 -14.220  1.00  0.00    -0.550 OA
ATOM     14  O   UNL     1     -10.552  20.916 -12.754  1.00  0.00    -0.550 OA
ENDBRANCH  11  12
ENDBRANCH  10  11
ENDBRANCH   9  10
ENDBRANCH   8   9
ENDBRANCH   7   8
ENDBRANCH   6   7
ENDBRANCH   5   6
ENDBRANCH   4   5
ENDBRANCH   3   4
ENDBRANCH   2   3
ENDBRANCH   1   2
BRANCH   1  15
ATOM     15  C   UNL     1      -4.074  25.351 -12.684  1.00  0.00     0.000 C 
BRANCH  15  16
ATOM     16  C   UNL     1      -4.825  25.260 -14.030  1.00  0.00     0.000 C 
BRANCH  16  17
ATOM     17  C   UNL     1      -5.201  23.832 -14.481  1.00  0.00     0.000 C 
BRANCH  17  18
ATOM     18  C   UNL     1      -6.714  23.552 -14.553  1.00  0.00    -0.000 C 
BRANCH  18  19
ATOM     19  C   UNL     1      -7.150  22.199 -13.957  1.00  0.00    -0.000 C 
BRANCH  19  20
ATOM     20  C   UNL     1      -7.251  22.203 -12.413  1.00  0.00    -0.000 C 
BRANCH  20  21
ATOM     21  C   UNL     1      -6.595  20.973 -11.760  1.00  0.00    -0.000 C 
BRANCH  21  22
ATOM     22  C   UNL     1      -6.528  21.074 -10.217  1.00  0.00    -0.000 C 
BRANCH  22  23
ATOM     23  C   UNL     1      -5.858  19.856  -9.562  1.00  0.00    -0.000 C 
BRANCH  23  24
ATOM     24  C   UNL     1      -6.870  18.773  -9.158  1.00  0.00    -0.000 C 
BRANCH  24  25
ATOM     25  C   UNL     1      -6.824  18.521  -7.648  1.00  0.00    -0.003 C 
ATOM     26  C   UNL     1      -8.089  19.034  -6.964  1.00  0.00     0.004 C 
ENDBRANCH  24  25
ENDBRANCH  23  24
ENDBRANCH  22  23
ENDBRANCH  21  22
ENDBRANCH  20  21
ENDBRANCH  19  20
ENDBRANCH  18  19
ENDBRANCH  17  18
ENDBRANCH  16  17
ENDBRANCH  15  16
ENDBRANCH   1  15
TORSDOF 22
ENDMDL
