MODEL 1
REMARK VINA RESULT:    13.251      0.000      0.000
REMARK INTER + INTRA:          23.310
REMARK INTER:                  24.097
REMARK INTRA:                  -0.786
REMARK UNBOUND:                -0.786
REMARK SMILES CCCCCCCCCCCCCCCC(=O)[O-]
REMARK SMILES IDX 9 1 10 2 11 3 12 4 13 5 14 6 15 7 16 8 17 9 18 10 8 11 7 12
REMARK SMILES IDX 6 13 5 14 4 15 3 16 2 17 1 18
REMARK H PARENT
REMARK Flexibility Score: inf
ROOT
ATOM      1  C   UNL     1      -5.764 -10.784  23.882  1.00  0.00     0.000 C 
ENDROOT
BRANCH   1   2
ATOM      2  C   UNL     1      -6.549 -12.101  23.996  1.00  0.00     0.000 C 
BRANCH   2   3
ATOM      3  C   UNL     1      -6.326 -12.803  25.347  1.00  0.00     0.000 C 
BRANCH   3   4
ATOM      4  C   UNL     1      -5.400 -14.025  25.231  1.00  0.00     0.000 C 
BRANCH   4   5
ATOM      5  C   UNL     1      -5.103 -14.675  26.591  1.00  0.00     0.000 C 
BRANCH   5   6
ATOM      6  C   UNL     1      -5.014 -16.203  26.460  1.00  0.00     0.006 C 
BRANCH   6   7
ATOM      7  C   UNL     1      -4.275 -16.635  25.186  1.00  0.00     0.053 C 
BRANCH   7   8
ATOM      8  C   UNL     1      -4.964 -17.778  24.505  1.00  0.00     0.041 C 
ATOM      9  O   UNL     1      -5.409 -18.744  25.179  1.00  0.00    -0.550 OA
ATOM     10  O   UNL     1      -5.142 -17.760  23.128  1.00  0.00    -0.550 OA
ENDBRANCH   7   8
ENDBRANCH   6   7
ENDBRANCH   5   6
ENDBRANCH   4   5
ENDBRANCH   3   4
ENDBRANCH   2   3
ENDBRANCH   1   2
BRANCH   1  11
ATOM     11  C   UNL     1      -6.071  -9.808  25.031  1.00  0.00     0.000 C 
BRANCH  11  12
ATOM     12  C   UNL     1      -4.970  -8.751  25.223  1.00  0.00    -0.000 C 
BRANCH  12  13
ATOM     13  C   UNL     1      -3.578  -9.162  24.701  1.00  0.00    -0.000 C 
BRANCH  13  14
ATOM     14  C   UNL     1      -2.777  -8.036  24.017  1.00  0.00    -0.000 C 
BRANCH  14  15
ATOM     15  C   UNL     1      -1.271  -8.026  24.335  1.00  0.00    -0.000 C 
BRANCH  15  16
ATOM     16  C   UNL     1      -0.894  -9.012  25.454  1.00  0.00    -0.000 C 
BRANCH  16  17
ATOM     17  C   UNL     1       0.158  -8.439  26.414  1.00  0.00    -0.003 C 
ATOM     18  C   UNL     1       0.533  -6.995  26.083  1.00  0.00     0.004 C 
ENDBRANCH  16  17
ENDBRANCH  15  16
ENDBRANCH  14  15
ENDBRANCH  13  14
ENDBRANCH  12  13
ENDBRANCH  11  12
ENDBRANCH   1  11
TORSDOF 14
ENDMDL
MODEL 2
REMARK VINA RESULT:    13.494      4.024      8.304
REMARK INTER + INTRA:          23.751
REMARK INTER:                  24.490
REMARK INTRA:                  -0.739
REMARK UNBOUND:                -0.786
REMARK SMILES CCCCCCCCCCCCCCCC(=O)[O-]
REMARK SMILES IDX 9 1 10 2 11 3 12 4 13 5 14 6 15 7 16 8 17 9 18 10 8 11 7 12
REMARK SMILES IDX 6 13 5 14 4 15 3 16 2 17 1 18
REMARK H PARENT
REMARK Flexibility Score: inf
ROOT
ATOM      1  C   UNL     1      -5.998 -10.899  23.717  1.00  0.00     0.000 C 
ENDROOT
BRANCH   1   2
ATOM      2  C   UNL     1      -5.996 -10.043  24.994  1.00  0.00     0.000 C 
BRANCH   2   3
ATOM      3  C   UNL     1      -5.116  -8.788  24.859  1.00  0.00     0.000 C 
BRANCH   3   4
ATOM      4  C   UNL     1      -3.614  -9.116  24.865  1.00  0.00     0.000 C 
BRANCH   4   5
ATOM      5  C   UNL     1      -2.787  -8.124  24.033  1.00  0.00     0.000 C 
BRANCH   5   6
ATOM      6  C   UNL     1      -1.284  -8.327  24.274  1.00  0.00     0.006 C 
BRANCH   6   7
ATOM      7  C   UNL     1      -0.993  -8.944  25.648  1.00  0.00     0.053 C 
BRANCH   7   8
ATOM      8  C   UNL     1       0.204  -8.318  26.296  1.00  0.00     0.041 C 
ATOM      9  O   UNL     1       0.916  -8.985  27.092  1.00  0.00    -0.550 OA
ATOM     10  O   UNL     1       0.550  -7.007  25.995  1.00  0.00    -0.550 OA
ENDBRANCH   7   8
ENDBRANCH   6   7
ENDBRANCH   5   6
ENDBRANCH   4   5
ENDBRANCH   3   4
ENDBRANCH   2   3
ENDBRANCH   1   2
BRANCH   1  11
ATOM     11  C   UNL     1      -6.655 -12.275  23.926  1.00  0.00     0.000 C 
BRANCH  11  12
ATOM     12  C   UNL     1      -6.464 -12.815  25.354  1.00  0.00    -0.000 C 
BRANCH  12  13
ATOM     13  C   UNL     1      -5.191 -13.661  25.562  1.00  0.00    -0.000 C 
BRANCH  13  14
ATOM     14  C   UNL     1      -5.429 -15.064  26.158  1.00  0.00    -0.000 C 
BRANCH  14  15
ATOM     15  C   UNL     1      -4.528 -16.172  25.584  1.00  0.00    -0.000 C 
BRANCH  15  16
ATOM     16  C   UNL     1      -5.006 -17.583  25.968  1.00  0.00    -0.000 C 
BRANCH  16  17
ATOM     17  C   UNL     1      -5.220 -18.485  24.743  1.00  0.00    -0.003 C 
ATOM     18  C   UNL     1      -5.483 -17.689  23.465  1.00  0.00     0.004 C 
ENDBRANCH  16  17
ENDBRANCH  15  16
ENDBRANCH  14  15
ENDBRANCH  13  14
ENDBRANCH  12  13
ENDBRANCH  11  12
ENDBRANCH   1  11
TORSDOF 14
ENDMDL
MODEL 3
REMARK VINA RESULT:    14.487      1.593      2.811
REMARK INTER + INTRA:          25.557
REMARK INTER:                  26.296
REMARK INTRA:                  -0.740
REMARK UNBOUND:                -0.786
REMARK SMILES CCCCCCCCCCCCCCCC(=O)[O-]
REMARK SMILES IDX 9 1 10 2 11 3 12 4 13 5 14 6 15 7 16 8 17 9 18 10 8 11 7 12
REMARK SMILES IDX 6 13 5 14 4 15 3 16 2 17 1 18
REMARK H PARENT
REMARK Flexibility Score: inf
ROOT
ATOM      1  C   UNL     1      -6.153 -11.286  23.710  1.00  0.00     0.000 C 
ENDROOT
BRANCH   1   2
ATOM      2  C   UNL     1      -6.558 -12.722  24.080  1.00  0.00     0.000 C 
BRANCH   2   3
ATOM      3  C   UNL     1      -6.209 -13.076  25.536  1.00  0.00     0.000 C 
BRANCH   3   4
ATOM      4  C   UNL     1      -5.024 -14.050  25.639  1.00  0.00     0.000 C 
BRANCH   4   5
ATOM      5  C   UNL     1      -5.145 -15.007  26.834  1.00  0.00     0.000 C 
BRANCH   5   6
ATOM      6  C   UNL     1      -5.183 -16.469  26.365  1.00  0.00     0.006 C 
BRANCH   6   7
ATOM      7  C   UNL     1      -4.406 -16.680  25.059  1.00  0.00     0.053 C 
BRANCH   7   8
ATOM      8  C   UNL     1      -4.969 -17.811  24.253  1.00  0.00     0.041 C 
ATOM      9  O   UNL     1      -4.922 -17.780  22.996  1.00  0.00    -0.550 OA
ATOM     10  O   UNL     1      -5.518 -18.914  24.895  1.00  0.00    -0.550 OA
ENDBRANCH   7   8
ENDBRANCH   6   7
ENDBRANCH   5   6
ENDBRANCH   4   5
ENDBRANCH   3   4
ENDBRANCH   2   3
ENDBRANCH   1   2
BRANCH   1  11
ATOM     11  C   UNL     1      -6.047 -10.365  24.937  1.00  0.00     0.000 C 
BRANCH  11  12
ATOM     12  C   UNL     1      -5.407  -9.005  24.606  1.00  0.00    -0.000 C 
BRANCH  12  13
ATOM     13  C   UNL     1      -3.978  -8.812  25.153  1.00  0.00    -0.000 C 
BRANCH  13  14
ATOM     14  C   UNL     1      -2.894  -8.574  24.082  1.00  0.00    -0.000 C 
BRANCH  14  15
ATOM     15  C   UNL     1      -2.978  -7.214  23.366  1.00  0.00    -0.000 C 
BRANCH  15  16
ATOM     16  C   UNL     1      -2.531  -7.288  21.896  1.00  0.00    -0.000 C 
BRANCH  16  17
ATOM     17  C   UNL     1      -3.666  -6.951  20.918  1.00  0.00    -0.003 C 
ATOM     18  C   UNL     1      -3.282  -7.206  19.461  1.00  0.00     0.004 C 
ENDBRANCH  16  17
ENDBRANCH  15  16
ENDBRANCH  14  15
ENDBRANCH  13  14
ENDBRANCH  12  13
ENDBRANCH  11  12
ENDBRANCH   1  11
TORSDOF 14
ENDMDL
