MODEL 1
REMARK VINA RESULT:    -5.253      0.000      0.000
REMARK INTER + INTRA:          -5.812
REMARK INTER:                  -6.021
REMARK INTRA:                   0.209
REMARK UNBOUND:                 0.209
REMARK SMILES O=C([O-])C=Cc1ccc(O)cc1
REMARK SMILES IDX 6 1 7 2 12 3 8 4 11 5 9 6 5 7 4 8 2 9 1 10 3 11 10 12
REMARK H PARENT 10 13
REMARK Flexibility Score: inf
ROOT
ATOM      1  C   UNL     1      11.316 -11.202 -26.606  1.00  0.00    -0.025 A 
ATOM      2  C   UNL     1      12.202 -10.359 -27.289  1.00  0.00     0.012 A 
ATOM      3  C   UNL     1      10.588 -12.165 -27.327  1.00  0.00     0.012 A 
ATOM      4  C   UNL     1      12.323 -10.438 -28.680  1.00  0.00     0.047 A 
ATOM      5  C   UNL     1      10.709 -12.243 -28.718  1.00  0.00     0.047 A 
ATOM      6  C   UNL     1      11.573 -11.379 -29.398  1.00  0.00     0.115 A 
ENDROOT
BRANCH   1   7
ATOM      7  C   UNL     1      11.245 -11.136 -25.131  1.00  0.00     0.010 C 
ATOM      8  C   UNL     1      11.408 -12.176 -24.299  1.00  0.00     0.025 C 
BRANCH   8   9
ATOM      9  C   UNL     1      11.496 -13.591 -24.704  1.00  0.00     0.064 C 
ATOM     10  O   UNL     1      10.538 -14.366 -24.449  1.00  0.00    -0.545 OA
ATOM     11  O   UNL     1      12.583 -14.075 -25.424  1.00  0.00    -0.545 OA
ENDBRANCH   8   9
ENDBRANCH   1   7
BRANCH   6  12
ATOM     12  O   UNL     1      11.683 -11.468 -30.784  1.00  0.00    -0.508 OA
ATOM     13  H   UNL     1      11.050 -12.042 -31.329  1.00  0.00     0.293 HD
ENDBRANCH   6  12
TORSDOF 3
ENDMDL
MODEL 2
REMARK VINA RESULT:    -5.196      2.210      3.006
REMARK INTER + INTRA:          -5.746
REMARK INTER:                  -6.051
REMARK INTRA:                   0.305
REMARK UNBOUND:                 0.209
REMARK SMILES O=C([O-])C=Cc1ccc(O)cc1
REMARK SMILES IDX 6 1 7 2 12 3 8 4 11 5 9 6 5 7 4 8 2 9 1 10 3 11 10 12
REMARK H PARENT 10 13
REMARK Flexibility Score: inf
ROOT
ATOM      1  C   UNL     1      12.452 -11.346 -27.431  1.00  0.00    -0.025 A 
ATOM      2  C   UNL     1      12.343 -10.969 -28.777  1.00  0.00     0.012 A 
ATOM      3  C   UNL     1      11.569 -12.309 -26.913  1.00  0.00     0.012 A 
ATOM      4  C   UNL     1      11.333 -11.506 -29.582  1.00  0.00     0.047 A 
ATOM      5  C   UNL     1      10.559 -12.845 -27.719  1.00  0.00     0.047 A 
ATOM      6  C   UNL     1      10.436 -12.443 -29.053  1.00  0.00     0.115 A 
ENDROOT
BRANCH   1   7
ATOM      7  C   UNL     1      13.559 -10.806 -26.615  1.00  0.00     0.010 C 
ATOM      8  C   UNL     1      14.740 -11.410 -26.412  1.00  0.00     0.025 C 
BRANCH   8   9
ATOM      9  C   UNL     1      15.073 -12.792 -26.803  1.00  0.00     0.064 C 
ATOM     10  O   UNL     1      16.235 -13.055 -27.207  1.00  0.00    -0.545 OA
ATOM     11  O   UNL     1      14.154 -13.826 -26.668  1.00  0.00    -0.545 OA
ENDBRANCH   8   9
ENDBRANCH   1   7
BRANCH   6  12
ATOM     12  O   UNL     1       9.425 -12.985 -29.843  1.00  0.00    -0.508 OA
ATOM     13  H   UNL     1       8.757 -12.394 -30.325  1.00  0.00     0.293 HD
ENDBRANCH   6  12
TORSDOF 3
ENDMDL
MODEL 3
REMARK VINA RESULT:    -5.053      2.681      3.312
REMARK INTER + INTRA:          -5.583
REMARK INTER:                  -5.571
REMARK INTRA:                  -0.012
REMARK UNBOUND:                 0.209
REMARK SMILES O=C([O-])C=Cc1ccc(O)cc1
REMARK SMILES IDX 6 1 7 2 12 3 8 4 11 5 9 6 5 7 4 8 2 9 1 10 3 11 10 12
REMARK H PARENT 10 13
REMARK Flexibility Score: inf
ROOT
ATOM      1  C   UNL     1      12.960 -11.267 -26.965  1.00  0.00    -0.025 A 
ATOM      2  C   UNL     1      14.177 -10.829 -26.424  1.00  0.00     0.012 A 
ATOM      3  C   UNL     1      12.892 -12.536 -27.566  1.00  0.00     0.012 A 
ATOM      4  C   UNL     1      15.323 -11.623 -26.529  1.00  0.00     0.047 A 
ATOM      5  C   UNL     1      14.039 -13.328 -27.671  1.00  0.00     0.047 A 
ATOM      6  C   UNL     1      15.258 -12.873 -27.156  1.00  0.00     0.115 A 
ENDROOT
BRANCH   1   7
ATOM      7  C   UNL     1      11.751 -10.435 -26.794  1.00  0.00     0.010 C 
ATOM      8  C   UNL     1      10.931 -10.464 -25.732  1.00  0.00     0.025 C 
BRANCH   8   9
ATOM      9  C   UNL     1      10.980 -11.455 -24.641  1.00  0.00     0.064 C 
ATOM     10  O   UNL     1      10.885 -11.063 -23.449  1.00  0.00    -0.545 OA
ATOM     11  O   UNL     1      11.057 -12.818 -24.900  1.00  0.00    -0.545 OA
ENDBRANCH   8   9
ENDBRANCH   1   7
BRANCH   6  12
ATOM     12  O   UNL     1      16.393 -13.673 -27.269  1.00  0.00    -0.508 OA
ATOM     13  H   UNL     1      16.592 -14.405 -26.597  1.00  0.00     0.293 HD
ENDBRANCH   6  12
TORSDOF 3
ENDMDL
MODEL 4
REMARK VINA RESULT:    -5.044      2.674      4.285
REMARK INTER + INTRA:          -5.572
REMARK INTER:                  -5.488
REMARK INTRA:                  -0.084
REMARK UNBOUND:                 0.209
REMARK SMILES O=C([O-])C=Cc1ccc(O)cc1
REMARK SMILES IDX 6 1 7 2 12 3 8 4 11 5 9 6 5 7 4 8 2 9 1 10 3 11 10 12
REMARK H PARENT 10 13
REMARK Flexibility Score: inf
ROOT
ATOM      1  C   UNL     1      12.765 -12.266 -26.508  1.00  0.00    -0.025 A 
ATOM      2  C   UNL     1      13.206 -13.579 -26.722  1.00  0.00     0.012 A 
ATOM      3  C   UNL     1      13.698 -11.215 -26.532  1.00  0.00     0.012 A 
ATOM      4  C   UNL     1      14.566 -13.847 -26.905  1.00  0.00     0.047 A 
ATOM      5  C   UNL     1      15.058 -11.484 -26.715  1.00  0.00     0.047 A 
ATOM      6  C   UNL     1      15.496 -12.800 -26.898  1.00  0.00     0.115 A 
ENDROOT
BRANCH   1   7
ATOM      7  C   UNL     1      11.318 -12.001 -26.371  1.00  0.00     0.010 C 
ATOM      8  C   UNL     1      10.425 -12.030 -27.372  1.00  0.00     0.025 C 
BRANCH   8   9
ATOM      9  C   UNL     1      10.750 -12.140 -28.806  1.00  0.00     0.064 C 
ATOM     10  O   UNL     1      10.093 -12.936 -29.527  1.00  0.00    -0.545 OA
ATOM     11  O   UNL     1      11.719 -11.336 -29.396  1.00  0.00    -0.545 OA
ENDBRANCH   8   9
ENDBRANCH   1   7
BRANCH   6  12
ATOM     12  O   UNL     1      16.854 -13.054 -27.078  1.00  0.00    -0.508 OA
ATOM     13  H   UNL     1      17.224 -13.345 -27.976  1.00  0.00     0.293 HD
ENDBRANCH   6  12
TORSDOF 3
ENDMDL
MODEL 5
REMARK VINA RESULT:    -5.005      1.251      4.645
REMARK INTER + INTRA:          -5.528
REMARK INTER:                  -5.739
REMARK INTRA:                   0.211
REMARK UNBOUND:                 0.209
REMARK SMILES O=C([O-])C=Cc1ccc(O)cc1
REMARK SMILES IDX 6 1 7 2 12 3 8 4 11 5 9 6 5 7 4 8 2 9 1 10 3 11 10 12
REMARK H PARENT 10 13
REMARK Flexibility Score: inf
ROOT
ATOM      1  C   UNL     1      12.449 -11.707 -26.441  1.00  0.00    -0.025 A 
ATOM      2  C   UNL     1      11.438 -11.492 -25.495  1.00  0.00     0.012 A 
ATOM      3  C   UNL     1      13.011 -12.989 -26.569  1.00  0.00     0.012 A 
ATOM      4  C   UNL     1      11.028 -12.529 -24.651  1.00  0.00     0.047 A 
ATOM      5  C   UNL     1      12.601 -14.025 -25.723  1.00  0.00     0.047 A 
ATOM      6  C   UNL     1      11.612 -13.797 -24.761  1.00  0.00     0.115 A 
ENDROOT
BRANCH   1   7
ATOM      7  C   UNL     1      12.828 -10.611 -27.358  1.00  0.00     0.010 C 
ATOM      8  C   UNL     1      12.318 -10.413 -28.583  1.00  0.00     0.025 C 
BRANCH   8   9
ATOM      9  C   UNL     1      11.439 -11.351 -29.306  1.00  0.00     0.064 C 
ATOM     10  O   UNL     1      11.580 -11.493 -30.549  1.00  0.00    -0.545 OA
ATOM     11  O   UNL     1      10.506 -12.135 -28.638  1.00  0.00    -0.545 OA
ENDBRANCH   8   9
ENDBRANCH   1   7
BRANCH   6  12
ATOM     12  O   UNL     1      11.214 -14.839 -23.925  1.00  0.00    -0.508 OA
ATOM     13  H   UNL     1      10.706 -14.662 -23.066  1.00  0.00     0.293 HD
ENDBRANCH   6  12
TORSDOF 3
ENDMDL
MODEL 6
REMARK VINA RESULT:    -4.657      1.994      2.613
REMARK INTER + INTRA:          -5.129
REMARK INTER:                  -5.126
REMARK INTRA:                  -0.003
REMARK UNBOUND:                 0.209
REMARK SMILES O=C([O-])C=Cc1ccc(O)cc1
REMARK SMILES IDX 6 1 7 2 12 3 8 4 11 5 9 6 5 7 4 8 2 9 1 10 3 11 10 12
REMARK H PARENT 10 13
REMARK Flexibility Score: inf
ROOT
ATOM      1  C   UNL     1      12.204 -12.339 -27.504  1.00  0.00    -0.025 A 
ATOM      2  C   UNL     1      11.217 -13.335 -27.535  1.00  0.00     0.012 A 
ATOM      3  C   UNL     1      12.251 -11.385 -28.535  1.00  0.00     0.012 A 
ATOM      4  C   UNL     1      10.323 -13.410 -28.607  1.00  0.00     0.047 A 
ATOM      5  C   UNL     1      11.356 -11.462 -29.607  1.00  0.00     0.047 A 
ATOM      6  C   UNL     1      10.393 -12.476 -29.648  1.00  0.00     0.115 A 
ENDROOT
BRANCH   1   7
ATOM      7  C   UNL     1      13.103 -12.247 -26.334  1.00  0.00     0.010 C 
ATOM      8  C   UNL     1      12.746 -11.824 -25.112  1.00  0.00     0.025 C 
BRANCH   8   9
ATOM      9  C   UNL     1      11.455 -11.200 -24.765  1.00  0.00     0.064 C 
ATOM     10  O   UNL     1      10.914 -11.477 -23.664  1.00  0.00    -0.545 OA
ATOM     11  O   UNL     1      10.857 -10.259 -25.595  1.00  0.00    -0.545 OA
ENDBRANCH   8   9
ENDBRANCH   1   7
BRANCH   6  12
ATOM     12  O   UNL     1       9.509 -12.541 -30.723  1.00  0.00    -0.508 OA
ATOM     13  H   UNL     1       9.511 -13.327 -31.363  1.00  0.00     0.293 HD
ENDBRANCH   6  12
TORSDOF 3
ENDMDL
MODEL 7
REMARK VINA RESULT:    -4.614      2.181      4.682
REMARK INTER + INTRA:          -5.079
REMARK INTER:                  -5.236
REMARK INTRA:                   0.157
REMARK UNBOUND:                 0.209
REMARK SMILES O=C([O-])C=Cc1ccc(O)cc1
REMARK SMILES IDX 6 1 7 2 12 3 8 4 11 5 9 6 5 7 4 8 2 9 1 10 3 11 10 12
REMARK H PARENT 10 13
REMARK Flexibility Score: inf
ROOT
ATOM      1  C   UNL     1      11.812 -12.571 -27.774  1.00  0.00    -0.025 A 
ATOM      2  C   UNL     1      13.001 -13.149 -27.307  1.00  0.00     0.012 A 
ATOM      3  C   UNL     1      10.642 -12.689 -27.004  1.00  0.00     0.012 A 
ATOM      4  C   UNL     1      13.011 -13.879 -26.114  1.00  0.00     0.047 A 
ATOM      5  C   UNL     1      10.653 -13.420 -25.812  1.00  0.00     0.047 A 
ATOM      6  C   UNL     1      11.835 -14.020 -25.366  1.00  0.00     0.115 A 
ENDROOT
BRANCH   1   7
ATOM      7  C   UNL     1      11.838 -11.759 -29.008  1.00  0.00     0.010 C 
ATOM      8  C   UNL     1      12.213 -10.473 -29.084  1.00  0.00     0.025 C 
BRANCH   8   9
ATOM      9  C   UNL     1      12.482  -9.591 -27.933  1.00  0.00     0.064 C 
ATOM     10  O   UNL     1      13.320  -8.660 -28.054  1.00  0.00    -0.545 OA
ATOM     11  O   UNL     1      11.781  -9.719 -26.740  1.00  0.00    -0.545 OA
ENDBRANCH   8   9
ENDBRANCH   1   7
BRANCH   6  12
ATOM     12  O   UNL     1      11.831 -14.746 -24.177  1.00  0.00    -0.508 OA
ATOM     13  H   UNL     1      10.987 -14.857 -23.628  1.00  0.00     0.293 HD
ENDBRANCH   6  12
TORSDOF 3
ENDMDL
MODEL 8
REMARK VINA RESULT:    -4.445      2.083      4.497
REMARK INTER + INTRA:          -4.885
REMARK INTER:                  -4.609
REMARK INTRA:                  -0.277
REMARK UNBOUND:                 0.209
REMARK SMILES O=C([O-])C=Cc1ccc(O)cc1
REMARK SMILES IDX 6 1 7 2 12 3 8 4 11 5 9 6 5 7 4 8 2 9 1 10 3 11 10 12
REMARK H PARENT 10 13
REMARK Flexibility Score: inf
ROOT
ATOM      1  C   UNL     1      11.754 -11.567 -26.242  1.00  0.00    -0.025 A 
ATOM      2  C   UNL     1      11.432 -12.841 -26.729  1.00  0.00     0.012 A 
ATOM      3  C   UNL     1      11.568 -11.284 -24.877  1.00  0.00     0.012 A 
ATOM      4  C   UNL     1      10.882 -13.805 -25.877  1.00  0.00     0.047 A 
ATOM      5  C   UNL     1      11.018 -12.249 -24.027  1.00  0.00     0.047 A 
ATOM      6  C   UNL     1      10.670 -13.509 -24.525  1.00  0.00     0.115 A 
ENDROOT
BRANCH   1   7
ATOM      7  C   UNL     1      12.384 -10.584 -27.148  1.00  0.00     0.010 C 
ATOM      8  C   UNL     1      13.687 -10.545 -27.467  1.00  0.00     0.025 C 
BRANCH   8   9
ATOM      9  C   UNL     1      14.748 -11.347 -26.830  1.00  0.00     0.064 C 
ATOM     10  O   UNL     1      15.421 -10.845 -25.892  1.00  0.00    -0.545 OA
ATOM     11  O   UNL     1      14.977 -12.669 -27.194  1.00  0.00    -0.545 OA
ENDBRANCH   8   9
ENDBRANCH   1   7
BRANCH   6  12
ATOM     12  O   UNL     1      10.121 -14.459 -23.666  1.00  0.00    -0.508 OA
ATOM     13  H   UNL     1       9.302 -14.997 -23.926  1.00  0.00     0.293 HD
ENDBRANCH   6  12
TORSDOF 3
ENDMDL
MODEL 9
REMARK VINA RESULT:    -4.437      2.390      4.360
REMARK INTER + INTRA:          -4.876
REMARK INTER:                  -5.093
REMARK INTRA:                   0.217
REMARK UNBOUND:                 0.209
REMARK SMILES O=C([O-])C=Cc1ccc(O)cc1
REMARK SMILES IDX 6 1 7 2 12 3 8 4 11 5 9 6 5 7 4 8 2 9 1 10 3 11 10 12
REMARK H PARENT 10 13
REMARK Flexibility Score: inf
ROOT
ATOM      1  C   UNL     1      13.125 -12.305 -26.587  1.00  0.00    -0.025 A 
ATOM      2  C   UNL     1      12.068 -12.192 -25.673  1.00  0.00     0.012 A 
ATOM      3  C   UNL     1      13.072 -13.299 -27.579  1.00  0.00     0.012 A 
ATOM      4  C   UNL     1      10.998 -13.091 -25.715  1.00  0.00     0.047 A 
ATOM      5  C   UNL     1      12.002 -14.198 -27.620  1.00  0.00     0.047 A 
ATOM      6  C   UNL     1      10.965 -14.099 -26.687  1.00  0.00     0.115 A 
ENDROOT
BRANCH   1   7
ATOM      7  C   UNL     1      14.217 -11.310 -26.557  1.00  0.00     0.010 C 
ATOM      8  C   UNL     1      14.154 -10.072 -27.070  1.00  0.00     0.025 C 
BRANCH   8   9
ATOM      9  C   UNL     1      13.065  -9.551 -27.917  1.00  0.00     0.064 C 
ATOM     10  O   UNL     1      12.871  -8.309 -27.976  1.00  0.00    -0.545 OA
ATOM     11  O   UNL     1      12.292 -10.394 -28.707  1.00  0.00    -0.545 OA
ENDBRANCH   8   9
ENDBRANCH   1   7
BRANCH   6  12
ATOM     12  O   UNL     1       9.905 -15.003 -26.739  1.00  0.00    -0.508 OA
ATOM     13  H   UNL     1       9.089 -14.828 -27.313  1.00  0.00     0.293 HD
ENDBRANCH   6  12
TORSDOF 3
ENDMDL
