MODEL 1
REMARK VINA RESULT:    -6.994      0.000      0.000
REMARK INTER + INTRA:         -11.742
REMARK INTER:                 -10.265
REMARK INTRA:                  -1.477
REMARK UNBOUND:                -1.477
REMARK SMILES O=c1c(O[C@@H]2O[C@@H](CO)[C@H](O)[C@H](O)[C@H]2O)c(-c2ccc(O)c(O)c2)oc2cc(O)cc(O)c12
REMARK SMILES IDX 4 1 3 2 16 3 25 4 2 5 26 6 1 7 33 8 27 9 31 10 28 11 30 12
REMARK SMILES IDX 17 13 18 14 19 15 20 16 24 17 22 18 21 19 23 21 32 23 29 25
REMARK SMILES IDX 5 27 14 28 6 29 12 30 7 31 10 32 15 33 13 35 8 37 9 38 11 40
REMARK H PARENT 21 20 23 22 32 24 29 26 15 34 13 36 9 39 11 41
REMARK Flexibility Score: inf
ROOT
ATOM      1  O   UNL     1       8.241 -15.635  11.136  1.00  0.00    -0.454 OA
ENDROOT
BRANCH   1   2
ATOM      2  C   UNL     1       6.942 -16.165  11.085  1.00  0.00     0.214 A 
ATOM      3  C   UNL     1       6.277 -16.163   9.844  1.00  0.00     0.180 A 
ATOM      4  O   UNL     1       4.986 -16.463   9.779  1.00  0.00    -0.452 OA
ATOM      5  C   UNL     1       6.255 -16.651  12.213  1.00  0.00     0.239 A 
ATOM      6  C   UNL     1       4.279 -16.850  10.831  1.00  0.00     0.146 A 
ATOM      7  O   UNL     1       6.854 -16.754  13.318  1.00  0.00    -0.285 OA
ATOM      8  C   UNL     1       4.899 -17.019  12.095  1.00  0.00     0.111 A 
ATOM      9  C   UNL     1       2.909 -17.093  10.676  1.00  0.00     0.094 A 
ATOM     10  C   UNL     1       4.133 -17.525  13.170  1.00  0.00     0.134 A 
ATOM     11  C   UNL     1       2.145 -17.519  11.759  1.00  0.00     0.123 A 
ATOM     12  C   UNL     1       2.758 -17.764  12.992  1.00  0.00     0.093 A 
BRANCH   3  13
ATOM     13  C   UNL     1       6.979 -15.793   8.595  1.00  0.00     0.025 A 
ATOM     14  C   UNL     1       8.008 -16.597   8.085  1.00  0.00     0.016 A 
ATOM     15  C   UNL     1       8.647 -16.243   6.894  1.00  0.00     0.051 A 
ATOM     16  C   UNL     1       8.257 -15.104   6.180  1.00  0.00     0.157 A 
ATOM     17  C   UNL     1       6.567 -14.662   7.874  1.00  0.00     0.062 A 
ATOM     18  C   UNL     1       7.186 -14.317   6.666  1.00  0.00     0.158 A 
BRANCH  16  19
ATOM     19  O   UNL     1       8.954 -14.790   5.009  1.00  0.00    -0.504 OA
ATOM     20  H   UNL     1       8.729 -15.175   4.103  1.00  0.00     0.293 HD
ENDBRANCH  16  19
BRANCH  18  21
ATOM     21  O   UNL     1       6.697 -13.206   5.981  1.00  0.00    -0.504 OA
ATOM     22  H   UNL     1       7.003 -12.935   5.059  1.00  0.00     0.293 HD
ENDBRANCH  18  21
ENDBRANCH   3  13
BRANCH  10  23
ATOM     23  O   UNL     1       4.722 -17.798  14.405  1.00  0.00    -0.507 OA
ATOM     24  H   UNL     1       5.337 -17.136  14.862  1.00  0.00     0.293 HD
ENDBRANCH  10  23
BRANCH  11  25
ATOM     25  O   UNL     1       0.764 -17.673  11.605  1.00  0.00    -0.508 OA
ATOM     26  H   UNL     1       0.130 -16.891  11.713  1.00  0.00     0.293 HD
ENDBRANCH  11  25
ENDBRANCH   1   2
BRANCH   1  27
ATOM     27  C   UNL     1       8.598 -14.251  11.172  1.00  0.00     0.339 C 
ATOM     28  C   UNL     1       7.389 -13.422  11.698  1.00  0.00     0.214 C 
ATOM     29  O   UNL     1       9.779 -14.022  11.931  1.00  0.00    -0.332 OA
ATOM     30  C   UNL     1       7.741 -12.675  12.997  1.00  0.00     0.180 C 
ATOM     31  C   UNL     1       9.618 -14.400  13.292  1.00  0.00     0.179 C 
ATOM     32  C   UNL     1       8.498 -13.575  14.002  1.00  0.00     0.177 C 
BRANCH  28  33
ATOM     33  O   UNL     1       6.966 -12.491  10.734  1.00  0.00    -0.384 OA
ATOM     34  H   UNL     1       6.173 -12.885  10.287  1.00  0.00     0.211 HD
ENDBRANCH  28  33
BRANCH  30  35
ATOM     35  O   UNL     1       6.600 -12.090  13.575  1.00  0.00    -0.387 OA
ATOM     36  H   UNL     1       6.828 -11.842  14.509  1.00  0.00     0.211 HD
ENDBRANCH  30  35
BRANCH  31  37
ATOM     37  C   UNL     1      10.972 -14.247  13.999  1.00  0.00     0.191 C 
BRANCH  37  38
ATOM     38  O   UNL     1      11.797 -13.340  13.317  1.00  0.00    -0.394 OA
ATOM     39  H   UNL     1      11.523 -13.353  12.365  1.00  0.00     0.210 HD
ENDBRANCH  37  38
ENDBRANCH  31  37
BRANCH  32  40
ATOM     40  O   UNL     1       7.619 -14.429  14.691  1.00  0.00    -0.387 OA
ATOM     41  H   UNL     1       8.166 -15.044  15.251  1.00  0.00     0.211 HD
ENDBRANCH  32  40
ENDBRANCH   1  27
TORSDOF 12
ENDMDL
MODEL 2
REMARK VINA RESULT:    -6.867      3.189      6.330
REMARK INTER + INTRA:         -11.556
REMARK INTER:                 -10.465
REMARK INTRA:                  -1.091
REMARK UNBOUND:                -1.477
REMARK SMILES O=c1c(O[C@@H]2O[C@@H](CO)[C@H](O)[C@H](O)[C@H]2O)c(-c2ccc(O)c(O)c2)oc2cc(O)cc(O)c12
REMARK SMILES IDX 4 1 3 2 16 3 25 4 2 5 26 6 1 7 33 8 27 9 31 10 28 11 30 12
REMARK SMILES IDX 17 13 18 14 19 15 20 16 24 17 22 18 21 19 23 21 32 23 29 25
REMARK SMILES IDX 5 27 14 28 6 29 12 30 7 31 10 32 15 33 13 35 8 37 9 38 11 40
REMARK H PARENT 21 20 23 22 32 24 29 26 15 34 13 36 9 39 11 41
REMARK Flexibility Score: inf
ROOT
ATOM      1  O   UNL     1       7.451 -13.711  12.628  1.00  0.00    -0.454 OA
ENDROOT
BRANCH   1   2
ATOM      2  C   UNL     1       7.957 -14.673  11.739  1.00  0.00     0.214 A 
ATOM      3  C   UNL     1       8.928 -15.571  12.221  1.00  0.00     0.180 A 
ATOM      4  O   UNL     1       9.582 -16.360  11.380  1.00  0.00    -0.452 OA
ATOM      5  C   UNL     1       7.584 -14.753  10.384  1.00  0.00     0.239 A 
ATOM      6  C   UNL     1       9.318 -16.414  10.082  1.00  0.00     0.146 A 
ATOM      7  O   UNL     1       6.651 -14.027   9.945  1.00  0.00    -0.285 OA
ATOM      8  C   UNL     1       8.260 -15.649   9.530  1.00  0.00     0.111 A 
ATOM      9  C   UNL     1      10.098 -17.239   9.264  1.00  0.00     0.094 A 
ATOM     10  C   UNL     1       7.946 -15.804   8.160  1.00  0.00     0.134 A 
ATOM     11  C   UNL     1       9.831 -17.329   7.899  1.00  0.00     0.123 A 
ATOM     12  C   UNL     1       8.742 -16.640   7.356  1.00  0.00     0.093 A 
BRANCH   3  13
ATOM     13  C   UNL     1       9.272 -15.633  13.659  1.00  0.00     0.025 A 
ATOM     14  C   UNL     1       8.402 -16.234  14.580  1.00  0.00     0.016 A 
ATOM     15  C   UNL     1       8.752 -16.301  15.931  1.00  0.00     0.051 A 
ATOM     16  C   UNL     1       9.978 -15.798  16.382  1.00  0.00     0.157 A 
ATOM     17  C   UNL     1      10.513 -15.146  14.100  1.00  0.00     0.062 A 
ATOM     18  C   UNL     1      10.879 -15.235  15.448  1.00  0.00     0.158 A 
BRANCH  16  19
ATOM     19  O   UNL     1      10.256 -15.873  17.750  1.00  0.00    -0.504 OA
ATOM     20  H   UNL     1      10.886 -15.245  18.229  1.00  0.00     0.293 HD
ENDBRANCH  16  19
BRANCH  18  21
ATOM     21  O   UNL     1      12.144 -14.771  15.808  1.00  0.00    -0.504 OA
ATOM     22  H   UNL     1      12.834 -15.332  16.285  1.00  0.00     0.293 HD
ENDBRANCH  18  21
ENDBRANCH   3  13
BRANCH  10  23
ATOM     23  O   UNL     1       6.854 -15.146   7.594  1.00  0.00    -0.507 OA
ATOM     24  H   UNL     1       5.995 -14.996   8.109  1.00  0.00     0.293 HD
ENDBRANCH  10  23
BRANCH  11  25
ATOM     25  O   UNL     1      10.675 -18.090   7.086  1.00  0.00    -0.508 OA
ATOM     26  H   UNL     1      10.956 -17.768   6.168  1.00  0.00     0.293 HD
ENDBRANCH  11  25
ENDBRANCH   1   2
BRANCH   1  27
ATOM     27  C   UNL     1       7.456 -12.293  12.445  1.00  0.00     0.339 C 
ATOM     28  C   UNL     1       6.768 -11.615  13.667  1.00  0.00     0.214 C 
ATOM     29  O   UNL     1       8.766 -11.787  12.215  1.00  0.00    -0.332 OA
ATOM     30  C   UNL     1       7.736 -10.672  14.406  1.00  0.00     0.180 C 
ATOM     31  C   UNL     1       9.628 -12.023  13.319  1.00  0.00     0.179 C 
ATOM     32  C   UNL     1       9.128 -11.312  14.617  1.00  0.00     0.177 C 
BRANCH  28  33
ATOM     33  O   UNL     1       5.638 -10.886  13.261  1.00  0.00    -0.384 OA
ATOM     34  H   UNL     1       5.817  -9.936  13.484  1.00  0.00     0.211 HD
ENDBRANCH  28  33
BRANCH  30  35
ATOM     35  O   UNL     1       7.181 -10.216  15.615  1.00  0.00    -0.387 OA
ATOM     36  H   UNL     1       6.335 -10.715  15.766  1.00  0.00     0.211 HD
ENDBRANCH  30  35
BRANCH  31  37
ATOM     37  C   UNL     1      11.043 -11.569  12.932  1.00  0.00     0.191 C 
BRANCH  37  38
ATOM     38  O   UNL     1      11.241 -10.216  13.240  1.00  0.00    -0.394 OA
ATOM     39  H   UNL     1      10.910  -9.688  12.469  1.00  0.00     0.210 HD
ENDBRANCH  37  38
ENDBRANCH  31  37
BRANCH  32  40
ATOM     40  O   UNL     1       9.123 -12.210  15.699  1.00  0.00    -0.387 OA
ATOM     41  H   UNL     1       9.458 -11.725  16.501  1.00  0.00     0.211 HD
ENDBRANCH  32  40
ENDBRANCH   1  27
TORSDOF 12
ENDMDL
MODEL 3
REMARK VINA RESULT:    -6.733      2.859      5.317
REMARK INTER + INTRA:         -11.358
REMARK INTER:                 -10.087
REMARK INTRA:                  -1.272
REMARK UNBOUND:                -1.477
REMARK SMILES O=c1c(O[C@@H]2O[C@@H](CO)[C@H](O)[C@H](O)[C@H]2O)c(-c2ccc(O)c(O)c2)oc2cc(O)cc(O)c12
REMARK SMILES IDX 4 1 3 2 16 3 25 4 2 5 26 6 1 7 33 8 27 9 31 10 28 11 30 12
REMARK SMILES IDX 17 13 18 14 19 15 20 16 24 17 22 18 21 19 23 21 32 23 29 25
REMARK SMILES IDX 5 27 14 28 6 29 12 30 7 31 10 32 15 33 13 35 8 37 9 38 11 40
REMARK H PARENT 21 20 23 22 32 24 29 26 15 34 13 36 9 39 11 41
REMARK Flexibility Score: inf
ROOT
ATOM      1  O   UNL     1       8.510 -15.426  11.997  1.00  0.00    -0.454 OA
ENDROOT
BRANCH   1   2
ATOM      2  C   UNL     1       8.300 -15.573  10.617  1.00  0.00     0.214 A 
ATOM      3  C   UNL     1       9.279 -16.254   9.869  1.00  0.00     0.180 A 
ATOM      4  O   UNL     1       9.231 -16.245   8.543  1.00  0.00    -0.452 OA
ATOM      5  C   UNL     1       7.192 -15.033   9.936  1.00  0.00     0.239 A 
ATOM      6  C   UNL     1       8.247 -15.681   7.857  1.00  0.00     0.146 A 
ATOM      7  O   UNL     1       6.253 -14.500  10.588  1.00  0.00    -0.285 OA
ATOM      8  C   UNL     1       7.144 -15.095   8.528  1.00  0.00     0.111 A 
ATOM      9  C   UNL     1       8.311 -15.675   6.460  1.00  0.00     0.094 A 
ATOM     10  C   UNL     1       6.069 -14.589   7.763  1.00  0.00     0.134 A 
ATOM     11  C   UNL     1       7.282 -15.106   5.713  1.00  0.00     0.123 A 
ATOM     12  C   UNL     1       6.153 -14.593   6.359  1.00  0.00     0.093 A 
BRANCH   3  13
ATOM     13  C   UNL     1      10.399 -16.960  10.530  1.00  0.00     0.025 A 
ATOM     14  C   UNL     1      10.217 -18.235  11.083  1.00  0.00     0.016 A 
ATOM     15  C   UNL     1      11.291 -18.896  11.686  1.00  0.00     0.051 A 
ATOM     16  C   UNL     1      12.563 -18.312  11.725  1.00  0.00     0.157 A 
ATOM     17  C   UNL     1      11.676 -16.378  10.546  1.00  0.00     0.062 A 
ATOM     18  C   UNL     1      12.761 -17.047  11.125  1.00  0.00     0.158 A 
BRANCH  16  19
ATOM     19  O   UNL     1      13.588 -19.014  12.367  1.00  0.00    -0.504 OA
ATOM     20  H   UNL     1      14.262 -19.590  11.882  1.00  0.00     0.293 HD
ENDBRANCH  16  19
BRANCH  18  21
ATOM     21  O   UNL     1      14.010 -16.430  11.066  1.00  0.00    -0.504 OA
ATOM     22  H   UNL     1      14.584 -16.244  11.875  1.00  0.00     0.293 HD
ENDBRANCH  18  21
ENDBRANCH   3  13
BRANCH  10  23
ATOM     23  O   UNL     1       4.921 -14.090   8.379  1.00  0.00    -0.507 OA
ATOM     24  H   UNL     1       4.249 -14.699   8.832  1.00  0.00     0.293 HD
ENDBRANCH  10  23
BRANCH  11  25
ATOM     25  O   UNL     1       7.405 -15.032   4.322  1.00  0.00    -0.508 OA
ATOM     26  H   UNL     1       6.643 -15.291   3.709  1.00  0.00     0.293 HD
ENDBRANCH  11  25
ENDBRANCH   1   2
BRANCH   1  27
ATOM     27  C   UNL     1       9.161 -14.334  12.651  1.00  0.00     0.339 C 
ATOM     28  C   UNL     1       8.088 -13.350  13.201  1.00  0.00     0.214 C 
ATOM     29  O   UNL     1      10.058 -14.775  13.663  1.00  0.00    -0.332 OA
ATOM     30  C   UNL     1       8.179 -13.216  14.732  1.00  0.00     0.180 C 
ATOM     31  C   UNL     1       9.387 -15.480  14.698  1.00  0.00     0.179 C 
ATOM     32  C   UNL     1       8.335 -14.588  15.430  1.00  0.00     0.177 C 
BRANCH  28  33
ATOM     33  O   UNL     1       8.232 -12.079  12.620  1.00  0.00    -0.384 OA
ATOM     34  H   UNL     1       7.444 -11.943  12.034  1.00  0.00     0.211 HD
ENDBRANCH  28  33
BRANCH  30  35
ATOM     35  O   UNL     1       7.092 -12.488  15.247  1.00  0.00    -0.387 OA
ATOM     36  H   UNL     1       7.376 -11.540  15.332  1.00  0.00     0.211 HD
ENDBRANCH  30  35
BRANCH  31  37
ATOM     37  C   UNL     1      10.441 -16.030  15.670  1.00  0.00     0.191 C 
BRANCH  37  38
ATOM     38  O   UNL     1      11.440 -15.079  15.922  1.00  0.00    -0.394 OA
ATOM     39  H   UNL     1      11.309 -14.339  15.276  1.00  0.00     0.210 HD
ENDBRANCH  37  38
ENDBRANCH  31  37
BRANCH  32  40
ATOM     40  O   UNL     1       7.103 -15.258  15.529  1.00  0.00    -0.387 OA
ATOM     41  H   UNL     1       6.990 -15.554  16.473  1.00  0.00     0.211 HD
ENDBRANCH  32  40
ENDBRANCH   1  27
TORSDOF 12
ENDMDL
MODEL 4
REMARK VINA RESULT:    -6.679      2.699      6.075
REMARK INTER + INTRA:         -11.280
REMARK INTER:                 -10.368
REMARK INTRA:                  -0.913
REMARK UNBOUND:                -1.477
REMARK SMILES O=c1c(O[C@@H]2O[C@@H](CO)[C@H](O)[C@H](O)[C@H]2O)c(-c2ccc(O)c(O)c2)oc2cc(O)cc(O)c12
REMARK SMILES IDX 4 1 3 2 16 3 25 4 2 5 26 6 1 7 33 8 27 9 31 10 28 11 30 12
REMARK SMILES IDX 17 13 18 14 19 15 20 16 24 17 22 18 21 19 23 21 32 23 29 25
REMARK SMILES IDX 5 27 14 28 6 29 12 30 7 31 10 32 15 33 13 35 8 37 9 38 11 40
REMARK H PARENT 21 20 23 22 32 24 29 26 15 34 13 36 9 39 11 41
REMARK Flexibility Score: inf
ROOT
ATOM      1  O   UNL     1       8.303 -14.872   9.858  1.00  0.00    -0.454 OA
ENDROOT
BRANCH   1   2
ATOM      2  C   UNL     1       8.911 -15.020  11.115  1.00  0.00     0.214 A 
ATOM      3  C   UNL     1      10.128 -15.724  11.182  1.00  0.00     0.180 A 
ATOM      4  O   UNL     1      10.637 -16.066  12.357  1.00  0.00    -0.452 OA
ATOM      5  C   UNL     1       8.343 -14.548  12.313  1.00  0.00     0.239 A 
ATOM      6  C   UNL     1      10.094 -15.709  13.513  1.00  0.00     0.146 A 
ATOM      7  O   UNL     1       7.305 -13.833  12.279  1.00  0.00    -0.285 OA
ATOM      8  C   UNL     1       8.946 -14.878  13.545  1.00  0.00     0.111 A 
ATOM      9  C   UNL     1      10.674 -16.162  14.704  1.00  0.00     0.094 A 
ATOM     10  C   UNL     1       8.453 -14.441  14.796  1.00  0.00     0.134 A 
ATOM     11  C   UNL     1      10.136 -15.788  15.933  1.00  0.00     0.123 A 
ATOM     12  C   UNL     1       9.051 -14.907  15.980  1.00  0.00     0.093 A 
BRANCH   3  13
ATOM     13  C   UNL     1      10.848 -16.134   9.955  1.00  0.00     0.025 A 
ATOM     14  C   UNL     1      10.314 -17.109   9.101  1.00  0.00     0.016 A 
ATOM     15  C   UNL     1      10.997 -17.469   7.936  1.00  0.00     0.051 A 
ATOM     16  C   UNL     1      12.203 -16.848   7.590  1.00  0.00     0.157 A 
ATOM     17  C   UNL     1      12.045 -15.491   9.603  1.00  0.00     0.062 A 
ATOM     18  C   UNL     1      12.720 -15.828   8.424  1.00  0.00     0.158 A 
BRANCH  16  19
ATOM     19  O   UNL     1      12.850 -17.272   6.426  1.00  0.00    -0.504 OA
ATOM     20  H   UNL     1      13.854 -17.264   6.307  1.00  0.00     0.293 HD
ENDBRANCH  16  19
BRANCH  18  21
ATOM     21  O   UNL     1      13.880 -15.120   8.115  1.00  0.00    -0.504 OA
ATOM     22  H   UNL     1      14.033 -14.646   7.238  1.00  0.00     0.293 HD
ENDBRANCH  18  21
ENDBRANCH   3  13
BRANCH  10  23
ATOM     23  O   UNL     1       7.385 -13.546  14.873  1.00  0.00    -0.507 OA
ATOM     24  H   UNL     1       6.469 -13.833  15.197  1.00  0.00     0.293 HD
ENDBRANCH  10  23
BRANCH  11  25
ATOM     25  O   UNL     1      10.676 -16.321  17.107  1.00  0.00    -0.508 OA
ATOM     26  H   UNL     1      11.641 -16.160  17.366  1.00  0.00     0.293 HD
ENDBRANCH  11  25
ENDBRANCH   1   2
BRANCH   1  27
ATOM     27  C   UNL     1       7.263 -15.686   9.310  1.00  0.00     0.339 C 
ATOM     28  C   UNL     1       5.911 -14.918   9.392  1.00  0.00     0.214 C 
ATOM     29  O   UNL     1       7.560 -16.115   7.987  1.00  0.00    -0.332 OA
ATOM     30  C   UNL     1       5.308 -14.689   7.995  1.00  0.00     0.180 C 
ATOM     31  C   UNL     1       7.686 -15.021   7.089  1.00  0.00     0.179 C 
ATOM     32  C   UNL     1       6.364 -14.199   6.976  1.00  0.00     0.177 C 
BRANCH  28  33
ATOM     33  O   UNL     1       4.986 -15.620  10.183  1.00  0.00    -0.384 OA
ATOM     34  H   UNL     1       4.146 -15.093  10.172  1.00  0.00     0.211 HD
ENDBRANCH  28  33
BRANCH  30  35
ATOM     35  O   UNL     1       4.197 -13.829   8.053  1.00  0.00    -0.387 OA
ATOM     36  H   UNL     1       3.669 -13.962   7.223  1.00  0.00     0.211 HD
ENDBRANCH  30  35
BRANCH  31  37
ATOM     37  C   UNL     1       8.136 -15.565   5.726  1.00  0.00     0.191 C 
BRANCH  37  38
ATOM     38  O   UNL     1       7.566 -14.830   4.676  1.00  0.00    -0.394 OA
ATOM     39  H   UNL     1       7.059 -14.082   5.084  1.00  0.00     0.210 HD
ENDBRANCH  37  38
ENDBRANCH  31  37
BRANCH  32  40
ATOM     40  O   UNL     1       6.624 -12.825   7.125  1.00  0.00    -0.387 OA
ATOM     41  H   UNL     1       7.598 -12.714   7.295  1.00  0.00     0.211 HD
ENDBRANCH  32  40
ENDBRANCH   1  27
TORSDOF 12
ENDMDL
MODEL 5
REMARK VINA RESULT:    -6.568      2.880      5.004
REMARK INTER + INTRA:         -11.116
REMARK INTER:                 -10.072
REMARK INTRA:                  -1.044
REMARK UNBOUND:                -1.477
REMARK SMILES O=c1c(O[C@@H]2O[C@@H](CO)[C@H](O)[C@H](O)[C@H]2O)c(-c2ccc(O)c(O)c2)oc2cc(O)cc(O)c12
REMARK SMILES IDX 4 1 3 2 16 3 25 4 2 5 26 6 1 7 33 8 27 9 31 10 28 11 30 12
REMARK SMILES IDX 17 13 18 14 19 15 20 16 24 17 22 18 21 19 23 21 32 23 29 25
REMARK SMILES IDX 5 27 14 28 6 29 12 30 7 31 10 32 15 33 13 35 8 37 9 38 11 40
REMARK H PARENT 21 20 23 22 32 24 29 26 15 34 13 36 9 39 11 41
REMARK Flexibility Score: inf
ROOT
ATOM      1  O   UNL     1       8.407 -14.360  12.917  1.00  0.00    -0.454 OA
ENDROOT
BRANCH   1   2
ATOM      2  C   UNL     1       9.038 -15.563  12.563  1.00  0.00     0.214 A 
ATOM      3  C   UNL     1       8.423 -16.368  11.585  1.00  0.00     0.180 A 
ATOM      4  O   UNL     1       8.864 -17.598  11.361  1.00  0.00    -0.452 OA
ATOM      5  C   UNL     1      10.221 -16.029  13.167  1.00  0.00     0.239 A 
ATOM      6  C   UNL     1       9.929 -18.108  11.964  1.00  0.00     0.146 A 
ATOM      7  O   UNL     1      10.847 -15.291  13.976  1.00  0.00    -0.285 OA
ATOM      8  C   UNL     1      10.696 -17.320  12.858  1.00  0.00     0.111 A 
ATOM      9  C   UNL     1      10.287 -19.435  11.702  1.00  0.00     0.094 A 
ATOM     10  C   UNL     1      11.879 -17.867  13.409  1.00  0.00     0.134 A 
ATOM     11  C   UNL     1      11.411 -19.991  12.307  1.00  0.00     0.123 A 
ATOM     12  C   UNL     1      12.221 -19.202  13.132  1.00  0.00     0.093 A 
BRANCH   3  13
ATOM     13  C   UNL     1       7.255 -15.884  10.815  1.00  0.00     0.025 A 
ATOM     14  C   UNL     1       5.952 -16.066  11.298  1.00  0.00     0.016 A 
ATOM     15  C   UNL     1       4.862 -15.585  10.568  1.00  0.00     0.051 A 
ATOM     16  C   UNL     1       5.052 -14.896   9.364  1.00  0.00     0.157 A 
ATOM     17  C   UNL     1       7.454 -15.175   9.620  1.00  0.00     0.062 A 
ATOM     18  C   UNL     1       6.368 -14.668   8.898  1.00  0.00     0.158 A 
BRANCH  16  19
ATOM     19  O   UNL     1       3.918 -14.464   8.668  1.00  0.00    -0.504 OA
ATOM     20  H   UNL     1       3.620 -14.854   7.784  1.00  0.00     0.293 HD
ENDBRANCH  16  19
BRANCH  18  21
ATOM     21  O   UNL     1       6.641 -13.937   7.743  1.00  0.00    -0.504 OA
ATOM     22  H   UNL     1       7.567 -13.652   7.463  1.00  0.00     0.293 HD
ENDBRANCH  18  21
ENDBRANCH   3  13
BRANCH  10  23
ATOM     23  O   UNL     1      12.716 -17.098  14.217  1.00  0.00    -0.507 OA
ATOM     24  H   UNL     1      12.496 -16.908  15.188  1.00  0.00     0.293 HD
ENDBRANCH  10  23
BRANCH  11  25
ATOM     25  O   UNL     1      11.702 -21.342  12.101  1.00  0.00    -0.508 OA
ATOM     26  H   UNL     1      11.225 -21.884  11.391  1.00  0.00     0.293 HD
ENDBRANCH  11  25
ENDBRANCH   1   2
BRANCH   1  27
ATOM     27  C   UNL     1       8.292 -13.185  12.110  1.00  0.00     0.339 C 
ATOM     28  C   UNL     1       7.074 -12.345  12.595  1.00  0.00     0.214 C 
ATOM     29  O   UNL     1       9.496 -12.428  12.091  1.00  0.00    -0.332 OA
ATOM     30  C   UNL     1       7.509 -10.947  13.071  1.00  0.00     0.180 C 
ATOM     31  C   UNL     1       9.847 -11.956  13.384  1.00  0.00     0.179 C 
ATOM     32  C   UNL     1       8.763 -11.002  13.976  1.00  0.00     0.177 C 
BRANCH  28  33
ATOM     33  O   UNL     1       6.124 -12.206  11.570  1.00  0.00    -0.384 OA
ATOM     34  H   UNL     1       5.444 -11.563  11.898  1.00  0.00     0.211 HD
ENDBRANCH  28  33
BRANCH  30  35
ATOM     35  O   UNL     1       6.446 -10.265  13.691  1.00  0.00    -0.387 OA
ATOM     36  H   UNL     1       6.113  -9.582  13.052  1.00  0.00     0.211 HD
ENDBRANCH  30  35
BRANCH  31  37
ATOM     37  C   UNL     1      11.218 -11.271  13.291  1.00  0.00     0.191 C 
BRANCH  37  38
ATOM     38  O   UNL     1      11.087  -9.875  13.318  1.00  0.00    -0.394 OA
ATOM     39  H   UNL     1      10.976  -9.574  12.380  1.00  0.00     0.210 HD
ENDBRANCH  37  38
ENDBRANCH  31  37
BRANCH  32  40
ATOM     40  O   UNL     1       8.434 -11.384  15.289  1.00  0.00    -0.387 OA
ATOM     41  H   UNL     1       8.404 -12.378  15.320  1.00  0.00     0.211 HD
ENDBRANCH  32  40
ENDBRANCH   1  27
TORSDOF 12
ENDMDL
MODEL 6
REMARK VINA RESULT:    -6.508      1.691      2.240
REMARK INTER + INTRA:         -11.028
REMARK INTER:                 -10.069
REMARK INTRA:                  -0.960
REMARK UNBOUND:                -1.477
REMARK SMILES O=c1c(O[C@@H]2O[C@@H](CO)[C@H](O)[C@H](O)[C@H]2O)c(-c2ccc(O)c(O)c2)oc2cc(O)cc(O)c12
REMARK SMILES IDX 4 1 3 2 16 3 25 4 2 5 26 6 1 7 33 8 27 9 31 10 28 11 30 12
REMARK SMILES IDX 17 13 18 14 19 15 20 16 24 17 22 18 21 19 23 21 32 23 29 25
REMARK SMILES IDX 5 27 14 28 6 29 12 30 7 31 10 32 15 33 13 35 8 37 9 38 11 40
REMARK H PARENT 21 20 23 22 32 24 29 26 15 34 13 36 9 39 11 41
REMARK Flexibility Score: inf
ROOT
ATOM      1  O   UNL     1       7.711 -16.038  10.600  1.00  0.00    -0.454 OA
ENDROOT
BRANCH   1   2
ATOM      2  C   UNL     1       6.525 -16.311   9.900  1.00  0.00     0.214 A 
ATOM      3  C   UNL     1       6.587 -16.375   8.495  1.00  0.00     0.180 A 
ATOM      4  O   UNL     1       5.471 -16.427   7.780  1.00  0.00    -0.452 OA
ATOM      5  C   UNL     1       5.273 -16.472  10.524  1.00  0.00     0.239 A 
ATOM      6  C   UNL     1       4.265 -16.502   8.324  1.00  0.00     0.146 A 
ATOM      7  O   UNL     1       5.198 -16.514  11.782  1.00  0.00    -0.285 OA
ATOM      8  C   UNL     1       4.112 -16.587   9.731  1.00  0.00     0.111 A 
ATOM      9  C   UNL     1       3.142 -16.499   7.489  1.00  0.00     0.094 A 
ATOM     10  C   UNL     1       2.816 -16.762  10.269  1.00  0.00     0.134 A 
ATOM     11  C   UNL     1       1.863 -16.595   8.032  1.00  0.00     0.123 A 
ATOM     12  C   UNL     1       1.702 -16.757   9.412  1.00  0.00     0.093 A 
BRANCH   3  13
ATOM     13  C   UNL     1       7.883 -16.347   7.781  1.00  0.00     0.025 A 
ATOM     14  C   UNL     1       8.861 -17.320   8.029  1.00  0.00     0.016 A 
ATOM     15  C   UNL     1      10.071 -17.291   7.331  1.00  0.00     0.051 A 
ATOM     16  C   UNL     1      10.316 -16.313   6.359  1.00  0.00     0.157 A 
ATOM     17  C   UNL     1       8.113 -15.377   6.793  1.00  0.00     0.062 A 
ATOM     18  C   UNL     1       9.312 -15.358   6.071  1.00  0.00     0.158 A 
BRANCH  16  19
ATOM     19  O   UNL     1      11.557 -16.322   5.716  1.00  0.00    -0.504 OA
ATOM     20  H   UNL     1      12.401 -16.689   6.131  1.00  0.00     0.293 HD
ENDBRANCH  16  19
BRANCH  18  21
ATOM     21  O   UNL     1       9.455 -14.393   5.075  1.00  0.00    -0.504 OA
ATOM     22  H   UNL     1      10.159 -13.671   5.089  1.00  0.00     0.293 HD
ENDBRANCH  18  21
ENDBRANCH   3  13
BRANCH  10  23
ATOM     23  O   UNL     1       2.627 -16.946  11.639  1.00  0.00    -0.507 OA
ATOM     24  H   UNL     1       1.763 -16.685  12.099  1.00  0.00     0.293 HD
ENDBRANCH  10  23
BRANCH  11  25
ATOM     25  O   UNL     1       0.753 -16.502   7.188  1.00  0.00    -0.508 OA
ATOM     26  H   UNL     1       0.688 -17.047   6.337  1.00  0.00     0.293 HD
ENDBRANCH  11  25
ENDBRANCH   1   2
BRANCH   1  27
ATOM     27  C   UNL     1       8.349 -14.766  10.737  1.00  0.00     0.339 C 
ATOM     28  C   UNL     1       7.366 -13.769  11.418  1.00  0.00     0.214 C 
ATOM     29  O   UNL     1       9.587 -14.860  11.431  1.00  0.00    -0.332 OA
ATOM     30  C   UNL     1       7.928 -13.246  12.753  1.00  0.00     0.180 C 
ATOM     31  C   UNL     1       9.418 -15.336  12.759  1.00  0.00     0.179 C 
ATOM     32  C   UNL     1       8.530 -14.380  13.617  1.00  0.00     0.177 C 
BRANCH  28  33
ATOM     33  O   UNL     1       7.098 -12.677  10.575  1.00  0.00    -0.384 OA
ATOM     34  H   UNL     1       7.935 -12.147  10.522  1.00  0.00     0.211 HD
ENDBRANCH  28  33
BRANCH  30  35
ATOM     35  O   UNL     1       6.963 -12.506  13.459  1.00  0.00    -0.387 OA
ATOM     36  H   UNL     1       6.159 -13.080  13.562  1.00  0.00     0.211 HD
ENDBRANCH  30  35
BRANCH  31  37
ATOM     37  C   UNL     1      10.808 -15.533  13.382  1.00  0.00     0.191 C 
BRANCH  37  38
ATOM     38  O   UNL     1      11.728 -14.611  12.863  1.00  0.00    -0.394 OA
ATOM     39  H   UNL     1      12.232 -14.237  13.630  1.00  0.00     0.210 HD
ENDBRANCH  37  38
ENDBRANCH  31  37
BRANCH  32  40
ATOM     40  O   UNL     1       7.528 -15.106  14.285  1.00  0.00    -0.387 OA
ATOM     41  H   UNL     1       7.953 -15.584  15.047  1.00  0.00     0.211 HD
ENDBRANCH  32  40
ENDBRANCH   1  27
TORSDOF 12
ENDMDL
MODEL 7
REMARK VINA RESULT:    -6.470      1.555      1.789
REMARK INTER + INTRA:         -10.973
REMARK INTER:                  -9.469
REMARK INTRA:                  -1.504
REMARK UNBOUND:                -1.477
REMARK SMILES O=c1c(O[C@@H]2O[C@@H](CO)[C@H](O)[C@H](O)[C@H]2O)c(-c2ccc(O)c(O)c2)oc2cc(O)cc(O)c12
REMARK SMILES IDX 4 1 3 2 16 3 25 4 2 5 26 6 1 7 33 8 27 9 31 10 28 11 30 12
REMARK SMILES IDX 17 13 18 14 19 15 20 16 24 17 22 18 21 19 23 21 32 23 29 25
REMARK SMILES IDX 5 27 14 28 6 29 12 30 7 31 10 32 15 33 13 35 8 37 9 38 11 40
REMARK H PARENT 21 20 23 22 32 24 29 26 15 34 13 36 9 39 11 41
REMARK Flexibility Score: inf
ROOT
ATOM      1  O   UNL     1       8.510 -14.820  11.825  1.00  0.00    -0.454 OA
ENDROOT
BRANCH   1   2
ATOM      2  C   UNL     1       7.517 -15.771  12.107  1.00  0.00     0.214 A 
ATOM      3  C   UNL     1       6.719 -16.229  11.042  1.00  0.00     0.180 A 
ATOM      4  O   UNL     1       5.644 -16.967  11.283  1.00  0.00    -0.452 OA
ATOM      5  C   UNL     1       7.245 -16.251  13.403  1.00  0.00     0.239 A 
ATOM      6  C   UNL     1       5.305 -17.378  12.497  1.00  0.00     0.146 A 
ATOM      7  O   UNL     1       8.000 -15.935  14.362  1.00  0.00    -0.285 OA
ATOM      8  C   UNL     1       6.128 -17.085  13.614  1.00  0.00     0.111 A 
ATOM      9  C   UNL     1       4.122 -18.109  12.661  1.00  0.00     0.094 A 
ATOM     10  C   UNL     1       5.784 -17.622  14.876  1.00  0.00     0.134 A 
ATOM     11  C   UNL     1       3.751 -18.569  13.922  1.00  0.00     0.123 A 
ATOM     12  C   UNL     1       4.592 -18.354  15.018  1.00  0.00     0.093 A 
BRANCH   3  13
ATOM     13  C   UNL     1       7.029 -15.871   9.639  1.00  0.00     0.025 A 
ATOM     14  C   UNL     1       7.989 -16.588   8.912  1.00  0.00     0.016 A 
ATOM     15  C   UNL     1       8.256 -16.251   7.582  1.00  0.00     0.051 A 
ATOM     16  C   UNL     1       7.556 -15.216   6.950  1.00  0.00     0.157 A 
ATOM     17  C   UNL     1       6.308 -14.847   9.006  1.00  0.00     0.062 A 
ATOM     18  C   UNL     1       6.552 -14.522   7.667  1.00  0.00     0.158 A 
BRANCH  16  19
ATOM     19  O   UNL     1       7.889 -14.910   5.627  1.00  0.00    -0.504 OA
ATOM     20  H   UNL     1       7.460 -15.350   4.825  1.00  0.00     0.293 HD
ENDBRANCH  16  19
BRANCH  18  21
ATOM     21  O   UNL     1       5.769 -13.524   7.088  1.00  0.00    -0.504 OA
ATOM     22  H   UNL     1       5.271 -12.823   7.616  1.00  0.00     0.293 HD
ENDBRANCH  18  21
ENDBRANCH   3  13
BRANCH  10  23
ATOM     23  O   UNL     1       6.614 -17.441  15.983  1.00  0.00    -0.507 OA
ATOM     24  H   UNL     1       6.777 -16.525  16.385  1.00  0.00     0.293 HD
ENDBRANCH  10  23
BRANCH  11  25
ATOM     25  O   UNL     1       2.524 -19.221  14.078  1.00  0.00    -0.508 OA
ATOM     26  H   UNL     1       2.038 -19.630  13.290  1.00  0.00     0.293 HD
ENDBRANCH  11  25
ENDBRANCH   1   2
BRANCH   1  27
ATOM     27  C   UNL     1       8.318 -13.417  11.627  1.00  0.00     0.339 C 
ATOM     28  C   UNL     1       7.163 -12.922  12.545  1.00  0.00     0.214 C 
ATOM     29  O   UNL     1       9.518 -12.679  11.824  1.00  0.00    -0.332 OA
ATOM     30  C   UNL     1       7.653 -11.854  13.540  1.00  0.00     0.180 C 
ATOM     31  C   UNL     1      10.006 -12.804  13.153  1.00  0.00     0.179 C 
ATOM     32  C   UNL     1       8.994 -12.246  14.204  1.00  0.00     0.177 C 
BRANCH  28  33
ATOM     33  O   UNL     1       6.112 -12.388  11.781  1.00  0.00    -0.384 OA
ATOM     34  H   UNL     1       5.380 -13.057  11.798  1.00  0.00     0.211 HD
ENDBRANCH  28  33
BRANCH  30  35
ATOM     35  O   UNL     1       6.665 -11.553  14.494  1.00  0.00    -0.387 OA
ATOM     36  H   UNL     1       5.794 -11.500  14.020  1.00  0.00     0.211 HD
ENDBRANCH  30  35
BRANCH  31  37
ATOM     37  C   UNL     1      11.363 -12.092  13.238  1.00  0.00     0.191 C 
BRANCH  37  38
ATOM     38  O   UNL     1      11.208 -10.700  13.175  1.00  0.00    -0.394 OA
ATOM     39  H   UNL     1      10.316 -10.487  13.550  1.00  0.00     0.210 HD
ENDBRANCH  37  38
ENDBRANCH  31  37
BRANCH  32  40
ATOM     40  O   UNL     1       8.802 -13.174  15.243  1.00  0.00    -0.387 OA
ATOM     41  H   UNL     1       9.695 -13.521  15.513  1.00  0.00     0.211 HD
ENDBRANCH  32  40
ENDBRANCH   1  27
TORSDOF 12
ENDMDL
MODEL 8
REMARK VINA RESULT:    -6.448      5.036      6.500
REMARK INTER + INTRA:         -10.941
REMARK INTER:                  -9.532
REMARK INTRA:                  -1.409
REMARK UNBOUND:                -1.477
REMARK SMILES O=c1c(O[C@@H]2O[C@@H](CO)[C@H](O)[C@H](O)[C@H]2O)c(-c2ccc(O)c(O)c2)oc2cc(O)cc(O)c12
REMARK SMILES IDX 4 1 3 2 16 3 25 4 2 5 26 6 1 7 33 8 27 9 31 10 28 11 30 12
REMARK SMILES IDX 17 13 18 14 19 15 20 16 24 17 22 18 21 19 23 21 32 23 29 25
REMARK SMILES IDX 5 27 14 28 6 29 12 30 7 31 10 32 15 33 13 35 8 37 9 38 11 40
REMARK H PARENT 21 20 23 22 32 24 29 26 15 34 13 36 9 39 11 41
REMARK Flexibility Score: inf
ROOT
ATOM      1  O   UNL     1      10.544 -16.935  12.706  1.00  0.00    -0.454 OA
ENDROOT
BRANCH   1   2
ATOM      2  C   UNL     1      11.103 -18.219  12.600  1.00  0.00     0.214 A 
ATOM      3  C   UNL     1      11.824 -18.530  11.431  1.00  0.00     0.180 A 
ATOM      4  O   UNL     1      12.197 -19.780  11.191  1.00  0.00    -0.452 OA
ATOM      5  C   UNL     1      10.938 -19.222  13.573  1.00  0.00     0.239 A 
ATOM      6  C   UNL     1      11.994 -20.774  12.044  1.00  0.00     0.146 A 
ATOM      7  O   UNL     1      10.380 -18.949  14.670  1.00  0.00    -0.285 OA
ATOM      8  C   UNL     1      11.402 -20.528  13.309  1.00  0.00     0.111 A 
ATOM      9  C   UNL     1      12.374 -22.070  11.679  1.00  0.00     0.094 A 
ATOM     10  C   UNL     1      11.289 -21.595  14.229  1.00  0.00     0.134 A 
ATOM     11  C   UNL     1      12.189 -23.130  12.564  1.00  0.00     0.123 A 
ATOM     12  C   UNL     1      11.678 -22.890  13.843  1.00  0.00     0.093 A 
BRANCH   3  13
ATOM     13  C   UNL     1      12.150 -17.490  10.429  1.00  0.00     0.025 A 
ATOM     14  C   UNL     1      11.222 -17.126   9.445  1.00  0.00     0.016 A 
ATOM     15  C   UNL     1      11.538 -16.128   8.519  1.00  0.00     0.051 A 
ATOM     16  C   UNL     1      12.768 -15.462   8.574  1.00  0.00     0.157 A 
ATOM     17  C   UNL     1      13.376 -16.811  10.505  1.00  0.00     0.062 A 
ATOM     18  C   UNL     1      13.689 -15.793   9.597  1.00  0.00     0.158 A 
BRANCH  16  19
ATOM     19  O   UNL     1      13.035 -14.492   7.603  1.00  0.00    -0.504 OA
ATOM     20  H   UNL     1      13.765 -13.799   7.687  1.00  0.00     0.293 HD
ENDBRANCH  16  19
BRANCH  18  21
ATOM     21  O   UNL     1      14.905 -15.131   9.757  1.00  0.00    -0.504 OA
ATOM     22  H   UNL     1      14.993 -14.195  10.121  1.00  0.00     0.293 HD
ENDBRANCH  18  21
ENDBRANCH   3  13
BRANCH  10  23
ATOM     23  O   UNL     1      10.802 -21.382  15.519  1.00  0.00    -0.507 OA
ATOM     24  H   UNL     1      11.277 -21.745  16.337  1.00  0.00     0.293 HD
ENDBRANCH  10  23
BRANCH  11  25
ATOM     25  O   UNL     1      12.495 -24.429  12.148  1.00  0.00    -0.508 OA
ATOM     26  H   UNL     1      12.815 -24.622  11.206  1.00  0.00     0.293 HD
ENDBRANCH  11  25
ENDBRANCH   1   2
BRANCH   1  27
ATOM     27  C   UNL     1      11.192 -15.760  13.199  1.00  0.00     0.339 C 
ATOM     28  C   UNL     1      10.674 -14.519  12.414  1.00  0.00     0.214 C 
ATOM     29  O   UNL     1      11.036 -15.612  14.605  1.00  0.00    -0.332 OA
ATOM     30  C   UNL     1       9.989 -13.507  13.350  1.00  0.00     0.180 C 
ATOM     31  C   UNL     1       9.672 -15.467  14.976  1.00  0.00     0.179 C 
ATOM     32  C   UNL     1       9.025 -14.193  14.347  1.00  0.00     0.177 C 
BRANCH  28  33
ATOM     33  O   UNL     1      11.727 -13.879  11.740  1.00  0.00    -0.384 OA
ATOM     34  H   UNL     1      11.925 -14.427  10.937  1.00  0.00     0.211 HD
ENDBRANCH  28  33
BRANCH  30  35
ATOM     35  O   UNL     1       9.349 -12.488  12.621  1.00  0.00    -0.387 OA
ATOM     36  H   UNL     1      10.026 -12.074  12.024  1.00  0.00     0.211 HD
ENDBRANCH  30  35
BRANCH  31  37
ATOM     37  C   UNL     1       9.588 -15.450  16.509  1.00  0.00     0.191 C 
BRANCH  37  38
ATOM     38  O   UNL     1      10.763 -15.953  17.084  1.00  0.00    -0.394 OA
ATOM     39  H   UNL     1      11.490 -15.313  16.874  1.00  0.00     0.210 HD
ENDBRANCH  37  38
ENDBRANCH  31  37
BRANCH  32  40
ATOM     40  O   UNL     1       7.797 -14.513  13.739  1.00  0.00    -0.387 OA
ATOM     41  H   UNL     1       7.246 -15.007  14.404  1.00  0.00     0.211 HD
ENDBRANCH  32  40
ENDBRANCH   1  27
TORSDOF 12
ENDMDL
MODEL 9
REMARK VINA RESULT:    -6.297      2.696      5.716
REMARK INTER + INTRA:         -10.719
REMARK INTER:                  -9.118
REMARK INTRA:                  -1.602
REMARK UNBOUND:                -1.477
REMARK SMILES O=c1c(O[C@@H]2O[C@@H](CO)[C@H](O)[C@H](O)[C@H]2O)c(-c2ccc(O)c(O)c2)oc2cc(O)cc(O)c12
REMARK SMILES IDX 4 1 3 2 16 3 25 4 2 5 26 6 1 7 33 8 27 9 31 10 28 11 30 12
REMARK SMILES IDX 17 13 18 14 19 15 20 16 24 17 22 18 21 19 23 21 32 23 29 25
REMARK SMILES IDX 5 27 14 28 6 29 12 30 7 31 10 32 15 33 13 35 8 37 9 38 11 40
REMARK H PARENT 21 20 23 22 32 24 29 26 15 34 13 36 9 39 11 41
REMARK Flexibility Score: inf
ROOT
ATOM      1  O   UNL     1       8.992 -15.604   9.875  1.00  0.00    -0.454 OA
ENDROOT
BRANCH   1   2
ATOM      2  C   UNL     1       7.616 -15.397   9.693  1.00  0.00     0.214 A 
ATOM      3  C   UNL     1       6.809 -15.275  10.841  1.00  0.00     0.180 A 
ATOM      4  O   UNL     1       5.488 -15.281  10.731  1.00  0.00    -0.452 OA
ATOM      5  C   UNL     1       6.995 -15.356   8.430  1.00  0.00     0.239 A 
ATOM      6  C   UNL     1       4.858 -15.320   9.565  1.00  0.00     0.146 A 
ATOM      7  O   UNL     1       7.698 -15.367   7.384  1.00  0.00    -0.285 OA
ATOM      8  C   UNL     1       5.588 -15.300   8.350  1.00  0.00     0.111 A 
ATOM      9  C   UNL     1       3.460 -15.377   9.551  1.00  0.00     0.094 A 
ATOM     10  C   UNL     1       4.880 -15.246   7.127  1.00  0.00     0.134 A 
ATOM     11  C   UNL     1       2.771 -15.400   8.340  1.00  0.00     0.123 A 
ATOM     12  C   UNL     1       3.475 -15.304   7.136  1.00  0.00     0.093 A 
BRANCH   3  13
ATOM     13  C   UNL     1       7.405 -15.176  12.192  1.00  0.00     0.025 A 
ATOM     14  C   UNL     1       7.442 -16.288  13.044  1.00  0.00     0.016 A 
ATOM     15  C   UNL     1       8.026 -16.183  14.309  1.00  0.00     0.051 A 
ATOM     16  C   UNL     1       8.605 -14.981  14.734  1.00  0.00     0.157 A 
ATOM     17  C   UNL     1       8.003 -13.974  12.603  1.00  0.00     0.062 A 
ATOM     18  C   UNL     1       8.613 -13.869  13.858  1.00  0.00     0.158 A 
BRANCH  16  19
ATOM     19  O   UNL     1       9.149 -14.933  16.021  1.00  0.00    -0.504 OA
ATOM     20  H   UNL     1      10.090 -15.227  16.243  1.00  0.00     0.293 HD
ENDBRANCH  16  19
BRANCH  18  21
ATOM     21  O   UNL     1       9.225 -12.660  14.184  1.00  0.00    -0.504 OA
ATOM     22  H   UNL     1       9.646 -12.466  15.080  1.00  0.00     0.293 HD
ENDBRANCH  18  21
ENDBRANCH   3  13
BRANCH  10  23
ATOM     23  O   UNL     1       5.554 -15.129   5.912  1.00  0.00    -0.507 OA
ATOM     24  H   UNL     1       5.060 -15.035   5.033  1.00  0.00     0.293 HD
ENDBRANCH  10  23
BRANCH  11  25
ATOM     25  O   UNL     1       1.380 -15.546   8.347  1.00  0.00    -0.508 OA
ATOM     26  H   UNL     1       0.943 -16.435   8.556  1.00  0.00     0.293 HD
ENDBRANCH  11  25
ENDBRANCH   1   2
BRANCH   1  27
ATOM     27  C   UNL     1       9.682 -16.855   9.824  1.00  0.00     0.339 C 
ATOM     28  C   UNL     1      10.806 -16.779   8.749  1.00  0.00     0.214 C 
ATOM     29  O   UNL     1      10.180 -17.245  11.098  1.00  0.00    -0.332 OA
ATOM     30  C   UNL     1      12.196 -17.003   9.371  1.00  0.00     0.180 C 
ATOM     31  C   UNL     1      11.131 -16.317  11.603  1.00  0.00     0.179 C 
ATOM     32  C   UNL     1      12.386 -16.202  10.681  1.00  0.00     0.177 C 
BRANCH  28  33
ATOM     33  O   UNL     1      10.597 -17.734   7.740  1.00  0.00    -0.384 OA
ATOM     34  H   UNL     1      11.345 -17.637   7.096  1.00  0.00     0.211 HD
ENDBRANCH  28  33
BRANCH  30  35
ATOM     35  O   UNL     1      13.220 -16.740   8.444  1.00  0.00    -0.387 OA
ATOM     36  H   UNL     1      13.372 -15.758   8.433  1.00  0.00     0.211 HD
ENDBRANCH  30  35
BRANCH  31  37
ATOM     37  C   UNL     1      11.510 -16.742  13.029  1.00  0.00     0.191 C 
BRANCH  37  38
ATOM     38  O   UNL     1      12.895 -16.657  13.229  1.00  0.00    -0.394 OA
ATOM     39  H   UNL     1      13.043 -16.050  13.998  1.00  0.00     0.210 HD
ENDBRANCH  37  38
ENDBRANCH  31  37
BRANCH  32  40
ATOM     40  O   UNL     1      12.683 -14.852  10.420  1.00  0.00    -0.387 OA
ATOM     41  H   UNL     1      12.634 -14.356  11.282  1.00  0.00     0.211 HD
ENDBRANCH  32  40
ENDBRANCH   1  27
TORSDOF 12
ENDMDL
