MODEL 1
REMARK VINA RESULT:    -3.812      0.000      0.000
REMARK INTER + INTRA:         -12.217
REMARK INTER:                  -8.268
REMARK INTRA:                  -3.949
REMARK UNBOUND:                -3.949
REMARK SMILES CCCCCCCCCCCCCCCCCCCCCC(=O)[O-]
REMARK SMILES IDX 12 1 11 2 10 3 9 4 8 5 7 6 6 7 5 8 4 9 3 10 2 11 1 12 13 13
REMARK SMILES IDX 14 14 15 15 16 16 17 17 18 18 19 19 20 20 21 21 22 22 23 23
REMARK SMILES IDX 24 24
REMARK H PARENT
REMARK Flexibility Score: inf
ROOT
ATOM      1  C   UNL     1       7.680 -14.786  31.860  1.00  0.00     0.000 C 
ENDROOT
BRANCH   1   2
ATOM      2  C   UNL     1       8.183 -15.448  30.560  1.00  0.00     0.000 C 
BRANCH   2   3
ATOM      3  C   UNL     1       7.903 -16.957  30.443  1.00  0.00     0.000 C 
BRANCH   3   4
ATOM      4  C   UNL     1       7.591 -17.620  31.794  1.00  0.00    -0.000 C 
BRANCH   4   5
ATOM      5  C   UNL     1       8.634 -18.696  32.130  1.00  0.00    -0.000 C 
BRANCH   5   6
ATOM      6  C   UNL     1      10.050 -18.334  31.647  1.00  0.00    -0.000 C 
BRANCH   6   7
ATOM      7  C   UNL     1      10.896 -19.527  31.169  1.00  0.00    -0.000 C 
BRANCH   7   8
ATOM      8  C   UNL     1      10.072 -20.576  30.409  1.00  0.00    -0.000 C 
BRANCH   8   9
ATOM      9  C   UNL     1       9.748 -20.094  28.989  1.00  0.00    -0.000 C 
BRANCH   9  10
ATOM     10  C   UNL     1       8.252 -20.252  28.682  1.00  0.00    -0.000 C 
BRANCH  10  11
ATOM     11  C   UNL     1       7.567 -21.282  29.593  1.00  0.00    -0.003 C 
ATOM     12  C   UNL     1       6.254 -20.767  30.185  1.00  0.00     0.004 C 
ENDBRANCH  10  11
ENDBRANCH   9  10
ENDBRANCH   8   9
ENDBRANCH   7   8
ENDBRANCH   6   7
ENDBRANCH   5   6
ENDBRANCH   4   5
ENDBRANCH   3   4
ENDBRANCH   2   3
ENDBRANCH   1   2
BRANCH   1  13
ATOM     13  C   UNL     1       8.778 -14.212  32.772  1.00  0.00     0.000 C 
BRANCH  13  14
ATOM     14  C   UNL     1      10.216 -14.610  32.393  1.00  0.00     0.000 C 
BRANCH  14  15
ATOM     15  C   UNL     1      11.001 -15.290  33.537  1.00  0.00     0.000 C 
BRANCH  15  16
ATOM     16  C   UNL     1      10.540 -14.830  34.931  1.00  0.00     0.000 C 
BRANCH  16  17
ATOM     17  C   UNL     1      10.124 -15.998  35.841  1.00  0.00     0.000 C 
BRANCH  17  18
ATOM     18  C   UNL     1       9.254 -17.066  35.140  1.00  0.00     0.000 C 
BRANCH  18  19
ATOM     19  C   UNL     1       7.837 -17.242  35.728  1.00  0.00     0.000 C 
BRANCH  19  20
ATOM     20  C   UNL     1       6.778 -16.233  35.237  1.00  0.00     0.006 C 
BRANCH  20  21
ATOM     21  C   UNL     1       6.875 -14.865  35.928  1.00  0.00     0.053 C 
BRANCH  21  22
ATOM     22  C   UNL     1       6.323 -14.938  37.316  1.00  0.00     0.041 C 
ATOM     23  O   UNL     1       6.857 -14.276  38.246  1.00  0.00    -0.550 OA
ATOM     24  O   UNL     1       5.239 -15.763  37.592  1.00  0.00    -0.550 OA
ENDBRANCH  21  22
ENDBRANCH  20  21
ENDBRANCH  19  20
ENDBRANCH  18  19
ENDBRANCH  17  18
ENDBRANCH  16  17
ENDBRANCH  15  16
ENDBRANCH  14  15
ENDBRANCH  13  14
ENDBRANCH   1  13
TORSDOF 20
ENDMDL
MODEL 2
REMARK VINA RESULT:    -3.768      1.331      2.694
REMARK INTER + INTRA:         -12.122
REMARK INTER:                  -9.015
REMARK INTRA:                  -3.107
REMARK UNBOUND:                -3.949
REMARK SMILES CCCCCCCCCCCCCCCCCCCCCC(=O)[O-]
REMARK SMILES IDX 12 1 11 2 10 3 9 4 8 5 7 6 6 7 5 8 4 9 3 10 2 11 1 12 13 13
REMARK SMILES IDX 14 14 15 15 16 16 17 17 18 18 19 19 20 20 21 21 22 22 23 23
REMARK SMILES IDX 24 24
REMARK H PARENT
REMARK Flexibility Score: inf
ROOT
ATOM      1  C   UNL     1       7.366 -17.074  33.783  1.00  0.00     0.000 C 
ENDROOT
BRANCH   1   2
ATOM      2  C   UNL     1       8.160 -17.904  32.753  1.00  0.00     0.000 C 
BRANCH   2   3
ATOM      3  C   UNL     1       8.899 -17.085  31.681  1.00  0.00     0.000 C 
BRANCH   3   4
ATOM      4  C   UNL     1      10.429 -17.206  31.776  1.00  0.00    -0.000 C 
BRANCH   4   5
ATOM      5  C   UNL     1      10.969 -18.164  30.704  1.00  0.00    -0.000 C 
BRANCH   5   6
ATOM      6  C   UNL     1      11.011 -19.630  31.172  1.00  0.00    -0.000 C 
BRANCH   6   7
ATOM      7  C   UNL     1      10.049 -20.574  30.430  1.00  0.00    -0.000 C 
BRANCH   7   8
ATOM      8  C   UNL     1       9.549 -19.991  29.100  1.00  0.00    -0.000 C 
BRANCH   8   9
ATOM      9  C   UNL     1       8.032 -19.764  29.138  1.00  0.00    -0.000 C 
BRANCH   9  10
ATOM     10  C   UNL     1       7.370 -20.640  30.211  1.00  0.00    -0.000 C 
BRANCH  10  11
ATOM     11  C   UNL     1       6.300 -21.578  29.631  1.00  0.00    -0.003 C 
ATOM     12  C   UNL     1       6.876 -22.917  29.168  1.00  0.00     0.004 C 
ENDBRANCH  10  11
ENDBRANCH   9  10
ENDBRANCH   8   9
ENDBRANCH   7   8
ENDBRANCH   6   7
ENDBRANCH   5   6
ENDBRANCH   4   5
ENDBRANCH   3   4
ENDBRANCH   2   3
ENDBRANCH   1   2
BRANCH   1  13
ATOM     13  C   UNL     1       7.885 -17.151  35.230  1.00  0.00     0.000 C 
BRANCH  13  14
ATOM     14  C   UNL     1       9.418 -17.200  35.372  1.00  0.00     0.000 C 
BRANCH  14  15
ATOM     15  C   UNL     1      10.056 -15.848  35.759  1.00  0.00     0.000 C 
BRANCH  15  16
ATOM     16  C   UNL     1      10.576 -15.064  34.541  1.00  0.00     0.000 C 
BRANCH  16  17
ATOM     17  C   UNL     1      10.009 -13.637  34.459  1.00  0.00     0.000 C 
BRANCH  17  18
ATOM     18  C   UNL     1       8.471 -13.576  34.306  1.00  0.00     0.000 C 
BRANCH  18  19
ATOM     19  C   UNL     1       7.751 -12.663  35.322  1.00  0.00     0.000 C 
BRANCH  19  20
ATOM     20  C   UNL     1       7.893 -13.068  36.804  1.00  0.00     0.006 C 
BRANCH  20  21
ATOM     21  C   UNL     1       6.938 -14.195  37.221  1.00  0.00     0.053 C 
BRANCH  21  22
ATOM     22  C   UNL     1       6.363 -13.922  38.575  1.00  0.00     0.041 C 
ATOM     23  O   UNL     1       5.119 -13.787  38.719  1.00  0.00    -0.550 OA
ATOM     24  O   UNL     1       7.204 -13.782  39.673  1.00  0.00    -0.550 OA
ENDBRANCH  21  22
ENDBRANCH  20  21
ENDBRANCH  19  20
ENDBRANCH  18  19
ENDBRANCH  17  18
ENDBRANCH  16  17
ENDBRANCH  15  16
ENDBRANCH  14  15
ENDBRANCH  13  14
ENDBRANCH   1  13
TORSDOF 20
ENDMDL
MODEL 3
REMARK VINA RESULT:    -3.766      1.329      2.461
REMARK INTER + INTRA:         -12.119
REMARK INTER:                  -8.819
REMARK INTRA:                  -3.300
REMARK UNBOUND:                -3.949
REMARK SMILES CCCCCCCCCCCCCCCCCCCCCC(=O)[O-]
REMARK SMILES IDX 12 1 11 2 10 3 9 4 8 5 7 6 6 7 5 8 4 9 3 10 2 11 1 12 13 13
REMARK SMILES IDX 14 14 15 15 16 16 17 17 18 18 19 19 20 20 21 21 22 22 23 23
REMARK SMILES IDX 24 24
REMARK H PARENT
REMARK Flexibility Score: inf
ROOT
ATOM      1  C   UNL     1       7.819 -16.211  30.708  1.00  0.00     0.000 C 
ENDROOT
BRANCH   1   2
ATOM      2  C   UNL     1       9.018 -16.963  30.093  1.00  0.00     0.000 C 
BRANCH   2   3
ATOM      3  C   UNL     1      10.366 -16.731  30.797  1.00  0.00     0.000 C 
BRANCH   3   4
ATOM      4  C   UNL     1      11.153 -18.030  31.038  1.00  0.00    -0.000 C 
BRANCH   4   5
ATOM      5  C   UNL     1      10.210 -19.174  31.441  1.00  0.00    -0.000 C 
BRANCH   5   6
ATOM      6  C   UNL     1      10.485 -20.480  30.674  1.00  0.00    -0.000 C 
BRANCH   6   7
ATOM      7  C   UNL     1       9.886 -20.539  29.259  1.00  0.00    -0.000 C 
BRANCH   7   8
ATOM      8  C   UNL     1       8.641 -21.433  29.175  1.00  0.00    -0.000 C 
BRANCH   8   9
ATOM      9  C   UNL     1       7.372 -20.590  28.992  1.00  0.00    -0.000 C 
BRANCH   9  10
ATOM     10  C   UNL     1       6.434 -20.737  30.199  1.00  0.00    -0.000 C 
BRANCH  10  11
ATOM     11  C   UNL     1       6.581 -19.585  31.204  1.00  0.00    -0.003 C 
ATOM     12  C   UNL     1       5.294 -19.313  31.984  1.00  0.00     0.004 C 
ENDBRANCH  10  11
ENDBRANCH   9  10
ENDBRANCH   8   9
ENDBRANCH   7   8
ENDBRANCH   6   7
ENDBRANCH   5   6
ENDBRANCH   4   5
ENDBRANCH   3   4
ENDBRANCH   2   3
ENDBRANCH   1   2
BRANCH   1  13
ATOM     13  C   UNL     1       8.052 -15.647  32.121  1.00  0.00     0.000 C 
BRANCH  13  14
ATOM     14  C   UNL     1       7.219 -16.311  33.234  1.00  0.00     0.000 C 
BRANCH  14  15
ATOM     15  C   UNL     1       7.955 -17.449  33.974  1.00  0.00     0.000 C 
BRANCH  15  16
ATOM     16  C   UNL     1       9.427 -17.114  34.269  1.00  0.00     0.000 C 
BRANCH  16  17
ATOM     17  C   UNL     1       9.645 -16.566  35.690  1.00  0.00     0.000 C 
BRANCH  17  18
ATOM     18  C   UNL     1      10.232 -15.136  35.731  1.00  0.00     0.000 C 
BRANCH  18  19
ATOM     19  C   UNL     1       9.221 -14.026  36.093  1.00  0.00     0.000 C 
BRANCH  19  20
ATOM     20  C   UNL     1       7.812 -14.509  36.493  1.00  0.00     0.006 C 
BRANCH  20  21
ATOM     21  C   UNL     1       7.334 -13.944  37.837  1.00  0.00     0.053 C 
BRANCH  21  22
ATOM     22  C   UNL     1       6.192 -14.751  38.370  1.00  0.00     0.041 C 
ATOM     23  O   UNL     1       5.358 -15.267  37.580  1.00  0.00    -0.550 OA
ATOM     24  O   UNL     1       6.030 -14.903  39.742  1.00  0.00    -0.550 OA
ENDBRANCH  21  22
ENDBRANCH  20  21
ENDBRANCH  19  20
ENDBRANCH  18  19
ENDBRANCH  17  18
ENDBRANCH  16  17
ENDBRANCH  15  16
ENDBRANCH  14  15
ENDBRANCH  13  14
ENDBRANCH   1  13
TORSDOF 20
ENDMDL
MODEL 4
REMARK VINA RESULT:    -3.714      2.437      3.943
REMARK INTER + INTRA:         -12.006
REMARK INTER:                  -8.909
REMARK INTRA:                  -3.098
REMARK UNBOUND:                -3.949
REMARK SMILES CCCCCCCCCCCCCCCCCCCCCC(=O)[O-]
REMARK SMILES IDX 12 1 11 2 10 3 9 4 8 5 7 6 6 7 5 8 4 9 3 10 2 11 1 12 13 13
REMARK SMILES IDX 14 14 15 15 16 16 17 17 18 18 19 19 20 20 21 21 22 22 23 23
REMARK SMILES IDX 24 24
REMARK H PARENT
REMARK Flexibility Score: inf
ROOT
ATOM      1  C   UNL     1       8.191 -16.826  30.702  1.00  0.00     0.000 C 
ENDROOT
BRANCH   1   2
ATOM      2  C   UNL     1       9.492 -16.259  31.306  1.00  0.00     0.000 C 
BRANCH   2   3
ATOM      3  C   UNL     1      10.564 -17.308  31.655  1.00  0.00     0.000 C 
BRANCH   3   4
ATOM      4  C   UNL     1       9.982 -18.710  31.893  1.00  0.00    -0.000 C 
BRANCH   4   5
ATOM      5  C   UNL     1      10.906 -19.792  31.313  1.00  0.00    -0.000 C 
BRANCH   5   6
ATOM      6  C   UNL     1      10.204 -20.692  30.280  1.00  0.00    -0.000 C 
BRANCH   6   7
ATOM      7  C   UNL     1       9.496 -19.940  29.141  1.00  0.00    -0.000 C 
BRANCH   7   8
ATOM      8  C   UNL     1       8.047 -20.402  28.931  1.00  0.00    -0.000 C 
BRANCH   8   9
ATOM      9  C   UNL     1       7.300 -20.489  30.268  1.00  0.00    -0.000 C 
BRANCH   9  10
ATOM     10  C   UNL     1       6.011 -21.312  30.127  1.00  0.00    -0.000 C 
BRANCH  10  11
ATOM     11  C   UNL     1       6.261 -22.703  29.525  1.00  0.00    -0.003 C 
ATOM     12  C   UNL     1       5.598 -23.823  30.328  1.00  0.00     0.004 C 
ENDBRANCH  10  11
ENDBRANCH   9  10
ENDBRANCH   8   9
ENDBRANCH   7   8
ENDBRANCH   6   7
ENDBRANCH   5   6
ENDBRANCH   4   5
ENDBRANCH   3   4
ENDBRANCH   2   3
ENDBRANCH   1   2
BRANCH   1  13
ATOM     13  C   UNL     1       6.972 -16.818  31.641  1.00  0.00     0.000 C 
BRANCH  13  14
ATOM     14  C   UNL     1       7.242 -16.273  33.056  1.00  0.00     0.000 C 
BRANCH  14  15
ATOM     15  C   UNL     1       6.764 -17.207  34.190  1.00  0.00     0.000 C 
BRANCH  15  16
ATOM     16  C   UNL     1       7.627 -17.096  35.458  1.00  0.00     0.000 C 
BRANCH  16  17
ATOM     17  C   UNL     1       9.125 -17.311  35.186  1.00  0.00     0.000 C 
BRANCH  17  18
ATOM     18  C   UNL     1      10.032 -16.173  35.706  1.00  0.00     0.000 C 
BRANCH  18  19
ATOM     19  C   UNL     1       9.416 -14.759  35.621  1.00  0.00     0.000 C 
BRANCH  19  20
ATOM     20  C   UNL     1      10.090 -13.794  34.623  1.00  0.00     0.006 C 
BRANCH  20  21
ATOM     21  C   UNL     1      11.449 -14.296  34.114  1.00  0.00     0.053 C 
BRANCH  21  22
ATOM     22  C   UNL     1      12.562 -13.496  34.712  1.00  0.00     0.041 C 
ATOM     23  O   UNL     1      12.557 -13.224  35.943  1.00  0.00    -0.550 OA
ATOM     24  O   UNL     1      13.589 -13.022  33.905  1.00  0.00    -0.550 OA
ENDBRANCH  21  22
ENDBRANCH  20  21
ENDBRANCH  19  20
ENDBRANCH  18  19
ENDBRANCH  17  18
ENDBRANCH  16  17
ENDBRANCH  15  16
ENDBRANCH  14  15
ENDBRANCH  13  14
ENDBRANCH   1  13
TORSDOF 20
ENDMDL
MODEL 5
REMARK VINA RESULT:    -3.650      1.994      4.247
REMARK INTER + INTRA:         -11.866
REMARK INTER:                  -8.227
REMARK INTRA:                  -3.639
REMARK UNBOUND:                -3.949
REMARK SMILES CCCCCCCCCCCCCCCCCCCCCC(=O)[O-]
REMARK SMILES IDX 12 1 11 2 10 3 9 4 8 5 7 6 6 7 5 8 4 9 3 10 2 11 1 12 13 13
REMARK SMILES IDX 14 14 15 15 16 16 17 17 18 18 19 19 20 20 21 21 22 22 23 23
REMARK SMILES IDX 24 24
REMARK H PARENT
REMARK Flexibility Score: inf
ROOT
ATOM      1  C   UNL     1       8.927 -20.854  29.690  1.00  0.00     0.000 C 
ENDROOT
BRANCH   1   2
ATOM      2  C   UNL     1      10.320 -20.615  30.307  1.00  0.00     0.000 C 
BRANCH   2   3
ATOM      3  C   UNL     1      10.375 -19.534  31.401  1.00  0.00     0.000 C 
BRANCH   3   4
ATOM      4  C   UNL     1      11.176 -18.291  30.983  1.00  0.00    -0.000 C 
BRANCH   4   5
ATOM      5  C   UNL     1      10.356 -17.011  31.204  1.00  0.00    -0.000 C 
BRANCH   5   6
ATOM      6  C   UNL     1       9.752 -16.450  29.904  1.00  0.00    -0.000 C 
BRANCH   6   7
ATOM      7  C   UNL     1      10.304 -17.076  28.611  1.00  0.00    -0.000 C 
BRANCH   7   8
ATOM      8  C   UNL     1       9.203 -17.652  27.710  1.00  0.00    -0.000 C 
BRANCH   8   9
ATOM      9  C   UNL     1       9.745 -18.798  26.846  1.00  0.00    -0.000 C 
BRANCH   9  10
ATOM     10  C   UNL     1       8.739 -19.187  25.753  1.00  0.00    -0.000 C 
BRANCH  10  11
ATOM     11  C   UNL     1       7.451 -19.796  26.327  1.00  0.00    -0.003 C 
ATOM     12  C   UNL     1       7.439 -21.324  26.261  1.00  0.00     0.004 C 
ENDBRANCH  10  11
ENDBRANCH   9  10
ENDBRANCH   8   9
ENDBRANCH   7   8
ENDBRANCH   6   7
ENDBRANCH   5   6
ENDBRANCH   4   5
ENDBRANCH   3   4
ENDBRANCH   2   3
ENDBRANCH   1   2
BRANCH   1  13
ATOM     13  C   UNL     1       7.741 -20.338  30.524  1.00  0.00     0.000 C 
BRANCH  13  14
ATOM     14  C   UNL     1       7.023 -19.105  29.944  1.00  0.00     0.000 C 
BRANCH  14  15
ATOM     15  C   UNL     1       6.383 -18.191  31.013  1.00  0.00     0.000 C 
BRANCH  15  16
ATOM     16  C   UNL     1       7.056 -18.322  32.390  1.00  0.00     0.000 C 
BRANCH  16  17
ATOM     17  C   UNL     1       7.234 -16.970  33.102  1.00  0.00     0.000 C 
BRANCH  17  18
ATOM     18  C   UNL     1       7.721 -17.087  34.565  1.00  0.00     0.000 C 
BRANCH  18  19
ATOM     19  C   UNL     1       9.243 -17.283  34.732  1.00  0.00     0.000 C 
BRANCH  19  20
ATOM     20  C   UNL     1       9.910 -16.437  35.836  1.00  0.00     0.006 C 
BRANCH  20  21
ATOM     21  C   UNL     1      10.341 -15.043  35.358  1.00  0.00     0.053 C 
BRANCH  21  22
ATOM     22  C   UNL     1       9.457 -13.989  35.945  1.00  0.00     0.041 C 
ATOM     23  O   UNL     1       8.677 -14.273  36.893  1.00  0.00    -0.550 OA
ATOM     24  O   UNL     1       9.471 -12.701  35.424  1.00  0.00    -0.550 OA
ENDBRANCH  21  22
ENDBRANCH  20  21
ENDBRANCH  19  20
ENDBRANCH  18  19
ENDBRANCH  17  18
ENDBRANCH  16  17
ENDBRANCH  15  16
ENDBRANCH  14  15
ENDBRANCH  13  14
ENDBRANCH   1  13
TORSDOF 20
ENDMDL
MODEL 6
REMARK VINA RESULT:    -3.641      2.741      4.190
REMARK INTER + INTRA:         -11.847
REMARK INTER:                  -8.704
REMARK INTRA:                  -3.143
REMARK UNBOUND:                -3.949
REMARK SMILES CCCCCCCCCCCCCCCCCCCCCC(=O)[O-]
REMARK SMILES IDX 12 1 11 2 10 3 9 4 8 5 7 6 6 7 5 8 4 9 3 10 2 11 1 12 13 13
REMARK SMILES IDX 14 14 15 15 16 16 17 17 18 18 19 19 20 20 21 21 22 22 23 23
REMARK SMILES IDX 24 24
REMARK H PARENT
REMARK Flexibility Score: inf
ROOT
ATOM      1  C   UNL     1       7.455 -16.234  32.864  1.00  0.00     0.000 C 
ENDROOT
BRANCH   1   2
ATOM      2  C   UNL     1       8.189 -16.478  31.529  1.00  0.00     0.000 C 
BRANCH   2   3
ATOM      3  C   UNL     1       9.582 -15.833  31.421  1.00  0.00     0.000 C 
BRANCH   3   4
ATOM      4  C   UNL     1      10.699 -16.703  32.016  1.00  0.00    -0.000 C 
BRANCH   4   5
ATOM      5  C   UNL     1      10.995 -17.909  31.111  1.00  0.00    -0.000 C 
BRANCH   5   6
ATOM      6  C   UNL     1      10.331 -19.208  31.603  1.00  0.00    -0.000 C 
BRANCH   6   7
ATOM      7  C   UNL     1      10.243 -20.328  30.551  1.00  0.00    -0.000 C 
BRANCH   7   8
ATOM      8  C   UNL     1       8.800 -20.643  30.135  1.00  0.00    -0.000 C 
BRANCH   8   9
ATOM      9  C   UNL     1       8.738 -21.093  28.670  1.00  0.00    -0.000 C 
BRANCH   9  10
ATOM     10  C   UNL     1       9.752 -20.320  27.813  1.00  0.00    -0.000 C 
BRANCH  10  11
ATOM     11  C   UNL     1       9.152 -19.051  27.190  1.00  0.00    -0.003 C 
ATOM     12  C   UNL     1       9.814 -17.771  27.702  1.00  0.00     0.004 C 
ENDBRANCH  10  11
ENDBRANCH   9  10
ENDBRANCH   8   9
ENDBRANCH   7   8
ENDBRANCH   6   7
ENDBRANCH   5   6
ENDBRANCH   4   5
ENDBRANCH   3   4
ENDBRANCH   2   3
ENDBRANCH   1   2
BRANCH   1  13
ATOM     13  C   UNL     1       7.421 -17.437  33.825  1.00  0.00     0.000 C 
BRANCH  13  14
ATOM     14  C   UNL     1       7.902 -17.141  35.258  1.00  0.00     0.000 C 
BRANCH  14  15
ATOM     15  C   UNL     1       9.439 -17.110  35.409  1.00  0.00     0.000 C 
BRANCH  15  16
ATOM     16  C   UNL     1       9.974 -15.716  35.781  1.00  0.00     0.000 C 
BRANCH  16  17
ATOM     17  C   UNL     1       8.881 -14.778  36.322  1.00  0.00     0.000 C 
BRANCH  17  18
ATOM     18  C   UNL     1       8.708 -13.474  35.509  1.00  0.00     0.000 C 
BRANCH  18  19
ATOM     19  C   UNL     1       9.389 -13.475  34.123  1.00  0.00     0.000 C 
BRANCH  19  20
ATOM     20  C   UNL     1      10.721 -12.703  34.031  1.00  0.00     0.006 C 
BRANCH  20  21
ATOM     21  C   UNL     1      11.923 -13.600  33.703  1.00  0.00     0.053 C 
BRANCH  21  22
ATOM     22  C   UNL     1      13.074 -13.288  34.606  1.00  0.00     0.041 C 
ATOM     23  O   UNL     1      12.897 -13.203  35.851  1.00  0.00    -0.550 OA
ATOM     24  O   UNL     1      14.335 -13.057  34.070  1.00  0.00    -0.550 OA
ENDBRANCH  21  22
ENDBRANCH  20  21
ENDBRANCH  19  20
ENDBRANCH  18  19
ENDBRANCH  17  18
ENDBRANCH  16  17
ENDBRANCH  15  16
ENDBRANCH  14  15
ENDBRANCH  13  14
ENDBRANCH   1  13
TORSDOF 20
ENDMDL
MODEL 7
REMARK VINA RESULT:    -3.634      4.353      8.007
REMARK INTER + INTRA:         -11.831
REMARK INTER:                  -8.190
REMARK INTRA:                  -3.641
REMARK UNBOUND:                -3.949
REMARK SMILES CCCCCCCCCCCCCCCCCCCCCC(=O)[O-]
REMARK SMILES IDX 12 1 11 2 10 3 9 4 8 5 7 6 6 7 5 8 4 9 3 10 2 11 1 12 13 13
REMARK SMILES IDX 14 14 15 15 16 16 17 17 18 18 19 19 20 20 21 21 22 22 23 23
REMARK SMILES IDX 24 24
REMARK H PARENT
REMARK Flexibility Score: inf
ROOT
ATOM      1  C   UNL     1       9.640 -16.412  31.391  1.00  0.00     0.000 C 
ENDROOT
BRANCH   1   2
ATOM      2  C   UNL     1       9.648 -15.297  32.457  1.00  0.00     0.000 C 
BRANCH   2   3
ATOM      3  C   UNL     1      10.701 -15.461  33.568  1.00  0.00     0.000 C 
BRANCH   3   4
ATOM      4  C   UNL     1      10.082 -15.683  34.957  1.00  0.00    -0.000 C 
BRANCH   4   5
ATOM      5  C   UNL     1       9.509 -17.102  35.080  1.00  0.00    -0.000 C 
BRANCH   5   6
ATOM      6  C   UNL     1       8.025 -17.119  35.490  1.00  0.00    -0.000 C 
BRANCH   6   7
ATOM      7  C   UNL     1       7.032 -17.243  34.321  1.00  0.00    -0.000 C 
BRANCH   7   8
ATOM      8  C   UNL     1       6.333 -15.917  33.989  1.00  0.00    -0.000 C 
BRANCH   8   9
ATOM      9  C   UNL     1       6.375 -14.960  35.187  1.00  0.00    -0.000 C 
BRANCH   9  10
ATOM     10  C   UNL     1       6.968 -13.601  34.787  1.00  0.00    -0.000 C 
BRANCH  10  11
ATOM     11  C   UNL     1       7.827 -12.980  35.899  1.00  0.00    -0.003 C 
ATOM     12  C   UNL     1       7.746 -13.759  37.213  1.00  0.00     0.004 C 
ENDBRANCH  10  11
ENDBRANCH   9  10
ENDBRANCH   8   9
ENDBRANCH   7   8
ENDBRANCH   6   7
ENDBRANCH   5   6
ENDBRANCH   4   5
ENDBRANCH   3   4
ENDBRANCH   2   3
ENDBRANCH   1   2
BRANCH   1  13
ATOM     13  C   UNL     1      10.783 -17.437  31.503  1.00  0.00     0.000 C 
BRANCH  13  14
ATOM     14  C   UNL     1      10.333 -18.896  31.707  1.00  0.00     0.000 C 
BRANCH  14  15
ATOM     15  C   UNL     1       8.801 -19.088  31.687  1.00  0.00     0.000 C 
BRANCH  15  16
ATOM     16  C   UNL     1       8.333 -20.037  30.570  1.00  0.00     0.000 C 
BRANCH  16  17
ATOM     17  C   UNL     1       9.490 -20.816  29.920  1.00  0.00     0.000 C 
BRANCH  17  18
ATOM     18  C   UNL     1       9.770 -20.422  28.451  1.00  0.00     0.000 C 
BRANCH  18  19
ATOM     19  C   UNL     1       9.039 -19.151  27.967  1.00  0.00     0.000 C 
BRANCH  19  20
ATOM     20  C   UNL     1       9.908 -17.881  27.853  1.00  0.00     0.006 C 
BRANCH  20  21
ATOM     21  C   UNL     1       9.545 -17.001  26.648  1.00  0.00     0.053 C 
BRANCH  21  22
ATOM     22  C   UNL     1      10.637 -17.034  25.627  1.00  0.00     0.041 C 
ATOM     23  O   UNL     1      10.441 -17.575  24.506  1.00  0.00    -0.550 OA
ATOM     24  O   UNL     1      11.884 -16.496  25.924  1.00  0.00    -0.550 OA
ENDBRANCH  21  22
ENDBRANCH  20  21
ENDBRANCH  19  20
ENDBRANCH  18  19
ENDBRANCH  17  18
ENDBRANCH  16  17
ENDBRANCH  15  16
ENDBRANCH  14  15
ENDBRANCH  13  14
ENDBRANCH   1  13
TORSDOF 20
ENDMDL
MODEL 8
REMARK VINA RESULT:    -3.627      4.154      7.506
REMARK INTER + INTRA:         -11.817
REMARK INTER:                  -8.020
REMARK INTRA:                  -3.797
REMARK UNBOUND:                -3.949
REMARK SMILES CCCCCCCCCCCCCCCCCCCCCC(=O)[O-]
REMARK SMILES IDX 12 1 11 2 10 3 9 4 8 5 7 6 6 7 5 8 4 9 3 10 2 11 1 12 13 13
REMARK SMILES IDX 14 14 15 15 16 16 17 17 18 18 19 19 20 20 21 21 22 22 23 23
REMARK SMILES IDX 24 24
REMARK H PARENT
REMARK Flexibility Score: inf
ROOT
ATOM      1  C   UNL     1       6.775 -19.562  29.835  1.00  0.00     0.000 C 
ENDROOT
BRANCH   1   2
ATOM      2  C   UNL     1       6.180 -18.163  30.098  1.00  0.00     0.000 C 
BRANCH   2   3
ATOM      3  C   UNL     1       6.029 -17.784  31.582  1.00  0.00     0.000 C 
BRANCH   3   4
ATOM      4  C   UNL     1       6.181 -16.277  31.839  1.00  0.00    -0.000 C 
BRANCH   4   5
ATOM      5  C   UNL     1       7.132 -16.016  33.016  1.00  0.00    -0.000 C 
BRANCH   5   6
ATOM      6  C   UNL     1       7.584 -17.307  33.724  1.00  0.00    -0.000 C 
BRANCH   6   7
ATOM      7  C   UNL     1       8.056 -17.118  35.176  1.00  0.00    -0.000 C 
BRANCH   7   8
ATOM      8  C   UNL     1       9.585 -17.061  35.304  1.00  0.00    -0.000 C 
BRANCH   8   9
ATOM      9  C   UNL     1      10.082 -15.610  35.291  1.00  0.00    -0.000 C 
BRANCH   9  10
ATOM     10  C   UNL     1      10.738 -15.264  33.947  1.00  0.00    -0.000 C 
BRANCH  10  11
ATOM     11  C   UNL     1      11.857 -14.220  34.087  1.00  0.00    -0.003 C 
ATOM     12  C   UNL     1      11.840 -13.514  35.443  1.00  0.00     0.004 C 
ENDBRANCH  10  11
ENDBRANCH   9  10
ENDBRANCH   8   9
ENDBRANCH   7   8
ENDBRANCH   6   7
ENDBRANCH   5   6
ENDBRANCH   4   5
ENDBRANCH   3   4
ENDBRANCH   2   3
ENDBRANCH   1   2
BRANCH   1  13
ATOM     13  C   UNL     1       7.897 -19.991  30.799  1.00  0.00     0.000 C 
BRANCH  13  14
ATOM     14  C   UNL     1       9.169 -20.530  30.120  1.00  0.00     0.000 C 
BRANCH  14  15
ATOM     15  C   UNL     1      10.474 -20.195  30.877  1.00  0.00     0.000 C 
BRANCH  15  16
ATOM     16  C   UNL     1      10.365 -18.907  31.711  1.00  0.00     0.000 C 
BRANCH  16  17
ATOM     17  C   UNL     1      10.897 -17.666  30.973  1.00  0.00     0.000 C 
BRANCH  17  18
ATOM     18  C   UNL     1       9.822 -16.593  30.686  1.00  0.00     0.000 C 
BRANCH  18  19
ATOM     19  C   UNL     1       9.301 -16.564  29.232  1.00  0.00     0.000 C 
BRANCH  19  20
ATOM     20  C   UNL     1      10.054 -17.468  28.234  1.00  0.00     0.006 C 
BRANCH  20  21
ATOM     21  C   UNL     1       9.126 -18.189  27.246  1.00  0.00     0.053 C 
BRANCH  21  22
ATOM     22  C   UNL     1       9.911 -19.099  26.356  1.00  0.00     0.041 C 
ATOM     23  O   UNL     1      10.478 -18.644  25.327  1.00  0.00    -0.550 OA
ATOM     24  O   UNL     1       9.987 -20.457  26.643  1.00  0.00    -0.550 OA
ENDBRANCH  21  22
ENDBRANCH  20  21
ENDBRANCH  19  20
ENDBRANCH  18  19
ENDBRANCH  17  18
ENDBRANCH  16  17
ENDBRANCH  15  16
ENDBRANCH  14  15
ENDBRANCH  13  14
ENDBRANCH   1  13
TORSDOF 20
ENDMDL
MODEL 9
REMARK VINA RESULT:    -3.537      1.394      2.291
REMARK INTER + INTRA:         -11.622
REMARK INTER:                  -8.557
REMARK INTRA:                  -3.064
REMARK UNBOUND:                -3.949
REMARK SMILES CCCCCCCCCCCCCCCCCCCCCC(=O)[O-]
REMARK SMILES IDX 12 1 11 2 10 3 9 4 8 5 7 6 6 7 5 8 4 9 3 10 2 11 1 12 13 13
REMARK SMILES IDX 14 14 15 15 16 16 17 17 18 18 19 19 20 20 21 21 22 22 23 23
REMARK SMILES IDX 24 24
REMARK H PARENT
REMARK Flexibility Score: inf
ROOT
ATOM      1  C   UNL     1       8.681 -14.803  32.016  1.00  0.00     0.000 C 
ENDROOT
BRANCH   1   2
ATOM      2  C   UNL     1       8.930 -16.193  31.395  1.00  0.00     0.000 C 
BRANCH   2   3
ATOM      3  C   UNL     1       7.858 -17.251  31.708  1.00  0.00     0.000 C 
BRANCH   3   4
ATOM      4  C   UNL     1       8.447 -18.643  31.988  1.00  0.00    -0.000 C 
BRANCH   4   5
ATOM      5  C   UNL     1       9.982 -18.593  32.014  1.00  0.00    -0.000 C 
BRANCH   5   6
ATOM      6  C   UNL     1      10.635 -19.689  31.153  1.00  0.00    -0.000 C 
BRANCH   6   7
ATOM      7  C   UNL     1       9.652 -20.529  30.320  1.00  0.00    -0.000 C 
BRANCH   7   8
ATOM      8  C   UNL     1       9.953 -20.481  28.815  1.00  0.00    -0.000 C 
BRANCH   8   9
ATOM      9  C   UNL     1       8.765 -19.902  28.036  1.00  0.00    -0.000 C 
BRANCH   9  10
ATOM     10  C   UNL     1       8.642 -18.389  28.266  1.00  0.00    -0.000 C 
BRANCH  10  11
ATOM     11  C   UNL     1       9.932 -17.631  27.920  1.00  0.00    -0.003 C 
ATOM     12  C   UNL     1       9.741 -16.114  27.899  1.00  0.00     0.004 C 
ENDBRANCH  10  11
ENDBRANCH   9  10
ENDBRANCH   8   9
ENDBRANCH   7   8
ENDBRANCH   6   7
ENDBRANCH   5   6
ENDBRANCH   4   5
ENDBRANCH   3   4
ENDBRANCH   2   3
ENDBRANCH   1   2
BRANCH   1  13
ATOM     13  C   UNL     1       9.855 -14.223  32.824  1.00  0.00     0.000 C 
BRANCH  13  14
ATOM     14  C   UNL     1      10.576 -15.229  33.741  1.00  0.00     0.000 C 
BRANCH  14  15
ATOM     15  C   UNL     1      10.429 -14.920  35.247  1.00  0.00     0.000 C 
BRANCH  15  16
ATOM     16  C   UNL     1      10.032 -16.156  36.073  1.00  0.00     0.000 C 
BRANCH  16  17
ATOM     17  C   UNL     1       9.077 -17.099  35.322  1.00  0.00     0.000 C 
BRANCH  17  18
ATOM     18  C   UNL     1       7.655 -16.527  35.120  1.00  0.00     0.000 C 
BRANCH  18  19
ATOM     19  C   UNL     1       6.769 -16.521  36.385  1.00  0.00     0.000 C 
BRANCH  19  20
ATOM     20  C   UNL     1       6.281 -15.135  36.854  1.00  0.00     0.006 C 
BRANCH  20  21
ATOM     21  C   UNL     1       4.793 -15.107  37.227  1.00  0.00     0.053 C 
BRANCH  21  22
ATOM     22  C   UNL     1       4.593 -14.425  38.543  1.00  0.00     0.041 C 
ATOM     23  O   UNL     1       5.575 -13.927  39.154  1.00  0.00    -0.550 OA
ATOM     24  O   UNL     1       3.326 -14.370  39.112  1.00  0.00    -0.550 OA
ENDBRANCH  21  22
ENDBRANCH  20  21
ENDBRANCH  19  20
ENDBRANCH  18  19
ENDBRANCH  17  18
ENDBRANCH  16  17
ENDBRANCH  15  16
ENDBRANCH  14  15
ENDBRANCH  13  14
ENDBRANCH   1  13
TORSDOF 20
ENDMDL
