MODEL 1
REMARK VINA RESULT:     2.557      0.000      0.000
REMARK INTER + INTRA:           3.847
REMARK INTER:                   4.799
REMARK INTRA:                  -0.951
REMARK UNBOUND:                -0.951
REMARK SMILES CCCCCCCCC=CCCCCCCCC(=O)[O-]
REMARK SMILES IDX 10 1 9 2 11 3 12 4 13 5 14 6 15 7 16 8 17 9 18 10 19 11
REMARK SMILES IDX 20 12 8 13 7 14 6 15 5 16 4 17 3 18 2 19 1 20
REMARK H PARENT
REMARK Flexibility Score: inf
ROOT
ATOM      1  C   UNL     1     -14.162 -16.297  15.634  1.00  0.00    -0.031 C 
ATOM      2  C   UNL     1     -13.115 -15.491  15.892  1.00  0.00    -0.031 C 
ENDROOT
BRANCH   1   3
ATOM      3  C   UNL     1     -15.522 -15.819  15.191  1.00  0.00     0.027 C 
BRANCH   3   4
ATOM      4  C   UNL     1     -15.719 -16.061  13.688  1.00  0.00     0.004 C 
BRANCH   4   5
ATOM      5  C   UNL     1     -16.255 -14.822  12.952  1.00  0.00     0.000 C 
BRANCH   5   6
ATOM      6  C   UNL     1     -16.336 -13.583  13.861  1.00  0.00     0.000 C 
BRANCH   6   7
ATOM      7  C   UNL     1     -17.774 -13.070  14.032  1.00  0.00     0.000 C 
BRANCH   7   8
ATOM      8  C   UNL     1     -18.821 -14.192  13.937  1.00  0.00     0.006 C 
BRANCH   8   9
ATOM      9  C   UNL     1     -20.183 -13.714  14.448  1.00  0.00     0.053 C 
BRANCH   9  10
ATOM     10  C   UNL     1     -20.314 -13.975  15.915  1.00  0.00     0.041 C 
ATOM     11  O   UNL     1     -21.442 -13.914  16.470  1.00  0.00    -0.550 OA
ATOM     12  O   UNL     1     -19.183 -14.236  16.679  1.00  0.00    -0.550 OA
ENDBRANCH   9  10
ENDBRANCH   8   9
ENDBRANCH   7   8
ENDBRANCH   6   7
ENDBRANCH   5   6
ENDBRANCH   4   5
ENDBRANCH   3   4
ENDBRANCH   1   3
BRANCH   2  13
ATOM     13  C   UNL     1     -13.167 -13.982  15.868  1.00  0.00     0.027 C 
BRANCH  13  14
ATOM     14  C   UNL     1     -11.824 -13.351  16.271  1.00  0.00     0.004 C 
BRANCH  14  15
ATOM     15  C   UNL     1     -10.852 -13.117  15.097  1.00  0.00     0.000 C 
BRANCH  15  16
ATOM     16  C   UNL     1     -10.262 -14.396  14.469  1.00  0.00     0.000 C 
BRANCH  16  17
ATOM     17  C   UNL     1      -9.006 -14.178  13.605  1.00  0.00    -0.000 C 
BRANCH  17  18
ATOM     18  C   UNL     1      -7.701 -14.419  14.379  1.00  0.00    -0.000 C 
BRANCH  18  19
ATOM     19  C   UNL     1      -7.458 -15.917  14.592  1.00  0.00    -0.003 C 
ATOM     20  C   UNL     1      -7.037 -16.598  13.293  1.00  0.00     0.004 C 
ENDBRANCH  18  19
ENDBRANCH  17  18
ENDBRANCH  16  17
ENDBRANCH  15  16
ENDBRANCH  14  15
ENDBRANCH  13  14
ENDBRANCH   2  13
TORSDOF 15
ENDMDL
MODEL 2
REMARK VINA RESULT:     2.637      4.074      9.215
REMARK INTER + INTRA:           3.998
REMARK INTER:                   4.607
REMARK INTRA:                  -0.609
REMARK UNBOUND:                -0.951
REMARK SMILES CCCCCCCCC=CCCCCCCCC(=O)[O-]
REMARK SMILES IDX 10 1 9 2 11 3 12 4 13 5 14 6 15 7 16 8 17 9 18 10 19 11
REMARK SMILES IDX 20 12 8 13 7 14 6 15 5 16 4 17 3 18 2 19 1 20
REMARK H PARENT
REMARK Flexibility Score: inf
ROOT
ATOM      1  C   UNL     1     -14.412 -15.943  15.670  1.00  0.00    -0.031 C 
ATOM      2  C   UNL     1     -15.395 -16.379  14.859  1.00  0.00    -0.031 C 
ENDROOT
BRANCH   1   3
ATOM      3  C   UNL     1     -13.238 -15.111  15.220  1.00  0.00     0.027 C 
BRANCH   3   4
ATOM      4  C   UNL     1     -12.534 -14.470  16.425  1.00  0.00     0.004 C 
BRANCH   4   5
ATOM      5  C   UNL     1     -12.125 -13.011  16.167  1.00  0.00     0.000 C 
BRANCH   5   6
ATOM      6  C   UNL     1     -11.053 -12.881  15.072  1.00  0.00     0.000 C 
BRANCH   6   7
ATOM      7  C   UNL     1     -10.221 -14.162  14.906  1.00  0.00     0.000 C 
BRANCH   7   8
ATOM      8  C   UNL     1      -9.181 -14.054  13.780  1.00  0.00     0.006 C 
BRANCH   8   9
ATOM      9  C   UNL     1      -7.771 -14.332  14.309  1.00  0.00     0.053 C 
BRANCH   9  10
ATOM     10  C   UNL     1      -7.556 -15.802  14.481  1.00  0.00     0.041 C 
ATOM     11  O   UNL     1      -8.181 -16.622  13.760  1.00  0.00    -0.550 OA
ATOM     12  O   UNL     1      -6.701 -16.269  15.472  1.00  0.00    -0.550 OA
ENDBRANCH   9  10
ENDBRANCH   8   9
ENDBRANCH   7   8
ENDBRANCH   6   7
ENDBRANCH   5   6
ENDBRANCH   4   5
ENDBRANCH   3   4
ENDBRANCH   1   3
BRANCH   2  13
ATOM     13  C   UNL     1     -15.426 -16.181  13.363  1.00  0.00     0.027 C 
BRANCH  13  14
ATOM     14  C   UNL     1     -16.287 -14.973  12.957  1.00  0.00     0.004 C 
BRANCH  14  15
ATOM     15  C   UNL     1     -16.480 -13.925  14.070  1.00  0.00     0.000 C 
BRANCH  15  16
ATOM     16  C   UNL     1     -17.873 -13.265  14.117  1.00  0.00     0.000 C 
BRANCH  16  17
ATOM     17  C   UNL     1     -19.023 -14.131  13.569  1.00  0.00    -0.000 C 
BRANCH  17  18
ATOM     18  C   UNL     1     -20.282 -14.075  14.446  1.00  0.00    -0.000 C 
BRANCH  18  19
ATOM     19  C   UNL     1     -19.915 -14.084  15.934  1.00  0.00    -0.003 C 
ATOM     20  C   UNL     1     -20.972 -13.365  16.768  1.00  0.00     0.004 C 
ENDBRANCH  18  19
ENDBRANCH  17  18
ENDBRANCH  16  17
ENDBRANCH  15  16
ENDBRANCH  14  15
ENDBRANCH  13  14
ENDBRANCH   2  13
TORSDOF 15
ENDMDL
MODEL 3
REMARK VINA RESULT:     2.967      0.559      1.117
REMARK INTER + INTRA:           4.617
REMARK INTER:                   5.582
REMARK INTRA:                  -0.965
REMARK UNBOUND:                -0.951
REMARK SMILES CCCCCCCCC=CCCCCCCCC(=O)[O-]
REMARK SMILES IDX 10 1 9 2 11 3 12 4 13 5 14 6 15 7 16 8 17 9 18 10 19 11
REMARK SMILES IDX 20 12 8 13 7 14 6 15 5 16 4 17 3 18 2 19 1 20
REMARK H PARENT
REMARK Flexibility Score: inf
ROOT
ATOM      1  C   UNL     1     -15.136 -16.223  15.335  1.00  0.00    -0.031 C 
ATOM      2  C   UNL     1     -14.077 -15.899  16.101  1.00  0.00    -0.031 C 
ENDROOT
BRANCH   1   3
ATOM      3  C   UNL     1     -15.124 -16.258  13.828  1.00  0.00     0.027 C 
BRANCH   3   4
ATOM      4  C   UNL     1     -15.886 -15.055  13.252  1.00  0.00     0.004 C 
BRANCH   4   5
ATOM      5  C   UNL     1     -16.421 -14.113  14.342  1.00  0.00     0.000 C 
BRANCH   5   6
ATOM      6  C   UNL     1     -16.945 -12.784  13.770  1.00  0.00     0.000 C 
BRANCH   6   7
ATOM      7  C   UNL     1     -18.478 -12.738  13.693  1.00  0.00     0.000 C 
BRANCH   7   8
ATOM      8  C   UNL     1     -19.124 -14.122  13.864  1.00  0.00     0.006 C 
BRANCH   8   9
ATOM      9  C   UNL     1     -20.485 -14.009  14.557  1.00  0.00     0.053 C 
BRANCH   9  10
ATOM     10  C   UNL     1     -20.311 -13.896  16.039  1.00  0.00     0.041 C 
ATOM     11  O   UNL     1     -19.258 -14.315  16.586  1.00  0.00    -0.550 OA
ATOM     12  O   UNL     1     -21.333 -13.371  16.821  1.00  0.00    -0.550 OA
ENDBRANCH   9  10
ENDBRANCH   8   9
ENDBRANCH   7   8
ENDBRANCH   6   7
ENDBRANCH   5   6
ENDBRANCH   4   5
ENDBRANCH   3   4
ENDBRANCH   1   3
BRANCH   2  13
ATOM     13  C   UNL     1     -12.744 -15.431  15.569  1.00  0.00     0.027 C 
BRANCH  13  14
ATOM     14  C   UNL     1     -12.466 -13.959  15.918  1.00  0.00     0.004 C 
BRANCH  14  15
ATOM     15  C   UNL     1     -11.074 -13.454  15.487  1.00  0.00     0.000 C 
BRANCH  15  16
ATOM     16  C   UNL     1     -10.334 -14.354  14.476  1.00  0.00     0.000 C 
BRANCH  16  17
ATOM     17  C   UNL     1      -9.001 -13.786  13.954  1.00  0.00    -0.000 C 
BRANCH  17  18
ATOM     18  C   UNL     1      -7.779 -14.551  14.483  1.00  0.00    -0.000 C 
BRANCH  18  19
ATOM     19  C   UNL     1      -7.918 -16.055  14.221  1.00  0.00    -0.003 C 
ATOM     20  C   UNL     1      -6.669 -16.615  13.545  1.00  0.00     0.004 C 
ENDBRANCH  18  19
ENDBRANCH  17  18
ENDBRANCH  16  17
ENDBRANCH  15  16
ENDBRANCH  14  15
ENDBRANCH  13  14
ENDBRANCH   2  13
TORSDOF 15
ENDMDL
MODEL 4
REMARK VINA RESULT:     3.729      4.242      8.990
REMARK INTER + INTRA:           6.048
REMARK INTER:                   6.469
REMARK INTRA:                  -0.422
REMARK UNBOUND:                -0.951
REMARK SMILES CCCCCCCCC=CCCCCCCCC(=O)[O-]
REMARK SMILES IDX 10 1 9 2 11 3 12 4 13 5 14 6 15 7 16 8 17 9 18 10 19 11
REMARK SMILES IDX 20 12 8 13 7 14 6 15 5 16 4 17 3 18 2 19 1 20
REMARK H PARENT
REMARK Flexibility Score: inf
ROOT
ATOM      1  C   UNL     1     -14.959 -16.012  15.092  1.00  0.00    -0.031 C 
ATOM      2  C   UNL     1     -15.796 -16.298  14.077  1.00  0.00    -0.031 C 
ENDROOT
BRANCH   1   3
ATOM      3  C   UNL     1     -13.869 -14.973  15.034  1.00  0.00     0.027 C 
BRANCH   3   4
ATOM      4  C   UNL     1     -12.709 -15.350  15.968  1.00  0.00     0.004 C 
BRANCH   4   5
ATOM      5  C   UNL     1     -12.265 -14.184  16.865  1.00  0.00     0.000 C 
BRANCH   5   6
ATOM      6  C   UNL     1     -12.179 -12.850  16.103  1.00  0.00     0.000 C 
BRANCH   6   7
ATOM      7  C   UNL     1     -11.372 -12.965  14.801  1.00  0.00     0.000 C 
BRANCH   7   8
ATOM      8  C   UNL     1      -9.930 -13.441  15.037  1.00  0.00     0.006 C 
BRANCH   8   9
ATOM      9  C   UNL     1      -9.564 -14.576  14.076  1.00  0.00     0.053 C 
BRANCH   9  10
ATOM     10  C   UNL     1      -8.092 -14.840  14.112  1.00  0.00     0.041 C 
ATOM     11  O   UNL     1      -7.276 -13.881  14.099  1.00  0.00    -0.550 OA
ATOM     12  O   UNL     1      -7.619 -16.146  14.111  1.00  0.00    -0.550 OA
ENDBRANCH   9  10
ENDBRANCH   8   9
ENDBRANCH   7   8
ENDBRANCH   6   7
ENDBRANCH   5   6
ENDBRANCH   4   5
ENDBRANCH   3   4
ENDBRANCH   1   3
BRANCH   2  13
ATOM     13  C   UNL     1     -15.715 -15.689  12.698  1.00  0.00     0.027 C 
BRANCH  13  14
ATOM     14  C   UNL     1     -16.473 -14.354  12.609  1.00  0.00     0.004 C 
BRANCH  14  15
ATOM     15  C   UNL     1     -16.569 -13.586  13.942  1.00  0.00     0.000 C 
BRANCH  15  16
ATOM     16  C   UNL     1     -18.003 -13.281  14.421  1.00  0.00     0.000 C 
BRANCH  16  17
ATOM     17  C   UNL     1     -19.112 -14.071  13.703  1.00  0.00    -0.000 C 
BRANCH  17  18
ATOM     18  C   UNL     1     -20.293 -14.413  14.624  1.00  0.00    -0.000 C 
BRANCH  18  19
ATOM     19  C   UNL     1     -19.967 -14.071  16.082  1.00  0.00    -0.003 C 
ATOM     20  C   UNL     1     -20.989 -13.097  16.662  1.00  0.00     0.004 C 
ENDBRANCH  18  19
ENDBRANCH  17  18
ENDBRANCH  16  17
ENDBRANCH  15  16
ENDBRANCH  14  15
ENDBRANCH  13  14
ENDBRANCH   2  13
TORSDOF 15
ENDMDL
MODEL 5
REMARK VINA RESULT:     4.533      2.359      4.813
REMARK INTER + INTRA:           7.556
REMARK INTER:                   9.304
REMARK INTRA:                  -1.748
REMARK UNBOUND:                -0.951
REMARK SMILES CCCCCCCCC=CCCCCCCCC(=O)[O-]
REMARK SMILES IDX 10 1 9 2 11 3 12 4 13 5 14 6 15 7 16 8 17 9 18 10 19 11
REMARK SMILES IDX 20 12 8 13 7 14 6 15 5 16 4 17 3 18 2 19 1 20
REMARK H PARENT
REMARK Flexibility Score: inf
ROOT
ATOM      1  C   UNL     1     -11.744 -12.972  15.972  1.00  0.00    -0.031 C 
ATOM      2  C   UNL     1     -11.878 -14.302  15.804  1.00  0.00    -0.031 C 
ENDROOT
BRANCH   1   3
ATOM      3  C   UNL     1     -12.838 -12.057  16.460  1.00  0.00     0.027 C 
BRANCH   3   4
ATOM      4  C   UNL     1     -13.391 -11.209  15.306  1.00  0.00     0.004 C 
BRANCH   4   5
ATOM      5  C   UNL     1     -14.928 -11.189  15.266  1.00  0.00     0.000 C 
BRANCH   5   6
ATOM      6  C   UNL     1     -15.510 -12.293  14.366  1.00  0.00     0.000 C 
BRANCH   6   7
ATOM      7  C   UNL     1     -16.997 -12.073  14.050  1.00  0.00     0.000 C 
BRANCH   7   8
ATOM      8  C   UNL     1     -17.743 -13.384  13.757  1.00  0.00     0.006 C 
BRANCH   8   9
ATOM      9  C   UNL     1     -18.336 -13.975  15.039  1.00  0.00     0.053 C 
BRANCH   9  10
ATOM     10  C   UNL     1     -19.829 -14.028  14.951  1.00  0.00     0.041 C 
ATOM     11  O   UNL     1     -20.519 -14.198  15.990  1.00  0.00    -0.550 OA
ATOM     12  O   UNL     1     -20.457 -13.937  13.714  1.00  0.00    -0.550 OA
ENDBRANCH   9  10
ENDBRANCH   8   9
ENDBRANCH   7   8
ENDBRANCH   6   7
ENDBRANCH   5   6
ENDBRANCH   4   5
ENDBRANCH   3   4
ENDBRANCH   1   3
BRANCH   2  13
ATOM     13  C   UNL     1     -13.167 -15.065  15.990  1.00  0.00     0.027 C 
BRANCH  13  14
ATOM     14  C   UNL     1     -13.834 -15.412  14.648  1.00  0.00     0.004 C 
BRANCH  14  15
ATOM     15  C   UNL     1     -15.284 -15.921  14.770  1.00  0.00     0.000 C 
BRANCH  15  16
ATOM     16  C   UNL     1     -15.914 -16.429  13.457  1.00  0.00     0.000 C 
BRANCH  16  17
ATOM     17  C   UNL     1     -15.669 -15.534  12.228  1.00  0.00    -0.000 C 
BRANCH  17  18
ATOM     18  C   UNL     1     -15.010 -16.287  11.063  1.00  0.00    -0.000 C 
BRANCH  18  19
ATOM     19  C   UNL     1     -14.255 -15.323  10.143  1.00  0.00    -0.003 C 
ATOM     20  C   UNL     1     -15.076 -14.985   8.902  1.00  0.00     0.004 C 
ENDBRANCH  18  19
ENDBRANCH  17  18
ENDBRANCH  16  17
ENDBRANCH  15  16
ENDBRANCH  14  15
ENDBRANCH  13  14
ENDBRANCH   2  13
TORSDOF 15
ENDMDL
MODEL 6
REMARK VINA RESULT:     5.361      0.975      1.628
REMARK INTER + INTRA:           9.110
REMARK INTER:                   9.561
REMARK INTRA:                  -0.451
REMARK UNBOUND:                -0.951
REMARK SMILES CCCCCCCCC=CCCCCCCCC(=O)[O-]
REMARK SMILES IDX 10 1 9 2 11 3 12 4 13 5 14 6 15 7 16 8 17 9 18 10 19 11
REMARK SMILES IDX 20 12 8 13 7 14 6 15 5 16 4 17 3 18 2 19 1 20
REMARK H PARENT
REMARK Flexibility Score: inf
ROOT
ATOM      1  C   UNL     1     -14.126 -14.050  15.444  1.00  0.00    -0.031 C 
ATOM      2  C   UNL     1     -13.289 -13.123  15.946  1.00  0.00    -0.031 C 
ENDROOT
BRANCH   1   3
ATOM      3  C   UNL     1     -13.850 -15.532  15.427  1.00  0.00     0.027 C 
BRANCH   3   4
ATOM      4  C   UNL     1     -15.026 -16.295  14.800  1.00  0.00     0.004 C 
BRANCH   4   5
ATOM      5  C   UNL     1     -15.147 -16.062  13.286  1.00  0.00     0.000 C 
BRANCH   5   6
ATOM      6  C   UNL     1     -16.358 -15.188  12.917  1.00  0.00     0.000 C 
BRANCH   6   7
ATOM      7  C   UNL     1     -16.401 -13.873  13.710  1.00  0.00     0.000 C 
BRANCH   7   8
ATOM      8  C   UNL     1     -17.818 -13.290  13.819  1.00  0.00     0.006 C 
BRANCH   8   9
ATOM      9  C   UNL     1     -18.458 -13.653  15.162  1.00  0.00     0.053 C 
BRANCH   9  10
ATOM     10  C   UNL     1     -19.864 -14.123  14.963  1.00  0.00     0.041 C 
ATOM     11  O   UNL     1     -20.337 -14.230  13.802  1.00  0.00    -0.550 OA
ATOM     12  O   UNL     1     -20.668 -14.396  16.063  1.00  0.00    -0.550 OA
ENDBRANCH   9  10
ENDBRANCH   8   9
ENDBRANCH   7   8
ENDBRANCH   6   7
ENDBRANCH   5   6
ENDBRANCH   4   5
ENDBRANCH   3   4
ENDBRANCH   1   3
BRANCH   2  13
ATOM     13  C   UNL     1     -11.908 -13.413  16.484  1.00  0.00     0.027 C 
BRANCH  13  14
ATOM     14  C   UNL     1     -10.821 -13.246  15.409  1.00  0.00     0.004 C 
BRANCH  14  15
ATOM     15  C   UNL     1     -10.732 -14.414  14.407  1.00  0.00     0.000 C 
BRANCH  15  16
ATOM     16  C   UNL     1      -9.393 -14.529  13.651  1.00  0.00     0.000 C 
BRANCH  16  17
ATOM     17  C   UNL     1      -8.159 -14.043  14.433  1.00  0.00    -0.000 C 
BRANCH  17  18
ATOM     18  C   UNL     1      -7.008 -15.060  14.424  1.00  0.00    -0.000 C 
BRANCH  18  19
ATOM     19  C   UNL     1      -7.508 -16.448  14.009  1.00  0.00    -0.003 C 
ATOM     20  C   UNL     1      -6.634 -17.043  12.907  1.00  0.00     0.004 C 
ENDBRANCH  18  19
ENDBRANCH  17  18
ENDBRANCH  16  17
ENDBRANCH  15  16
ENDBRANCH  14  15
ENDBRANCH  13  14
ENDBRANCH   2  13
TORSDOF 15
ENDMDL
