MODEL 1
REMARK VINA RESULT:     6.041      0.000      0.000
REMARK INTER + INTRA:          13.652
REMARK INTER:                  13.810
REMARK INTRA:                  -0.158
REMARK UNBOUND:                -0.158
REMARK SMILES CCCCCCCCCCCCCCCCCCCCCCCC(=O)[O-]
REMARK SMILES IDX 13 1 14 2 15 3 16 4 17 5 18 6 19 7 20 8 21 9 22 10 23 11
REMARK SMILES IDX 24 12 25 13 26 14 12 15 11 16 10 17 9 18 8 19 7 20 6 21 5 22
REMARK SMILES IDX 4 23 3 24 2 25 1 26
REMARK H PARENT
REMARK Flexibility Score: inf
ROOT
ATOM      1  C   UNL     1     -25.294  -3.839 -26.871  1.00  0.00     0.000 C 
ENDROOT
BRANCH   1   2
ATOM      2  C   UNL     1     -24.274  -3.161 -25.938  1.00  0.00     0.000 C 
BRANCH   2   3
ATOM      3  C   UNL     1     -23.143  -2.461 -26.721  1.00  0.00     0.000 C 
BRANCH   3   4
ATOM      4  C   UNL     1     -23.259  -0.927 -26.731  1.00  0.00     0.000 C 
BRANCH   4   5
ATOM      5  C   UNL     1     -23.416  -0.348 -28.146  1.00  0.00     0.000 C 
BRANCH   5   6
ATOM      6  C   UNL     1     -22.420   0.798 -28.420  1.00  0.00     0.000 C 
BRANCH   6   7
ATOM      7  C   UNL     1     -21.707   1.313 -27.157  1.00  0.00     0.000 C 
BRANCH   7   8
ATOM      8  C   UNL     1     -22.521   2.383 -26.411  1.00  0.00     0.000 C 
BRANCH   8   9
ATOM      9  C   UNL     1     -22.030   3.814 -26.689  1.00  0.00     0.000 C 
BRANCH   9  10
ATOM     10  C   UNL     1     -22.064   4.252 -28.167  1.00  0.00     0.006 C 
BRANCH  10  11
ATOM     11  C   UNL     1     -20.868   5.121 -28.596  1.00  0.00     0.053 C 
BRANCH  11  12
ATOM     12  C   UNL     1     -19.628   4.816 -27.807  1.00  0.00     0.041 C 
ATOM     13  O   UNL     1     -19.710   4.545 -26.579  1.00  0.00    -0.550 OA
ATOM     14  O   UNL     1     -18.381   4.876 -28.416  1.00  0.00    -0.550 OA
ENDBRANCH  11  12
ENDBRANCH  10  11
ENDBRANCH   9  10
ENDBRANCH   8   9
ENDBRANCH   7   8
ENDBRANCH   6   7
ENDBRANCH   5   6
ENDBRANCH   4   5
ENDBRANCH   3   4
ENDBRANCH   2   3
ENDBRANCH   1   2
BRANCH   1  15
ATOM     15  C   UNL     1     -26.603  -3.030 -27.011  1.00  0.00     0.000 C 
BRANCH  15  16
ATOM     16  C   UNL     1     -26.939  -2.631 -28.460  1.00  0.00     0.000 C 
BRANCH  16  17
ATOM     17  C   UNL     1     -28.442  -2.540 -28.783  1.00  0.00     0.000 C 
BRANCH  17  18
ATOM     18  C   UNL     1     -29.367  -2.438 -27.557  1.00  0.00    -0.000 C 
BRANCH  18  19
ATOM     19  C   UNL     1     -30.840  -2.723 -27.891  1.00  0.00    -0.000 C 
BRANCH  19  20
ATOM     20  C   UNL     1     -31.754  -2.303 -26.729  1.00  0.00    -0.000 C 
BRANCH  20  21
ATOM     21  C   UNL     1     -31.689  -0.794 -26.444  1.00  0.00    -0.000 C 
BRANCH  21  22
ATOM     22  C   UNL     1     -31.103  -0.480 -25.056  1.00  0.00    -0.000 C 
BRANCH  22  23
ATOM     23  C   UNL     1     -31.000   1.031 -24.780  1.00  0.00    -0.000 C 
BRANCH  23  24
ATOM     24  C   UNL     1     -31.334   1.932 -25.982  1.00  0.00    -0.000 C 
BRANCH  24  25
ATOM     25  C   UNL     1     -30.805   3.365 -25.820  1.00  0.00    -0.003 C 
ATOM     26  C   UNL     1     -30.734   4.079 -27.166  1.00  0.00     0.004 C 
ENDBRANCH  24  25
ENDBRANCH  23  24
ENDBRANCH  22  23
ENDBRANCH  21  22
ENDBRANCH  20  21
ENDBRANCH  19  20
ENDBRANCH  18  19
ENDBRANCH  17  18
ENDBRANCH  16  17
ENDBRANCH  15  16
ENDBRANCH   1  15
TORSDOF 22
ENDMDL
MODEL 2
REMARK VINA RESULT:     6.463      3.416      9.431
REMARK INTER + INTRA:          14.616
REMARK INTER:                  15.078
REMARK INTRA:                  -0.462
REMARK UNBOUND:                -0.158
REMARK SMILES CCCCCCCCCCCCCCCCCCCCCCCC(=O)[O-]
REMARK SMILES IDX 13 1 14 2 15 3 16 4 17 5 18 6 19 7 20 8 21 9 22 10 23 11
REMARK SMILES IDX 24 12 25 13 26 14 12 15 11 16 10 17 9 18 8 19 7 20 6 21 5 22
REMARK SMILES IDX 4 23 3 24 2 25 1 26
REMARK H PARENT
REMARK Flexibility Score: inf
ROOT
ATOM      1  C   UNL     1     -25.129  -3.850 -26.558  1.00  0.00     0.000 C 
ENDROOT
BRANCH   1   2
ATOM      2  C   UNL     1     -26.517  -3.186 -26.599  1.00  0.00     0.000 C 
BRANCH   2   3
ATOM      3  C   UNL     1     -27.082  -3.105 -28.033  1.00  0.00     0.000 C 
BRANCH   3   4
ATOM      4  C   UNL     1     -28.151  -2.013 -28.213  1.00  0.00     0.000 C 
BRANCH   4   5
ATOM      5  C   UNL     1     -29.579  -2.529 -27.976  1.00  0.00     0.000 C 
BRANCH   5   6
ATOM      6  C   UNL     1     -30.118  -2.132 -26.586  1.00  0.00     0.000 C 
BRANCH   6   7
ATOM      7  C   UNL     1     -31.646  -1.954 -26.543  1.00  0.00     0.000 C 
BRANCH   7   8
ATOM      8  C   UNL     1     -32.124  -0.742 -27.360  1.00  0.00     0.000 C 
BRANCH   8   9
ATOM      9  C   UNL     1     -31.403   0.562 -26.978  1.00  0.00     0.000 C 
BRANCH   9  10
ATOM     10  C   UNL     1     -31.780   1.150 -25.603  1.00  0.00     0.006 C 
BRANCH  10  11
ATOM     11  C   UNL     1     -31.377   2.624 -25.415  1.00  0.00     0.053 C 
BRANCH  11  12
ATOM     12  C   UNL     1     -31.401   3.392 -26.704  1.00  0.00     0.041 C 
ATOM     13  O   UNL     1     -30.829   4.512 -26.785  1.00  0.00    -0.550 OA
ATOM     14  O   UNL     1     -32.094   2.895 -27.800  1.00  0.00    -0.550 OA
ENDBRANCH  11  12
ENDBRANCH  10  11
ENDBRANCH   9  10
ENDBRANCH   8   9
ENDBRANCH   7   8
ENDBRANCH   6   7
ENDBRANCH   5   6
ENDBRANCH   4   5
ENDBRANCH   3   4
ENDBRANCH   2   3
ENDBRANCH   1   2
BRANCH   1  15
ATOM     15  C   UNL     1     -23.982  -2.827 -26.402  1.00  0.00     0.000 C 
BRANCH  15  16
ATOM     16  C   UNL     1     -24.019  -1.685 -27.435  1.00  0.00     0.000 C 
BRANCH  16  17
ATOM     17  C   UNL     1     -22.967  -0.579 -27.227  1.00  0.00     0.000 C 
BRANCH  17  18
ATOM     18  C   UNL     1     -22.957   0.521 -28.304  1.00  0.00    -0.000 C 
BRANCH  18  19
ATOM     19  C   UNL     1     -21.848   1.562 -28.087  1.00  0.00    -0.000 C 
BRANCH  19  20
ATOM     20  C   UNL     1     -21.600   1.791 -26.588  1.00  0.00    -0.000 C 
BRANCH  20  21
ATOM     21  C   UNL     1     -21.620   3.280 -26.208  1.00  0.00    -0.000 C 
BRANCH  21  22
ATOM     22  C   UNL     1     -22.306   4.153 -27.273  1.00  0.00    -0.000 C 
BRANCH  22  23
ATOM     23  C   UNL     1     -21.316   5.050 -28.037  1.00  0.00    -0.000 C 
BRANCH  23  24
ATOM     24  C   UNL     1     -19.906   5.125 -27.424  1.00  0.00    -0.000 C 
BRANCH  24  25
ATOM     25  C   UNL     1     -18.791   4.949 -28.467  1.00  0.00    -0.003 C 
ATOM     26  C   UNL     1     -17.414   5.072 -27.823  1.00  0.00     0.004 C 
ENDBRANCH  24  25
ENDBRANCH  23  24
ENDBRANCH  22  23
ENDBRANCH  21  22
ENDBRANCH  20  21
ENDBRANCH  19  20
ENDBRANCH  18  19
ENDBRANCH  17  18
ENDBRANCH  16  17
ENDBRANCH  15  16
ENDBRANCH   1  15
TORSDOF 22
ENDMDL
MODEL 3
REMARK VINA RESULT:     7.436      3.628      9.243
REMARK INTER + INTRA:          16.841
REMARK INTER:                  16.010
REMARK INTRA:                   0.832
REMARK UNBOUND:                -0.158
REMARK SMILES CCCCCCCCCCCCCCCCCCCCCCCC(=O)[O-]
REMARK SMILES IDX 13 1 14 2 15 3 16 4 17 5 18 6 19 7 20 8 21 9 22 10 23 11
REMARK SMILES IDX 24 12 25 13 26 14 12 15 11 16 10 17 9 18 8 19 7 20 6 21 5 22
REMARK SMILES IDX 4 23 3 24 2 25 1 26
REMARK H PARENT
REMARK Flexibility Score: inf
ROOT
ATOM      1  C   UNL     1     -25.261  -3.857 -26.757  1.00  0.00     0.000 C 
ENDROOT
BRANCH   1   2
ATOM      2  C   UNL     1     -26.677  -3.310 -26.506  1.00  0.00     0.000 C 
BRANCH   2   3
ATOM      3  C   UNL     1     -27.465  -3.106 -27.818  1.00  0.00     0.000 C 
BRANCH   3   4
ATOM      4  C   UNL     1     -28.919  -2.654 -27.599  1.00  0.00     0.000 C 
BRANCH   4   5
ATOM      5  C   UNL     1     -29.753  -2.678 -28.890  1.00  0.00     0.000 C 
BRANCH   5   6
ATOM      6  C   UNL     1     -31.266  -2.777 -28.603  1.00  0.00     0.000 C 
BRANCH   6   7
ATOM      7  C   UNL     1     -31.637  -2.506 -27.135  1.00  0.00     0.000 C 
BRANCH   7   8
ATOM      8  C   UNL     1     -31.881  -1.014 -26.851  1.00  0.00     0.000 C 
BRANCH   8   9
ATOM      9  C   UNL     1     -31.137  -0.511 -25.602  1.00  0.00     0.000 C 
BRANCH   9  10
ATOM     10  C   UNL     1     -31.205   1.011 -25.359  1.00  0.00     0.006 C 
BRANCH  10  11
ATOM     11  C   UNL     1     -32.125   1.766 -26.337  1.00  0.00     0.053 C 
BRANCH  11  12
ATOM     12  C   UNL     1     -31.785   3.224 -26.431  1.00  0.00     0.041 C 
ATOM     13  O   UNL     1     -31.404   3.853 -25.407  1.00  0.00    -0.550 OA
ATOM     14  O   UNL     1     -31.933   3.899 -27.636  1.00  0.00    -0.550 OA
ENDBRANCH  11  12
ENDBRANCH  10  11
ENDBRANCH   9  10
ENDBRANCH   8   9
ENDBRANCH   7   8
ENDBRANCH   6   7
ENDBRANCH   5   6
ENDBRANCH   4   5
ENDBRANCH   3   4
ENDBRANCH   2   3
ENDBRANCH   1   2
BRANCH   1  15
ATOM     15  C   UNL     1     -24.162  -2.798 -26.521  1.00  0.00     0.000 C 
BRANCH  15  16
ATOM     16  C   UNL     1     -24.121  -1.690 -27.590  1.00  0.00     0.000 C 
BRANCH  16  17
ATOM     17  C   UNL     1     -23.313  -0.437 -27.204  1.00  0.00     0.000 C 
BRANCH  17  18
ATOM     18  C   UNL     1     -23.120   0.588 -28.338  1.00  0.00    -0.000 C 
BRANCH  18  19
ATOM     19  C   UNL     1     -21.992   1.591 -28.053  1.00  0.00    -0.000 C 
BRANCH  19  20
ATOM     20  C   UNL     1     -22.506   3.035 -28.162  1.00  0.00    -0.000 C 
BRANCH  20  21
ATOM     21  C   UNL     1     -21.450   4.070 -27.740  1.00  0.00    -0.000 C 
BRANCH  21  22
ATOM     22  C   UNL     1     -20.121   3.420 -27.320  1.00  0.00    -0.000 C 
BRANCH  22  23
ATOM     23  C   UNL     1     -20.316   2.181 -26.429  1.00  0.00    -0.000 C 
BRANCH  23  24
ATOM     24  C   UNL     1     -21.023   2.453 -25.089  1.00  0.00    -0.000 C 
BRANCH  24  25
ATOM     25  C   UNL     1     -22.256   1.564 -24.871  1.00  0.00    -0.003 C 
ATOM     26  C   UNL     1     -21.965   0.459 -23.860  1.00  0.00     0.004 C 
ENDBRANCH  24  25
ENDBRANCH  23  24
ENDBRANCH  22  23
ENDBRANCH  21  22
ENDBRANCH  20  21
ENDBRANCH  19  20
ENDBRANCH  18  19
ENDBRANCH  17  18
ENDBRANCH  16  17
ENDBRANCH  15  16
ENDBRANCH   1  15
TORSDOF 22
ENDMDL
MODEL 4
REMARK VINA RESULT:     7.609      1.456      3.290
REMARK INTER + INTRA:          17.238
REMARK INTER:                  18.404
REMARK INTRA:                  -1.166
REMARK UNBOUND:                -0.158
REMARK SMILES CCCCCCCCCCCCCCCCCCCCCCCC(=O)[O-]
REMARK SMILES IDX 13 1 14 2 15 3 16 4 17 5 18 6 19 7 20 8 21 9 22 10 23 11
REMARK SMILES IDX 24 12 25 13 26 14 12 15 11 16 10 17 9 18 8 19 7 20 6 21 5 22
REMARK SMILES IDX 4 23 3 24 2 25 1 26
REMARK H PARENT
REMARK Flexibility Score: inf
ROOT
ATOM      1  C   UNL     1     -28.851  -2.768 -29.067  1.00  0.00     0.000 C 
ENDROOT
BRANCH   1   2
ATOM      2  C   UNL     1     -28.228  -1.957 -27.916  1.00  0.00     0.000 C 
BRANCH   2   3
ATOM      3  C   UNL     1     -26.731  -1.665 -28.152  1.00  0.00     0.000 C 
BRANCH   3   4
ATOM      4  C   UNL     1     -25.805  -2.826 -27.748  1.00  0.00     0.000 C 
BRANCH   4   5
ATOM      5  C   UNL     1     -24.388  -2.361 -27.381  1.00  0.00     0.000 C 
BRANCH   5   6
ATOM      6  C   UNL     1     -24.233  -0.829 -27.483  1.00  0.00     0.000 C 
BRANCH   6   7
ATOM      7  C   UNL     1     -22.970  -0.287 -26.792  1.00  0.00     0.000 C 
BRANCH   7   8
ATOM      8  C   UNL     1     -23.292   0.683 -25.644  1.00  0.00     0.000 C 
BRANCH   8   9
ATOM      9  C   UNL     1     -22.441   1.964 -25.682  1.00  0.00     0.000 C 
BRANCH   9  10
ATOM     10  C   UNL     1     -20.948   1.758 -26.007  1.00  0.00     0.006 C 
BRANCH  10  11
ATOM     11  C   UNL     1     -20.419   2.656 -27.141  1.00  0.00     0.053 C 
BRANCH  11  12
ATOM     12  C   UNL     1     -21.478   3.565 -27.691  1.00  0.00     0.041 C 
ATOM     13  O   UNL     1     -22.387   3.103 -28.432  1.00  0.00    -0.550 OA
ATOM     14  O   UNL     1     -21.437   4.928 -27.425  1.00  0.00    -0.550 OA
ENDBRANCH  11  12
ENDBRANCH  10  11
ENDBRANCH   9  10
ENDBRANCH   8   9
ENDBRANCH   7   8
ENDBRANCH   6   7
ENDBRANCH   5   6
ENDBRANCH   4   5
ENDBRANCH   3   4
ENDBRANCH   2   3
ENDBRANCH   1   2
BRANCH   1  15
ATOM     15  C   UNL     1     -30.359  -3.029 -28.864  1.00  0.00     0.000 C 
BRANCH  15  16
ATOM     16  C   UNL     1     -30.915  -2.483 -27.536  1.00  0.00     0.000 C 
BRANCH  16  17
ATOM     17  C   UNL     1     -31.968  -1.368 -27.675  1.00  0.00     0.000 C 
BRANCH  17  18
ATOM     18  C   UNL     1     -31.605  -0.039 -26.987  1.00  0.00    -0.000 C 
BRANCH  18  19
ATOM     19  C   UNL     1     -30.980  -0.234 -25.597  1.00  0.00    -0.000 C 
BRANCH  19  20
ATOM     20  C   UNL     1     -31.554   0.779 -24.594  1.00  0.00    -0.000 C 
BRANCH  20  21
ATOM     21  C   UNL     1     -30.758   2.093 -24.564  1.00  0.00    -0.000 C 
BRANCH  21  22
ATOM     22  C   UNL     1     -30.144   2.445 -25.930  1.00  0.00    -0.000 C 
BRANCH  22  23
ATOM     23  C   UNL     1     -30.502   3.867 -26.398  1.00  0.00    -0.000 C 
BRANCH  23  24
ATOM     24  C   UNL     1     -31.969   4.056 -26.824  1.00  0.00    -0.000 C 
BRANCH  24  25
ATOM     25  C   UNL     1     -32.124   4.330 -28.327  1.00  0.00    -0.003 C 
ATOM     26  C   UNL     1     -32.117   3.030 -29.125  1.00  0.00     0.004 C 
ENDBRANCH  24  25
ENDBRANCH  23  24
ENDBRANCH  22  23
ENDBRANCH  21  22
ENDBRANCH  20  21
ENDBRANCH  19  20
ENDBRANCH  18  19
ENDBRANCH  17  18
ENDBRANCH  16  17
ENDBRANCH  15  16
ENDBRANCH   1  15
TORSDOF 22
ENDMDL
MODEL 5
REMARK VINA RESULT:     7.757      3.843      9.839
REMARK INTER + INTRA:          17.574
REMARK INTER:                  17.572
REMARK INTRA:                   0.003
REMARK UNBOUND:                -0.158
REMARK SMILES CCCCCCCCCCCCCCCCCCCCCCCC(=O)[O-]
REMARK SMILES IDX 13 1 14 2 15 3 16 4 17 5 18 6 19 7 20 8 21 9 22 10 23 11
REMARK SMILES IDX 24 12 25 13 26 14 12 15 11 16 10 17 9 18 8 19 7 20 6 21 5 22
REMARK SMILES IDX 4 23 3 24 2 25 1 26
REMARK H PARENT
REMARK Flexibility Score: inf
ROOT
ATOM      1  C   UNL     1     -26.243  -2.763 -27.904  1.00  0.00     0.000 C 
ENDROOT
BRANCH   1   2
ATOM      2  C   UNL     1     -27.703  -3.135 -27.587  1.00  0.00     0.000 C 
BRANCH   2   3
ATOM      3  C   UNL     1     -28.699  -2.070 -28.093  1.00  0.00     0.000 C 
BRANCH   3   4
ATOM      4  C   UNL     1     -30.006  -2.662 -28.647  1.00  0.00     0.000 C 
BRANCH   4   5
ATOM      5  C   UNL     1     -31.044  -2.950 -27.551  1.00  0.00     0.000 C 
BRANCH   5   6
ATOM      6  C   UNL     1     -31.929  -1.722 -27.251  1.00  0.00     0.000 C 
BRANCH   6   7
ATOM      7  C   UNL     1     -31.343  -0.783 -26.182  1.00  0.00     0.000 C 
BRANCH   7   8
ATOM      8  C   UNL     1     -31.948   0.630 -26.239  1.00  0.00     0.000 C 
BRANCH   8   9
ATOM      9  C   UNL     1     -31.186   1.645 -25.369  1.00  0.00     0.000 C 
BRANCH   9  10
ATOM     10  C   UNL     1     -31.051   1.272 -23.879  1.00  0.00     0.006 C 
BRANCH  10  11
ATOM     11  C   UNL     1     -31.312  -0.215 -23.574  1.00  0.00     0.053 C 
BRANCH  11  12
ATOM     12  C   UNL     1     -30.884  -0.598 -22.188  1.00  0.00     0.041 C 
ATOM     13  O   UNL     1     -31.697  -0.514 -21.229  1.00  0.00    -0.550 OA
ATOM     14  O   UNL     1     -29.577  -1.001 -21.946  1.00  0.00    -0.550 OA
ENDBRANCH  11  12
ENDBRANCH  10  11
ENDBRANCH   9  10
ENDBRANCH   8   9
ENDBRANCH   7   8
ENDBRANCH   6   7
ENDBRANCH   5   6
ENDBRANCH   4   5
ENDBRANCH   3   4
ENDBRANCH   2   3
ENDBRANCH   1   2
BRANCH   1  15
ATOM     15  C   UNL     1     -25.259  -3.229 -26.809  1.00  0.00     0.000 C 
BRANCH  15  16
ATOM     16  C   UNL     1     -23.909  -2.488 -26.826  1.00  0.00     0.000 C 
BRANCH  16  17
ATOM     17  C   UNL     1     -23.923  -1.116 -27.526  1.00  0.00     0.000 C 
BRANCH  17  18
ATOM     18  C   UNL     1     -22.628  -0.296 -27.377  1.00  0.00    -0.000 C 
BRANCH  18  19
ATOM     19  C   UNL     1     -22.762   1.138 -27.912  1.00  0.00    -0.000 C 
BRANCH  19  20
ATOM     20  C   UNL     1     -22.855   2.146 -26.756  1.00  0.00    -0.000 C 
BRANCH  20  21
ATOM     21  C   UNL     1     -23.037   3.591 -27.246  1.00  0.00    -0.000 C 
BRANCH  21  22
ATOM     22  C   UNL     1     -21.809   4.116 -28.009  1.00  0.00    -0.000 C 
BRANCH  22  23
ATOM     23  C   UNL     1     -20.517   4.058 -27.173  1.00  0.00    -0.000 C 
BRANCH  23  24
ATOM     24  C   UNL     1     -19.458   5.111 -27.548  1.00  0.00    -0.000 C 
BRANCH  24  25
ATOM     25  C   UNL     1     -18.286   4.521 -28.346  1.00  0.00    -0.003 C 
ATOM     26  C   UNL     1     -16.959   5.125 -27.899  1.00  0.00     0.004 C 
ENDBRANCH  24  25
ENDBRANCH  23  24
ENDBRANCH  22  23
ENDBRANCH  21  22
ENDBRANCH  20  21
ENDBRANCH  19  20
ENDBRANCH  18  19
ENDBRANCH  17  18
ENDBRANCH  16  17
ENDBRANCH  15  16
ENDBRANCH   1  15
TORSDOF 22
ENDMDL
MODEL 6
REMARK VINA RESULT:     7.854      1.852      2.271
REMARK INTER + INTRA:          17.797
REMARK INTER:                  17.585
REMARK INTRA:                   0.212
REMARK UNBOUND:                -0.158
REMARK SMILES CCCCCCCCCCCCCCCCCCCCCCCC(=O)[O-]
REMARK SMILES IDX 13 1 14 2 15 3 16 4 17 5 18 6 19 7 20 8 21 9 22 10 23 11
REMARK SMILES IDX 24 12 25 13 26 14 12 15 11 16 10 17 9 18 8 19 7 20 6 21 5 22
REMARK SMILES IDX 4 23 3 24 2 25 1 26
REMARK H PARENT
REMARK Flexibility Score: inf
ROOT
ATOM      1  C   UNL     1     -25.682  -3.947 -26.864  1.00  0.00     0.000 C 
ENDROOT
BRANCH   1   2
ATOM      2  C   UNL     1     -24.568  -3.280 -26.036  1.00  0.00     0.000 C 
BRANCH   2   3
ATOM      3  C   UNL     1     -23.523  -2.574 -26.926  1.00  0.00     0.000 C 
BRANCH   3   4
ATOM      4  C   UNL     1     -23.382  -1.070 -26.635  1.00  0.00     0.000 C 
BRANCH   4   5
ATOM      5  C   UNL     1     -23.896  -0.188 -27.784  1.00  0.00     0.000 C 
BRANCH   5   6
ATOM      6  C   UNL     1     -22.764   0.238 -28.742  1.00  0.00     0.000 C 
BRANCH   6   7
ATOM      7  C   UNL     1     -21.848   1.334 -28.168  1.00  0.00     0.000 C 
BRANCH   7   8
ATOM      8  C   UNL     1     -22.450   2.742 -28.309  1.00  0.00     0.000 C 
BRANCH   8   9
ATOM      9  C   UNL     1     -21.565   3.838 -27.691  1.00  0.00     0.000 C 
BRANCH   9  10
ATOM     10  C   UNL     1     -21.049   3.549 -26.267  1.00  0.00     0.006 C 
BRANCH  10  11
ATOM     11  C   UNL     1     -20.898   2.051 -25.942  1.00  0.00     0.053 C 
BRANCH  11  12
ATOM     12  C   UNL     1     -21.886   1.587 -24.913  1.00  0.00     0.041 C 
ATOM     13  O   UNL     1     -21.483   1.068 -23.838  1.00  0.00    -0.550 OA
ATOM     14  O   UNL     1     -23.249   1.684 -25.160  1.00  0.00    -0.550 OA
ENDBRANCH  11  12
ENDBRANCH  10  11
ENDBRANCH   9  10
ENDBRANCH   8   9
ENDBRANCH   7   8
ENDBRANCH   6   7
ENDBRANCH   5   6
ENDBRANCH   4   5
ENDBRANCH   3   4
ENDBRANCH   2   3
ENDBRANCH   1   2
BRANCH   1  15
ATOM     15  C   UNL     1     -26.949  -3.071 -26.973  1.00  0.00     0.000 C 
BRANCH  15  16
ATOM     16  C   UNL     1     -27.367  -2.753 -28.420  1.00  0.00     0.000 C 
BRANCH  16  17
ATOM     17  C   UNL     1     -28.878  -2.552 -28.638  1.00  0.00     0.000 C 
BRANCH  17  18
ATOM     18  C   UNL     1     -29.654  -2.056 -27.404  1.00  0.00    -0.000 C 
BRANCH  18  19
ATOM     19  C   UNL     1     -31.130  -2.481 -27.413  1.00  0.00    -0.000 C 
BRANCH  19  20
ATOM     20  C   UNL     1     -31.939  -1.663 -26.394  1.00  0.00    -0.000 C 
BRANCH  20  21
ATOM     21  C   UNL     1     -31.094  -0.583 -25.701  1.00  0.00    -0.000 C 
BRANCH  21  22
ATOM     22  C   UNL     1     -31.655   0.833 -25.913  1.00  0.00    -0.000 C 
BRANCH  22  23
ATOM     23  C   UNL     1     -30.745   1.930 -25.330  1.00  0.00    -0.000 C 
BRANCH  23  24
ATOM     24  C   UNL     1     -30.903   3.315 -25.983  1.00  0.00    -0.000 C 
BRANCH  24  25
ATOM     25  C   UNL     1     -32.071   3.376 -26.979  1.00  0.00    -0.003 C 
ATOM     26  C   UNL     1     -31.583   3.747 -28.375  1.00  0.00     0.004 C 
ENDBRANCH  24  25
ENDBRANCH  23  24
ENDBRANCH  22  23
ENDBRANCH  21  22
ENDBRANCH  20  21
ENDBRANCH  19  20
ENDBRANCH  18  19
ENDBRANCH  17  18
ENDBRANCH  16  17
ENDBRANCH  15  16
ENDBRANCH   1  15
TORSDOF 22
ENDMDL
MODEL 7
REMARK VINA RESULT:     7.969      3.659      9.106
REMARK INTER + INTRA:          18.060
REMARK INTER:                  17.773
REMARK INTRA:                   0.287
REMARK UNBOUND:                -0.158
REMARK SMILES CCCCCCCCCCCCCCCCCCCCCCCC(=O)[O-]
REMARK SMILES IDX 13 1 14 2 15 3 16 4 17 5 18 6 19 7 20 8 21 9 22 10 23 11
REMARK SMILES IDX 24 12 25 13 26 14 12 15 11 16 10 17 9 18 8 19 7 20 6 21 5 22
REMARK SMILES IDX 4 23 3 24 2 25 1 26
REMARK H PARENT
REMARK Flexibility Score: inf
ROOT
ATOM      1  C   UNL     1     -26.745  -2.807 -26.709  1.00  0.00     0.000 C 
ENDROOT
BRANCH   1   2
ATOM      2  C   UNL     1     -27.211  -2.797 -28.176  1.00  0.00     0.000 C 
BRANCH   2   3
ATOM      3  C   UNL     1     -28.571  -2.088 -28.350  1.00  0.00     0.000 C 
BRANCH   3   4
ATOM      4  C   UNL     1     -29.605  -2.923 -29.125  1.00  0.00     0.000 C 
BRANCH   4   5
ATOM      5  C   UNL     1     -30.712  -3.491 -28.223  1.00  0.00     0.000 C 
BRANCH   5   6
ATOM      6  C   UNL     1     -32.023  -2.684 -28.332  1.00  0.00     0.000 C 
BRANCH   6   7
ATOM      7  C   UNL     1     -31.970  -1.319 -27.623  1.00  0.00     0.000 C 
BRANCH   7   8
ATOM      8  C   UNL     1     -30.977  -1.299 -26.450  1.00  0.00     0.000 C 
BRANCH   8   9
ATOM      9  C   UNL     1     -31.295  -0.210 -25.411  1.00  0.00     0.000 C 
BRANCH   9  10
ATOM     10  C   UNL     1     -31.924   1.081 -25.975  1.00  0.00     0.006 C 
BRANCH  10  11
ATOM     11  C   UNL     1     -32.000   2.240 -24.964  1.00  0.00     0.053 C 
BRANCH  11  12
ATOM     12  C   UNL     1     -31.910   3.583 -25.627  1.00  0.00     0.041 C 
ATOM     13  O   UNL     1     -32.114   4.633 -24.961  1.00  0.00    -0.550 OA
ATOM     14  O   UNL     1     -31.649   3.674 -26.988  1.00  0.00    -0.550 OA
ENDBRANCH  11  12
ENDBRANCH  10  11
ENDBRANCH   9  10
ENDBRANCH   8   9
ENDBRANCH   7   8
ENDBRANCH   6   7
ENDBRANCH   5   6
ENDBRANCH   4   5
ENDBRANCH   3   4
ENDBRANCH   2   3
ENDBRANCH   1   2
BRANCH   1  15
ATOM     15  C   UNL     1     -25.746  -3.946 -26.408  1.00  0.00     0.000 C 
BRANCH  15  16
ATOM     16  C   UNL     1     -24.291  -3.620 -26.793  1.00  0.00     0.000 C 
BRANCH  16  17
ATOM     17  C   UNL     1     -23.865  -2.157 -26.567  1.00  0.00     0.000 C 
BRANCH  17  18
ATOM     18  C   UNL     1     -23.957  -1.252 -27.810  1.00  0.00    -0.000 C 
BRANCH  18  19
ATOM     19  C   UNL     1     -23.545   0.200 -27.526  1.00  0.00    -0.000 C 
BRANCH  19  20
ATOM     20  C   UNL     1     -22.289   0.577 -28.327  1.00  0.00    -0.000 C 
BRANCH  20  21
ATOM     21  C   UNL     1     -21.640   1.878 -27.829  1.00  0.00    -0.000 C 
BRANCH  21  22
ATOM     22  C   UNL     1     -21.676   2.008 -26.297  1.00  0.00    -0.000 C 
BRANCH  22  23
ATOM     23  C   UNL     1     -22.250   3.356 -25.824  1.00  0.00    -0.000 C 
BRANCH  23  24
ATOM     24  C   UNL     1     -21.612   4.594 -26.478  1.00  0.00    -0.000 C 
BRANCH  24  25
ATOM     25  C   UNL     1     -20.526   4.236 -27.504  1.00  0.00    -0.003 C 
ATOM     26  C   UNL     1     -20.675   5.068 -28.774  1.00  0.00     0.004 C 
ENDBRANCH  24  25
ENDBRANCH  23  24
ENDBRANCH  22  23
ENDBRANCH  21  22
ENDBRANCH  20  21
ENDBRANCH  19  20
ENDBRANCH  18  19
ENDBRANCH  17  18
ENDBRANCH  16  17
ENDBRANCH  15  16
ENDBRANCH   1  15
TORSDOF 22
ENDMDL
MODEL 8
REMARK VINA RESULT:     8.099      3.878      9.469
REMARK INTER + INTRA:          18.358
REMARK INTER:                  17.843
REMARK INTRA:                   0.515
REMARK UNBOUND:                -0.158
REMARK SMILES CCCCCCCCCCCCCCCCCCCCCCCC(=O)[O-]
REMARK SMILES IDX 13 1 14 2 15 3 16 4 17 5 18 6 19 7 20 8 21 9 22 10 23 11
REMARK SMILES IDX 24 12 25 13 26 14 12 15 11 16 10 17 9 18 8 19 7 20 6 21 5 22
REMARK SMILES IDX 4 23 3 24 2 25 1 26
REMARK H PARENT
REMARK Flexibility Score: inf
ROOT
ATOM      1  C   UNL     1     -26.583  -2.451 -27.996  1.00  0.00     0.000 C 
ENDROOT
BRANCH   1   2
ATOM      2  C   UNL     1     -27.977  -2.990 -27.627  1.00  0.00     0.000 C 
BRANCH   2   3
ATOM      3  C   UNL     1     -29.109  -2.200 -28.317  1.00  0.00     0.000 C 
BRANCH   3   4
ATOM      4  C   UNL     1     -30.270  -3.084 -28.804  1.00  0.00     0.000 C 
BRANCH   4   5
ATOM      5  C   UNL     1     -31.495  -3.025 -27.879  1.00  0.00     0.000 C 
BRANCH   5   6
ATOM      6  C   UNL     1     -32.041  -1.590 -27.728  1.00  0.00     0.000 C 
BRANCH   6   7
ATOM      7  C   UNL     1     -31.557  -0.875 -26.454  1.00  0.00     0.000 C 
BRANCH   7   8
ATOM      8  C   UNL     1     -31.920   0.619 -26.439  1.00  0.00     0.000 C 
BRANCH   8   9
ATOM      9  C   UNL     1     -31.057   1.438 -25.464  1.00  0.00     0.000 C 
BRANCH   9  10
ATOM     10  C   UNL     1     -31.139   1.009 -23.985  1.00  0.00     0.006 C 
BRANCH  10  11
ATOM     11  C   UNL     1     -30.861  -0.487 -23.746  1.00  0.00     0.053 C 
BRANCH  11  12
ATOM     12  C   UNL     1     -30.518  -0.783 -22.316  1.00  0.00     0.041 C 
ATOM     13  O   UNL     1     -29.364  -1.189 -22.013  1.00  0.00    -0.550 OA
ATOM     14  O   UNL     1     -31.483  -0.656 -21.325  1.00  0.00    -0.550 OA
ENDBRANCH  11  12
ENDBRANCH  10  11
ENDBRANCH   9  10
ENDBRANCH   8   9
ENDBRANCH   7   8
ENDBRANCH   6   7
ENDBRANCH   5   6
ENDBRANCH   4   5
ENDBRANCH   3   4
ENDBRANCH   2   3
ENDBRANCH   1   2
BRANCH   1  15
ATOM     15  C   UNL     1     -25.447  -3.155 -27.222  1.00  0.00     0.000 C 
BRANCH  15  16
ATOM     16  C   UNL     1     -24.253  -2.241 -26.894  1.00  0.00     0.000 C 
BRANCH  16  17
ATOM     17  C   UNL     1     -24.119  -0.992 -27.785  1.00  0.00     0.000 C 
BRANCH  17  18
ATOM     18  C   UNL     1     -22.799  -0.215 -27.625  1.00  0.00    -0.000 C 
BRANCH  18  19
ATOM     19  C   UNL     1     -22.758   1.076 -28.459  1.00  0.00    -0.000 C 
BRANCH  19  20
ATOM     20  C   UNL     1     -23.027   2.304 -27.575  1.00  0.00    -0.000 C 
BRANCH  20  21
ATOM     21  C   UNL     1     -22.147   3.506 -27.954  1.00  0.00    -0.000 C 
BRANCH  21  22
ATOM     22  C   UNL     1     -20.675   3.309 -27.553  1.00  0.00    -0.000 C 
BRANCH  22  23
ATOM     23  C   UNL     1     -20.498   3.012 -26.054  1.00  0.00    -0.000 C 
BRANCH  23  24
ATOM     24  C   UNL     1     -20.803   1.560 -25.643  1.00  0.00    -0.000 C 
BRANCH  24  25
ATOM     25  C   UNL     1     -22.041   1.442 -24.741  1.00  0.00    -0.003 C 
ATOM     26  C   UNL     1     -21.783   0.492 -23.576  1.00  0.00     0.004 C 
ENDBRANCH  24  25
ENDBRANCH  23  24
ENDBRANCH  22  23
ENDBRANCH  21  22
ENDBRANCH  20  21
ENDBRANCH  19  20
ENDBRANCH  18  19
ENDBRANCH  17  18
ENDBRANCH  16  17
ENDBRANCH  15  16
ENDBRANCH   1  15
TORSDOF 22
ENDMDL
MODEL 9
REMARK VINA RESULT:     8.170      3.393      8.930
REMARK INTER + INTRA:          18.519
REMARK INTER:                  19.304
REMARK INTRA:                  -0.785
REMARK UNBOUND:                -0.158
REMARK SMILES CCCCCCCCCCCCCCCCCCCCCCCC(=O)[O-]
REMARK SMILES IDX 13 1 14 2 15 3 16 4 17 5 18 6 19 7 20 8 21 9 22 10 23 11
REMARK SMILES IDX 24 12 25 13 26 14 12 15 11 16 10 17 9 18 8 19 7 20 6 21 5 22
REMARK SMILES IDX 4 23 3 24 2 25 1 26
REMARK H PARENT
REMARK Flexibility Score: inf
ROOT
ATOM      1  C   UNL     1     -26.811  -2.884 -26.659  1.00  0.00     0.000 C 
ENDROOT
BRANCH   1   2
ATOM      2  C   UNL     1     -27.740  -3.412 -27.767  1.00  0.00     0.000 C 
BRANCH   2   3
ATOM      3  C   UNL     1     -28.431  -2.269 -28.541  1.00  0.00     0.000 C 
BRANCH   3   4
ATOM      4  C   UNL     1     -29.968  -2.328 -28.484  1.00  0.00     0.000 C 
BRANCH   4   5
ATOM      5  C   UNL     1     -30.497  -2.848 -27.139  1.00  0.00     0.000 C 
BRANCH   5   6
ATOM      6  C   UNL     1     -31.769  -2.101 -26.686  1.00  0.00     0.000 C 
BRANCH   6   7
ATOM      7  C   UNL     1     -31.609  -0.571 -26.652  1.00  0.00     0.000 C 
BRANCH   7   8
ATOM      8  C   UNL     1     -31.178  -0.052 -25.270  1.00  0.00     0.000 C 
BRANCH   8   9
ATOM      9  C   UNL     1     -31.156   1.484 -25.186  1.00  0.00     0.000 C 
BRANCH   9  10
ATOM     10  C   UNL     1     -32.124   2.214 -26.138  1.00  0.00     0.006 C 
BRANCH  10  11
ATOM     11  C   UNL     1     -32.114   3.748 -25.996  1.00  0.00     0.053 C 
BRANCH  11  12
ATOM     12  C   UNL     1     -31.449   4.425 -27.159  1.00  0.00     0.041 C 
ATOM     13  O   UNL     1     -32.123   4.745 -28.174  1.00  0.00    -0.550 OA
ATOM     14  O   UNL     1     -30.080   4.659 -27.141  1.00  0.00    -0.550 OA
ENDBRANCH  11  12
ENDBRANCH  10  11
ENDBRANCH   9  10
ENDBRANCH   8   9
ENDBRANCH   7   8
ENDBRANCH   6   7
ENDBRANCH   5   6
ENDBRANCH   4   5
ENDBRANCH   3   4
ENDBRANCH   2   3
ENDBRANCH   1   2
BRANCH   1  15
ATOM     15  C   UNL     1     -25.489  -3.677 -26.561  1.00  0.00     0.000 C 
BRANCH  15  16
ATOM     16  C   UNL     1     -24.229  -2.793 -26.559  1.00  0.00     0.000 C 
BRANCH  16  17
ATOM     17  C   UNL     1     -24.226  -1.652 -27.594  1.00  0.00     0.000 C 
BRANCH  17  18
ATOM     18  C   UNL     1     -23.522  -0.360 -27.138  1.00  0.00    -0.000 C 
BRANCH  18  19
ATOM     19  C   UNL     1     -22.387   0.069 -28.080  1.00  0.00    -0.000 C 
BRANCH  19  20
ATOM     20  C   UNL     1     -22.616   1.499 -28.594  1.00  0.00    -0.000 C 
BRANCH  20  21
ATOM     21  C   UNL     1     -23.039   2.466 -27.477  1.00  0.00    -0.000 C 
BRANCH  21  22
ATOM     22  C   UNL     1     -21.933   3.472 -27.116  1.00  0.00    -0.000 C 
BRANCH  22  23
ATOM     23  C   UNL     1     -20.569   2.800 -26.874  1.00  0.00    -0.000 C 
BRANCH  23  24
ATOM     24  C   UNL     1     -20.512   1.882 -25.640  1.00  0.00    -0.000 C 
BRANCH  24  25
ATOM     25  C   UNL     1     -21.884   1.684 -24.978  1.00  0.00    -0.003 C 
ATOM     26  C   UNL     1     -21.757   0.897 -23.678  1.00  0.00     0.004 C 
ENDBRANCH  24  25
ENDBRANCH  23  24
ENDBRANCH  22  23
ENDBRANCH  21  22
ENDBRANCH  20  21
ENDBRANCH  19  20
ENDBRANCH  18  19
ENDBRANCH  17  18
ENDBRANCH  16  17
ENDBRANCH  15  16
ENDBRANCH   1  15
TORSDOF 22
ENDMDL
