MODEL 1
REMARK VINA RESULT:    -3.814      0.000      0.000
REMARK INTER + INTRA:          -8.261
REMARK INTER:                  -6.489
REMARK INTRA:                  -1.771
REMARK UNBOUND:                -1.771
REMARK SMILES CCCCCCCCCCCCCC(=O)[O-]
REMARK SMILES IDX 8 1 9 2 10 3 11 4 12 5 13 6 14 7 15 8 16 9 7 10 6 11 5 12
REMARK SMILES IDX 4 13 3 14 2 15 1 16
REMARK H PARENT
REMARK Flexibility Score: inf
ROOT
ATOM      1  C   UNL     1      48.503  -0.253  75.684  1.00  0.00     0.000 C 
ENDROOT
BRANCH   1   2
ATOM      2  C   UNL     1      48.294  -1.776  75.757  1.00  0.00     0.000 C 
BRANCH   2   3
ATOM      3  C   UNL     1      49.604  -2.561  75.578  1.00  0.00     0.000 C 
BRANCH   3   4
ATOM      4  C   UNL     1      49.509  -3.627  74.477  1.00  0.00     0.000 C 
BRANCH   4   5
ATOM      5  C   UNL     1      48.055  -3.822  74.028  1.00  0.00     0.006 C 
BRANCH   5   6
ATOM      6  C   UNL     1      47.990  -4.525  72.668  1.00  0.00     0.053 C 
BRANCH   6   7
ATOM      7  C   UNL     1      47.224  -5.805  72.779  1.00  0.00     0.041 C 
ATOM      8  O   UNL     1      46.017  -5.794  73.138  1.00  0.00    -0.550 OA
ATOM      9  O   UNL     1      47.857  -7.017  72.534  1.00  0.00    -0.550 OA
ENDBRANCH   6   7
ENDBRANCH   5   6
ENDBRANCH   4   5
ENDBRANCH   3   4
ENDBRANCH   2   3
ENDBRANCH   1   2
BRANCH   1  10
ATOM     10  C   UNL     1      47.779   0.388  74.489  1.00  0.00     0.000 C 
BRANCH  10  11
ATOM     11  C   UNL     1      48.711   0.615  73.285  1.00  0.00    -0.000 C 
BRANCH  11  12
ATOM     12  C   UNL     1      48.641  -0.529  72.261  1.00  0.00    -0.000 C 
BRANCH  12  13
ATOM     13  C   UNL     1      50.026  -1.117  71.937  1.00  0.00    -0.000 C 
BRANCH  13  14
ATOM     14  C   UNL     1      51.145  -0.498  72.792  1.00  0.00    -0.000 C 
BRANCH  14  15
ATOM     15  C   UNL     1      52.499  -1.196  72.592  1.00  0.00    -0.003 C 
ATOM     16  C   UNL     1      53.466  -0.304  71.818  1.00  0.00     0.004 C 
ENDBRANCH  14  15
ENDBRANCH  13  14
ENDBRANCH  12  13
ENDBRANCH  11  12
ENDBRANCH  10  11
ENDBRANCH   1  10
TORSDOF 12
ENDMDL
MODEL 2
REMARK VINA RESULT:    -3.763      2.110      3.064
REMARK INTER + INTRA:          -8.174
REMARK INTER:                  -7.202
REMARK INTRA:                  -0.972
REMARK UNBOUND:                -1.771
REMARK SMILES CCCCCCCCCCCCCC(=O)[O-]
REMARK SMILES IDX 8 1 9 2 10 3 11 4 12 5 13 6 14 7 15 8 16 9 7 10 6 11 5 12
REMARK SMILES IDX 4 13 3 14 2 15 1 16
REMARK H PARENT
REMARK Flexibility Score: inf
ROOT
ATOM      1  C   UNL     1      48.933  -2.253  72.609  1.00  0.00     0.000 C 
ENDROOT
BRANCH   1   2
ATOM      2  C   UNL     1      49.800  -3.497  72.876  1.00  0.00     0.000 C 
BRANCH   2   3
ATOM      3  C   UNL     1      49.056  -4.809  72.578  1.00  0.00     0.000 C 
BRANCH   3   4
ATOM      4  C   UNL     1      47.688  -4.884  73.273  1.00  0.00     0.000 C 
BRANCH   4   5
ATOM      5  C   UNL     1      46.740  -5.823  72.516  1.00  0.00     0.006 C 
BRANCH   5   6
ATOM      6  C   UNL     1      47.338  -7.228  72.397  1.00  0.00     0.053 C 
BRANCH   6   7
ATOM      7  C   UNL     1      46.358  -8.160  71.759  1.00  0.00     0.041 C 
ATOM      8  O   UNL     1      45.567  -8.833  72.470  1.00  0.00    -0.550 OA
ATOM      9  O   UNL     1      46.353  -8.325  70.379  1.00  0.00    -0.550 OA
ENDBRANCH   6   7
ENDBRANCH   5   6
ENDBRANCH   4   5
ENDBRANCH   3   4
ENDBRANCH   2   3
ENDBRANCH   1   2
BRANCH   1  10
ATOM     10  C   UNL     1      49.704  -1.137  71.886  1.00  0.00     0.000 C 
BRANCH  10  11
ATOM     11  C   UNL     1      50.378  -0.157  72.862  1.00  0.00    -0.000 C 
BRANCH  11  12
ATOM     12  C   UNL     1      51.685   0.428  72.303  1.00  0.00    -0.000 C 
BRANCH  12  13
ATOM     13  C   UNL     1      52.713  -0.659  71.944  1.00  0.00    -0.000 C 
BRANCH  13  14
ATOM     14  C   UNL     1      53.029  -1.588  73.129  1.00  0.00    -0.000 C 
BRANCH  14  15
ATOM     15  C   UNL     1      53.449  -2.997  72.682  1.00  0.00    -0.003 C 
ATOM     16  C   UNL     1      53.375  -3.985  73.843  1.00  0.00     0.004 C 
ENDBRANCH  14  15
ENDBRANCH  13  14
ENDBRANCH  12  13
ENDBRANCH  11  12
ENDBRANCH  10  11
ENDBRANCH   1  10
TORSDOF 12
ENDMDL
MODEL 3
REMARK VINA RESULT:    -3.754      2.895      5.496
REMARK INTER + INTRA:          -8.159
REMARK INTER:                  -6.549
REMARK INTRA:                  -1.610
REMARK UNBOUND:                -1.771
REMARK SMILES CCCCCCCCCCCCCC(=O)[O-]
REMARK SMILES IDX 8 1 9 2 10 3 11 4 12 5 13 6 14 7 15 8 16 9 7 10 6 11 5 12
REMARK SMILES IDX 4 13 3 14 2 15 1 16
REMARK H PARENT
REMARK Flexibility Score: inf
ROOT
ATOM      1  C   UNL     1      47.947  -0.083  74.705  1.00  0.00     0.000 C 
ENDROOT
BRANCH   1   2
ATOM      2  C   UNL     1      48.544   0.606  73.465  1.00  0.00     0.000 C 
BRANCH   2   3
ATOM      3  C   UNL     1      48.454  -0.269  72.204  1.00  0.00     0.000 C 
BRANCH   3   4
ATOM      4  C   UNL     1      49.768  -1.005  71.901  1.00  0.00     0.000 C 
BRANCH   4   5
ATOM      5  C   UNL     1      50.965  -0.261  72.506  1.00  0.00     0.006 C 
BRANCH   5   6
ATOM      6  C   UNL     1      51.879  -1.222  73.273  1.00  0.00     0.053 C 
BRANCH   6   7
ATOM      7  C   UNL     1      53.075  -1.575  72.449  1.00  0.00     0.041 C 
ATOM      8  O   UNL     1      53.555  -2.738  72.493  1.00  0.00    -0.550 OA
ATOM      9  O   UNL     1      53.693  -0.605  71.669  1.00  0.00    -0.550 OA
ENDBRANCH   6   7
ENDBRANCH   5   6
ENDBRANCH   4   5
ENDBRANCH   3   4
ENDBRANCH   2   3
ENDBRANCH   1   2
BRANCH   1  10
ATOM     10  C   UNL     1      49.023  -0.565  75.691  1.00  0.00     0.000 C 
BRANCH  10  11
ATOM     11  C   UNL     1      49.015  -2.093  75.875  1.00  0.00    -0.000 C 
BRANCH  11  12
ATOM     12  C   UNL     1      48.062  -2.800  74.898  1.00  0.00    -0.000 C 
BRANCH  12  13
ATOM     13  C   UNL     1      48.704  -4.029  74.232  1.00  0.00    -0.000 C 
BRANCH  13  14
ATOM     14  C   UNL     1      48.226  -4.233  72.784  1.00  0.00    -0.000 C 
BRANCH  14  15
ATOM     15  C   UNL     1      47.273  -5.429  72.637  1.00  0.00    -0.003 C 
ATOM     16  C   UNL     1      46.684  -5.830  73.987  1.00  0.00     0.004 C 
ENDBRANCH  14  15
ENDBRANCH  13  14
ENDBRANCH  12  13
ENDBRANCH  11  12
ENDBRANCH  10  11
ENDBRANCH   1  10
TORSDOF 12
ENDMDL
MODEL 4
REMARK VINA RESULT:    -3.751      3.609      5.509
REMARK INTER + INTRA:          -8.153
REMARK INTER:                  -6.020
REMARK INTRA:                  -2.133
REMARK UNBOUND:                -1.771
REMARK SMILES CCCCCCCCCCCCCC(=O)[O-]
REMARK SMILES IDX 8 1 9 2 10 3 11 4 12 5 13 6 14 7 15 8 16 9 7 10 6 11 5 12
REMARK SMILES IDX 4 13 3 14 2 15 1 16
REMARK H PARENT
REMARK Flexibility Score: inf
ROOT
ATOM      1  C   UNL     1      49.661  -4.059  74.169  1.00  0.00     0.000 C 
ENDROOT
BRANCH   1   2
ATOM      2  C   UNL     1      50.229  -4.068  72.738  1.00  0.00     0.000 C 
BRANCH   2   3
ATOM      3  C   UNL     1      51.668  -3.533  72.671  1.00  0.00     0.000 C 
BRANCH   3   4
ATOM      4  C   UNL     1      52.072  -2.762  73.937  1.00  0.00     0.000 C 
BRANCH   4   5
ATOM      5  C   UNL     1      52.902  -1.522  73.582  1.00  0.00     0.006 C 
BRANCH   5   6
ATOM      6  C   UNL     1      52.800  -1.202  72.087  1.00  0.00     0.053 C 
BRANCH   6   7
ATOM      7  C   UNL     1      53.078   0.246  71.842  1.00  0.00     0.041 C 
ATOM      8  O   UNL     1      52.127   1.065  71.734  1.00  0.00    -0.550 OA
ATOM      9  O   UNL     1      54.386   0.686  71.682  1.00  0.00    -0.550 OA
ENDBRANCH   6   7
ENDBRANCH   5   6
ENDBRANCH   4   5
ENDBRANCH   3   4
ENDBRANCH   2   3
ENDBRANCH   1   2
BRANCH   1  10
ATOM     10  C   UNL     1      48.179  -3.655  74.216  1.00  0.00     0.000 C 
BRANCH  10  11
ATOM     11  C   UNL     1      47.821  -2.866  75.487  1.00  0.00    -0.000 C 
BRANCH  11  12
ATOM     12  C   UNL     1      48.885  -1.818  75.851  1.00  0.00    -0.000 C 
BRANCH  12  13
ATOM     13  C   UNL     1      48.580  -0.434  75.251  1.00  0.00    -0.000 C 
BRANCH  13  14
ATOM     14  C   UNL     1      49.508  -0.083  74.075  1.00  0.00    -0.000 C 
BRANCH  14  15
ATOM     15  C   UNL     1      48.737   0.214  72.779  1.00  0.00    -0.003 C 
ATOM     16  C   UNL     1      48.955  -0.889  71.747  1.00  0.00     0.004 C 
ENDBRANCH  14  15
ENDBRANCH  13  14
ENDBRANCH  12  13
ENDBRANCH  11  12
ENDBRANCH  10  11
ENDBRANCH   1  10
TORSDOF 12
ENDMDL
MODEL 5
REMARK VINA RESULT:    -3.708      3.005      6.047
REMARK INTER + INTRA:          -8.081
REMARK INTER:                  -7.072
REMARK INTRA:                  -1.009
REMARK UNBOUND:                -1.771
REMARK SMILES CCCCCCCCCCCCCC(=O)[O-]
REMARK SMILES IDX 8 1 9 2 10 3 11 4 12 5 13 6 14 7 15 8 16 9 7 10 6 11 5 12
REMARK SMILES IDX 4 13 3 14 2 15 1 16
REMARK H PARENT
REMARK Flexibility Score: inf
ROOT
ATOM      1  C   UNL     1      49.652  -0.830  71.935  1.00  0.00     0.000 C 
ENDROOT
BRANCH   1   2
ATOM      2  C   UNL     1      50.848  -0.382  72.794  1.00  0.00     0.000 C 
BRANCH   2   3
ATOM      3  C   UNL     1      52.010   0.165  71.948  1.00  0.00     0.000 C 
BRANCH   3   4
ATOM      4  C   UNL     1      53.313  -0.619  72.158  1.00  0.00     0.000 C 
BRANCH   4   5
ATOM      5  C   UNL     1      53.134  -1.705  73.225  1.00  0.00     0.006 C 
BRANCH   5   6
ATOM      6  C   UNL     1      53.519  -3.083  72.678  1.00  0.00     0.053 C 
BRANCH   6   7
ATOM      7  C   UNL     1      53.809  -4.028  73.800  1.00  0.00     0.041 C 
ATOM      8  O   UNL     1      54.985  -4.428  74.004  1.00  0.00    -0.550 OA
ATOM      9  O   UNL     1      52.772  -4.510  74.590  1.00  0.00    -0.550 OA
ENDBRANCH   6   7
ENDBRANCH   5   6
ENDBRANCH   4   5
ENDBRANCH   3   4
ENDBRANCH   2   3
ENDBRANCH   1   2
BRANCH   1  10
ATOM     10  C   UNL     1      48.994  -2.116  72.461  1.00  0.00     0.000 C 
BRANCH  10  11
ATOM     11  C   UNL     1      49.975  -3.299  72.525  1.00  0.00    -0.000 C 
BRANCH  11  12
ATOM     12  C   UNL     1      49.281  -4.625  72.874  1.00  0.00    -0.000 C 
BRANCH  12  13
ATOM     13  C   UNL     1      47.747  -4.522  72.815  1.00  0.00    -0.000 C 
BRANCH  13  14
ATOM     14  C   UNL     1      47.080  -5.856  72.437  1.00  0.00    -0.000 C 
BRANCH  14  15
ATOM     15  C   UNL     1      47.002  -6.835  73.618  1.00  0.00    -0.003 C 
ATOM     16  C   UNL     1      47.810  -8.099  73.335  1.00  0.00     0.004 C 
ENDBRANCH  14  15
ENDBRANCH  13  14
ENDBRANCH  12  13
ENDBRANCH  11  12
ENDBRANCH  10  11
ENDBRANCH   1  10
TORSDOF 12
ENDMDL
MODEL 6
REMARK VINA RESULT:    -3.697      2.957      5.353
REMARK INTER + INTRA:          -8.062
REMARK INTER:                  -6.038
REMARK INTRA:                  -2.024
REMARK UNBOUND:                -1.771
REMARK SMILES CCCCCCCCCCCCCC(=O)[O-]
REMARK SMILES IDX 8 1 9 2 10 3 11 4 12 5 13 6 14 7 15 8 16 9 7 10 6 11 5 12
REMARK SMILES IDX 4 13 3 14 2 15 1 16
REMARK H PARENT
REMARK Flexibility Score: inf
ROOT
ATOM      1  C   UNL     1      49.493  -1.355  72.704  1.00  0.00     0.000 C 
ENDROOT
BRANCH   1   2
ATOM      2  C   UNL     1      50.728  -0.660  73.303  1.00  0.00     0.000 C 
BRANCH   2   3
ATOM      3  C   UNL     1      51.755  -0.256  72.232  1.00  0.00     0.000 C 
BRANCH   3   4
ATOM      4  C   UNL     1      53.127  -0.908  72.453  1.00  0.00     0.000 C 
BRANCH   4   5
ATOM      5  C   UNL     1      53.075  -1.917  73.607  1.00  0.00     0.006 C 
BRANCH   5   6
ATOM      6  C   UNL     1      53.324  -3.342  73.103  1.00  0.00     0.053 C 
BRANCH   6   7
ATOM      7  C   UNL     1      53.977  -4.166  74.167  1.00  0.00     0.041 C 
ATOM      8  O   UNL     1      54.835  -3.651  74.931  1.00  0.00    -0.550 OA
ATOM      9  O   UNL     1      53.675  -5.517  74.283  1.00  0.00    -0.550 OA
ENDBRANCH   6   7
ENDBRANCH   5   6
ENDBRANCH   4   5
ENDBRANCH   3   4
ENDBRANCH   2   3
ENDBRANCH   1   2
BRANCH   1  10
ATOM     10  C   UNL     1      49.851  -2.630  71.923  1.00  0.00     0.000 C 
BRANCH  10  11
ATOM     11  C   UNL     1      49.393  -3.911  72.642  1.00  0.00    -0.000 C 
BRANCH  11  12
ATOM     12  C   UNL     1      48.245  -3.656  73.631  1.00  0.00    -0.000 C 
BRANCH  12  13
ATOM     13  C   UNL     1      48.619  -4.021  75.078  1.00  0.00    -0.000 C 
BRANCH  13  14
ATOM     14  C   UNL     1      50.112  -4.356  75.235  1.00  0.00    -0.000 C 
BRANCH  14  15
ATOM     15  C   UNL     1      50.876  -3.295  76.041  1.00  0.00    -0.003 C 
ATOM     16  C   UNL     1      49.916  -2.296  76.681  1.00  0.00     0.004 C 
ENDBRANCH  14  15
ENDBRANCH  13  14
ENDBRANCH  12  13
ENDBRANCH  11  12
ENDBRANCH  10  11
ENDBRANCH   1  10
TORSDOF 12
ENDMDL
MODEL 7
REMARK VINA RESULT:    -3.659      3.595      5.975
REMARK INTER + INTRA:          -7.996
REMARK INTER:                  -6.825
REMARK INTRA:                  -1.171
REMARK UNBOUND:                -1.771
REMARK SMILES CCCCCCCCCCCCCC(=O)[O-]
REMARK SMILES IDX 8 1 9 2 10 3 11 4 12 5 13 6 14 7 15 8 16 9 7 10 6 11 5 12
REMARK SMILES IDX 4 13 3 14 2 15 1 16
REMARK H PARENT
REMARK Flexibility Score: inf
ROOT
ATOM      1  C   UNL     1      50.896  -0.326  72.215  1.00  0.00     0.000 C 
ENDROOT
BRANCH   1   2
ATOM      2  C   UNL     1      52.424  -0.498  72.275  1.00  0.00     0.000 C 
BRANCH   2   3
ATOM      3  C   UNL     1      52.858  -1.564  73.294  1.00  0.00     0.000 C 
BRANCH   3   4
ATOM      4  C   UNL     1      53.194  -2.910  72.636  1.00  0.00     0.000 C 
BRANCH   4   5
ATOM      5  C   UNL     1      53.070  -4.059  73.644  1.00  0.00     0.006 C 
BRANCH   5   6
ATOM      6  C   UNL     1      54.196  -4.004  74.681  1.00  0.00     0.053 C 
BRANCH   6   7
ATOM      7  C   UNL     1      55.240  -5.029  74.373  1.00  0.00     0.041 C 
ATOM      8  O   UNL     1      55.486  -5.951  75.194  1.00  0.00    -0.550 OA
ATOM      9  O   UNL     1      55.980  -4.937  73.201  1.00  0.00    -0.550 OA
ENDBRANCH   6   7
ENDBRANCH   5   6
ENDBRANCH   4   5
ENDBRANCH   3   4
ENDBRANCH   2   3
ENDBRANCH   1   2
BRANCH   1  10
ATOM     10  C   UNL     1      50.186  -0.892  73.456  1.00  0.00     0.000 C 
BRANCH  10  11
ATOM     11  C   UNL     1      49.017  -1.824  73.094  1.00  0.00    -0.000 C 
BRANCH  11  12
ATOM     12  C   UNL     1      49.473  -3.073  72.324  1.00  0.00    -0.000 C 
BRANCH  12  13
ATOM     13  C   UNL     1      49.174  -4.378  73.084  1.00  0.00    -0.000 C 
BRANCH  13  14
ATOM     14  C   UNL     1      47.672  -4.569  73.359  1.00  0.00    -0.000 C 
BRANCH  14  15
ATOM     15  C   UNL     1      47.072  -5.748  72.578  1.00  0.00    -0.003 C 
ATOM     16  C   UNL     1      48.007  -6.954  72.601  1.00  0.00     0.004 C 
ENDBRANCH  14  15
ENDBRANCH  13  14
ENDBRANCH  12  13
ENDBRANCH  11  12
ENDBRANCH  10  11
ENDBRANCH   1  10
TORSDOF 12
ENDMDL
MODEL 8
REMARK VINA RESULT:    -3.641      2.132      4.892
REMARK INTER + INTRA:          -7.966
REMARK INTER:                  -6.296
REMARK INTRA:                  -1.670
REMARK UNBOUND:                -1.771
REMARK SMILES CCCCCCCCCCCCCC(=O)[O-]
REMARK SMILES IDX 8 1 9 2 10 3 11 4 12 5 13 6 14 7 15 8 16 9 7 10 6 11 5 12
REMARK SMILES IDX 4 13 3 14 2 15 1 16
REMARK H PARENT
REMARK Flexibility Score: inf
ROOT
ATOM      1  C   UNL     1      51.125  -0.022  72.531  1.00  0.00     0.000 C 
ENDROOT
BRANCH   1   2
ATOM      2  C   UNL     1      49.905  -0.648  71.832  1.00  0.00     0.000 C 
BRANCH   2   3
ATOM      3  C   UNL     1      48.635  -0.587  72.696  1.00  0.00     0.000 C 
BRANCH   3   4
ATOM      4  C   UNL     1      48.664   0.567  73.709  1.00  0.00     0.000 C 
BRANCH   4   5
ATOM      5  C   UNL     1      48.578   0.037  75.145  1.00  0.00     0.006 C 
BRANCH   5   6
ATOM      6  C   UNL     1      48.484  -1.492  75.162  1.00  0.00     0.053 C 
BRANCH   6   7
ATOM      7  C   UNL     1      47.474  -1.942  76.168  1.00  0.00     0.041 C 
ATOM      8  O   UNL     1      47.596  -3.060  76.734  1.00  0.00    -0.550 OA
ATOM      9  O   UNL     1      46.367  -1.149  76.445  1.00  0.00    -0.550 OA
ENDBRANCH   6   7
ENDBRANCH   5   6
ENDBRANCH   4   5
ENDBRANCH   3   4
ENDBRANCH   2   3
ENDBRANCH   1   2
BRANCH   1  10
ATOM     10  C   UNL     1      52.378  -0.909  72.444  1.00  0.00     0.000 C 
BRANCH  10  11
ATOM     11  C   UNL     1      52.415  -1.988  73.540  1.00  0.00    -0.000 C 
BRANCH  11  12
ATOM     12  C   UNL     1      52.095  -3.391  72.999  1.00  0.00    -0.000 C 
BRANCH  12  13
ATOM     13  C   UNL     1      50.717  -3.901  73.457  1.00  0.00    -0.000 C 
BRANCH  13  14
ATOM     14  C   UNL     1      49.785  -4.224  72.277  1.00  0.00    -0.000 C 
BRANCH  14  15
ATOM     15  C   UNL     1      48.694  -5.242  72.644  1.00  0.00    -0.003 C 
ATOM     16  C   UNL     1      47.526  -4.562  73.353  1.00  0.00     0.004 C 
ENDBRANCH  14  15
ENDBRANCH  13  14
ENDBRANCH  12  13
ENDBRANCH  11  12
ENDBRANCH  10  11
ENDBRANCH   1  10
TORSDOF 12
ENDMDL
MODEL 9
REMARK VINA RESULT:    -3.608      1.838      3.056
REMARK INTER + INTRA:          -7.911
REMARK INTER:                  -6.489
REMARK INTRA:                  -1.421
REMARK UNBOUND:                -1.771
REMARK SMILES CCCCCCCCCCCCCC(=O)[O-]
REMARK SMILES IDX 8 1 9 2 10 3 11 4 12 5 13 6 14 7 15 8 16 9 7 10 6 11 5 12
REMARK SMILES IDX 4 13 3 14 2 15 1 16
REMARK H PARENT
REMARK Flexibility Score: inf
ROOT
ATOM      1  C   UNL     1      49.266  -0.507  72.338  1.00  0.00     0.000 C 
ENDROOT
BRANCH   1   2
ATOM      2  C   UNL     1      48.661  -1.879  72.685  1.00  0.00     0.000 C 
BRANCH   2   3
ATOM      3  C   UNL     1      49.561  -3.048  72.251  1.00  0.00     0.000 C 
BRANCH   3   4
ATOM      4  C   UNL     1      49.233  -4.353  72.992  1.00  0.00     0.000 C 
BRANCH   4   5
ATOM      5  C   UNL     1      47.829  -4.851  72.628  1.00  0.00     0.006 C 
BRANCH   5   6
ATOM      6  C   UNL     1      46.975  -5.053  73.883  1.00  0.00     0.053 C 
BRANCH   6   7
ATOM      7  C   UNL     1      47.058  -6.472  74.349  1.00  0.00     0.041 C 
ATOM      8  O   UNL     1      47.106  -6.734  75.579  1.00  0.00    -0.550 OA
ATOM      9  O   UNL     1      47.134  -7.504  73.422  1.00  0.00    -0.550 OA
ENDBRANCH   6   7
ENDBRANCH   5   6
ENDBRANCH   4   5
ENDBRANCH   3   4
ENDBRANCH   2   3
ENDBRANCH   1   2
BRANCH   1  10
ATOM     10  C   UNL     1      50.540  -0.201  73.143  1.00  0.00     0.000 C 
BRANCH  10  11
ATOM     11  C   UNL     1      51.700   0.279  72.253  1.00  0.00    -0.000 C 
BRANCH  11  12
ATOM     12  C   UNL     1      52.850  -0.738  72.183  1.00  0.00    -0.000 C 
BRANCH  12  13
ATOM     13  C   UNL     1      52.863  -1.700  73.384  1.00  0.00    -0.000 C 
BRANCH  13  14
ATOM     14  C   UNL     1      53.160  -3.153  72.974  1.00  0.00    -0.000 C 
BRANCH  14  15
ATOM     15  C   UNL     1      53.146  -4.120  74.167  1.00  0.00    -0.003 C 
ATOM     16  C   UNL     1      52.122  -3.686  75.213  1.00  0.00     0.004 C 
ENDBRANCH  14  15
ENDBRANCH  13  14
ENDBRANCH  12  13
ENDBRANCH  11  12
ENDBRANCH  10  11
ENDBRANCH   1  10
TORSDOF 12
ENDMDL
