MODEL 1
REMARK VINA RESULT:    -7.640      0.000      0.000
REMARK INTER + INTRA:         -11.319
REMARK INTER:                 -10.097
REMARK INTRA:                  -1.222
REMARK UNBOUND:                -1.222
REMARK SMILES CC[C@H](C=C[C@H](C)[C@@H]1CC[C@H]2[C@H]3CC=C4C[C@@H](O)CC[C@]4(C)[C@@H]3CC[C@@]21C)C(C)C
REMARK SMILES IDX 6 1 7 2 5 3 4 4 3 5 2 6 1 7 28 8 29 9 30 10 8 11 9 12 26 13
REMARK SMILES IDX 10 14 11 15 25 16 27 17 12 18 24 19 23 20 13 21 21 22 14 23
REMARK SMILES IDX 15 24 20 25 22 26 16 27 19 28 17 29 18 30
REMARK H PARENT 18 31
REMARK Flexibility Score: inf
ROOT
ATOM      1  C   UNL     1       3.387  12.459  49.042  1.00  0.00     0.012 C 
ATOM      2  C   UNL     1       2.839  13.405  50.130  1.00  0.00     0.012 C 
ENDROOT
BRANCH   1   3
ATOM      3  C   UNL     1       2.213  12.096  48.156  1.00  0.00    -0.028 C 
ATOM      4  C   UNL     1       1.359  11.116  48.486  1.00  0.00    -0.027 C 
BRANCH   4   5
ATOM      5  C   UNL     1       0.166  10.769  47.618  1.00  0.00     0.014 C 
BRANCH   5   6
ATOM      6  C   UNL     1       0.376  11.366  46.205  1.00  0.00     0.004 C 
ATOM      7  C   UNL     1      -0.943  11.708  45.504  1.00  0.00     0.004 C 
ENDBRANCH   5   6
BRANCH   5   8
ATOM      8  C   UNL     1      -0.030   9.222  47.589  1.00  0.00    -0.011 C 
ATOM      9  C   UNL     1      -1.479   8.810  47.910  1.00  0.00     0.008 C 
ATOM     10  C   UNL     1       0.918   8.523  48.583  1.00  0.00     0.008 C 
ENDBRANCH   5   8
ENDBRANCH   4   5
ENDBRANCH   1   3
BRANCH   1  11
ATOM     11  C   UNL     1       4.538  13.130  48.222  1.00  0.00     0.002 C 
ATOM     12  C   UNL     1       4.149  13.383  46.730  1.00  0.00     0.005 C 
ATOM     13  C   UNL     1       5.935  12.379  48.158  1.00  0.00    -0.026 C 
ATOM     14  C   UNL     1       5.283  12.856  45.855  1.00  0.00     0.005 C 
ATOM     15  C   UNL     1       5.917  11.801  46.733  1.00  0.00    -0.001 C 
ATOM     16  C   UNL     1       6.218  11.186  49.151  1.00  0.00     0.007 C 
ATOM     17  C   UNL     1       7.018  13.488  48.358  1.00  0.00     0.012 C 
ATOM     18  C   UNL     1       7.211  11.088  46.250  1.00  0.00     0.000 C 
ATOM     19  C   UNL     1       7.040  10.002  48.548  1.00  0.00     0.005 C 
ATOM     20  C   UNL     1       8.001  10.452  47.422  1.00  0.00     0.003 C 
ATOM     21  C   UNL     1       8.194  11.912  45.415  1.00  0.00     0.031 C 
ATOM     22  C   UNL     1       9.029   9.385  46.890  1.00  0.00    -0.008 C 
ATOM     23  C   UNL     1       9.310  11.013  44.936  1.00  0.00    -0.027 C 
ATOM     24  C   UNL     1       9.681   9.872  45.576  1.00  0.00    -0.065 C 
ATOM     25  C   UNL     1       8.342   8.012  46.614  1.00  0.00     0.014 C 
ATOM     26  C   UNL     1      10.142   9.204  47.959  1.00  0.00     0.016 C 
ATOM     27  C   UNL     1      10.606   8.907  44.864  1.00  0.00     0.063 C 
ATOM     28  C   UNL     1       9.255   7.004  45.886  1.00  0.00     0.033 C 
ATOM     29  C   UNL     1       9.852   7.595  44.593  1.00  0.00     0.118 C 
BRANCH  29  30
ATOM     30  O   UNL     1      10.692   6.662  43.963  1.00  0.00    -0.393 OA
ATOM     31  H   UNL     1      10.117   6.036  43.451  1.00  0.00     0.210 HD
ENDBRANCH  29  30
ENDBRANCH   1  11
TORSDOF 6
ENDMDL
MODEL 2
REMARK VINA RESULT:    -7.409      3.493      6.413
REMARK INTER + INTRA:         -11.013
REMARK INTER:                  -8.934
REMARK INTRA:                  -2.079
REMARK UNBOUND:                -1.222
REMARK SMILES CC[C@H](C=C[C@H](C)[C@@H]1CC[C@H]2[C@H]3CC=C4C[C@@H](O)CC[C@]4(C)[C@@H]3CC[C@@]21C)C(C)C
REMARK SMILES IDX 6 1 7 2 5 3 4 4 3 5 2 6 1 7 28 8 29 9 30 10 8 11 9 12 26 13
REMARK SMILES IDX 10 14 11 15 25 16 27 17 12 18 24 19 23 20 13 21 21 22 14 23
REMARK SMILES IDX 15 24 20 25 22 26 16 27 19 28 17 29 18 30
REMARK H PARENT 18 31
REMARK Flexibility Score: inf
ROOT
ATOM      1  C   UNL     1       9.356  11.419  45.958  1.00  0.00     0.012 C 
ATOM      2  C   UNL     1       9.738  12.201  44.684  1.00  0.00     0.012 C 
ENDROOT
BRANCH   1   3
ATOM      3  C   UNL     1       7.857  11.567  46.121  1.00  0.00    -0.028 C 
ATOM      4  C   UNL     1       7.278  11.566  47.331  1.00  0.00    -0.027 C 
BRANCH   4   5
ATOM      5  C   UNL     1       5.783  11.743  47.500  1.00  0.00     0.014 C 
BRANCH   5   6
ATOM      6  C   UNL     1       5.049  10.974  46.375  1.00  0.00     0.004 C 
ATOM      7  C   UNL     1       3.589  10.667  46.721  1.00  0.00     0.004 C 
ENDBRANCH   5   6
BRANCH   5   8
ATOM      8  C   UNL     1       5.356  11.267  48.923  1.00  0.00    -0.011 C 
ATOM      9  C   UNL     1       4.720  12.397  49.753  1.00  0.00     0.008 C 
ATOM     10  C   UNL     1       6.557  10.695  49.701  1.00  0.00     0.008 C 
ENDBRANCH   5   8
ENDBRANCH   4   5
ENDBRANCH   1   3
BRANCH   1  11
ATOM     11  C   UNL     1       9.777   9.915  45.858  1.00  0.00     0.002 C 
ATOM     12  C   UNL     1       8.659   9.014  45.243  1.00  0.00     0.005 C 
ATOM     13  C   UNL     1      10.207   9.178  47.196  1.00  0.00    -0.026 C 
ATOM     14  C   UNL     1       8.490   7.797  46.147  1.00  0.00     0.005 C 
ATOM     15  C   UNL     1       8.973   8.307  47.486  1.00  0.00    -0.001 C 
ATOM     16  C   UNL     1      10.501  10.031  48.490  1.00  0.00     0.007 C 
ATOM     17  C   UNL     1      11.476   8.343  46.826  1.00  0.00     0.012 C 
ATOM     18  C   UNL     1       9.077   7.321  48.683  1.00  0.00     0.000 C 
ATOM     19  C   UNL     1      10.037   9.382  49.833  1.00  0.00     0.005 C 
ATOM     20  C   UNL     1      10.040   7.836  49.783  1.00  0.00     0.003 C 
ATOM     21  C   UNL     1       9.460   5.873  48.366  1.00  0.00     0.031 C 
ATOM     22  C   UNL     1       9.796   7.076  51.140  1.00  0.00    -0.008 C 
ATOM     23  C   UNL     1       9.379   5.053  49.631  1.00  0.00    -0.027 C 
ATOM     24  C   UNL     1       9.510   5.580  50.878  1.00  0.00    -0.065 C 
ATOM     25  C   UNL     1       8.588   7.674  51.925  1.00  0.00     0.014 C 
ATOM     26  C   UNL     1      11.084   7.192  52.002  1.00  0.00     0.016 C 
ATOM     27  C   UNL     1       9.131   4.729  52.071  1.00  0.00     0.063 C 
ATOM     28  C   UNL     1       8.171   6.830  53.147  1.00  0.00     0.033 C 
ATOM     29  C   UNL     1       7.914   5.357  52.770  1.00  0.00     0.118 C 
BRANCH  29  30
ATOM     30  O   UNL     1       7.556   4.610  53.905  1.00  0.00    -0.393 OA
ATOM     31  H   UNL     1       8.214   4.816  54.620  1.00  0.00     0.210 HD
ENDBRANCH  29  30
ENDBRANCH   1  11
TORSDOF 6
ENDMDL
MODEL 3
REMARK VINA RESULT:    -7.260      6.526      9.891
REMARK INTER + INTRA:         -10.816
REMARK INTER:                  -8.740
REMARK INTRA:                  -2.076
REMARK UNBOUND:                -1.222
REMARK SMILES CC[C@H](C=C[C@H](C)[C@@H]1CC[C@H]2[C@H]3CC=C4C[C@@H](O)CC[C@]4(C)[C@@H]3CC[C@@]21C)C(C)C
REMARK SMILES IDX 6 1 7 2 5 3 4 4 3 5 2 6 1 7 28 8 29 9 30 10 8 11 9 12 26 13
REMARK SMILES IDX 10 14 11 15 25 16 27 17 12 18 24 19 23 20 13 21 21 22 14 23
REMARK SMILES IDX 15 24 20 25 22 26 16 27 19 28 17 29 18 30
REMARK H PARENT 18 31
REMARK Flexibility Score: inf
ROOT
ATOM      1  C   UNL     1      11.927   3.603  54.802  1.00  0.00     0.012 C 
ATOM      2  C   UNL     1      12.619   3.176  56.112  1.00  0.00     0.012 C 
ENDROOT
BRANCH   1   3
ATOM      3  C   UNL     1      10.454   3.753  55.123  1.00  0.00    -0.028 C 
ATOM      4  C   UNL     1       9.503   3.407  54.242  1.00  0.00    -0.027 C 
BRANCH   4   5
ATOM      5  C   UNL     1       8.029   3.527  54.569  1.00  0.00     0.014 C 
BRANCH   5   6
ATOM      6  C   UNL     1       7.357   4.480  53.550  1.00  0.00     0.004 C 
ATOM      7  C   UNL     1       8.218   4.719  52.306  1.00  0.00     0.004 C 
ENDBRANCH   5   6
BRANCH   5   8
ATOM      8  C   UNL     1       7.376   2.110  54.580  1.00  0.00    -0.011 C 
ATOM      9  C   UNL     1       8.380   1.000  54.222  1.00  0.00     0.008 C 
ATOM     10  C   UNL     1       6.187   2.040  53.601  1.00  0.00     0.008 C 
ENDBRANCH   5   8
ENDBRANCH   4   5
ENDBRANCH   1   3
BRANCH   1  11
ATOM     11  C   UNL     1      12.529   4.933  54.239  1.00  0.00     0.002 C 
ATOM     12  C   UNL     1      11.868   6.206  54.859  1.00  0.00     0.005 C 
ATOM     13  C   UNL     1      12.471   5.165  52.670  1.00  0.00    -0.026 C 
ATOM     14  C   UNL     1      11.498   7.144  53.714  1.00  0.00     0.005 C 
ATOM     15  C   UNL     1      11.339   6.198  52.546  1.00  0.00    -0.001 C 
ATOM     16  C   UNL     1      12.116   3.955  51.721  1.00  0.00     0.007 C 
ATOM     17  C   UNL     1      13.871   5.738  52.278  1.00  0.00     0.012 C 
ATOM     18  C   UNL     1      11.071   6.778  51.129  1.00  0.00     0.000 C 
ATOM     19  C   UNL     1      11.233   4.318  50.485  1.00  0.00     0.005 C 
ATOM     20  C   UNL     1      11.442   5.775  50.007  1.00  0.00     0.003 C 
ATOM     21  C   UNL     1      11.720   8.122  50.789  1.00  0.00     0.031 C 
ATOM     22  C   UNL     1      10.767   6.185  48.645  1.00  0.00    -0.008 C 
ATOM     23  C   UNL     1      11.236   8.574  49.431  1.00  0.00    -0.027 C 
ATOM     24  C   UNL     1      10.791   7.720  48.470  1.00  0.00    -0.065 C 
ATOM     25  C   UNL     1       9.283   5.709  48.573  1.00  0.00     0.014 C 
ATOM     26  C   UNL     1      11.576   5.540  47.486  1.00  0.00     0.016 C 
ATOM     27  C   UNL     1      10.070   8.291  47.267  1.00  0.00     0.063 C 
ATOM     28  C   UNL     1       8.515   6.275  47.360  1.00  0.00     0.033 C 
ATOM     29  C   UNL     1       8.609   7.813  47.284  1.00  0.00     0.118 C 
BRANCH  29  30
ATOM     30  O   UNL     1       7.918   8.296  46.160  1.00  0.00    -0.393 OA
ATOM     31  H   UNL     1       8.585   8.453  45.441  1.00  0.00     0.210 HD
ENDBRANCH  29  30
ENDBRANCH   1  11
TORSDOF 6
ENDMDL
MODEL 4
REMARK VINA RESULT:    -7.156      5.892      8.649
REMARK INTER + INTRA:         -10.680
REMARK INTER:                  -9.544
REMARK INTRA:                  -1.136
REMARK UNBOUND:                -1.222
REMARK SMILES CC[C@H](C=C[C@H](C)[C@@H]1CC[C@H]2[C@H]3CC=C4C[C@@H](O)CC[C@]4(C)[C@@H]3CC[C@@]21C)C(C)C
REMARK SMILES IDX 6 1 7 2 5 3 4 4 3 5 2 6 1 7 28 8 29 9 30 10 8 11 9 12 26 13
REMARK SMILES IDX 10 14 11 15 25 16 27 17 12 18 24 19 23 20 13 21 21 22 14 23
REMARK SMILES IDX 15 24 20 25 22 26 16 27 19 28 17 29 18 30
REMARK H PARENT 18 31
REMARK Flexibility Score: inf
ROOT
ATOM      1  C   UNL     1       8.668   9.054  49.322  1.00  0.00     0.012 C 
ATOM      2  C   UNL     1       8.920  10.523  49.714  1.00  0.00     0.012 C 
ENDROOT
BRANCH   1   3
ATOM      3  C   UNL     1       8.122   9.072  47.908  1.00  0.00    -0.028 C 
ATOM      4  C   UNL     1       7.437  10.123  47.433  1.00  0.00    -0.027 C 
BRANCH   4   5
ATOM      5  C   UNL     1       6.916  10.158  46.010  1.00  0.00     0.014 C 
BRANCH   5   6
ATOM      6  C   UNL     1       5.458  10.681  46.016  1.00  0.00     0.004 C 
ATOM      7  C   UNL     1       4.974  11.073  47.415  1.00  0.00     0.004 C 
ENDBRANCH   5   6
BRANCH   5   8
ATOM      8  C   UNL     1       7.859  11.033  45.127  1.00  0.00    -0.011 C 
ATOM      9  C   UNL     1       8.713  12.002  45.965  1.00  0.00     0.008 C 
ATOM     10  C   UNL     1       7.056  11.844  44.092  1.00  0.00     0.008 C 
ENDBRANCH   5   8
ENDBRANCH   4   5
ENDBRANCH   1   3
BRANCH   1  11
ATOM     11  C   UNL     1       9.974   8.198  49.421  1.00  0.00     0.002 C 
ATOM     12  C   UNL     1      10.076   7.118  48.296  1.00  0.00     0.005 C 
ATOM     13  C   UNL     1      10.241   7.409  50.772  1.00  0.00    -0.026 C 
ATOM     14  C   UNL     1      10.434   5.790  48.956  1.00  0.00     0.005 C 
ATOM     15  C   UNL     1       9.909   5.964  50.363  1.00  0.00    -0.001 C 
ATOM     16  C   UNL     1       9.382   7.751  52.050  1.00  0.00     0.007 C 
ATOM     17  C   UNL     1      11.755   7.625  51.092  1.00  0.00     0.012 C 
ATOM     18  C   UNL     1      10.181   4.857  51.420  1.00  0.00     0.000 C 
ATOM     19  C   UNL     1       9.007   6.527  52.945  1.00  0.00     0.005 C 
ATOM     20  C   UNL     1      10.053   5.389  52.870  1.00  0.00     0.003 C 
ATOM     21  C   UNL     1      11.508   4.100  51.314  1.00  0.00     0.031 C 
ATOM     22  C   UNL     1       9.890   4.199  53.889  1.00  0.00    -0.008 C 
ATOM     23  C   UNL     1      11.525   2.989  52.337  1.00  0.00    -0.027 C 
ATOM     24  C   UNL     1      10.793   3.012  53.483  1.00  0.00    -0.065 C 
ATOM     25  C   UNL     1       8.416   3.692  53.949  1.00  0.00     0.014 C 
ATOM     26  C   UNL     1      10.326   4.698  55.294  1.00  0.00     0.016 C 
ATOM     27  C   UNL     1      10.665   1.738  54.290  1.00  0.00     0.063 C 
ATOM     28  C   UNL     1       8.247   2.391  54.761  1.00  0.00     0.033 C 
ATOM     29  C   UNL     1       9.197   1.279  54.273  1.00  0.00     0.118 C 
BRANCH  29  30
ATOM     30  O   UNL     1       9.035   0.115  55.043  1.00  0.00    -0.393 OA
ATOM     31  H   UNL     1       9.519   0.251  55.900  1.00  0.00     0.210 HD
ENDBRANCH  29  30
ENDBRANCH   1  11
TORSDOF 6
ENDMDL
MODEL 5
REMARK VINA RESULT:    -6.974      4.797      8.278
REMARK INTER + INTRA:         -10.438
REMARK INTER:                  -9.242
REMARK INTRA:                  -1.196
REMARK UNBOUND:                -1.222
REMARK SMILES CC[C@H](C=C[C@H](C)[C@@H]1CC[C@H]2[C@H]3CC=C4C[C@@H](O)CC[C@]4(C)[C@@H]3CC[C@@]21C)C(C)C
REMARK SMILES IDX 6 1 7 2 5 3 4 4 3 5 2 6 1 7 28 8 29 9 30 10 8 11 9 12 26 13
REMARK SMILES IDX 10 14 11 15 25 16 27 17 12 18 24 19 23 20 13 21 21 22 14 23
REMARK SMILES IDX 15 24 20 25 22 26 16 27 19 28 17 29 18 30
REMARK H PARENT 18 31
REMARK Flexibility Score: inf
ROOT
ATOM      1  C   UNL     1      10.039   5.448  50.094  1.00  0.00     0.012 C 
ATOM      2  C   UNL     1      11.122   4.380  50.349  1.00  0.00     0.012 C 
ENDROOT
BRANCH   1   3
ATOM      3  C   UNL     1       9.023   5.306  51.209  1.00  0.00    -0.028 C 
ATOM      4  C   UNL     1       9.203   4.442  52.219  1.00  0.00    -0.027 C 
BRANCH   4   5
ATOM      5  C   UNL     1       8.205   4.319  53.352  1.00  0.00     0.014 C 
BRANCH   5   6
ATOM      6  C   UNL     1       6.777   4.223  52.763  1.00  0.00     0.004 C 
ATOM      7  C   UNL     1       5.897   5.419  53.143  1.00  0.00     0.004 C 
ENDBRANCH   5   6
BRANCH   5   8
ATOM      8  C   UNL     1       8.568   3.088  54.240  1.00  0.00    -0.011 C 
ATOM      9  C   UNL     1       9.887   2.422  53.807  1.00  0.00     0.008 C 
ATOM     10  C   UNL     1       7.445   2.033  54.210  1.00  0.00     0.008 C 
ENDBRANCH   5   8
ENDBRANCH   4   5
ENDBRANCH   1   3
BRANCH   1  11
ATOM     11  C   UNL     1      10.649   6.888  50.054  1.00  0.00     0.002 C 
ATOM     12  C   UNL     1      10.438   7.672  51.389  1.00  0.00     0.005 C 
ATOM     13  C   UNL     1      10.143   7.874  48.917  1.00  0.00    -0.026 C 
ATOM     14  C   UNL     1       9.891   9.052  51.039  1.00  0.00     0.005 C 
ATOM     15  C   UNL     1       9.218   8.816  49.706  1.00  0.00    -0.001 C 
ATOM     16  C   UNL     1       9.312   7.297  47.706  1.00  0.00     0.007 C 
ATOM     17  C   UNL     1      11.425   8.584  48.375  1.00  0.00     0.012 C 
ATOM     18  C   UNL     1       8.621  10.024  48.931  1.00  0.00     0.000 C 
ATOM     19  C   UNL     1       8.161   8.219  47.192  1.00  0.00     0.005 C 
ATOM     20  C   UNL     1       8.450   9.722  47.420  1.00  0.00     0.003 C 
ATOM     21  C   UNL     1       9.347  11.366  49.060  1.00  0.00     0.031 C 
ATOM     22  C   UNL     1       7.461  10.750  46.753  1.00  0.00    -0.008 C 
ATOM     23  C   UNL     1       8.546  12.430  48.349  1.00  0.00    -0.027 C 
ATOM     24  C   UNL     1       7.686  12.167  47.328  1.00  0.00    -0.065 C 
ATOM     25  C   UNL     1       5.972  10.356  46.996  1.00  0.00     0.014 C 
ATOM     26  C   UNL     1       7.748  10.782  45.226  1.00  0.00     0.016 C 
ATOM     27  C   UNL     1       6.732  13.254  46.882  1.00  0.00     0.063 C 
ATOM     28  C   UNL     1       4.969  11.443  46.556  1.00  0.00     0.033 C 
ATOM     29  C   UNL     1       5.291  12.813  47.187  1.00  0.00     0.118 C 
BRANCH  29  30
ATOM     30  O   UNL     1       4.374  13.785  46.752  1.00  0.00    -0.393 OA
ATOM     31  H   UNL     1       4.761  14.676  46.957  1.00  0.00     0.210 HD
ENDBRANCH  29  30
ENDBRANCH   1  11
TORSDOF 6
ENDMDL
MODEL 6
REMARK VINA RESULT:    -6.942      4.264      7.542
REMARK INTER + INTRA:         -10.396
REMARK INTER:                  -8.071
REMARK INTRA:                  -2.325
REMARK UNBOUND:                -1.222
REMARK SMILES CC[C@H](C=C[C@H](C)[C@@H]1CC[C@H]2[C@H]3CC=C4C[C@@H](O)CC[C@]4(C)[C@@H]3CC[C@@]21C)C(C)C
REMARK SMILES IDX 6 1 7 2 5 3 4 4 3 5 2 6 1 7 28 8 29 9 30 10 8 11 9 12 26 13
REMARK SMILES IDX 10 14 11 15 25 16 27 17 12 18 24 19 23 20 13 21 21 22 14 23
REMARK SMILES IDX 15 24 20 25 22 26 16 27 19 28 17 29 18 30
REMARK H PARENT 18 31
REMARK Flexibility Score: inf
ROOT
ATOM      1  C   UNL     1       8.387  12.256  45.711  1.00  0.00     0.012 C 
ATOM      2  C   UNL     1       7.940  13.697  45.393  1.00  0.00     0.012 C 
ENDROOT
BRANCH   1   3
ATOM      3  C   UNL     1       9.862  12.179  45.375  1.00  0.00    -0.028 C 
ATOM      4  C   UNL     1      10.420  11.049  44.913  1.00  0.00    -0.027 C 
BRANCH   4   5
ATOM      5  C   UNL     1      11.888  10.976  44.546  1.00  0.00     0.014 C 
BRANCH   5   6
ATOM      6  C   UNL     1      12.442  12.411  44.375  1.00  0.00     0.004 C 
ATOM      7  C   UNL     1      12.242  12.958  42.958  1.00  0.00     0.004 C 
ENDBRANCH   5   6
BRANCH   5   8
ATOM      8  C   UNL     1      12.660  10.165  45.633  1.00  0.00    -0.011 C 
ATOM      9  C   UNL     1      11.949   8.849  45.997  1.00  0.00     0.008 C 
ATOM     10  C   UNL     1      12.853  10.998  46.915  1.00  0.00     0.008 C 
ENDBRANCH   5   8
ENDBRANCH   4   5
ENDBRANCH   1   3
BRANCH   1  11
ATOM     11  C   UNL     1       8.120  11.888  47.209  1.00  0.00     0.002 C 
ATOM     12  C   UNL     1       9.213  12.452  48.173  1.00  0.00     0.005 C 
ATOM     13  C   UNL     1       8.000  10.350  47.582  1.00  0.00    -0.026 C 
ATOM     14  C   UNL     1       9.660  11.315  49.088  1.00  0.00     0.005 C 
ATOM     15  C   UNL     1       9.352  10.085  48.265  1.00  0.00    -0.001 C 
ATOM     16  C   UNL     1       7.833   9.285  46.429  1.00  0.00     0.007 C 
ATOM     17  C   UNL     1       6.786  10.249  48.561  1.00  0.00     0.012 C 
ATOM     18  C   UNL     1       9.554   8.679  48.895  1.00  0.00     0.000 C 
ATOM     19  C   UNL     1       8.581   7.933  46.662  1.00  0.00     0.005 C 
ATOM     20  C   UNL     1       8.736   7.586  48.161  1.00  0.00     0.003 C 
ATOM     21  C   UNL     1       9.283   8.538  50.395  1.00  0.00     0.031 C 
ATOM     22  C   UNL     1       9.282   6.150  48.509  1.00  0.00    -0.008 C 
ATOM     23  C   UNL     1       9.661   7.144  50.837  1.00  0.00    -0.027 C 
ATOM     24  C   UNL     1       9.682   6.071  50.001  1.00  0.00    -0.065 C 
ATOM     25  C   UNL     1      10.532   5.786  47.650  1.00  0.00     0.014 C 
ATOM     26  C   UNL     1       8.149   5.120  48.243  1.00  0.00     0.016 C 
ATOM     27  C   UNL     1      10.342   4.793  50.473  1.00  0.00     0.063 C 
ATOM     28  C   UNL     1      11.233   4.490  48.105  1.00  0.00     0.033 C 
ATOM     29  C   UNL     1      11.583   4.520  49.607  1.00  0.00     0.118 C 
BRANCH  29  30
ATOM     30  O   UNL     1      12.202   3.320  49.995  1.00  0.00    -0.393 OA
ATOM     31  H   UNL     1      13.184   3.470  49.980  1.00  0.00     0.210 HD
ENDBRANCH  29  30
ENDBRANCH   1  11
TORSDOF 6
ENDMDL
MODEL 7
REMARK VINA RESULT:    -6.926      3.410      8.005
REMARK INTER + INTRA:         -10.375
REMARK INTER:                  -8.281
REMARK INTRA:                  -2.095
REMARK UNBOUND:                -1.222
REMARK SMILES CC[C@H](C=C[C@H](C)[C@@H]1CC[C@H]2[C@H]3CC=C4C[C@@H](O)CC[C@]4(C)[C@@H]3CC[C@@]21C)C(C)C
REMARK SMILES IDX 6 1 7 2 5 3 4 4 3 5 2 6 1 7 28 8 29 9 30 10 8 11 9 12 26 13
REMARK SMILES IDX 10 14 11 15 25 16 27 17 12 18 24 19 23 20 13 21 21 22 14 23
REMARK SMILES IDX 15 24 20 25 22 26 16 27 19 28 17 29 18 30
REMARK H PARENT 18 31
REMARK Flexibility Score: inf
ROOT
ATOM      1  C   UNL     1      11.705   9.762  47.251  1.00  0.00     0.012 C 
ATOM      2  C   UNL     1      13.148   9.526  46.762  1.00  0.00     0.012 C 
ENDROOT
BRANCH   1   3
ATOM      3  C   UNL     1      11.784   9.944  48.754  1.00  0.00    -0.028 C 
ATOM      4  C   UNL     1      10.762   9.611  49.557  1.00  0.00    -0.027 C 
BRANCH   4   5
ATOM      5  C   UNL     1      10.848   9.763  51.062  1.00  0.00     0.014 C 
BRANCH   5   6
ATOM      6  C   UNL     1      11.255  11.217  51.405  1.00  0.00     0.004 C 
ATOM      7  C   UNL     1      10.758  11.663  52.783  1.00  0.00     0.004 C 
ENDBRANCH   5   6
BRANCH   5   8
ATOM      8  C   UNL     1       9.487   9.357  51.709  1.00  0.00    -0.011 C 
ATOM      9  C   UNL     1       9.457   7.877  52.129  1.00  0.00     0.008 C 
ATOM     10  C   UNL     1       8.314   9.626  50.747  1.00  0.00     0.008 C 
ENDBRANCH   5   8
ENDBRANCH   4   5
ENDBRANCH   1   3
BRANCH   1  11
ATOM     11  C   UNL     1      11.056  11.006  46.557  1.00  0.00     0.002 C 
ATOM     12  C   UNL     1      11.411  12.350  47.271  1.00  0.00     0.005 C 
ATOM     13  C   UNL     1       9.477  11.028  46.405  1.00  0.00    -0.026 C 
ATOM     14  C   UNL     1      10.114  13.128  47.472  1.00  0.00     0.005 C 
ATOM     15  C   UNL     1       9.070  12.035  47.493  1.00  0.00    -0.001 C 
ATOM     16  C   UNL     1       8.657   9.703  46.654  1.00  0.00     0.007 C 
ATOM     17  C   UNL     1       9.202  11.544  44.956  1.00  0.00     0.012 C 
ATOM     18  C   UNL     1       7.566  12.422  47.563  1.00  0.00     0.000 C 
ATOM     19  C   UNL     1       7.278   9.899  47.360  1.00  0.00     0.005 C 
ATOM     20  C   UNL     1       6.645  11.280  47.065  1.00  0.00     0.003 C 
ATOM     21  C   UNL     1       7.141  13.709  46.852  1.00  0.00     0.031 C 
ATOM     22  C   UNL     1       5.163  11.505  47.549  1.00  0.00    -0.008 C 
ATOM     23  C   UNL     1       5.683  13.977  47.145  1.00  0.00    -0.027 C 
ATOM     24  C   UNL     1       4.793  13.004  47.475  1.00  0.00    -0.065 C 
ATOM     25  C   UNL     1       4.958  11.024  49.019  1.00  0.00     0.014 C 
ATOM     26  C   UNL     1       4.216  10.712  46.606  1.00  0.00     0.016 C 
ATOM     27  C   UNL     1       3.441  13.410  48.022  1.00  0.00     0.063 C 
ATOM     28  C   UNL     1       3.591  11.423  49.611  1.00  0.00     0.033 C 
ATOM     29  C   UNL     1       3.326  12.937  49.481  1.00  0.00     0.118 C 
BRANCH  29  30
ATOM     30  O   UNL     1       2.068  13.267  50.010  1.00  0.00    -0.393 OA
ATOM     31  H   UNL     1       1.434  13.351  49.250  1.00  0.00     0.210 HD
ENDBRANCH  29  30
ENDBRANCH   1  11
TORSDOF 6
ENDMDL
MODEL 8
REMARK VINA RESULT:    -6.920      3.284      8.611
REMARK INTER + INTRA:         -10.368
REMARK INTER:                  -9.194
REMARK INTRA:                  -1.174
REMARK UNBOUND:                -1.222
REMARK SMILES CC[C@H](C=C[C@H](C)[C@@H]1CC[C@H]2[C@H]3CC=C4C[C@@H](O)CC[C@]4(C)[C@@H]3CC[C@@]21C)C(C)C
REMARK SMILES IDX 6 1 7 2 5 3 4 4 3 5 2 6 1 7 28 8 29 9 30 10 8 11 9 12 26 13
REMARK SMILES IDX 10 14 11 15 25 16 27 17 12 18 24 19 23 20 13 21 21 22 14 23
REMARK SMILES IDX 15 24 20 25 22 26 16 27 19 28 17 29 18 30
REMARK H PARENT 18 31
REMARK Flexibility Score: inf
ROOT
ATOM      1  C   UNL     1      10.367   8.399  46.839  1.00  0.00     0.012 C 
ATOM      2  C   UNL     1      11.399   8.949  45.833  1.00  0.00     0.012 C 
ENDROOT
BRANCH   1   3
ATOM      3  C   UNL     1      10.989   7.167  47.463  1.00  0.00    -0.028 C 
ATOM      4  C   UNL     1      10.282   6.043  47.655  1.00  0.00    -0.027 C 
BRANCH   4   5
ATOM      5  C   UNL     1      10.907   4.798  48.251  1.00  0.00     0.014 C 
BRANCH   5   6
ATOM      6  C   UNL     1      12.422   4.785  47.929  1.00  0.00     0.004 C 
ATOM      7  C   UNL     1      13.031   3.382  48.002  1.00  0.00     0.004 C 
ENDBRANCH   5   6
BRANCH   5   8
ATOM      8  C   UNL     1      10.624   4.752  49.785  1.00  0.00    -0.011 C 
ATOM      9  C   UNL     1       9.183   5.169  50.127  1.00  0.00     0.008 C 
ATOM     10  C   UNL     1      11.602   5.659  50.557  1.00  0.00     0.008 C 
ENDBRANCH   5   8
ENDBRANCH   4   5
ENDBRANCH   1   3
BRANCH   1  11
ATOM     11  C   UNL     1       9.995   9.465  47.922  1.00  0.00     0.002 C 
ATOM     12  C   UNL     1       9.682   8.828  49.314  1.00  0.00     0.005 C 
ATOM     13  C   UNL     1       8.764  10.423  47.625  1.00  0.00    -0.026 C 
ATOM     14  C   UNL     1       8.371   9.424  49.817  1.00  0.00     0.005 C 
ATOM     15  C   UNL     1       7.677   9.829  48.537  1.00  0.00    -0.001 C 
ATOM     16  C   UNL     1       8.173  10.492  46.164  1.00  0.00     0.007 C 
ATOM     17  C   UNL     1       9.225  11.849  48.067  1.00  0.00     0.012 C 
ATOM     18  C   UNL     1       6.329  10.600  48.614  1.00  0.00     0.000 C 
ATOM     19  C   UNL     1       6.620  10.638  46.083  1.00  0.00     0.005 C 
ATOM     20  C   UNL     1       6.023  11.374  47.306  1.00  0.00     0.003 C 
ATOM     21  C   UNL     1       6.143  11.569  49.785  1.00  0.00     0.031 C 
ATOM     22  C   UNL     1       4.500  11.766  47.232  1.00  0.00    -0.008 C 
ATOM     23  C   UNL     1       4.734  12.114  49.755  1.00  0.00    -0.027 C 
ATOM     24  C   UNL     1       3.982  12.191  48.625  1.00  0.00    -0.065 C 
ATOM     25  C   UNL     1       3.624  10.577  46.728  1.00  0.00     0.014 C 
ATOM     26  C   UNL     1       4.352  12.968  46.259  1.00  0.00     0.016 C 
ATOM     27  C   UNL     1       2.502  12.482  48.754  1.00  0.00     0.063 C 
ATOM     28  C   UNL     1       2.108  10.837  46.848  1.00  0.00     0.033 C 
ATOM     29  C   UNL     1       1.706  11.256  48.277  1.00  0.00     0.118 C 
BRANCH  29  30
ATOM     30  O   UNL     1       0.325  11.504  48.350  1.00  0.00    -0.393 OA
ATOM     31  H   UNL     1       0.130  12.289  47.774  1.00  0.00     0.210 HD
ENDBRANCH  29  30
ENDBRANCH   1  11
TORSDOF 6
ENDMDL
MODEL 9
REMARK VINA RESULT:    -6.903      4.941      8.481
REMARK INTER + INTRA:         -10.345
REMARK INTER:                  -8.286
REMARK INTRA:                  -2.060
REMARK UNBOUND:                -1.222
REMARK SMILES CC[C@H](C=C[C@H](C)[C@@H]1CC[C@H]2[C@H]3CC=C4C[C@@H](O)CC[C@]4(C)[C@@H]3CC[C@@]21C)C(C)C
REMARK SMILES IDX 6 1 7 2 5 3 4 4 3 5 2 6 1 7 28 8 29 9 30 10 8 11 9 12 26 13
REMARK SMILES IDX 10 14 11 15 25 16 27 17 12 18 24 19 23 20 13 21 21 22 14 23
REMARK SMILES IDX 15 24 20 25 22 26 16 27 19 28 17 29 18 30
REMARK H PARENT 18 31
REMARK Flexibility Score: inf
ROOT
ATOM      1  C   UNL     1      11.217   3.967  51.521  1.00  0.00     0.012 C 
ATOM      2  C   UNL     1      11.959   3.018  52.485  1.00  0.00     0.012 C 
ENDROOT
BRANCH   1   3
ATOM      3  C   UNL     1      10.662   5.093  52.369  1.00  0.00    -0.028 C 
ATOM      4  C   UNL     1       9.534   5.737  52.032  1.00  0.00    -0.027 C 
BRANCH   4   5
ATOM      5  C   UNL     1       8.959   6.843  52.892  1.00  0.00     0.014 C 
BRANCH   5   6
ATOM      6  C   UNL     1       9.515   8.205  52.408  1.00  0.00     0.004 C 
ATOM      7  C   UNL     1       9.154   8.508  50.951  1.00  0.00     0.004 C 
ENDBRANCH   5   6
BRANCH   5   8
ATOM      8  C   UNL     1       7.401   6.786  52.848  1.00  0.00    -0.011 C 
ATOM      9  C   UNL     1       6.750   7.979  53.572  1.00  0.00     0.008 C 
ATOM     10  C   UNL     1       6.875   5.479  53.472  1.00  0.00     0.008 C 
ENDBRANCH   5   8
ENDBRANCH   4   5
ENDBRANCH   1   3
BRANCH   1  11
ATOM     11  C   UNL     1      12.166   4.507  50.400  1.00  0.00     0.002 C 
ATOM     12  C   UNL     1      13.113   5.643  50.905  1.00  0.00     0.005 C 
ATOM     13  C   UNL     1      11.498   5.087  49.082  1.00  0.00    -0.026 C 
ATOM     14  C   UNL     1      13.035   6.793  49.905  1.00  0.00     0.005 C 
ATOM     15  C   UNL     1      11.672   6.601  49.281  1.00  0.00    -0.001 C 
ATOM     16  C   UNL     1       9.967   4.817  48.807  1.00  0.00     0.007 C 
ATOM     17  C   UNL     1      12.345   4.520  47.898  1.00  0.00     0.012 C 
ATOM     18  C   UNL     1      11.240   7.517  48.102  1.00  0.00     0.000 C 
ATOM     19  C   UNL     1       9.193   6.001  48.146  1.00  0.00     0.005 C 
ATOM     20  C   UNL     1      10.100   6.889  47.261  1.00  0.00     0.003 C 
ATOM     21  C   UNL     1      12.335   7.977  47.136  1.00  0.00     0.031 C 
ATOM     22  C   UNL     1       9.388   7.982  46.379  1.00  0.00    -0.008 C 
ATOM     23  C   UNL     1      11.743   8.955  46.148  1.00  0.00    -0.027 C 
ATOM     24  C   UNL     1      10.425   8.980  45.814  1.00  0.00    -0.065 C 
ATOM     25  C   UNL     1       8.333   8.787  47.200  1.00  0.00     0.014 C 
ATOM     26  C   UNL     1       8.687   7.269  45.190  1.00  0.00     0.016 C 
ATOM     27  C   UNL     1       9.892  10.169  45.043  1.00  0.00     0.063 C 
ATOM     28  C   UNL     1       7.770  10.009  46.446  1.00  0.00     0.033 C 
ATOM     29  C   UNL     1       8.891  10.933  45.926  1.00  0.00     0.118 C 
BRANCH  29  30
ATOM     30  O   UNL     1       8.349  12.024  45.228  1.00  0.00    -0.393 OA
ATOM     31  H   UNL     1       8.835  12.840  45.520  1.00  0.00     0.210 HD
ENDBRANCH  29  30
ENDBRANCH   1  11
TORSDOF 6
ENDMDL
