MODEL 1
REMARK VINA RESULT:    -4.457      0.000      0.000
REMARK INTER + INTRA:         -12.464
REMARK INTER:                  -9.669
REMARK INTRA:                  -2.796
REMARK UNBOUND:                -2.796
REMARK SMILES CCCCCCCCCCCCCCCCCCCCCC(=O)[O-]
REMARK SMILES IDX 12 1 11 2 10 3 9 4 8 5 7 6 6 7 5 8 4 9 3 10 2 11 1 12 13 13
REMARK SMILES IDX 14 14 15 15 16 16 17 17 18 18 19 19 20 20 21 21 22 22 23 23
REMARK SMILES IDX 24 24
REMARK H PARENT
REMARK Flexibility Score: inf
ROOT
ATOM      1  C   UNL     1      93.593 103.137  91.151  1.00  0.00     0.000 C 
ENDROOT
BRANCH   1   2
ATOM      2  C   UNL     1      92.462 102.659  90.232  1.00  0.00     0.000 C 
BRANCH   2   3
ATOM      3  C   UNL     1      92.986 101.676  89.178  1.00  0.00     0.000 C 
BRANCH   3   4
ATOM      4  C   UNL     1      92.121 100.407  89.131  1.00  0.00    -0.000 C 
BRANCH   4   5
ATOM      5  C   UNL     1      92.914  99.138  89.480  1.00  0.00    -0.000 C 
BRANCH   5   6
ATOM      6  C   UNL     1      92.037  97.877  89.496  1.00  0.00    -0.000 C 
BRANCH   6   7
ATOM      7  C   UNL     1      90.608  98.199  89.039  1.00  0.00    -0.000 C 
BRANCH   7   8
ATOM      8  C   UNL     1      89.593  97.877  90.146  1.00  0.00    -0.000 C 
BRANCH   8   9
ATOM      9  C   UNL     1      89.095  99.131  90.882  1.00  0.00    -0.000 C 
BRANCH   9  10
ATOM     10  C   UNL     1      89.435  99.178  92.385  1.00  0.00    -0.000 C 
BRANCH  10  11
ATOM     11  C   UNL     1      90.470 100.261  92.755  1.00  0.00    -0.003 C 
ATOM     12  C   UNL     1      91.887  99.700  92.870  1.00  0.00     0.004 C 
ENDBRANCH  10  11
ENDBRANCH   9  10
ENDBRANCH   8   9
ENDBRANCH   7   8
ENDBRANCH   6   7
ENDBRANCH   5   6
ENDBRANCH   4   5
ENDBRANCH   3   4
ENDBRANCH   2   3
ENDBRANCH   1   2
BRANCH   1  13
ATOM     13  C   UNL     1      94.848 103.489  90.344  1.00  0.00     0.000 C 
BRANCH  13  14
ATOM     14  C   UNL     1      94.740 104.904  89.752  1.00  0.00     0.000 C 
BRANCH  14  15
ATOM     15  C   UNL     1      96.106 105.487  89.353  1.00  0.00     0.000 C 
BRANCH  15  16
ATOM     16  C   UNL     1      97.115 104.401  88.943  1.00  0.00     0.000 C 
BRANCH  16  17
ATOM     17  C   UNL     1      98.545 104.721  89.412  1.00  0.00     0.000 C 
BRANCH  17  18
ATOM     18  C   UNL     1      99.302 103.471  89.892  1.00  0.00     0.000 C 
BRANCH  18  19
ATOM     19  C   UNL     1      98.380 102.258  90.101  1.00  0.00     0.000 C 
BRANCH  19  20
ATOM     20  C   UNL     1      98.221 101.800  91.564  1.00  0.00     0.006 C 
BRANCH  20  21
ATOM     21  C   UNL     1      97.790 100.330  91.719  1.00  0.00     0.053 C 
BRANCH  21  22
ATOM     22  C   UNL     1      96.428 100.068  91.150  1.00  0.00     0.041 C 
ATOM     23  O   UNL     1      96.299  99.726  89.945  1.00  0.00    -0.550 OA
ATOM     24  O   UNL     1      95.297 100.240  91.938  1.00  0.00    -0.550 OA
ENDBRANCH  21  22
ENDBRANCH  20  21
ENDBRANCH  19  20
ENDBRANCH  18  19
ENDBRANCH  17  18
ENDBRANCH  16  17
ENDBRANCH  15  16
ENDBRANCH  14  15
ENDBRANCH  13  14
ENDBRANCH   1  13
TORSDOF 20
ENDMDL
MODEL 2
REMARK VINA RESULT:    -4.452      8.100     13.068
REMARK INTER + INTRA:         -12.452
REMARK INTER:                  -9.068
REMARK INTRA:                  -3.384
REMARK UNBOUND:                -2.796
REMARK SMILES CCCCCCCCCCCCCCCCCCCCCC(=O)[O-]
REMARK SMILES IDX 12 1 11 2 10 3 9 4 8 5 7 6 6 7 5 8 4 9 3 10 2 11 1 12 13 13
REMARK SMILES IDX 14 14 15 15 16 16 17 17 18 18 19 19 20 20 21 21 22 22 23 23
REMARK SMILES IDX 24 24
REMARK H PARENT
REMARK Flexibility Score: inf
ROOT
ATOM      1  C   UNL     1     104.375  96.335  90.237  1.00  0.00     0.000 C 
ENDROOT
BRANCH   1   2
ATOM      2  C   UNL     1     105.741  96.520  89.566  1.00  0.00     0.000 C 
BRANCH   2   3
ATOM      3  C   UNL     1     105.762  97.783  88.697  1.00  0.00     0.000 C 
BRANCH   3   4
ATOM      4  C   UNL     1     104.858  98.875  89.290  1.00  0.00    -0.000 C 
BRANCH   4   5
ATOM      5  C   UNL     1     105.645 100.118  89.731  1.00  0.00    -0.000 C 
BRANCH   5   6
ATOM      6  C   UNL     1     107.079 100.137  89.179  1.00  0.00    -0.000 C 
BRANCH   6   7
ATOM      7  C   UNL     1     108.103 100.196  90.319  1.00  0.00    -0.000 C 
BRANCH   7   8
ATOM      8  C   UNL     1     108.972  98.930  90.343  1.00  0.00    -0.000 C 
BRANCH   8   9
ATOM      9  C   UNL     1     108.742  98.072  91.597  1.00  0.00    -0.000 C 
BRANCH   9  10
ATOM     10  C   UNL     1     107.836  98.717  92.665  1.00  0.00    -0.000 C 
BRANCH  10  11
ATOM     11  C   UNL     1     106.465  98.026  92.816  1.00  0.00    -0.003 C 
ATOM     12  C   UNL     1     105.371  98.992  93.272  1.00  0.00     0.004 C 
ENDBRANCH  10  11
ENDBRANCH   9  10
ENDBRANCH   8   9
ENDBRANCH   7   8
ENDBRANCH   6   7
ENDBRANCH   5   6
ENDBRANCH   4   5
ENDBRANCH   3   4
ENDBRANCH   2   3
ENDBRANCH   1   2
BRANCH   1  13
ATOM     13  C   UNL     1     104.448  95.291  91.358  1.00  0.00     0.000 C 
BRANCH  13  14
ATOM     14  C   UNL     1     103.478  94.130  91.091  1.00  0.00     0.000 C 
BRANCH  14  15
ATOM     15  C   UNL     1     103.147  93.963  89.598  1.00  0.00     0.000 C 
BRANCH  15  16
ATOM     16  C   UNL     1     102.030  92.934  89.352  1.00  0.00     0.000 C 
BRANCH  16  17
ATOM     17  C   UNL     1     100.862  93.518  88.541  1.00  0.00     0.000 C 
BRANCH  17  18
ATOM     18  C   UNL     1      99.542  93.530  89.331  1.00  0.00     0.000 C 
BRANCH  18  19
ATOM     19  C   UNL     1      99.087  94.949  89.712  1.00  0.00     0.000 C 
BRANCH  19  20
ATOM     20  C   UNL     1      99.970  95.662  90.756  1.00  0.00     0.006 C 
BRANCH  20  21
ATOM     21  C   UNL     1     100.527  97.019  90.286  1.00  0.00     0.053 C 
BRANCH  21  22
ATOM     22  C   UNL     1     100.804  97.951  91.427  1.00  0.00     0.041 C 
ATOM     23  O   UNL     1     101.937  97.964  91.976  1.00  0.00    -0.550 OA
ATOM     24  O   UNL     1      99.800  98.780  91.912  1.00  0.00    -0.550 OA
ENDBRANCH  21  22
ENDBRANCH  20  21
ENDBRANCH  19  20
ENDBRANCH  18  19
ENDBRANCH  17  18
ENDBRANCH  16  17
ENDBRANCH  15  16
ENDBRANCH  14  15
ENDBRANCH  13  14
ENDBRANCH   1  13
TORSDOF 20
ENDMDL
MODEL 3
REMARK VINA RESULT:    -4.442      1.222      2.487
REMARK INTER + INTRA:         -12.431
REMARK INTER:                  -9.391
REMARK INTRA:                  -3.040
REMARK UNBOUND:                -2.796
REMARK SMILES CCCCCCCCCCCCCCCCCCCCCC(=O)[O-]
REMARK SMILES IDX 12 1 11 2 10 3 9 4 8 5 7 6 6 7 5 8 4 9 3 10 2 11 1 12 13 13
REMARK SMILES IDX 14 14 15 15 16 16 17 17 18 18 19 19 20 20 21 21 22 22 23 23
REMARK SMILES IDX 24 24
REMARK H PARENT
REMARK Flexibility Score: inf
ROOT
ATOM      1  C   UNL     1      92.306 101.625  89.885  1.00  0.00     0.000 C 
ENDROOT
BRANCH   1   2
ATOM      2  C   UNL     1      93.353 101.188  88.854  1.00  0.00     0.000 C 
BRANCH   2   3
ATOM      3  C   UNL     1      94.354 100.202  89.468  1.00  0.00     0.000 C 
BRANCH   3   4
ATOM      4  C   UNL     1      93.728  99.449  90.652  1.00  0.00    -0.000 C 
BRANCH   4   5
ATOM      5  C   UNL     1      94.314  99.885  92.004  1.00  0.00    -0.000 C 
BRANCH   5   6
ATOM      6  C   UNL     1      93.303  99.763  93.154  1.00  0.00    -0.000 C 
BRANCH   6   7
ATOM      7  C   UNL     1      92.011  99.086  92.679  1.00  0.00    -0.000 C 
BRANCH   7   8
ATOM      8  C   UNL     1      90.800 100.006  92.888  1.00  0.00    -0.000 C 
BRANCH   8   9
ATOM      9  C   UNL     1      89.685  99.768  91.857  1.00  0.00    -0.000 C 
BRANCH   9  10
ATOM     10  C   UNL     1      89.296  98.290  91.653  1.00  0.00    -0.000 C 
BRANCH  10  11
ATOM     11  C   UNL     1      89.291  97.847  90.174  1.00  0.00    -0.003 C 
ATOM     12  C   UNL     1      90.337  98.586  89.340  1.00  0.00     0.004 C 
ENDBRANCH  10  11
ENDBRANCH   9  10
ENDBRANCH   8   9
ENDBRANCH   7   8
ENDBRANCH   6   7
ENDBRANCH   5   6
ENDBRANCH   4   5
ENDBRANCH   3   4
ENDBRANCH   2   3
ENDBRANCH   1   2
BRANCH   1  13
ATOM     13  C   UNL     1      92.408 103.128  90.171  1.00  0.00     0.000 C 
BRANCH  13  14
ATOM     14  C   UNL     1      93.786 103.484  90.751  1.00  0.00     0.000 C 
BRANCH  14  15
ATOM     15  C   UNL     1      94.509 104.572  89.940  1.00  0.00     0.000 C 
BRANCH  15  16
ATOM     16  C   UNL     1      95.719 104.024  89.162  1.00  0.00     0.000 C 
BRANCH  16  17
ATOM     17  C   UNL     1      96.917 104.987  89.187  1.00  0.00     0.000 C 
BRANCH  17  18
ATOM     18  C   UNL     1      98.261 104.253  89.339  1.00  0.00     0.000 C 
BRANCH  18  19
ATOM     19  C   UNL     1      98.093 102.739  89.550  1.00  0.00     0.000 C 
BRANCH  19  20
ATOM     20  C   UNL     1      98.626 102.202  90.893  1.00  0.00     0.006 C 
BRANCH  20  21
ATOM     21  C   UNL     1      97.640 101.284  91.639  1.00  0.00     0.053 C 
BRANCH  21  22
ATOM     22  C   UNL     1      97.896  99.831  91.373  1.00  0.00     0.041 C 
ATOM     23  O   UNL     1      97.752  99.363  90.213  1.00  0.00    -0.550 OA
ATOM     24  O   UNL     1      98.256  98.983  92.413  1.00  0.00    -0.550 OA
ENDBRANCH  21  22
ENDBRANCH  20  21
ENDBRANCH  19  20
ENDBRANCH  18  19
ENDBRANCH  17  18
ENDBRANCH  16  17
ENDBRANCH  15  16
ENDBRANCH  14  15
ENDBRANCH  13  14
ENDBRANCH   1  13
TORSDOF 20
ENDMDL
MODEL 4
REMARK VINA RESULT:    -4.408      7.006     12.058
REMARK INTER + INTRA:         -12.357
REMARK INTER:                  -9.443
REMARK INTRA:                  -2.914
REMARK UNBOUND:                -2.796
REMARK SMILES CCCCCCCCCCCCCCCCCCCCCC(=O)[O-]
REMARK SMILES IDX 12 1 11 2 10 3 9 4 8 5 7 6 6 7 5 8 4 9 3 10 2 11 1 12 13 13
REMARK SMILES IDX 14 14 15 15 16 16 17 17 18 18 19 19 20 20 21 21 22 22 23 23
REMARK SMILES IDX 24 24
REMARK H PARENT
REMARK Flexibility Score: inf
ROOT
ATOM      1  C   UNL     1     103.208  94.424  90.062  1.00  0.00     0.000 C 
ENDROOT
BRANCH   1   2
ATOM      2  C   UNL     1     104.626  94.927  89.771  1.00  0.00     0.000 C 
BRANCH   2   3
ATOM      3  C   UNL     1     104.595  96.286  89.062  1.00  0.00     0.000 C 
BRANCH   3   4
ATOM      4  C   UNL     1     103.325  97.069  89.429  1.00  0.00    -0.000 C 
BRANCH   4   5
ATOM      5  C   UNL     1     103.610  98.250  90.370  1.00  0.00    -0.000 C 
BRANCH   5   6
ATOM      6  C   UNL     1     103.475  97.871  91.853  1.00  0.00    -0.000 C 
BRANCH   6   7
ATOM      7  C   UNL     1     104.850  97.604  92.478  1.00  0.00    -0.000 C 
BRANCH   7   8
ATOM      8  C   UNL     1     105.691  98.888  92.521  1.00  0.00    -0.000 C 
BRANCH   8   9
ATOM      9  C   UNL     1     107.191  98.626  92.309  1.00  0.00    -0.000 C 
BRANCH   9  10
ATOM     10  C   UNL     1     107.650  98.643  90.837  1.00  0.00    -0.000 C 
BRANCH  10  11
ATOM     11  C   UNL     1     107.548 100.031  90.170  1.00  0.00    -0.003 C 
ATOM     12  C   UNL     1     106.494 100.071  89.063  1.00  0.00     0.004 C 
ENDBRANCH  10  11
ENDBRANCH   9  10
ENDBRANCH   8   9
ENDBRANCH   7   8
ENDBRANCH   6   7
ENDBRANCH   5   6
ENDBRANCH   4   5
ENDBRANCH   3   4
ENDBRANCH   2   3
ENDBRANCH   1   2
BRANCH   1  13
ATOM     13  C   UNL     1     103.078  92.928  89.750  1.00  0.00     0.000 C 
BRANCH  13  14
ATOM     14  C   UNL     1     101.708  92.614  89.129  1.00  0.00     0.000 C 
BRANCH  14  15
ATOM     15  C   UNL     1     100.876  93.877  88.855  1.00  0.00     0.000 C 
BRANCH  15  16
ATOM     16  C   UNL     1      99.378  93.673  89.143  1.00  0.00     0.000 C 
BRANCH  16  17
ATOM     17  C   UNL     1      98.816  94.732  90.105  1.00  0.00     0.000 C 
BRANCH  17  18
ATOM     18  C   UNL     1      99.741  95.955  90.243  1.00  0.00     0.000 C 
BRANCH  18  19
ATOM     19  C   UNL     1      99.874  96.442  91.696  1.00  0.00     0.000 C 
BRANCH  19  20
ATOM     20  C   UNL     1      99.940  97.972  91.870  1.00  0.00     0.006 C 
BRANCH  20  21
ATOM     21  C   UNL     1      98.627  98.605  92.367  1.00  0.00     0.053 C 
BRANCH  21  22
ATOM     22  C   UNL     1      98.139  99.697  91.464  1.00  0.00     0.041 C 
ATOM     23  O   UNL     1      98.450  99.699  90.244  1.00  0.00    -0.550 OA
ATOM     24  O   UNL     1      97.371 100.736  91.976  1.00  0.00    -0.550 OA
ENDBRANCH  21  22
ENDBRANCH  20  21
ENDBRANCH  19  20
ENDBRANCH  18  19
ENDBRANCH  17  18
ENDBRANCH  16  17
ENDBRANCH  15  16
ENDBRANCH  14  15
ENDBRANCH  13  14
ENDBRANCH   1  13
TORSDOF 20
ENDMDL
MODEL 5
REMARK VINA RESULT:    -4.391      3.039      6.871
REMARK INTER + INTRA:         -12.322
REMARK INTER:                  -9.685
REMARK INTRA:                  -2.637
REMARK UNBOUND:                -2.796
REMARK SMILES CCCCCCCCCCCCCCCCCCCCCC(=O)[O-]
REMARK SMILES IDX 12 1 11 2 10 3 9 4 8 5 7 6 6 7 5 8 4 9 3 10 2 11 1 12 13 13
REMARK SMILES IDX 14 14 15 15 16 16 17 17 18 18 19 19 20 20 21 21 22 22 23 23
REMARK SMILES IDX 24 24
REMARK H PARENT
REMARK Flexibility Score: inf
ROOT
ATOM      1  C   UNL     1      98.115 104.529  89.384  1.00  0.00     0.000 C 
ENDROOT
BRANCH   1   2
ATOM      2  C   UNL     1      99.032 103.409  89.890  1.00  0.00     0.000 C 
BRANCH   2   3
ATOM      3  C   UNL     1      98.228 102.148  90.227  1.00  0.00     0.000 C 
BRANCH   3   4
ATOM      4  C   UNL     1      98.383 101.778  91.710  1.00  0.00    -0.000 C 
BRANCH   4   5
ATOM      5  C   UNL     1      98.281 100.265  91.955  1.00  0.00    -0.000 C 
BRANCH   5   6
ATOM      6  C   UNL     1      98.227  99.456  90.650  1.00  0.00    -0.000 C 
BRANCH   6   7
ATOM      7  C   UNL     1      99.494  98.610  90.476  1.00  0.00    -0.000 C 
BRANCH   7   8
ATOM      8  C   UNL     1      99.876  97.917  91.793  1.00  0.00    -0.000 C 
BRANCH   8   9
ATOM      9  C   UNL     1      99.649  96.398  91.755  1.00  0.00    -0.000 C 
BRANCH   9  10
ATOM     10  C   UNL     1     100.090  95.709  90.448  1.00  0.00    -0.000 C 
BRANCH  10  11
ATOM     11  C   UNL     1      98.969  94.901  89.762  1.00  0.00    -0.003 C 
ATOM     12  C   UNL     1      99.417  93.491  89.376  1.00  0.00     0.004 C 
ENDBRANCH  10  11
ENDBRANCH   9  10
ENDBRANCH   8   9
ENDBRANCH   7   8
ENDBRANCH   6   7
ENDBRANCH   5   6
ENDBRANCH   4   5
ENDBRANCH   3   4
ENDBRANCH   2   3
ENDBRANCH   1   2
BRANCH   1  13
ATOM     13  C   UNL     1      96.768 103.968  88.912  1.00  0.00     0.000 C 
BRANCH  13  14
ATOM     14  C   UNL     1      95.600 104.767  89.513  1.00  0.00     0.000 C 
BRANCH  14  15
ATOM     15  C   UNL     1      94.363 103.896  89.786  1.00  0.00     0.000 C 
BRANCH  15  16
ATOM     16  C   UNL     1      94.135 103.649  91.288  1.00  0.00     0.000 C 
BRANCH  16  17
ATOM     17  C   UNL     1      94.830 102.370  91.784  1.00  0.00     0.000 C 
BRANCH  17  18
ATOM     18  C   UNL     1      94.740 101.218  90.768  1.00  0.00     0.000 C 
BRANCH  18  19
ATOM     19  C   UNL     1      94.502  99.852  91.435  1.00  0.00     0.000 C 
BRANCH  19  20
ATOM     20  C   UNL     1      93.496  99.860  92.603  1.00  0.00     0.006 C 
BRANCH  20  21
ATOM     21  C   UNL     1      92.070  99.434  92.208  1.00  0.00     0.053 C 
BRANCH  21  22
ATOM     22  C   UNL     1      91.100 100.576  92.239  1.00  0.00     0.041 C 
ATOM     23  O   UNL     1      91.265 101.569  91.482  1.00  0.00    -0.550 OA
ATOM     24  O   UNL     1      90.034 100.564  93.130  1.00  0.00    -0.550 OA
ENDBRANCH  21  22
ENDBRANCH  20  21
ENDBRANCH  19  20
ENDBRANCH  18  19
ENDBRANCH  17  18
ENDBRANCH  16  17
ENDBRANCH  15  16
ENDBRANCH  14  15
ENDBRANCH  13  14
ENDBRANCH   1  13
TORSDOF 20
ENDMDL
MODEL 6
REMARK VINA RESULT:    -4.382      1.645      7.079
REMARK INTER + INTRA:         -12.302
REMARK INTER:                  -9.331
REMARK INTRA:                  -2.971
REMARK UNBOUND:                -2.796
REMARK SMILES CCCCCCCCCCCCCCCCCCCCCC(=O)[O-]
REMARK SMILES IDX 12 1 11 2 10 3 9 4 8 5 7 6 6 7 5 8 4 9 3 10 2 11 1 12 13 13
REMARK SMILES IDX 14 14 15 15 16 16 17 17 18 18 19 19 20 20 21 21 22 22 23 23
REMARK SMILES IDX 24 24
REMARK H PARENT
REMARK Flexibility Score: inf
ROOT
ATOM      1  C   UNL     1      93.865 103.429  90.845  1.00  0.00     0.000 C 
ENDROOT
BRANCH   1   2
ATOM      2  C   UNL     1      94.516 104.609  90.114  1.00  0.00     0.000 C 
BRANCH   2   3
ATOM      3  C   UNL     1      95.534 104.122  89.076  1.00  0.00     0.000 C 
BRANCH   3   4
ATOM      4  C   UNL     1      96.671 105.139  88.900  1.00  0.00    -0.000 C 
BRANCH   4   5
ATOM      5  C   UNL     1      97.985 104.484  88.446  1.00  0.00    -0.000 C 
BRANCH   5   6
ATOM      6  C   UNL     1      99.040 104.439  89.562  1.00  0.00    -0.000 C 
BRANCH   6   7
ATOM      7  C   UNL     1      98.986 103.104  90.313  1.00  0.00    -0.000 C 
BRANCH   7   8
ATOM      8  C   UNL     1      98.561 101.964  89.376  1.00  0.00    -0.000 C 
BRANCH   8   9
ATOM      9  C   UNL     1      97.312 101.218  89.874  1.00  0.00    -0.000 C 
BRANCH   9  10
ATOM     10  C   UNL     1      97.147 101.181  91.406  1.00  0.00    -0.000 C 
BRANCH  10  11
ATOM     11  C   UNL     1      97.330  99.776  92.017  1.00  0.00    -0.003 C 
ATOM     12  C   UNL     1      98.791  99.324  92.016  1.00  0.00     0.004 C 
ENDBRANCH  10  11
ENDBRANCH   9  10
ENDBRANCH   8   9
ENDBRANCH   7   8
ENDBRANCH   6   7
ENDBRANCH   5   6
ENDBRANCH   4   5
ENDBRANCH   3   4
ENDBRANCH   2   3
ENDBRANCH   1   2
BRANCH   1  13
ATOM     13  C   UNL     1      92.575 102.989  90.143  1.00  0.00     0.000 C 
BRANCH  13  14
ATOM     14  C   UNL     1      92.718 101.568  89.575  1.00  0.00     0.000 C 
BRANCH  14  15
ATOM     15  C   UNL     1      93.674 100.691  90.401  1.00  0.00     0.000 C 
BRANCH  15  16
ATOM     16  C   UNL     1      93.965  99.338  89.727  1.00  0.00     0.000 C 
BRANCH  16  17
ATOM     17  C   UNL     1      92.995  98.235  90.184  1.00  0.00     0.000 C 
BRANCH  17  18
ATOM     18  C   UNL     1      91.862  97.990  89.172  1.00  0.00     0.000 C 
BRANCH  18  19
ATOM     19  C   UNL     1      90.526  98.614  89.609  1.00  0.00     0.000 C 
BRANCH  19  20
ATOM     20  C   UNL     1      89.990  98.126  90.970  1.00  0.00     0.006 C 
BRANCH  20  21
ATOM     21  C   UNL     1      89.513  99.256  91.900  1.00  0.00     0.053 C 
BRANCH  21  22
ATOM     22  C   UNL     1      90.651  99.970  92.567  1.00  0.00     0.041 C 
ATOM     23  O   UNL     1      90.722 101.226  92.527  1.00  0.00    -0.550 OA
ATOM     24  O   UNL     1      91.655  99.247  93.198  1.00  0.00    -0.550 OA
ENDBRANCH  21  22
ENDBRANCH  20  21
ENDBRANCH  19  20
ENDBRANCH  18  19
ENDBRANCH  17  18
ENDBRANCH  16  17
ENDBRANCH  15  16
ENDBRANCH  14  15
ENDBRANCH  13  14
ENDBRANCH   1  13
TORSDOF 20
ENDMDL
MODEL 7
REMARK VINA RESULT:    -4.342      7.618     10.613
REMARK INTER + INTRA:         -12.215
REMARK INTER:                  -9.635
REMARK INTRA:                  -2.581
REMARK UNBOUND:                -2.796
REMARK SMILES CCCCCCCCCCCCCCCCCCCCCC(=O)[O-]
REMARK SMILES IDX 12 1 11 2 10 3 9 4 8 5 7 6 6 7 5 8 4 9 3 10 2 11 1 12 13 13
REMARK SMILES IDX 14 14 15 15 16 16 17 17 18 18 19 19 20 20 21 21 22 22 23 23
REMARK SMILES IDX 24 24
REMARK H PARENT
REMARK Flexibility Score: inf
ROOT
ATOM      1  C   UNL     1     103.228  94.030  90.200  1.00  0.00     0.000 C 
ENDROOT
BRANCH   1   2
ATOM      2  C   UNL     1     103.023  92.605  89.674  1.00  0.00     0.000 C 
BRANCH   2   3
ATOM      3  C   UNL     1     101.593  92.407  89.157  1.00  0.00     0.000 C 
BRANCH   3   4
ATOM      4  C   UNL     1     100.924  93.759  88.860  1.00  0.00    -0.000 C 
BRANCH   4   5
ATOM      5  C   UNL     1      99.411  93.739  89.125  1.00  0.00    -0.000 C 
BRANCH   5   6
ATOM      6  C   UNL     1      98.972  94.817  90.128  1.00  0.00    -0.000 C 
BRANCH   6   7
ATOM      7  C   UNL     1     100.074  95.866  90.321  1.00  0.00    -0.000 C 
BRANCH   7   8
ATOM      8  C   UNL     1     100.067  96.411  91.757  1.00  0.00    -0.000 C 
BRANCH   8   9
ATOM      9  C   UNL     1     100.422  97.904  91.831  1.00  0.00    -0.000 C 
BRANCH   9  10
ATOM     10  C   UNL     1      99.473  98.835  91.049  1.00  0.00    -0.000 C 
BRANCH  10  11
ATOM     11  C   UNL     1      98.353  99.449  91.914  1.00  0.00    -0.003 C 
ATOM     12  C   UNL     1      98.271 100.969  91.771  1.00  0.00     0.004 C 
ENDBRANCH  10  11
ENDBRANCH   9  10
ENDBRANCH   8   9
ENDBRANCH   7   8
ENDBRANCH   6   7
ENDBRANCH   5   6
ENDBRANCH   4   5
ENDBRANCH   3   4
ENDBRANCH   2   3
ENDBRANCH   1   2
BRANCH   1  13
ATOM     13  C   UNL     1     104.686  94.476  90.033  1.00  0.00     0.000 C 
BRANCH  13  14
ATOM     14  C   UNL     1     104.783  95.692  89.098  1.00  0.00     0.000 C 
BRANCH  14  15
ATOM     15  C   UNL     1     103.532  96.584  89.150  1.00  0.00     0.000 C 
BRANCH  15  16
ATOM     16  C   UNL     1     103.703  97.787  90.094  1.00  0.00     0.000 C 
BRANCH  16  17
ATOM     17  C   UNL     1     103.861  99.113  89.331  1.00  0.00     0.000 C 
BRANCH  17  18
ATOM     18  C   UNL     1     104.955 100.013  89.932  1.00  0.00     0.000 C 
BRANCH  18  19
ATOM     19  C   UNL     1     106.304  99.879  89.204  1.00  0.00     0.000 C 
BRANCH  19  20
ATOM     20  C   UNL     1     107.268  98.834  89.800  1.00  0.00     0.006 C 
BRANCH  20  21
ATOM     21  C   UNL     1     107.636  99.086  91.273  1.00  0.00     0.053 C 
BRANCH  21  22
ATOM     22  C   UNL     1     107.172  97.983  92.177  1.00  0.00     0.041 C 
ATOM     23  O   UNL     1     106.988  98.202  93.403  1.00  0.00    -0.550 OA
ATOM     24  O   UNL     1     106.980  96.702  91.675  1.00  0.00    -0.550 OA
ENDBRANCH  21  22
ENDBRANCH  20  21
ENDBRANCH  19  20
ENDBRANCH  18  19
ENDBRANCH  17  18
ENDBRANCH  16  17
ENDBRANCH  15  16
ENDBRANCH  14  15
ENDBRANCH  13  14
ENDBRANCH   1  13
TORSDOF 20
ENDMDL
MODEL 8
REMARK VINA RESULT:    -4.312      8.884     11.662
REMARK INTER + INTRA:         -12.150
REMARK INTER:                  -9.126
REMARK INTRA:                  -3.024
REMARK UNBOUND:                -2.796
REMARK SMILES CCCCCCCCCCCCCCCCCCCCCC(=O)[O-]
REMARK SMILES IDX 12 1 11 2 10 3 9 4 8 5 7 6 6 7 5 8 4 9 3 10 2 11 1 12 13 13
REMARK SMILES IDX 14 14 15 15 16 16 17 17 18 18 19 19 20 20 21 21 22 22 23 23
REMARK SMILES IDX 24 24
REMARK H PARENT
REMARK Flexibility Score: inf
ROOT
ATOM      1  C   UNL     1     103.214  94.326  90.149  1.00  0.00     0.000 C 
ENDROOT
BRANCH   1   2
ATOM      2  C   UNL     1     103.225  92.851  89.728  1.00  0.00     0.000 C 
BRANCH   2   3
ATOM      3  C   UNL     1     101.873  92.437  89.136  1.00  0.00     0.000 C 
BRANCH   3   4
ATOM      4  C   UNL     1     100.968  93.660  88.921  1.00  0.00    -0.000 C 
BRANCH   4   5
ATOM      5  C   UNL     1      99.518  93.406  89.358  1.00  0.00    -0.000 C 
BRANCH   5   6
ATOM      6  C   UNL     1      98.867  94.643  89.998  1.00  0.00    -0.000 C 
BRANCH   6   7
ATOM      7  C   UNL     1      99.785  95.866  89.881  1.00  0.00    -0.000 C 
BRANCH   7   8
ATOM      8  C   UNL     1     100.087  96.459  91.266  1.00  0.00    -0.000 C 
BRANCH   8   9
ATOM      9  C   UNL     1     101.116  97.599  91.214  1.00  0.00    -0.000 C 
BRANCH   9  10
ATOM     10  C   UNL     1     102.409  97.341  92.014  1.00  0.00    -0.000 C 
BRANCH  10  11
ATOM     11  C   UNL     1     103.587  98.248  91.600  1.00  0.00    -0.003 C 
ATOM     12  C   UNL     1     104.818  98.046  92.483  1.00  0.00     0.004 C 
ENDBRANCH  10  11
ENDBRANCH   9  10
ENDBRANCH   8   9
ENDBRANCH   7   8
ENDBRANCH   6   7
ENDBRANCH   5   6
ENDBRANCH   4   5
ENDBRANCH   3   4
ENDBRANCH   2   3
ENDBRANCH   1   2
BRANCH   1  13
ATOM     13  C   UNL     1     104.618  94.795  90.551  1.00  0.00     0.000 C 
BRANCH  13  14
ATOM     14  C   UNL     1     105.239  95.671  89.452  1.00  0.00     0.000 C 
BRANCH  14  15
ATOM     15  C   UNL     1     104.200  96.177  88.437  1.00  0.00     0.000 C 
BRANCH  15  16
ATOM     16  C   UNL     1     104.311  97.691  88.184  1.00  0.00     0.000 C 
BRANCH  16  17
ATOM     17  C   UNL     1     105.771  98.170  88.124  1.00  0.00     0.000 C 
BRANCH  17  18
ATOM     18  C   UNL     1     106.061  99.304  89.123  1.00  0.00     0.000 C 
BRANCH  18  19
ATOM     19  C   UNL     1     107.239 100.194  88.690  1.00  0.00     0.000 C 
BRANCH  19  20
ATOM     20  C   UNL     1     108.336 100.393  89.756  1.00  0.00     0.006 C 
BRANCH  20  21
ATOM     21  C   UNL     1     109.037  99.091  90.186  1.00  0.00     0.053 C 
BRANCH  21  22
ATOM     22  C   UNL     1     108.728  98.714  91.604  1.00  0.00     0.041 C 
ATOM     23  O   UNL     1     109.076  97.590  92.052  1.00  0.00    -0.550 OA
ATOM     24  O   UNL     1     108.020  99.586  92.421  1.00  0.00    -0.550 OA
ENDBRANCH  21  22
ENDBRANCH  20  21
ENDBRANCH  19  20
ENDBRANCH  18  19
ENDBRANCH  17  18
ENDBRANCH  16  17
ENDBRANCH  15  16
ENDBRANCH  14  15
ENDBRANCH  13  14
ENDBRANCH   1  13
TORSDOF 20
ENDMDL
MODEL 9
REMARK VINA RESULT:    -4.296      1.821      6.853
REMARK INTER + INTRA:         -12.115
REMARK INTER:                  -8.779
REMARK INTRA:                  -3.337
REMARK UNBOUND:                -2.796
REMARK SMILES CCCCCCCCCCCCCCCCCCCCCC(=O)[O-]
REMARK SMILES IDX 12 1 11 2 10 3 9 4 8 5 7 6 6 7 5 8 4 9 3 10 2 11 1 12 13 13
REMARK SMILES IDX 14 14 15 15 16 16 17 17 18 18 19 19 20 20 21 21 22 22 23 23
REMARK SMILES IDX 24 24
REMARK H PARENT
REMARK Flexibility Score: inf
ROOT
ATOM      1  C   UNL     1      97.084 100.688  91.984  1.00  0.00     0.000 C 
ENDROOT
BRANCH   1   2
ATOM      2  C   UNL     1      98.253 101.673  91.865  1.00  0.00     0.000 C 
BRANCH   2   3
ATOM      3  C   UNL     1      98.653 101.879  90.399  1.00  0.00     0.000 C 
BRANCH   3   4
ATOM      4  C   UNL     1      99.143 103.316  90.160  1.00  0.00    -0.000 C 
BRANCH   4   5
ATOM      5  C   UNL     1      98.300 104.061  89.114  1.00  0.00    -0.000 C 
BRANCH   5   6
ATOM      6  C   UNL     1      97.577 103.108  88.149  1.00  0.00    -0.000 C 
BRANCH   6   7
ATOM      7  C   UNL     1      96.064 103.117  88.402  1.00  0.00    -0.000 C 
BRANCH   7   8
ATOM      8  C   UNL     1      95.688 104.182  89.442  1.00  0.00    -0.000 C 
BRANCH   8   9
ATOM      9  C   UNL     1      94.320 103.923  90.093  1.00  0.00    -0.000 C 
BRANCH   9  10
ATOM     10  C   UNL     1      94.379 103.464  91.564  1.00  0.00    -0.000 C 
BRANCH  10  11
ATOM     11  C   UNL     1      93.211 102.542  91.975  1.00  0.00    -0.003 C 
ATOM     12  C   UNL     1      92.083 102.534  90.943  1.00  0.00     0.004 C 
ENDBRANCH  10  11
ENDBRANCH   9  10
ENDBRANCH   8   9
ENDBRANCH   7   8
ENDBRANCH   6   7
ENDBRANCH   5   6
ENDBRANCH   4   5
ENDBRANCH   3   4
ENDBRANCH   2   3
ENDBRANCH   1   2
BRANCH   1  13
ATOM     13  C   UNL     1      96.784 100.023  90.635  1.00  0.00     0.000 C 
BRANCH  13  14
ATOM     14  C   UNL     1      95.276 100.040  90.339  1.00  0.00     0.000 C 
BRANCH  14  15
ATOM     15  C   UNL     1      94.950  99.641  88.890  1.00  0.00     0.000 C 
BRANCH  15  16
ATOM     16  C   UNL     1      93.439  99.654  88.599  1.00  0.00     0.000 C 
BRANCH  16  17
ATOM     17  C   UNL     1      92.600  99.282  89.833  1.00  0.00     0.000 C 
BRANCH  17  18
ATOM     18  C   UNL     1      92.021  97.859  89.745  1.00  0.00     0.000 C 
BRANCH  18  19
ATOM     19  C   UNL     1      90.513  97.846  89.442  1.00  0.00     0.000 C 
BRANCH  19  20
ATOM     20  C   UNL     1      89.682  98.894  90.209  1.00  0.00     0.006 C 
BRANCH  20  21
ATOM     21  C   UNL     1      89.544  98.606  91.715  1.00  0.00     0.053 C 
BRANCH  21  22
ATOM     22  C   UNL     1      90.049  99.733  92.564  1.00  0.00     0.041 C 
ATOM     23  O   UNL     1      91.191  99.668  93.092  1.00  0.00    -0.550 OA
ATOM     24  O   UNL     1      89.246 100.841  92.805  1.00  0.00    -0.550 OA
ENDBRANCH  21  22
ENDBRANCH  20  21
ENDBRANCH  19  20
ENDBRANCH  18  19
ENDBRANCH  17  18
ENDBRANCH  16  17
ENDBRANCH  15  16
ENDBRANCH  14  15
ENDBRANCH  13  14
ENDBRANCH   1  13
TORSDOF 20
ENDMDL
