MODEL 1
REMARK VINA RESULT:    -4.488      0.000      0.000
REMARK INTER + INTRA:          -9.928
REMARK INTER:                  -8.161
REMARK INTRA:                  -1.767
REMARK UNBOUND:                -1.767
REMARK SMILES CCCCCCCCCCCCCCCC(=O)[O-]
REMARK SMILES IDX 9 1 10 2 11 3 12 4 13 5 14 6 15 7 16 8 17 9 18 10 8 11 7 12
REMARK SMILES IDX 6 13 5 14 4 15 3 16 2 17 1 18
REMARK H PARENT
REMARK Flexibility Score: inf
ROOT
ATOM      1  C   UNL     1      20.370 116.842 297.525  1.00  0.00     0.000 C 
ENDROOT
BRANCH   1   2
ATOM      2  C   UNL     1      21.759 116.878 296.866  1.00  0.00     0.000 C 
BRANCH   2   3
ATOM      3  C   UNL     1      21.895 117.988 295.813  1.00  0.00     0.000 C 
BRANCH   3   4
ATOM      4  C   UNL     1      21.778 119.373 296.460  1.00  0.00     0.000 C 
BRANCH   4   5
ATOM      5  C   UNL     1      22.828 119.557 297.563  1.00  0.00     0.000 C 
BRANCH   5   6
ATOM      6  C   UNL     1      22.160 119.847 298.915  1.00  0.00     0.006 C 
BRANCH   6   7
ATOM      7  C   UNL     1      20.783 120.505 298.753  1.00  0.00     0.053 C 
BRANCH   7   8
ATOM      8  C   UNL     1      19.753 119.858 299.626  1.00  0.00     0.041 C 
ATOM      9  O   UNL     1      18.532 120.122 299.470  1.00  0.00    -0.550 OA
ATOM     10  O   UNL     1      20.141 118.937 300.593  1.00  0.00    -0.550 OA
ENDBRANCH   7   8
ENDBRANCH   6   7
ENDBRANCH   5   6
ENDBRANCH   4   5
ENDBRANCH   3   4
ENDBRANCH   2   3
ENDBRANCH   1   2
BRANCH   1  11
ATOM     11  C   UNL     1      19.179 116.799 296.546  1.00  0.00     0.000 C 
BRANCH  11  12
ATOM     12  C   UNL     1      18.220 118.000 296.630  1.00  0.00    -0.000 C 
BRANCH  12  13
ATOM     13  C   UNL     1      18.229 118.864 295.356  1.00  0.00    -0.000 C 
BRANCH  13  14
ATOM     14  C   UNL     1      18.609 118.057 294.096  1.00  0.00    -0.000 C 
BRANCH  14  15
ATOM     15  C   UNL     1      17.401 117.618 293.247  1.00  0.00    -0.000 C 
BRANCH  15  16
ATOM     16  C   UNL     1      17.428 116.151 292.779  1.00  0.00    -0.000 C 
BRANCH  16  17
ATOM     17  C   UNL     1      17.726 115.953 291.282  1.00  0.00    -0.003 C 
ATOM     18  C   UNL     1      17.281 114.586 290.762  1.00  0.00     0.004 C 
ENDBRANCH  16  17
ENDBRANCH  15  16
ENDBRANCH  14  15
ENDBRANCH  13  14
ENDBRANCH  12  13
ENDBRANCH  11  12
ENDBRANCH   1  11
TORSDOF 14
ENDMDL
MODEL 2
REMARK VINA RESULT:    -4.483      3.820      4.736
REMARK INTER + INTRA:          -9.920
REMARK INTER:                  -8.735
REMARK INTRA:                  -1.185
REMARK UNBOUND:                -1.767
REMARK SMILES CCCCCCCCCCCCCCCC(=O)[O-]
REMARK SMILES IDX 9 1 10 2 11 3 12 4 13 5 14 6 15 7 16 8 17 9 18 10 8 11 7 12
REMARK SMILES IDX 6 13 5 14 4 15 3 16 2 17 1 18
REMARK H PARENT
REMARK Flexibility Score: inf
ROOT
ATOM      1  C   UNL     1      19.465 117.003 296.580  1.00  0.00     0.000 C 
ENDROOT
BRANCH   1   2
ATOM      2  C   UNL     1      20.825 116.736 297.249  1.00  0.00     0.000 C 
BRANCH   2   3
ATOM      3  C   UNL     1      21.818 117.894 297.072  1.00  0.00     0.000 C 
BRANCH   3   4
ATOM      4  C   UNL     1      22.768 117.624 295.899  1.00  0.00     0.000 C 
BRANCH   4   5
ATOM      5  C   UNL     1      22.279 118.320 294.623  1.00  0.00     0.000 C 
BRANCH   5   6
ATOM      6  C   UNL     1      23.440 119.011 293.893  1.00  0.00     0.006 C 
BRANCH   6   7
ATOM      7  C   UNL     1      24.707 118.145 293.869  1.00  0.00     0.053 C 
BRANCH   7   8
ATOM      8  C   UNL     1      25.208 117.935 292.474  1.00  0.00     0.041 C 
ATOM      9  O   UNL     1      24.434 118.084 291.492  1.00  0.00    -0.550 OA
ATOM     10  O   UNL     1      26.541 117.608 292.256  1.00  0.00    -0.550 OA
ENDBRANCH   7   8
ENDBRANCH   6   7
ENDBRANCH   5   6
ENDBRANCH   4   5
ENDBRANCH   3   4
ENDBRANCH   2   3
ENDBRANCH   1   2
BRANCH   1  11
ATOM     11  C   UNL     1      18.862 118.396 296.851  1.00  0.00     0.000 C 
BRANCH  11  12
ATOM     12  C   UNL     1      18.582 119.243 295.596  1.00  0.00    -0.000 C 
BRANCH  12  13
ATOM     13  C   UNL     1      18.656 118.425 294.294  1.00  0.00    -0.000 C 
BRANCH  13  14
ATOM     14  C   UNL     1      17.279 117.885 293.854  1.00  0.00    -0.000 C 
BRANCH  14  15
ATOM     15  C   UNL     1      17.338 116.512 293.158  1.00  0.00    -0.000 C 
BRANCH  15  16
ATOM     16  C   UNL     1      17.469 116.560 291.624  1.00  0.00    -0.000 C 
BRANCH  16  17
ATOM     17  C   UNL     1      18.189 115.354 290.996  1.00  0.00    -0.003 C 
ATOM     18  C   UNL     1      17.265 114.485 290.144  1.00  0.00     0.004 C 
ENDBRANCH  16  17
ENDBRANCH  15  16
ENDBRANCH  14  15
ENDBRANCH  13  14
ENDBRANCH  12  13
ENDBRANCH  11  12
ENDBRANCH   1  11
TORSDOF 14
ENDMDL
MODEL 3
REMARK VINA RESULT:    -4.472      5.050      6.173
REMARK INTER + INTRA:          -9.900
REMARK INTER:                  -9.139
REMARK INTRA:                  -0.760
REMARK UNBOUND:                -1.767
REMARK SMILES CCCCCCCCCCCCCCCC(=O)[O-]
REMARK SMILES IDX 9 1 10 2 11 3 12 4 13 5 14 6 15 7 16 8 17 9 18 10 8 11 7 12
REMARK SMILES IDX 6 13 5 14 4 15 3 16 2 17 1 18
REMARK H PARENT
REMARK Flexibility Score: inf
ROOT
ATOM      1  C   UNL     1      21.377 119.153 294.960  1.00  0.00     0.000 C 
ENDROOT
BRANCH   1   2
ATOM      2  C   UNL     1      22.808 118.643 294.714  1.00  0.00     0.000 C 
BRANCH   2   3
ATOM      3  C   UNL     1      23.802 119.772 294.404  1.00  0.00     0.000 C 
BRANCH   3   4
ATOM      4  C   UNL     1      25.054 119.222 293.710  1.00  0.00     0.000 C 
BRANCH   4   5
ATOM      5  C   UNL     1      24.717 117.993 292.857  1.00  0.00     0.000 C 
BRANCH   5   6
ATOM      6  C   UNL     1      25.662 117.883 291.652  1.00  0.00     0.006 C 
BRANCH   6   7
ATOM      7  C   UNL     1      25.060 117.042 290.518  1.00  0.00     0.053 C 
BRANCH   7   8
ATOM      8  C   UNL     1      24.368 117.896 289.502  1.00  0.00     0.041 C 
ATOM      9  O   UNL     1      23.312 117.494 288.948  1.00  0.00    -0.550 OA
ATOM     10  O   UNL     1      24.874 119.152 289.189  1.00  0.00    -0.550 OA
ENDBRANCH   7   8
ENDBRANCH   6   7
ENDBRANCH   5   6
ENDBRANCH   4   5
ENDBRANCH   3   4
ENDBRANCH   2   3
ENDBRANCH   1   2
BRANCH   1  11
ATOM     11  C   UNL     1      20.312 118.055 295.150  1.00  0.00     0.000 C 
BRANCH  11  12
ATOM     12  C   UNL     1      18.953 118.340 294.484  1.00  0.00    -0.000 C 
BRANCH  12  13
ATOM     13  C   UNL     1      17.828 117.430 295.006  1.00  0.00    -0.000 C 
BRANCH  13  14
ATOM     14  C   UNL     1      17.248 116.516 293.905  1.00  0.00    -0.000 C 
BRANCH  14  15
ATOM     15  C   UNL     1      17.477 117.038 292.474  1.00  0.00    -0.000 C 
BRANCH  15  16
ATOM     16  C   UNL     1      18.399 116.167 291.599  1.00  0.00    -0.000 C 
BRANCH  16  17
ATOM     17  C   UNL     1      17.767 115.666 290.288  1.00  0.00    -0.003 C 
ATOM     18  C   UNL     1      17.039 114.332 290.450  1.00  0.00     0.004 C 
ENDBRANCH  16  17
ENDBRANCH  15  16
ENDBRANCH  14  15
ENDBRANCH  13  14
ENDBRANCH  12  13
ENDBRANCH  11  12
ENDBRANCH   1  11
TORSDOF 14
ENDMDL
MODEL 4
REMARK VINA RESULT:    -4.411      2.360      2.959
REMARK INTER + INTRA:          -9.789
REMARK INTER:                  -8.624
REMARK INTRA:                  -1.165
REMARK UNBOUND:                -1.767
REMARK SMILES CCCCCCCCCCCCCCCC(=O)[O-]
REMARK SMILES IDX 9 1 10 2 11 3 12 4 13 5 14 6 15 7 16 8 17 9 18 10 8 11 7 12
REMARK SMILES IDX 6 13 5 14 4 15 3 16 2 17 1 18
REMARK H PARENT
REMARK Flexibility Score: inf
ROOT
ATOM      1  C   UNL     1      19.602 117.609 296.873  1.00  0.00     0.000 C 
ENDROOT
BRANCH   1   2
ATOM      2  C   UNL     1      20.762 116.787 297.461  1.00  0.00     0.000 C 
BRANCH   2   3
ATOM      3  C   UNL     1      22.132 117.450 297.255  1.00  0.00     0.000 C 
BRANCH   3   4
ATOM      4  C   UNL     1      22.637 117.227 295.824  1.00  0.00     0.000 C 
BRANCH   4   5
ATOM      5  C   UNL     1      22.914 118.563 295.124  1.00  0.00     0.000 C 
BRANCH   5   6
ATOM      6  C   UNL     1      21.612 119.196 294.610  1.00  0.00     0.006 C 
BRANCH   6   7
ATOM      7  C   UNL     1      21.314 120.540 295.288  1.00  0.00     0.053 C 
BRANCH   7   8
ATOM      8  C   UNL     1      19.985 121.088 294.870  1.00  0.00     0.041 C 
ATOM      9  O   UNL     1      18.941 120.775 295.501  1.00  0.00    -0.550 OA
ATOM     10  O   UNL     1      19.903 121.973 293.801  1.00  0.00    -0.550 OA
ENDBRANCH   7   8
ENDBRANCH   6   7
ENDBRANCH   5   6
ENDBRANCH   4   5
ENDBRANCH   3   4
ENDBRANCH   2   3
ENDBRANCH   1   2
BRANCH   1  11
ATOM     11  C   UNL     1      18.345 116.798 296.500  1.00  0.00     0.000 C 
BRANCH  11  12
ATOM     12  C   UNL     1      17.067 117.631 296.296  1.00  0.00    -0.000 C 
BRANCH  12  13
ATOM     13  C   UNL     1      16.401 117.383 294.931  1.00  0.00    -0.000 C 
BRANCH  13  14
ATOM     14  C   UNL     1      17.103 118.142 293.785  1.00  0.00    -0.000 C 
BRANCH  14  15
ATOM     15  C   UNL     1      18.080 117.276 292.967  1.00  0.00    -0.000 C 
BRANCH  15  16
ATOM     16  C   UNL     1      17.443 116.075 292.243  1.00  0.00    -0.000 C 
BRANCH  16  17
ATOM     17  C   UNL     1      18.132 115.669 290.928  1.00  0.00    -0.003 C 
ATOM     18  C   UNL     1      17.328 114.647 290.125  1.00  0.00     0.004 C 
ENDBRANCH  16  17
ENDBRANCH  15  16
ENDBRANCH  14  15
ENDBRANCH  13  14
ENDBRANCH  12  13
ENDBRANCH  11  12
ENDBRANCH   1  11
TORSDOF 14
ENDMDL
MODEL 5
REMARK VINA RESULT:    -4.388      4.548      7.209
REMARK INTER + INTRA:          -9.747
REMARK INTER:                  -8.978
REMARK INTRA:                  -0.769
REMARK UNBOUND:                -1.767
REMARK SMILES CCCCCCCCCCCCCCCC(=O)[O-]
REMARK SMILES IDX 9 1 10 2 11 3 12 4 13 5 14 6 15 7 16 8 17 9 18 10 8 11 7 12
REMARK SMILES IDX 6 13 5 14 4 15 3 16 2 17 1 18
REMARK H PARENT
REMARK Flexibility Score: inf
ROOT
ATOM      1  C   UNL     1      20.495 116.945 296.961  1.00  0.00     0.000 C 
ENDROOT
BRANCH   1   2
ATOM      2  C   UNL     1      19.034 116.991 296.484  1.00  0.00     0.000 C 
BRANCH   2   3
ATOM      3  C   UNL     1      18.866 117.706 295.135  1.00  0.00     0.000 C 
BRANCH   3   4
ATOM      4  C   UNL     1      17.434 118.230 294.968  1.00  0.00     0.000 C 
BRANCH   4   5
ATOM      5  C   UNL     1      16.799 117.698 293.677  1.00  0.00     0.000 C 
BRANCH   5   6
ATOM      6  C   UNL     1      17.853 117.034 292.779  1.00  0.00     0.006 C 
BRANCH   6   7
ATOM      7  C   UNL     1      17.289 115.827 292.016  1.00  0.00     0.053 C 
BRANCH   7   8
ATOM      8  C   UNL     1      18.127 115.484 290.824  1.00  0.00     0.041 C 
ATOM      9  O   UNL     1      19.332 115.842 290.771  1.00  0.00    -0.550 OA
ATOM     10  O   UNL     1      17.584 114.739 289.784  1.00  0.00    -0.550 OA
ENDBRANCH   7   8
ENDBRANCH   6   7
ENDBRANCH   5   6
ENDBRANCH   4   5
ENDBRANCH   3   4
ENDBRANCH   2   3
ENDBRANCH   1   2
BRANCH   1  11
ATOM     11  C   UNL     1      21.404 118.061 296.407  1.00  0.00     0.000 C 
BRANCH  11  12
ATOM     12  C   UNL     1      22.768 117.588 295.874  1.00  0.00    -0.000 C 
BRANCH  12  13
ATOM     13  C   UNL     1      23.205 118.334 294.600  1.00  0.00    -0.000 C 
BRANCH  13  14
ATOM     14  C   UNL     1      24.391 117.648 293.890  1.00  0.00    -0.000 C 
BRANCH  14  15
ATOM     15  C   UNL     1      25.281 118.615 293.085  1.00  0.00    -0.000 C 
BRANCH  15  16
ATOM     16  C   UNL     1      26.113 117.960 291.966  1.00  0.00    -0.000 C 
BRANCH  16  17
ATOM     17  C   UNL     1      25.292 117.383 290.799  1.00  0.00    -0.003 C 
ATOM     18  C   UNL     1      24.822 118.453 289.815  1.00  0.00     0.004 C 
ENDBRANCH  16  17
ENDBRANCH  15  16
ENDBRANCH  14  15
ENDBRANCH  13  14
ENDBRANCH  12  13
ENDBRANCH  11  12
ENDBRANCH   1  11
TORSDOF 14
ENDMDL
MODEL 6
REMARK VINA RESULT:    -4.317      2.168      2.742
REMARK INTER + INTRA:          -9.617
REMARK INTER:                  -8.670
REMARK INTRA:                  -0.947
REMARK UNBOUND:                -1.767
REMARK SMILES CCCCCCCCCCCCCCCC(=O)[O-]
REMARK SMILES IDX 9 1 10 2 11 3 12 4 13 5 14 6 15 7 16 8 17 9 18 10 8 11 7 12
REMARK SMILES IDX 6 13 5 14 4 15 3 16 2 17 1 18
REMARK H PARENT
REMARK Flexibility Score: inf
ROOT
ATOM      1  C   UNL     1      20.472 117.984 296.007  1.00  0.00     0.000 C 
ENDROOT
BRANCH   1   2
ATOM      2  C   UNL     1      20.839 117.048 297.171  1.00  0.00     0.000 C 
BRANCH   2   3
ATOM      3  C   UNL     1      21.742 117.717 298.218  1.00  0.00     0.000 C 
BRANCH   3   4
ATOM      4  C   UNL     1      20.905 118.383 299.316  1.00  0.00     0.000 C 
BRANCH   4   5
ATOM      5  C   UNL     1      21.717 118.540 300.608  1.00  0.00     0.000 C 
BRANCH   5   6
ATOM      6  C   UNL     1      23.167 118.940 300.302  1.00  0.00     0.006 C 
BRANCH   6   7
ATOM      7  C   UNL     1      23.785 119.786 301.424  1.00  0.00     0.053 C 
BRANCH   7   8
ATOM      8  C   UNL     1      23.314 121.206 301.371  1.00  0.00     0.041 C 
ATOM      9  O   UNL     1      22.416 121.607 302.157  1.00  0.00    -0.550 OA
ATOM     10  O   UNL     1      23.892 122.097 300.474  1.00  0.00    -0.550 OA
ENDBRANCH   7   8
ENDBRANCH   6   7
ENDBRANCH   5   6
ENDBRANCH   4   5
ENDBRANCH   3   4
ENDBRANCH   2   3
ENDBRANCH   1   2
BRANCH   1  11
ATOM     11  C   UNL     1      18.961 118.177 295.770  1.00  0.00     0.000 C 
BRANCH  11  12
ATOM     12  C   UNL     1      18.083 116.965 296.132  1.00  0.00    -0.000 C 
BRANCH  12  13
ATOM     13  C   UNL     1      17.203 116.492 294.962  1.00  0.00    -0.000 C 
BRANCH  13  14
ATOM     14  C   UNL     1      16.966 117.600 293.914  1.00  0.00    -0.000 C 
BRANCH  14  15
ATOM     15  C   UNL     1      17.082 117.117 292.455  1.00  0.00    -0.000 C 
BRANCH  15  16
ATOM     16  C   UNL     1      18.396 116.391 292.108  1.00  0.00    -0.000 C 
BRANCH  16  17
ATOM     17  C   UNL     1      18.376 115.612 290.781  1.00  0.00    -0.003 C 
ATOM     18  C   UNL     1      17.236 114.596 290.704  1.00  0.00     0.004 C 
ENDBRANCH  16  17
ENDBRANCH  15  16
ENDBRANCH  14  15
ENDBRANCH  13  14
ENDBRANCH  12  13
ENDBRANCH  11  12
ENDBRANCH   1  11
TORSDOF 14
ENDMDL
MODEL 7
REMARK VINA RESULT:    -4.316      3.834      4.693
REMARK INTER + INTRA:          -9.615
REMARK INTER:                  -8.909
REMARK INTRA:                  -0.707
REMARK UNBOUND:                -1.767
REMARK SMILES CCCCCCCCCCCCCCCC(=O)[O-]
REMARK SMILES IDX 9 1 10 2 11 3 12 4 13 5 14 6 15 7 16 8 17 9 18 10 8 11 7 12
REMARK SMILES IDX 6 13 5 14 4 15 3 16 2 17 1 18
REMARK H PARENT
REMARK Flexibility Score: inf
ROOT
ATOM      1  C   UNL     1      19.648 117.718 296.793  1.00  0.00     0.000 C 
ENDROOT
BRANCH   1   2
ATOM      2  C   UNL     1      20.861 116.993 297.402  1.00  0.00     0.000 C 
BRANCH   2   3
ATOM      3  C   UNL     1      22.198 117.664 297.053  1.00  0.00     0.000 C 
BRANCH   3   4
ATOM      4  C   UNL     1      22.674 117.242 295.658  1.00  0.00     0.000 C 
BRANCH   4   5
ATOM      5  C   UNL     1      22.726 118.444 294.706  1.00  0.00     0.000 C 
BRANCH   5   6
ATOM      6  C   UNL     1      24.134 119.056 294.670  1.00  0.00     0.006 C 
BRANCH   6   7
ATOM      7  C   UNL     1      24.721 119.079 293.252  1.00  0.00     0.053 C 
BRANCH   7   8
ATOM      8  C   UNL     1      26.145 119.540 293.249  1.00  0.00     0.041 C 
ATOM      9  O   UNL     1      27.083 118.702 293.310  1.00  0.00    -0.550 OA
ATOM     10  O   UNL     1      26.438 120.894 293.146  1.00  0.00    -0.550 OA
ENDBRANCH   7   8
ENDBRANCH   6   7
ENDBRANCH   5   6
ENDBRANCH   4   5
ENDBRANCH   3   4
ENDBRANCH   2   3
ENDBRANCH   1   2
BRANCH   1  11
ATOM     11  C   UNL     1      18.428 116.821 296.497  1.00  0.00     0.000 C 
BRANCH  11  12
ATOM     12  C   UNL     1      17.094 117.570 296.323  1.00  0.00    -0.000 C 
BRANCH  12  13
ATOM     13  C   UNL     1      16.406 117.263 294.981  1.00  0.00    -0.000 C 
BRANCH  13  14
ATOM     14  C   UNL     1      17.015 118.060 293.808  1.00  0.00    -0.000 C 
BRANCH  14  15
ATOM     15  C   UNL     1      18.028 117.259 292.966  1.00  0.00    -0.000 C 
BRANCH  15  16
ATOM     16  C   UNL     1      17.460 116.003 292.279  1.00  0.00    -0.000 C 
BRANCH  16  17
ATOM     17  C   UNL     1      18.106 115.657 290.925  1.00  0.00    -0.003 C 
ATOM     18  C   UNL     1      17.296 114.639 290.122  1.00  0.00     0.004 C 
ENDBRANCH  16  17
ENDBRANCH  15  16
ENDBRANCH  14  15
ENDBRANCH  13  14
ENDBRANCH  12  13
ENDBRANCH  11  12
ENDBRANCH   1  11
TORSDOF 14
ENDMDL
MODEL 8
REMARK VINA RESULT:    -4.301      2.228      3.632
REMARK INTER + INTRA:          -9.589
REMARK INTER:                  -8.204
REMARK INTRA:                  -1.385
REMARK UNBOUND:                -1.767
REMARK SMILES CCCCCCCCCCCCCCCC(=O)[O-]
REMARK SMILES IDX 9 1 10 2 11 3 12 4 13 5 14 6 15 7 16 8 17 9 18 10 8 11 7 12
REMARK SMILES IDX 6 13 5 14 4 15 3 16 2 17 1 18
REMARK H PARENT
REMARK Flexibility Score: inf
ROOT
ATOM      1  C   UNL     1      17.583 121.885 295.001  1.00  0.00     0.000 C 
ENDROOT
BRANCH   1   2
ATOM      2  C   UNL     1      19.034 122.260 294.650  1.00  0.00     0.000 C 
BRANCH   2   3
ATOM      3  C   UNL     1      19.941 121.036 294.460  1.00  0.00     0.000 C 
BRANCH   3   4
ATOM      4  C   UNL     1      20.638 120.662 295.773  1.00  0.00     0.000 C 
BRANCH   4   5
ATOM      5  C   UNL     1      21.814 119.711 295.522  1.00  0.00     0.000 C 
BRANCH   5   6
ATOM      6  C   UNL     1      21.320 118.277 295.280  1.00  0.00     0.006 C 
BRANCH   6   7
ATOM      7  C   UNL     1      21.655 117.342 296.451  1.00  0.00     0.053 C 
BRANCH   7   8
ATOM      8  C   UNL     1      20.450 117.051 297.289  1.00  0.00     0.041 C 
ATOM      9  O   UNL     1      19.871 117.978 297.913  1.00  0.00    -0.550 OA
ATOM     10  O   UNL     1      19.945 115.757 297.356  1.00  0.00    -0.550 OA
ENDBRANCH   7   8
ENDBRANCH   6   7
ENDBRANCH   5   6
ENDBRANCH   4   5
ENDBRANCH   3   4
ENDBRANCH   2   3
ENDBRANCH   1   2
BRANCH   1  11
ATOM     11  C   UNL     1      16.798 121.178 293.878  1.00  0.00     0.000 C 
BRANCH  11  12
ATOM     12  C   UNL     1      15.816 120.091 294.352  1.00  0.00    -0.000 C 
BRANCH  12  13
ATOM     13  C   UNL     1      16.156 118.695 293.801  1.00  0.00    -0.000 C 
BRANCH  13  14
ATOM     14  C   UNL     1      17.526 118.182 294.294  1.00  0.00    -0.000 C 
BRANCH  14  15
ATOM     15  C   UNL     1      18.329 117.418 293.224  1.00  0.00    -0.000 C 
BRANCH  15  16
ATOM     16  C   UNL     1      17.501 116.471 292.335  1.00  0.00    -0.000 C 
BRANCH  16  17
ATOM     17  C   UNL     1      18.294 115.771 291.217  1.00  0.00    -0.003 C 
ATOM     18  C   UNL     1      17.404 114.975 290.264  1.00  0.00     0.004 C 
ENDBRANCH  16  17
ENDBRANCH  15  16
ENDBRANCH  14  15
ENDBRANCH  13  14
ENDBRANCH  12  13
ENDBRANCH  11  12
ENDBRANCH   1  11
TORSDOF 14
ENDMDL
MODEL 9
REMARK VINA RESULT:    -4.274      4.299      5.755
REMARK INTER + INTRA:          -9.539
REMARK INTER:                  -8.184
REMARK INTRA:                  -1.355
REMARK UNBOUND:                -1.767
REMARK SMILES CCCCCCCCCCCCCCCC(=O)[O-]
REMARK SMILES IDX 9 1 10 2 11 3 12 4 13 5 14 6 15 7 16 8 17 9 18 10 8 11 7 12
REMARK SMILES IDX 6 13 5 14 4 15 3 16 2 17 1 18
REMARK H PARENT
REMARK Flexibility Score: inf
ROOT
ATOM      1  C   UNL     1      15.036 118.497 295.313  1.00  0.00     0.000 C 
ENDROOT
BRANCH   1   2
ATOM      2  C   UNL     1      15.213 119.968 294.897  1.00  0.00     0.000 C 
BRANCH   2   3
ATOM      3  C   UNL     1      15.334 120.152 293.378  1.00  0.00     0.000 C 
BRANCH   3   4
ATOM      4  C   UNL     1      15.989 121.497 293.040  1.00  0.00     0.000 C 
BRANCH   4   5
ATOM      5  C   UNL     1      17.200 121.762 293.944  1.00  0.00     0.000 C 
BRANCH   5   6
ATOM      6  C   UNL     1      18.115 122.835 293.337  1.00  0.00     0.006 C 
BRANCH   6   7
ATOM      7  C   UNL     1      18.473 123.932 294.350  1.00  0.00     0.053 C 
BRANCH   7   8
ATOM      8  C   UNL     1      18.713 125.249 293.678  1.00  0.00     0.041 C 
ATOM      9  O   UNL     1      19.388 125.307 292.617  1.00  0.00    -0.550 OA
ATOM     10  O   UNL     1      18.163 126.410 294.208  1.00  0.00    -0.550 OA
ENDBRANCH   7   8
ENDBRANCH   6   7
ENDBRANCH   5   6
ENDBRANCH   4   5
ENDBRANCH   3   4
ENDBRANCH   2   3
ENDBRANCH   1   2
BRANCH   1  11
ATOM     11  C   UNL     1      15.916 118.037 296.492  1.00  0.00     0.000 C 
BRANCH  11  12
ATOM     12  C   UNL     1      17.177 117.247 296.097  1.00  0.00    -0.000 C 
BRANCH  12  13
ATOM     13  C   UNL     1      18.265 118.133 295.464  1.00  0.00    -0.000 C 
BRANCH  13  14
ATOM     14  C   UNL     1      18.491 117.817 293.971  1.00  0.00    -0.000 C 
BRANCH  14  15
ATOM     15  C   UNL     1      17.555 116.727 293.414  1.00  0.00    -0.000 C 
BRANCH  15  16
ATOM     16  C   UNL     1      17.382 116.731 291.883  1.00  0.00    -0.000 C 
BRANCH  16  17
ATOM     17  C   UNL     1      18.280 115.737 291.126  1.00  0.00    -0.003 C 
ATOM     18  C   UNL     1      17.494 114.599 290.476  1.00  0.00     0.004 C 
ENDBRANCH  16  17
ENDBRANCH  15  16
ENDBRANCH  14  15
ENDBRANCH  13  14
ENDBRANCH  12  13
ENDBRANCH  11  12
ENDBRANCH   1  11
TORSDOF 14
ENDMDL
