MODEL 1
REMARK VINA RESULT:    -7.176      0.000      0.000
REMARK INTER + INTRA:         -12.321
REMARK INTER:                 -10.533
REMARK INTRA:                  -1.789
REMARK UNBOUND:                -1.789
REMARK SMILES O=c1c(O[C@H]2O[C@H](CO)[C@H](O)[C@H](O)[C@H]2O)c(-c2ccc(O)c(O)c2)oc2cc(O)cc(O)c12
REMARK SMILES IDX 4 1 3 2 16 3 25 4 2 5 26 6 1 7 33 8 27 9 31 10 28 11 30 12
REMARK SMILES IDX 17 13 18 14 19 15 20 16 24 17 22 18 21 19 23 21 32 23 29 25
REMARK SMILES IDX 5 27 14 28 6 29 12 30 7 31 10 32 15 33 13 35 8 37 9 38 11 40
REMARK H PARENT 21 20 23 22 32 24 29 26 15 34 13 36 9 39 11 41
REMARK Flexibility Score: inf
ROOT
ATOM      1  O   UNL     1       7.581 -25.327  70.884  1.00  0.00    -0.454 OA
ENDROOT
BRANCH   1   2
ATOM      2  C   UNL     1       6.697 -24.544  71.638  1.00  0.00     0.214 A 
ATOM      3  C   UNL     1       5.867 -25.103  72.629  1.00  0.00     0.180 A 
ATOM      4  O   UNL     1       5.085 -24.311  73.352  1.00  0.00    -0.452 OA
ATOM      5  C   UNL     1       6.629 -23.168  71.392  1.00  0.00     0.239 A 
ATOM      6  C   UNL     1       5.019 -22.996  73.184  1.00  0.00     0.146 A 
ATOM      7  O   UNL     1       7.296 -22.701  70.433  1.00  0.00    -0.285 OA
ATOM      8  C   UNL     1       5.811 -22.345  72.202  1.00  0.00     0.111 A 
ATOM      9  C   UNL     1       4.136 -22.265  73.983  1.00  0.00     0.094 A 
ATOM     10  C   UNL     1       5.715 -20.926  72.081  1.00  0.00     0.134 A 
ATOM     11  C   UNL     1       4.012 -20.887  73.820  1.00  0.00     0.123 A 
ATOM     12  C   UNL     1       4.795 -20.227  72.871  1.00  0.00     0.093 A 
BRANCH   3  13
ATOM     13  C   UNL     1       5.806 -26.560  72.883  1.00  0.00     0.025 A 
ATOM     14  C   UNL     1       5.254 -27.441  71.938  1.00  0.00     0.016 A 
ATOM     15  C   UNL     1       5.205 -28.813  72.197  1.00  0.00     0.051 A 
ATOM     16  C   UNL     1       5.692 -29.322  73.406  1.00  0.00     0.157 A 
ATOM     17  C   UNL     1       6.271 -27.069  74.106  1.00  0.00     0.062 A 
ATOM     18  C   UNL     1       6.224 -28.446  74.368  1.00  0.00     0.158 A 
BRANCH  16  19
ATOM     19  O   UNL     1       5.637 -30.696  73.634  1.00  0.00    -0.504 OA
ATOM     20  H   UNL     1       5.549 -31.363  72.877  1.00  0.00     0.293 HD
ENDBRANCH  16  19
BRANCH  18  21
ATOM     21  O   UNL     1       6.703 -28.946  75.577  1.00  0.00    -0.504 OA
ATOM     22  H   UNL     1       6.443 -29.867  75.912  1.00  0.00     0.293 HD
ENDBRANCH  18  21
ENDBRANCH   3  13
BRANCH  10  23
ATOM     23  O   UNL     1       6.515 -20.157  71.229  1.00  0.00    -0.507 OA
ATOM     24  H   UNL     1       6.941 -19.277  71.477  1.00  0.00     0.293 HD
ENDBRANCH  10  23
BRANCH  11  25
ATOM     25  O   UNL     1       3.112 -20.181  74.615  1.00  0.00    -0.508 OA
ATOM     26  H   UNL     1       2.895 -20.475  75.560  1.00  0.00     0.293 HD
ENDBRANCH  11  25
ENDBRANCH   1   2
BRANCH   1  27
ATOM     27  C   UNL     1       9.002 -25.318  71.078  1.00  0.00     0.339 C 
ATOM     28  C   UNL     1       9.752 -25.436  69.736  1.00  0.00     0.214 C 
ATOM     29  O   UNL     1       9.389 -26.349  71.974  1.00  0.00    -0.332 OA
ATOM     30  C   UNL     1       9.533 -26.837  69.127  1.00  0.00     0.180 C 
ATOM     31  C   UNL     1       9.039 -27.632  71.477  1.00  0.00     0.179 C 
ATOM     32  C   UNL     1       9.803 -27.946  70.166  1.00  0.00     0.177 C 
BRANCH  28  33
ATOM     33  O   UNL     1       9.297 -24.444  68.852  1.00  0.00    -0.384 OA
ATOM     34  H   UNL     1       9.988 -23.731  68.839  1.00  0.00     0.211 HD
ENDBRANCH  28  33
BRANCH  30  35
ATOM     35  O   UNL     1      10.307 -27.024  67.968  1.00  0.00    -0.387 OA
ATOM     36  H   UNL     1      11.208 -27.331  68.248  1.00  0.00     0.211 HD
ENDBRANCH  30  35
BRANCH  31  37
ATOM     37  C   UNL     1       9.332 -28.684  72.555  1.00  0.00     0.191 C 
BRANCH  37  38
ATOM     38  O   UNL     1      10.657 -28.572  73.000  1.00  0.00    -0.394 OA
ATOM     39  H   UNL     1      10.616 -28.307  73.956  1.00  0.00     0.210 HD
ENDBRANCH  37  38
ENDBRANCH  31  37
BRANCH  32  40
ATOM     40  O   UNL     1      11.183 -28.118  70.393  1.00  0.00    -0.387 OA
ATOM     41  H   UNL     1      11.568 -27.241  70.646  1.00  0.00     0.211 HD
ENDBRANCH  32  40
ENDBRANCH   1  27
TORSDOF 12
ENDMDL
MODEL 2
REMARK VINA RESULT:    -7.030      3.186      8.112
REMARK INTER + INTRA:         -12.106
REMARK INTER:                 -10.425
REMARK INTRA:                  -1.681
REMARK UNBOUND:                -1.789
REMARK SMILES O=c1c(O[C@H]2O[C@H](CO)[C@H](O)[C@H](O)[C@H]2O)c(-c2ccc(O)c(O)c2)oc2cc(O)cc(O)c12
REMARK SMILES IDX 4 1 3 2 16 3 25 4 2 5 26 6 1 7 33 8 27 9 31 10 28 11 30 12
REMARK SMILES IDX 17 13 18 14 19 15 20 16 24 17 22 18 21 19 23 21 32 23 29 25
REMARK SMILES IDX 5 27 14 28 6 29 12 30 7 31 10 32 15 33 13 35 8 37 9 38 11 40
REMARK H PARENT 21 20 23 22 32 24 29 26 15 34 13 36 9 39 11 41
REMARK Flexibility Score: inf
ROOT
ATOM      1  O   UNL     1       3.268 -25.588  71.930  1.00  0.00    -0.454 OA
ENDROOT
BRANCH   1   2
ATOM      2  C   UNL     1       4.343 -26.088  72.677  1.00  0.00     0.214 A 
ATOM      3  C   UNL     1       5.182 -25.244  73.431  1.00  0.00     0.180 A 
ATOM      4  O   UNL     1       6.154 -25.772  74.164  1.00  0.00    -0.452 OA
ATOM      5  C   UNL     1       4.597 -27.464  72.666  1.00  0.00     0.239 A 
ATOM      6  C   UNL     1       6.405 -27.074  74.219  1.00  0.00     0.146 A 
ATOM      7  O   UNL     1       3.906 -28.191  71.905  1.00  0.00    -0.285 OA
ATOM      8  C   UNL     1       5.618 -28.001  73.485  1.00  0.00     0.111 A 
ATOM      9  C   UNL     1       7.475 -27.515  75.002  1.00  0.00     0.094 A 
ATOM     10  C   UNL     1       5.920 -29.391  73.600  1.00  0.00     0.134 A 
ATOM     11  C   UNL     1       7.794 -28.869  75.064  1.00  0.00     0.123 A 
ATOM     12  C   UNL     1       7.022 -29.797  74.364  1.00  0.00     0.093 A 
BRANCH   3  13
ATOM     13  C   UNL     1       5.043 -23.771  73.417  1.00  0.00     0.025 A 
ATOM     14  C   UNL     1       4.203 -23.111  74.330  1.00  0.00     0.016 A 
ATOM     15  C   UNL     1       4.084 -21.719  74.301  1.00  0.00     0.051 A 
ATOM     16  C   UNL     1       4.789 -20.969  73.353  1.00  0.00     0.157 A 
ATOM     17  C   UNL     1       5.729 -23.019  72.450  1.00  0.00     0.062 A 
ATOM     18  C   UNL     1       5.612 -21.622  72.419  1.00  0.00     0.158 A 
BRANCH  16  19
ATOM     19  O   UNL     1       4.657 -19.581  73.352  1.00  0.00    -0.504 OA
ATOM     20  H   UNL     1       3.792 -19.124  73.089  1.00  0.00     0.293 HD
ENDBRANCH  16  19
BRANCH  18  21
ATOM     21  O   UNL     1       6.311 -20.882  71.467  1.00  0.00    -0.504 OA
ATOM     22  H   UNL     1       7.321 -20.798  71.496  1.00  0.00     0.293 HD
ENDBRANCH  18  21
ENDBRANCH   3  13
BRANCH  10  23
ATOM     23  O   UNL     1       5.160 -30.408  73.015  1.00  0.00    -0.507 OA
ATOM     24  H   UNL     1       5.333 -31.395  73.127  1.00  0.00     0.293 HD
ENDBRANCH  10  23
BRANCH  11  25
ATOM     25  O   UNL     1       8.876 -29.284  75.837  1.00  0.00    -0.508 OA
ATOM     26  H   UNL     1       9.828 -29.218  75.495  1.00  0.00     0.293 HD
ENDBRANCH  11  25
ENDBRANCH   1   2
BRANCH   1  27
ATOM     27  C   UNL     1       1.900 -25.927  72.194  1.00  0.00     0.339 C 
ATOM     28  C   UNL     1       1.144 -26.264  70.894  1.00  0.00     0.214 C 
ATOM     29  O   UNL     1       1.257 -24.881  72.906  1.00  0.00    -0.332 OA
ATOM     30  C   UNL     1       0.986 -24.996  70.028  1.00  0.00     0.180 C 
ATOM     31  C   UNL     1       1.256 -23.669  72.165  1.00  0.00     0.179 C 
ATOM     32  C   UNL     1       0.434 -23.818  70.860  1.00  0.00     0.177 C 
BRANCH  28  33
ATOM     33  O   UNL     1       1.843 -27.253  70.184  1.00  0.00    -0.384 OA
ATOM     34  H   UNL     1       1.950 -26.920  69.254  1.00  0.00     0.211 HD
ENDBRANCH  28  33
BRANCH  30  35
ATOM     35  O   UNL     1       0.188 -25.237  68.895  1.00  0.00    -0.387 OA
ATOM     36  H   UNL     1      -0.140 -24.363  68.560  1.00  0.00     0.211 HD
ENDBRANCH  30  35
BRANCH  31  37
ATOM     37  C   UNL     1       0.698 -22.544  73.046  1.00  0.00     0.191 C 
BRANCH  37  38
ATOM     38  O   UNL     1      -0.379 -23.013  73.814  1.00  0.00    -0.394 OA
ATOM     39  H   UNL     1      -0.687 -23.856  73.389  1.00  0.00     0.210 HD
ENDBRANCH  37  38
ENDBRANCH  31  37
BRANCH  32  40
ATOM     40  O   UNL     1      -0.942 -23.968  71.121  1.00  0.00    -0.387 OA
ATOM     41  H   UNL     1      -1.192 -23.333  71.840  1.00  0.00     0.211 HD
ENDBRANCH  32  40
ENDBRANCH   1  27
TORSDOF 12
ENDMDL
MODEL 3
REMARK VINA RESULT:    -6.709      2.212      7.340
REMARK INTER + INTRA:         -11.636
REMARK INTER:                  -9.711
REMARK INTRA:                  -1.925
REMARK UNBOUND:                -1.789
REMARK SMILES O=c1c(O[C@H]2O[C@H](CO)[C@H](O)[C@H](O)[C@H]2O)c(-c2ccc(O)c(O)c2)oc2cc(O)cc(O)c12
REMARK SMILES IDX 4 1 3 2 16 3 25 4 2 5 26 6 1 7 33 8 27 9 31 10 28 11 30 12
REMARK SMILES IDX 17 13 18 14 19 15 20 16 24 17 22 18 21 19 23 21 32 23 29 25
REMARK SMILES IDX 5 27 14 28 6 29 12 30 7 31 10 32 15 33 13 35 8 37 9 38 11 40
REMARK H PARENT 21 20 23 22 32 24 29 26 15 34 13 36 9 39 11 41
REMARK Flexibility Score: inf
ROOT
ATOM      1  O   UNL     1       5.530 -23.060  73.264  1.00  0.00    -0.454 OA
ENDROOT
BRANCH   1   2
ATOM      2  C   UNL     1       5.683 -24.432  73.506  1.00  0.00     0.214 A 
ATOM      3  C   UNL     1       4.697 -25.184  74.173  1.00  0.00     0.180 A 
ATOM      4  O   UNL     1       4.865 -26.491  74.330  1.00  0.00    -0.452 OA
ATOM      5  C   UNL     1       6.854 -25.070  73.083  1.00  0.00     0.239 A 
ATOM      6  C   UNL     1       5.938 -27.147  73.907  1.00  0.00     0.146 A 
ATOM      7  O   UNL     1       7.770 -24.365  72.586  1.00  0.00    -0.285 OA
ATOM      8  C   UNL     1       6.989 -26.471  73.234  1.00  0.00     0.111 A 
ATOM      9  C   UNL     1       6.022 -28.519  74.156  1.00  0.00     0.094 A 
ATOM     10  C   UNL     1       8.109 -27.231  72.783  1.00  0.00     0.134 A 
ATOM     11  C   UNL     1       7.144 -29.242  73.757  1.00  0.00     0.123 A 
ATOM     12  C   UNL     1       8.180 -28.598  73.079  1.00  0.00     0.093 A 
BRANCH   3  13
ATOM     13  C   UNL     1       3.476 -24.567  74.738  1.00  0.00     0.025 A 
ATOM     14  C   UNL     1       3.517 -23.846  75.944  1.00  0.00     0.016 A 
ATOM     15  C   UNL     1       2.353 -23.273  76.462  1.00  0.00     0.051 A 
ATOM     16  C   UNL     1       1.133 -23.421  75.793  1.00  0.00     0.157 A 
ATOM     17  C   UNL     1       2.246 -24.737  74.082  1.00  0.00     0.062 A 
ATOM     18  C   UNL     1       1.077 -24.161  74.600  1.00  0.00     0.158 A 
BRANCH  16  19
ATOM     19  O   UNL     1      -0.010 -22.830  76.331  1.00  0.00    -0.504 OA
ATOM     20  H   UNL     1      -0.504 -22.085  75.855  1.00  0.00     0.293 HD
ENDBRANCH  16  19
BRANCH  18  21
ATOM     21  O   UNL     1      -0.136 -24.319  73.934  1.00  0.00    -0.504 OA
ATOM     22  H   UNL     1      -0.286 -23.940  73.006  1.00  0.00     0.293 HD
ENDBRANCH  18  21
ENDBRANCH   3  13
BRANCH  10  23
ATOM     23  O   UNL     1       9.156 -26.705  72.019  1.00  0.00    -0.507 OA
ATOM     24  H   UNL     1       9.323 -26.916  71.047  1.00  0.00     0.293 HD
ENDBRANCH  10  23
BRANCH  11  25
ATOM     25  O   UNL     1       7.214 -30.606  74.032  1.00  0.00    -0.508 OA
ATOM     26  H   UNL     1       6.397 -31.203  73.968  1.00  0.00     0.293 HD
ENDBRANCH  11  25
ENDBRANCH   1   2
BRANCH   1  27
ATOM     27  C   UNL     1       4.676 -22.531  72.241  1.00  0.00     0.339 C 
ATOM     28  C   UNL     1       5.447 -21.586  71.299  1.00  0.00     0.214 C 
ATOM     29  O   UNL     1       3.555 -21.878  72.818  1.00  0.00    -0.332 OA
ATOM     30  C   UNL     1       5.857 -20.303  72.052  1.00  0.00     0.180 C 
ATOM     31  C   UNL     1       3.950 -20.791  73.642  1.00  0.00     0.179 C 
ATOM     32  C   UNL     1       4.657 -19.693  72.808  1.00  0.00     0.177 C 
BRANCH  28  33
ATOM     33  O   UNL     1       6.584 -22.241  70.800  1.00  0.00    -0.384 OA
ATOM     34  H   UNL     1       6.599 -22.087  69.819  1.00  0.00     0.211 HD
ENDBRANCH  28  33
BRANCH  30  35
ATOM     35  O   UNL     1       6.448 -19.362  71.190  1.00  0.00    -0.387 OA
ATOM     36  H   UNL     1       6.134 -19.552  70.268  1.00  0.00     0.211 HD
ENDBRANCH  30  35
BRANCH  31  37
ATOM     37  C   UNL     1       2.715 -20.232  74.361  1.00  0.00     0.191 C 
BRANCH  37  38
ATOM     38  O   UNL     1       1.556 -20.491  73.614  1.00  0.00    -0.394 OA
ATOM     39  H   UNL     1       1.482 -19.764  72.940  1.00  0.00     0.210 HD
ENDBRANCH  37  38
ENDBRANCH  31  37
BRANCH  32  40
ATOM     40  O   UNL     1       3.765 -19.047  71.929  1.00  0.00    -0.387 OA
ATOM     41  H   UNL     1       4.226 -18.913  71.062  1.00  0.00     0.211 HD
ENDBRANCH  32  40
ENDBRANCH   1  27
TORSDOF 12
ENDMDL
MODEL 4
REMARK VINA RESULT:    -6.682      3.481      7.765
REMARK INTER + INTRA:         -11.596
REMARK INTER:                  -9.870
REMARK INTRA:                  -1.726
REMARK UNBOUND:                -1.789
REMARK SMILES O=c1c(O[C@H]2O[C@H](CO)[C@H](O)[C@H](O)[C@H]2O)c(-c2ccc(O)c(O)c2)oc2cc(O)cc(O)c12
REMARK SMILES IDX 4 1 3 2 16 3 25 4 2 5 26 6 1 7 33 8 27 9 31 10 28 11 30 12
REMARK SMILES IDX 17 13 18 14 19 15 20 16 24 17 22 18 21 19 23 21 32 23 29 25
REMARK SMILES IDX 5 27 14 28 6 29 12 30 7 31 10 32 15 33 13 35 8 37 9 38 11 40
REMARK H PARENT 21 20 23 22 32 24 29 26 15 34 13 36 9 39 11 41
REMARK Flexibility Score: inf
ROOT
ATOM      1  O   UNL     1       3.735 -23.751  73.279  1.00  0.00    -0.454 OA
ENDROOT
BRANCH   1   2
ATOM      2  C   UNL     1       4.223 -25.063  73.343  1.00  0.00     0.214 A 
ATOM      3  C   UNL     1       3.623 -26.116  72.626  1.00  0.00     0.180 A 
ATOM      4  O   UNL     1       4.155 -27.330  72.677  1.00  0.00    -0.452 OA
ATOM      5  C   UNL     1       5.332 -25.337  74.151  1.00  0.00     0.239 A 
ATOM      6  C   UNL     1       5.231 -27.628  73.395  1.00  0.00     0.146 A 
ATOM      7  O   UNL     1       5.791 -24.409  74.868  1.00  0.00    -0.285 OA
ATOM      8  C   UNL     1       5.897 -26.634  74.159  1.00  0.00     0.111 A 
ATOM      9  C   UNL     1       5.686 -28.949  73.399  1.00  0.00     0.094 A 
ATOM     10  C   UNL     1       7.062 -27.007  74.893  1.00  0.00     0.134 A 
ATOM     11  C   UNL     1       6.793 -29.313  74.162  1.00  0.00     0.123 A 
ATOM     12  C   UNL     1       7.472 -28.346  74.906  1.00  0.00     0.093 A 
BRANCH   3  13
ATOM     13  C   UNL     1       2.390 -25.930  71.828  1.00  0.00     0.025 A 
ATOM     14  C   UNL     1       2.377 -26.169  70.443  1.00  0.00     0.016 A 
ATOM     15  C   UNL     1       1.204 -25.987  69.707  1.00  0.00     0.051 A 
ATOM     16  C   UNL     1       0.033 -25.552  70.339  1.00  0.00     0.157 A 
ATOM     17  C   UNL     1       1.222 -25.469  72.456  1.00  0.00     0.062 A 
ATOM     18  C   UNL     1       0.043 -25.286  71.719  1.00  0.00     0.158 A 
BRANCH  16  19
ATOM     19  O   UNL     1      -1.125 -25.386  69.580  1.00  0.00    -0.504 OA
ATOM     20  H   UNL     1      -1.481 -26.117  68.976  1.00  0.00     0.293 HD
ENDBRANCH  16  19
BRANCH  18  21
ATOM     21  O   UNL     1      -1.117 -24.845  72.353  1.00  0.00    -0.504 OA
ATOM     22  H   UNL     1      -1.391 -23.869  72.341  1.00  0.00     0.293 HD
ENDBRANCH  18  21
ENDBRANCH   3  13
BRANCH  10  23
ATOM     23  O   UNL     1       7.866 -26.105  75.598  1.00  0.00    -0.507 OA
ATOM     24  H   UNL     1       7.706 -25.110  75.652  1.00  0.00     0.293 HD
ENDBRANCH  10  23
BRANCH  11  25
ATOM     25  O   UNL     1       7.218 -30.640  74.166  1.00  0.00    -0.508 OA
ATOM     26  H   UNL     1       7.077 -31.244  73.364  1.00  0.00     0.293 HD
ENDBRANCH  11  25
ENDBRANCH   1   2
BRANCH   1  27
ATOM     27  C   UNL     1       4.032 -22.851  72.202  1.00  0.00     0.339 C 
ATOM     28  C   UNL     1       4.796 -21.610  72.703  1.00  0.00     0.214 C 
ATOM     29  O   UNL     1       2.843 -22.482  71.520  1.00  0.00    -0.332 OA
ATOM     30  C   UNL     1       3.875 -20.741  73.586  1.00  0.00     0.180 C 
ATOM     31  C   UNL     1       1.929 -21.820  72.383  1.00  0.00     0.179 C 
ATOM     32  C   UNL     1       2.520 -20.482  72.894  1.00  0.00     0.177 C 
BRANCH  28  33
ATOM     33  O   UNL     1       5.928 -22.013  73.430  1.00  0.00    -0.384 OA
ATOM     34  H   UNL     1       5.635 -22.147  74.369  1.00  0.00     0.211 HD
ENDBRANCH  28  33
BRANCH  30  35
ATOM     35  O   UNL     1       4.498 -19.534  73.953  1.00  0.00    -0.387 OA
ATOM     36  H   UNL     1       4.311 -19.373  74.914  1.00  0.00     0.211 HD
ENDBRANCH  30  35
BRANCH  31  37
ATOM     37  C   UNL     1       0.608 -21.594  71.636  1.00  0.00     0.191 C 
BRANCH  37  38
ATOM     38  O   UNL     1       0.013 -20.393  72.049  1.00  0.00    -0.394 OA
ATOM     39  H   UNL     1      -0.502 -20.598  72.873  1.00  0.00     0.210 HD
ENDBRANCH  37  38
ENDBRANCH  31  37
BRANCH  32  40
ATOM     40  O   UNL     1       2.639 -19.534  71.859  1.00  0.00    -0.387 OA
ATOM     41  H   UNL     1       3.487 -19.037  71.989  1.00  0.00     0.211 HD
ENDBRANCH  32  40
ENDBRANCH   1  27
TORSDOF 12
ENDMDL
MODEL 5
REMARK VINA RESULT:    -6.585      8.378     13.384
REMARK INTER + INTRA:         -11.453
REMARK INTER:                  -9.443
REMARK INTRA:                  -2.010
REMARK UNBOUND:                -1.789
REMARK SMILES O=c1c(O[C@H]2O[C@H](CO)[C@H](O)[C@H](O)[C@H]2O)c(-c2ccc(O)c(O)c2)oc2cc(O)cc(O)c12
REMARK SMILES IDX 4 1 3 2 16 3 25 4 2 5 26 6 1 7 33 8 27 9 31 10 28 11 30 12
REMARK SMILES IDX 17 13 18 14 19 15 20 16 24 17 22 18 21 19 23 21 32 23 29 25
REMARK SMILES IDX 5 27 14 28 6 29 12 30 7 31 10 32 15 33 13 35 8 37 9 38 11 40
REMARK H PARENT 21 20 23 22 32 24 29 26 15 34 13 36 9 39 11 41
REMARK Flexibility Score: inf
ROOT
ATOM      1  O   UNL     1      12.566 -28.649  64.355  1.00  0.00    -0.454 OA
ENDROOT
BRANCH   1   2
ATOM      2  C   UNL     1      13.495 -29.690  64.224  1.00  0.00     0.214 A 
ATOM      3  C   UNL     1      14.805 -29.465  63.758  1.00  0.00     0.180 A 
ATOM      4  O   UNL     1      15.664 -30.475  63.703  1.00  0.00    -0.452 OA
ATOM      5  C   UNL     1      13.107 -30.993  64.556  1.00  0.00     0.239 A 
ATOM      6  C   UNL     1      15.354 -31.719  64.047  1.00  0.00     0.146 A 
ATOM      7  O   UNL     1      11.905 -31.196  64.867  1.00  0.00    -0.285 OA
ATOM      8  C   UNL     1      14.055 -32.044  64.519  1.00  0.00     0.111 A 
ATOM      9  C   UNL     1      16.331 -32.710  63.919  1.00  0.00     0.094 A 
ATOM     10  C   UNL     1      13.786 -33.393  64.896  1.00  0.00     0.134 A 
ATOM     11  C   UNL     1      16.040 -34.034  64.240  1.00  0.00     0.123 A 
ATOM     12  C   UNL     1      14.774 -34.370  64.721  1.00  0.00     0.093 A 
BRANCH   3  13
ATOM     13  C   UNL     1      15.264 -28.137  63.294  1.00  0.00     0.025 A 
ATOM     14  C   UNL     1      14.838 -27.608  62.064  1.00  0.00     0.016 A 
ATOM     15  C   UNL     1      15.283 -26.353  61.642  1.00  0.00     0.051 A 
ATOM     16  C   UNL     1      16.169 -25.615  62.435  1.00  0.00     0.157 A 
ATOM     17  C   UNL     1      16.173 -27.406  64.076  1.00  0.00     0.062 A 
ATOM     18  C   UNL     1      16.621 -26.145  63.656  1.00  0.00     0.158 A 
BRANCH  16  19
ATOM     19  O   UNL     1      16.591 -24.361  61.992  1.00  0.00    -0.504 OA
ATOM     20  H   UNL     1      15.948 -23.689  61.592  1.00  0.00     0.293 HD
ENDBRANCH  16  19
BRANCH  18  21
ATOM     21  O   UNL     1      17.509 -25.418  64.445  1.00  0.00    -0.504 OA
ATOM     22  H   UNL     1      17.566 -24.408  64.389  1.00  0.00     0.293 HD
ENDBRANCH  18  21
ENDBRANCH   3  13
BRANCH  10  23
ATOM     23  O   UNL     1      12.584 -33.820  65.472  1.00  0.00    -0.507 OA
ATOM     24  H   UNL     1      12.063 -33.307  66.166  1.00  0.00     0.293 HD
ENDBRANCH  10  23
BRANCH  11  25
ATOM     25  O   UNL     1      17.024 -35.008  64.086  1.00  0.00    -0.508 OA
ATOM     26  H   UNL     1      17.620 -35.286  64.857  1.00  0.00     0.293 HD
ENDBRANCH  11  25
ENDBRANCH   1   2
BRANCH   1  27
ATOM     27  C   UNL     1      12.312 -27.972  65.593  1.00  0.00     0.339 C 
ATOM     28  C   UNL     1      10.799 -27.820  65.848  1.00  0.00     0.214 C 
ATOM     29  O   UNL     1      12.966 -26.713  65.615  1.00  0.00    -0.332 OA
ATOM     30  C   UNL     1      10.185 -26.838  64.828  1.00  0.00     0.180 C 
ATOM     31  C   UNL     1      12.507 -25.868  64.570  1.00  0.00     0.179 C 
ATOM     32  C   UNL     1      11.004 -25.532  64.747  1.00  0.00     0.177 C 
BRANCH  28  33
ATOM     33  O   UNL     1      10.175 -29.075  65.753  1.00  0.00    -0.384 OA
ATOM     34  H   UNL     1      10.094 -29.283  64.785  1.00  0.00     0.211 HD
ENDBRANCH  28  33
BRANCH  30  35
ATOM     35  O   UNL     1       8.833 -26.575  65.112  1.00  0.00    -0.387 OA
ATOM     36  H   UNL     1       8.737 -26.490  66.095  1.00  0.00     0.211 HD
ENDBRANCH  30  35
BRANCH  31  37
ATOM     37  C   UNL     1      13.360 -24.593  64.545  1.00  0.00     0.191 C 
BRANCH  37  38
ATOM     38  O   UNL     1      12.616 -23.517  64.038  1.00  0.00    -0.394 OA
ATOM     39  H   UNL     1      12.816 -23.463  63.067  1.00  0.00     0.210 HD
ENDBRANCH  37  38
ENDBRANCH  31  37
BRANCH  32  40
ATOM     40  O   UNL     1      10.780 -24.710  65.868  1.00  0.00    -0.387 OA
ATOM     41  H   UNL     1      11.100 -25.189  66.674  1.00  0.00     0.211 HD
ENDBRANCH  32  40
ENDBRANCH   1  27
TORSDOF 12
ENDMDL
MODEL 6
REMARK VINA RESULT:    -6.576      1.519      4.726
REMARK INTER + INTRA:         -11.440
REMARK INTER:                 -11.275
REMARK INTRA:                  -0.164
REMARK UNBOUND:                -1.789
REMARK SMILES O=c1c(O[C@H]2O[C@H](CO)[C@H](O)[C@H](O)[C@H]2O)c(-c2ccc(O)c(O)c2)oc2cc(O)cc(O)c12
REMARK SMILES IDX 4 1 3 2 16 3 25 4 2 5 26 6 1 7 33 8 27 9 31 10 28 11 30 12
REMARK SMILES IDX 17 13 18 14 19 15 20 16 24 17 22 18 21 19 23 21 32 23 29 25
REMARK SMILES IDX 5 27 14 28 6 29 12 30 7 31 10 32 15 33 13 35 8 37 9 38 11 40
REMARK H PARENT 21 20 23 22 32 24 29 26 15 34 13 36 9 39 11 41
REMARK Flexibility Score: inf
ROOT
ATOM      1  O   UNL     1       7.374 -26.335  74.156  1.00  0.00    -0.454 OA
ENDROOT
BRANCH   1   2
ATOM      2  C   UNL     1       7.125 -25.142  73.465  1.00  0.00     0.214 A 
ATOM      3  C   UNL     1       7.643 -24.905  72.177  1.00  0.00     0.180 A 
ATOM      4  O   UNL     1       7.334 -23.782  71.543  1.00  0.00    -0.452 OA
ATOM      5  C   UNL     1       6.346 -24.153  74.076  1.00  0.00     0.239 A 
ATOM      6  C   UNL     1       6.565 -22.834  72.064  1.00  0.00     0.146 A 
ATOM      7  O   UNL     1       5.980 -24.333  75.266  1.00  0.00    -0.285 OA
ATOM      8  C   UNL     1       6.006 -22.980  73.361  1.00  0.00     0.111 A 
ATOM      9  C   UNL     1       6.331 -21.677  71.317  1.00  0.00     0.094 A 
ATOM     10  C   UNL     1       5.168 -21.939  73.862  1.00  0.00     0.134 A 
ATOM     11  C   UNL     1       5.555 -20.644  71.837  1.00  0.00     0.123 A 
ATOM     12  C   UNL     1       4.982 -20.776  73.103  1.00  0.00     0.093 A 
BRANCH   3  13
ATOM     13  C   UNL     1       8.555 -25.856  71.503  1.00  0.00     0.025 A 
ATOM     14  C   UNL     1       8.820 -25.759  70.126  1.00  0.00     0.016 A 
ATOM     15  C   UNL     1       9.681 -26.667  69.507  1.00  0.00     0.051 A 
ATOM     16  C   UNL     1      10.280 -27.692  70.249  1.00  0.00     0.157 A 
ATOM     17  C   UNL     1       9.135 -26.901  72.240  1.00  0.00     0.062 A 
ATOM     18  C   UNL     1      10.002 -27.813  71.622  1.00  0.00     0.158 A 
BRANCH  16  19
ATOM     19  O   UNL     1      11.142 -28.579  69.606  1.00  0.00    -0.504 OA
ATOM     20  H   UNL     1      10.815 -29.448  69.201  1.00  0.00     0.293 HD
ENDBRANCH  16  19
BRANCH  18  21
ATOM     21  O   UNL     1      10.589 -28.836  72.364  1.00  0.00    -0.504 OA
ATOM     22  H   UNL     1      11.144 -29.561  71.923  1.00  0.00     0.293 HD
ENDBRANCH  18  21
ENDBRANCH   3  13
BRANCH  10  23
ATOM     23  O   UNL     1       4.475 -22.007  75.075  1.00  0.00    -0.507 OA
ATOM     24  H   UNL     1       4.449 -22.814  75.680  1.00  0.00     0.293 HD
ENDBRANCH  10  23
BRANCH  11  25
ATOM     25  O   UNL     1       5.350 -19.492  71.081  1.00  0.00    -0.508 OA
ATOM     26  H   UNL     1       5.997 -19.215  70.352  1.00  0.00     0.293 HD
ENDBRANCH  11  25
ENDBRANCH   1   2
BRANCH   1  27
ATOM     27  C   UNL     1       6.336 -27.168  74.691  1.00  0.00     0.339 C 
ATOM     28  C   UNL     1       6.881 -28.551  75.098  1.00  0.00     0.214 C 
ATOM     29  O   UNL     1       5.269 -27.289  73.762  1.00  0.00    -0.332 OA
ATOM     30  C   UNL     1       7.300 -29.347  73.844  1.00  0.00     0.180 C 
ATOM     31  C   UNL     1       5.700 -27.880  72.545  1.00  0.00     0.179 C 
ATOM     32  C   UNL     1       6.186 -29.334  72.776  1.00  0.00     0.177 C 
BRANCH  28  33
ATOM     33  O   UNL     1       7.977 -28.391  75.962  1.00  0.00    -0.384 OA
ATOM     34  H   UNL     1       7.757 -27.637  76.570  1.00  0.00     0.211 HD
ENDBRANCH  28  33
BRANCH  30  35
ATOM     35  O   UNL     1       7.680 -30.662  74.168  1.00  0.00    -0.387 OA
ATOM     36  H   UNL     1       7.436 -30.827  75.116  1.00  0.00     0.211 HD
ENDBRANCH  30  35
BRANCH  31  37
ATOM     37  C   UNL     1       4.549 -27.835  71.531  1.00  0.00     0.191 C 
BRANCH  37  38
ATOM     38  O   UNL     1       4.803 -28.711  70.465  1.00  0.00    -0.394 OA
ATOM     39  H   UNL     1       4.949 -29.610  70.862  1.00  0.00     0.210 HD
ENDBRANCH  37  38
ENDBRANCH  31  37
BRANCH  32  40
ATOM     40  O   UNL     1       5.124 -30.192  73.124  1.00  0.00    -0.387 OA
ATOM     41  H   UNL     1       4.347 -29.634  73.384  1.00  0.00     0.211 HD
ENDBRANCH  32  40
ENDBRANCH   1  27
TORSDOF 12
ENDMDL
MODEL 7
REMARK VINA RESULT:    -6.440      2.120      2.920
REMARK INTER + INTRA:         -11.241
REMARK INTER:                  -9.963
REMARK INTRA:                  -1.278
REMARK UNBOUND:                -1.789
REMARK SMILES O=c1c(O[C@H]2O[C@H](CO)[C@H](O)[C@H](O)[C@H]2O)c(-c2ccc(O)c(O)c2)oc2cc(O)cc(O)c12
REMARK SMILES IDX 4 1 3 2 16 3 25 4 2 5 26 6 1 7 33 8 27 9 31 10 28 11 30 12
REMARK SMILES IDX 17 13 18 14 19 15 20 16 24 17 22 18 21 19 23 21 32 23 29 25
REMARK SMILES IDX 5 27 14 28 6 29 12 30 7 31 10 32 15 33 13 35 8 37 9 38 11 40
REMARK H PARENT 21 20 23 22 32 24 29 26 15 34 13 36 9 39 11 41
REMARK Flexibility Score: inf
ROOT
ATOM      1  O   UNL     1       6.521 -24.634  71.604  1.00  0.00    -0.454 OA
ENDROOT
BRANCH   1   2
ATOM      2  C   UNL     1       5.717 -23.516  71.865  1.00  0.00     0.214 A 
ATOM      3  C   UNL     1       4.396 -23.643  72.336  1.00  0.00     0.180 A 
ATOM      4  O   UNL     1       3.694 -22.553  72.619  1.00  0.00    -0.452 OA
ATOM      5  C   UNL     1       6.239 -22.237  71.642  1.00  0.00     0.239 A 
ATOM      6  C   UNL     1       4.161 -21.320  72.465  1.00  0.00     0.146 A 
ATOM      7  O   UNL     1       7.381 -22.141  71.121  1.00  0.00    -0.285 OA
ATOM      8  C   UNL     1       5.478 -21.094  71.986  1.00  0.00     0.111 A 
ATOM      9  C   UNL     1       3.321 -20.246  72.766  1.00  0.00     0.094 A 
ATOM     10  C   UNL     1       5.935 -19.747  71.862  1.00  0.00     0.134 A 
ATOM     11  C   UNL     1       3.759 -18.935  72.590  1.00  0.00     0.123 A 
ATOM     12  C   UNL     1       5.057 -18.692  72.137  1.00  0.00     0.093 A 
BRANCH   3  13
ATOM     13  C   UNL     1       3.737 -24.957  72.503  1.00  0.00     0.025 A 
ATOM     14  C   UNL     1       3.874 -25.694  73.692  1.00  0.00     0.016 A 
ATOM     15  C   UNL     1       3.246 -26.934  73.829  1.00  0.00     0.051 A 
ATOM     16  C   UNL     1       2.483 -27.461  72.781  1.00  0.00     0.157 A 
ATOM     17  C   UNL     1       2.993 -25.499  71.442  1.00  0.00     0.062 A 
ATOM     18  C   UNL     1       2.360 -26.743  71.579  1.00  0.00     0.158 A 
BRANCH  16  19
ATOM     19  O   UNL     1       1.861 -28.697  72.950  1.00  0.00    -0.504 OA
ATOM     20  H   UNL     1       1.191 -29.058  72.282  1.00  0.00     0.293 HD
ENDBRANCH  16  19
BRANCH  18  21
ATOM     21  O   UNL     1       1.610 -27.266  70.528  1.00  0.00    -0.504 OA
ATOM     22  H   UNL     1       1.907 -27.170  69.564  1.00  0.00     0.293 HD
ENDBRANCH  18  21
ENDBRANCH   3  13
BRANCH  10  23
ATOM     23  O   UNL     1       7.240 -19.393  71.503  1.00  0.00    -0.507 OA
ATOM     24  H   UNL     1       7.771 -19.823  70.761  1.00  0.00     0.293 HD
ENDBRANCH  10  23
BRANCH  11  25
ATOM     25  O   UNL     1       2.898 -17.879  72.879  1.00  0.00    -0.508 OA
ATOM     26  H   UNL     1       2.020 -18.028  73.363  1.00  0.00     0.293 HD
ENDBRANCH  11  25
ENDBRANCH   1   2
BRANCH   1  27
ATOM     27  C   UNL     1       7.842 -24.796  72.137  1.00  0.00     0.339 C 
ATOM     28  C   UNL     1       8.799 -25.402  71.091  1.00  0.00     0.214 C 
ATOM     29  O   UNL     1       7.809 -25.581  73.319  1.00  0.00    -0.332 OA
ATOM     30  C   UNL     1       8.404 -26.864  70.795  1.00  0.00     0.180 C 
ATOM     31  C   UNL     1       7.292 -26.881  73.068  1.00  0.00     0.179 C 
ATOM     32  C   UNL     1       8.214 -27.666  72.101  1.00  0.00     0.177 C 
BRANCH  28  33
ATOM     33  O   UNL     1       8.756 -24.638  69.913  1.00  0.00    -0.384 OA
ATOM     34  H   UNL     1       8.210 -25.148  69.259  1.00  0.00     0.211 HD
ENDBRANCH  28  33
BRANCH  30  35
ATOM     35  O   UNL     1       9.333 -27.490  69.944  1.00  0.00    -0.387 OA
ATOM     36  H   UNL     1      10.234 -27.387  70.346  1.00  0.00     0.211 HD
ENDBRANCH  30  35
BRANCH  31  37
ATOM     37  C   UNL     1       7.129 -27.621  74.401  1.00  0.00     0.191 C 
BRANCH  37  38
ATOM     38  O   UNL     1       6.731 -26.730  75.409  1.00  0.00    -0.394 OA
ATOM     39  H   UNL     1       6.830 -27.212  76.272  1.00  0.00     0.210 HD
ENDBRANCH  37  38
ENDBRANCH  31  37
BRANCH  32  40
ATOM     40  O   UNL     1       9.450 -27.984  72.698  1.00  0.00    -0.387 OA
ATOM     41  H   UNL     1       9.634 -27.316  73.406  1.00  0.00     0.211 HD
ENDBRANCH  32  40
ENDBRANCH   1  27
TORSDOF 12
ENDMDL
MODEL 8
REMARK VINA RESULT:    -6.396     10.051     13.375
REMARK INTER + INTRA:         -11.177
REMARK INTER:                  -9.493
REMARK INTRA:                  -1.684
REMARK UNBOUND:                -1.789
REMARK SMILES O=c1c(O[C@H]2O[C@H](CO)[C@H](O)[C@H](O)[C@H]2O)c(-c2ccc(O)c(O)c2)oc2cc(O)cc(O)c12
REMARK SMILES IDX 4 1 3 2 16 3 25 4 2 5 26 6 1 7 33 8 27 9 31 10 28 11 30 12
REMARK SMILES IDX 17 13 18 14 19 15 20 16 24 17 22 18 21 19 23 21 32 23 29 25
REMARK SMILES IDX 5 27 14 28 6 29 12 30 7 31 10 32 15 33 13 35 8 37 9 38 11 40
REMARK H PARENT 21 20 23 22 32 24 29 26 15 34 13 36 9 39 11 41
REMARK Flexibility Score: inf
ROOT
ATOM      1  O   UNL     1      13.446 -33.232  68.112  1.00  0.00    -0.454 OA
ENDROOT
BRANCH   1   2
ATOM      2  C   UNL     1      14.082 -33.979  69.112  1.00  0.00     0.214 A 
ATOM      3  C   UNL     1      14.486 -35.312  68.902  1.00  0.00     0.180 A 
ATOM      4  O   UNL     1      15.132 -35.960  69.863  1.00  0.00    -0.452 OA
ATOM      5  C   UNL     1      14.313 -33.388  70.359  1.00  0.00     0.239 A 
ATOM      6  C   UNL     1      15.412 -35.427  71.046  1.00  0.00     0.146 A 
ATOM      7  O   UNL     1      13.852 -32.236  70.567  1.00  0.00    -0.285 OA
ATOM      8  C   UNL     1      15.034 -34.093  71.352  1.00  0.00     0.111 A 
ATOM      9  C   UNL     1      16.070 -36.214  71.994  1.00  0.00     0.094 A 
ATOM     10  C   UNL     1      15.381 -33.565  72.632  1.00  0.00     0.134 A 
ATOM     11  C   UNL     1      16.356 -35.705  73.258  1.00  0.00     0.123 A 
ATOM     12  C   UNL     1      16.008 -34.390  73.573  1.00  0.00     0.093 A 
BRANCH   3  13
ATOM     13  C   UNL     1      14.192 -36.041  67.648  1.00  0.00     0.025 A 
ATOM     14  C   UNL     1      12.876 -36.392  67.302  1.00  0.00     0.016 A 
ATOM     15  C   UNL     1      12.619 -37.082  66.115  1.00  0.00     0.051 A 
ATOM     16  C   UNL     1      13.670 -37.442  65.264  1.00  0.00     0.157 A 
ATOM     17  C   UNL     1      15.248 -36.426  66.807  1.00  0.00     0.062 A 
ATOM     18  C   UNL     1      14.992 -37.117  65.614  1.00  0.00     0.158 A 
BRANCH  16  19
ATOM     19  O   UNL     1      13.382 -38.123  64.082  1.00  0.00    -0.504 OA
ATOM     20  H   UNL     1      12.759 -37.742  63.381  1.00  0.00     0.293 HD
ENDBRANCH  16  19
BRANCH  18  21
ATOM     21  O   UNL     1      16.044 -37.480  64.775  1.00  0.00    -0.504 OA
ATOM     22  H   UNL     1      16.915 -36.962  64.761  1.00  0.00     0.293 HD
ENDBRANCH  18  21
ENDBRANCH   3  13
BRANCH  10  23
ATOM     23  O   UNL     1      15.161 -32.238  73.017  1.00  0.00    -0.507 OA
ATOM     24  H   UNL     1      15.868 -31.619  73.384  1.00  0.00     0.293 HD
ENDBRANCH  10  23
BRANCH  11  25
ATOM     25  O   UNL     1      16.997 -36.514  74.194  1.00  0.00    -0.508 OA
ATOM     26  H   UNL     1      16.775 -36.461  75.182  1.00  0.00     0.293 HD
ENDBRANCH  11  25
ENDBRANCH   1   2
BRANCH   1  27
ATOM     27  C   UNL     1      14.055 -32.108  67.461  1.00  0.00     0.339 C 
ATOM     28  C   UNL     1      13.010 -31.035  67.098  1.00  0.00     0.214 C 
ATOM     29  O   UNL     1      14.778 -32.529  66.314  1.00  0.00    -0.332 OA
ATOM     30  C   UNL     1      12.072 -31.561  65.991  1.00  0.00     0.180 C 
ATOM     31  C   UNL     1      13.931 -33.158  65.364  1.00  0.00     0.179 C 
ATOM     32  C   UNL     1      12.875 -32.164  64.819  1.00  0.00     0.177 C 
BRANCH  28  33
ATOM     33  O   UNL     1      12.269 -30.692  68.241  1.00  0.00    -0.384 OA
ATOM     34  H   UNL     1      11.401 -31.169  68.176  1.00  0.00     0.211 HD
ENDBRANCH  28  33
BRANCH  30  35
ATOM     35  O   UNL     1      11.187 -30.563  65.543  1.00  0.00    -0.387 OA
ATOM     36  H   UNL     1      11.722 -29.862  65.089  1.00  0.00     0.211 HD
ENDBRANCH  30  35
BRANCH  31  37
ATOM     37  C   UNL     1      14.789 -33.733  64.230  1.00  0.00     0.191 C 
BRANCH  37  38
ATOM     38  O   UNL     1      14.001 -33.974  63.095  1.00  0.00    -0.394 OA
ATOM     39  H   UNL     1      14.620 -34.257  62.372  1.00  0.00     0.210 HD
ENDBRANCH  37  38
ENDBRANCH  31  37
BRANCH  32  40
ATOM     40  O   UNL     1      13.463 -31.160  64.024  1.00  0.00    -0.387 OA
ATOM     41  H   UNL     1      13.378 -30.296  64.501  1.00  0.00     0.211 HD
ENDBRANCH  32  40
ENDBRANCH   1  27
TORSDOF 12
ENDMDL
MODEL 9
REMARK VINA RESULT:    -6.272      3.563      5.734
REMARK INTER + INTRA:         -10.994
REMARK INTER:                  -9.152
REMARK INTRA:                  -1.842
REMARK UNBOUND:                -1.789
REMARK SMILES O=c1c(O[C@H]2O[C@H](CO)[C@H](O)[C@H](O)[C@H]2O)c(-c2ccc(O)c(O)c2)oc2cc(O)cc(O)c12
REMARK SMILES IDX 4 1 3 2 16 3 25 4 2 5 26 6 1 7 33 8 27 9 31 10 28 11 30 12
REMARK SMILES IDX 17 13 18 14 19 15 20 16 24 17 22 18 21 19 23 21 32 23 29 25
REMARK SMILES IDX 5 27 14 28 6 29 12 30 7 31 10 32 15 33 13 35 8 37 9 38 11 40
REMARK H PARENT 21 20 23 22 32 24 29 26 15 34 13 36 9 39 11 41
REMARK Flexibility Score: inf
ROOT
ATOM      1  O   UNL     1       3.909 -23.882  73.241  1.00  0.00    -0.454 OA
ENDROOT
BRANCH   1   2
ATOM      2  C   UNL     1       2.938 -22.933  73.588  1.00  0.00     0.214 A 
ATOM      3  C   UNL     1       1.631 -22.980  73.064  1.00  0.00     0.180 A 
ATOM      4  O   UNL     1       0.732 -22.091  73.466  1.00  0.00    -0.452 OA
ATOM      5  C   UNL     1       3.278 -21.905  74.473  1.00  0.00     0.239 A 
ATOM      6  C   UNL     1       0.997 -21.124  74.335  1.00  0.00     0.146 A 
ATOM      7  O   UNL     1       4.476 -21.814  74.849  1.00  0.00    -0.285 OA
ATOM      8  C   UNL     1       2.289 -20.991  74.909  1.00  0.00     0.111 A 
ATOM      9  C   UNL     1      -0.020 -20.224  74.662  1.00  0.00     0.094 A 
ATOM     10  C   UNL     1       2.509 -19.946  75.856  1.00  0.00     0.134 A 
ATOM     11  C   UNL     1       0.221 -19.175  75.547  1.00  0.00     0.123 A 
ATOM     12  C   UNL     1       1.480 -19.038  76.134  1.00  0.00     0.093 A 
BRANCH   3  13
ATOM     13  C   UNL     1       1.219 -23.975  72.049  1.00  0.00     0.025 A 
ATOM     14  C   UNL     1       1.761 -23.960  70.753  1.00  0.00     0.016 A 
ATOM     15  C   UNL     1       1.358 -24.907  69.808  1.00  0.00     0.051 A 
ATOM     16  C   UNL     1       0.401 -25.872  70.139  1.00  0.00     0.157 A 
ATOM     17  C   UNL     1       0.240 -24.929  72.371  1.00  0.00     0.062 A 
ATOM     18  C   UNL     1      -0.165 -25.881  71.425  1.00  0.00     0.158 A 
BRANCH  16  19
ATOM     19  O   UNL     1       0.024 -26.810  69.178  1.00  0.00    -0.504 OA
ATOM     20  H   UNL     1      -0.902 -26.818  68.769  1.00  0.00     0.293 HD
ENDBRANCH  16  19
BRANCH  18  21
ATOM     21  O   UNL     1      -1.125 -26.835  71.758  1.00  0.00    -0.504 OA
ATOM     22  H   UNL     1      -1.180 -27.230  72.690  1.00  0.00     0.293 HD
ENDBRANCH  18  21
ENDBRANCH   3  13
BRANCH  10  23
ATOM     23  O   UNL     1       3.701 -19.774  76.568  1.00  0.00    -0.507 OA
ATOM     24  H   UNL     1       3.974 -20.314  77.374  1.00  0.00     0.293 HD
ENDBRANCH  10  23
BRANCH  11  25
ATOM     25  O   UNL     1      -0.803 -18.279  75.844  1.00  0.00    -0.508 OA
ATOM     26  H   UNL     1      -1.773 -18.570  75.866  1.00  0.00     0.293 HD
ENDBRANCH  11  25
ENDBRANCH   1   2
BRANCH   1  27
ATOM     27  C   UNL     1       4.209 -25.032  74.042  1.00  0.00     0.339 C 
ATOM     28  C   UNL     1       5.723 -25.152  74.307  1.00  0.00     0.214 C 
ATOM     29  O   UNL     1       3.699 -26.209  73.434  1.00  0.00    -0.332 OA
ATOM     30  C   UNL     1       6.466 -25.487  72.997  1.00  0.00     0.180 C 
ATOM     31  C   UNL     1       4.274 -26.426  72.153  1.00  0.00     0.179 C 
ATOM     32  C   UNL     1       5.799 -26.671  72.264  1.00  0.00     0.177 C 
BRANCH  28  33
ATOM     33  O   UNL     1       6.205 -23.948  74.846  1.00  0.00    -0.384 OA
ATOM     34  H   UNL     1       5.433 -23.326  74.897  1.00  0.00     0.211 HD
ENDBRANCH  28  33
BRANCH  30  35
ATOM     35  O   UNL     1       7.832 -25.733  73.224  1.00  0.00    -0.387 OA
ATOM     36  H   UNL     1       7.984 -25.735  74.204  1.00  0.00     0.211 HD
ENDBRANCH  30  35
BRANCH  31  37
ATOM     37  C   UNL     1       3.569 -27.612  71.482  1.00  0.00     0.191 C 
BRANCH  37  38
ATOM     38  O   UNL     1       4.481 -28.353  70.716  1.00  0.00    -0.394 OA
ATOM     39  H   UNL     1       4.088 -28.440  69.808  1.00  0.00     0.210 HD
ENDBRANCH  37  38
ENDBRANCH  31  37
BRANCH  32  40
ATOM     40  O   UNL     1       6.088 -27.898  72.893  1.00  0.00    -0.387 OA
ATOM     41  H   UNL     1       5.234 -28.304  73.189  1.00  0.00     0.211 HD
ENDBRANCH  32  40
ENDBRANCH   1  27
TORSDOF 12
ENDMDL
