MODEL 1
REMARK VINA RESULT:    -3.001      0.000      0.000
REMARK INTER + INTRA:          -3.909
REMARK INTER:                  -3.615
REMARK INTRA:                  -0.294
REMARK UNBOUND:                -0.294
REMARK SMILES O=c1c(O)c(-c2ccc(O)c(O)c2)oc2cc(O)cc(O)c12
REMARK SMILES IDX 5 1 3 2 2 3 1 4 22 5 20 6 19 7 17 8 16 9 15 10 14 11 6 12
REMARK SMILES IDX 7 13 8 14 9 15 13 16 11 17 10 18 12 20 4 22 21 24 18 26
REMARK H PARENT 10 19 12 21 4 23 21 25 18 27
REMARK Flexibility Score: inf
ROOT
ATOM      1  C   UNL     1     -24.178 -10.186   8.176  1.00  0.00     0.180 A 
ATOM      2  C   UNL     1     -24.341 -10.826   6.936  1.00  0.00     0.208 A 
ATOM      3  C   UNL     1     -24.398 -12.229   6.896  1.00  0.00     0.238 A 
ATOM      4  O   UNL     1     -24.490 -12.798   5.777  1.00  0.00    -0.285 OA
ATOM      5  C   UNL     1     -24.307 -12.972   8.097  1.00  0.00     0.111 A 
ATOM      6  C   UNL     1     -24.394 -14.394   8.180  1.00  0.00     0.134 A 
ATOM      7  C   UNL     1     -24.159 -15.031   9.404  1.00  0.00     0.093 A 
ATOM      8  C   UNL     1     -23.908 -14.293  10.563  1.00  0.00     0.123 A 
ATOM      9  C   UNL     1     -23.881 -12.902  10.505  1.00  0.00     0.094 A 
ATOM     10  C   UNL     1     -24.075 -12.239   9.290  1.00  0.00     0.146 A 
ATOM     11  O   UNL     1     -24.030 -10.912   9.277  1.00  0.00    -0.452 OA
ENDROOT
BRANCH   1  12
ATOM     12  C   UNL     1     -24.135  -8.711   8.301  1.00  0.00     0.025 A 
ATOM     13  C   UNL     1     -22.964  -7.987   8.016  1.00  0.00     0.016 A 
ATOM     14  C   UNL     1     -22.952  -6.592   8.118  1.00  0.00     0.051 A 
ATOM     15  C   UNL     1     -24.112  -5.902   8.490  1.00  0.00     0.157 A 
ATOM     16  C   UNL     1     -25.301  -8.011   8.654  1.00  0.00     0.062 A 
ATOM     17  C   UNL     1     -25.290  -6.613   8.756  1.00  0.00     0.158 A 
BRANCH  15  18
ATOM     18  O   UNL     1     -24.105  -4.513   8.594  1.00  0.00    -0.504 OA
ATOM     19  H   UNL     1     -24.721  -4.026   9.235  1.00  0.00     0.293 HD
ENDBRANCH  15  18
BRANCH  17  20
ATOM     20  O   UNL     1     -26.445  -5.923   9.120  1.00  0.00    -0.504 OA
ATOM     21  H   UNL     1     -26.857  -5.222   8.515  1.00  0.00     0.293 HD
ENDBRANCH  17  20
ENDBRANCH   1  12
BRANCH   2  22
ATOM     22  O   UNL     1     -24.407 -10.074   5.759  1.00  0.00    -0.502 OA
ATOM     23  H   UNL     1     -24.596 -10.493   4.856  1.00  0.00     0.293 HD
ENDBRANCH   2  22
BRANCH   6  24
ATOM     24  O   UNL     1     -24.729 -15.219   7.102  1.00  0.00    -0.507 OA
ATOM     25  H   UNL     1     -24.282 -15.194   6.198  1.00  0.00     0.293 HD
ENDBRANCH   6  24
BRANCH   8  26
ATOM     26  O   UNL     1     -23.692 -14.933  11.782  1.00  0.00    -0.508 OA
ATOM     27  H   UNL     1     -24.452 -15.114  12.427  1.00  0.00     0.293 HD
ENDBRANCH   8  26
TORSDOF 6
ENDMDL
MODEL 2
REMARK VINA RESULT:    -2.600      1.311      3.053
REMARK INTER + INTRA:          -3.425
REMARK INTER:                  -3.125
REMARK INTRA:                  -0.300
REMARK UNBOUND:                -0.294
REMARK SMILES O=c1c(O)c(-c2ccc(O)c(O)c2)oc2cc(O)cc(O)c12
REMARK SMILES IDX 5 1 3 2 2 3 1 4 22 5 20 6 19 7 17 8 16 9 15 10 14 11 6 12
REMARK SMILES IDX 7 13 8 14 9 15 13 16 11 17 10 18 12 20 4 22 21 24 18 26
REMARK H PARENT 10 19 12 21 4 23 21 25 18 27
REMARK Flexibility Score: inf
ROOT
ATOM      1  C   UNL     1     -24.183 -10.571   8.149  1.00  0.00     0.180 A 
ATOM      2  C   UNL     1     -24.138 -11.407   9.278  1.00  0.00     0.208 A 
ATOM      3  C   UNL     1     -24.293 -12.792   9.106  1.00  0.00     0.238 A 
ATOM      4  O   UNL     1     -24.305 -13.530  10.126  1.00  0.00    -0.285 OA
ATOM      5  C   UNL     1     -24.478 -13.324   7.807  1.00  0.00     0.111 A 
ATOM      6  C   UNL     1     -24.605 -14.715   7.512  1.00  0.00     0.134 A 
ATOM      7  C   UNL     1     -24.915 -15.118   6.207  1.00  0.00     0.093 A 
ATOM      8  C   UNL     1     -25.035 -14.186   5.174  1.00  0.00     0.123 A 
ATOM      9  C   UNL     1     -24.853 -12.831   5.441  1.00  0.00     0.094 A 
ATOM     10  C   UNL     1     -24.579 -12.395   6.740  1.00  0.00     0.146 A 
ATOM     11  O   UNL     1     -24.423 -11.093   6.953  1.00  0.00    -0.452 OA
ENDROOT
BRANCH   1  12
ATOM     12  C   UNL     1     -24.002  -9.104   8.248  1.00  0.00     0.025 A 
ATOM     13  C   UNL     1     -22.774  -8.496   7.937  1.00  0.00     0.016 A 
ATOM     14  C   UNL     1     -22.633  -7.107   8.014  1.00  0.00     0.051 A 
ATOM     15  C   UNL     1     -23.720  -6.307   8.388  1.00  0.00     0.157 A 
ATOM     16  C   UNL     1     -25.095  -8.295   8.602  1.00  0.00     0.062 A 
ATOM     17  C   UNL     1     -24.954  -6.902   8.680  1.00  0.00     0.158 A 
BRANCH  15  18
ATOM     18  O   UNL     1     -23.583  -4.923   8.468  1.00  0.00    -0.504 OA
ATOM     19  H   UNL     1     -24.369  -4.303   8.310  1.00  0.00     0.293 HD
ENDBRANCH  15  18
BRANCH  17  20
ATOM     20  O   UNL     1     -26.036  -6.103   9.046  1.00  0.00    -0.504 OA
ATOM     21  H   UNL     1     -26.838  -5.986   8.438  1.00  0.00     0.293 HD
ENDBRANCH  17  20
ENDBRANCH   1  12
BRANCH   2  22
ATOM     22  O   UNL     1     -23.976 -10.859  10.553  1.00  0.00    -0.502 OA
ATOM     23  H   UNL     1     -23.390 -10.051  10.728  1.00  0.00     0.293 HD
ENDBRANCH   2  22
BRANCH   6  24
ATOM     24  O   UNL     1     -24.414 -15.733   8.450  1.00  0.00    -0.507 OA
ATOM     25  H   UNL     1     -23.531 -15.952   8.888  1.00  0.00     0.293 HD
ENDBRANCH   6  24
BRANCH   8  26
ATOM     26  O   UNL     1     -25.327 -14.596   3.875  1.00  0.00    -0.508 OA
ATOM     27  H   UNL     1     -24.597 -14.886   3.234  1.00  0.00     0.293 HD
ENDBRANCH   8  26
TORSDOF 6
ENDMDL
MODEL 3
REMARK VINA RESULT:    -1.014      1.517      6.911
REMARK INTER + INTRA:          -1.515
REMARK INTER:                  -1.192
REMARK INTRA:                  -0.323
REMARK UNBOUND:                -0.294
REMARK SMILES O=c1c(O)c(-c2ccc(O)c(O)c2)oc2cc(O)cc(O)c12
REMARK SMILES IDX 5 1 3 2 2 3 1 4 22 5 20 6 19 7 17 8 16 9 15 10 14 11 6 12
REMARK SMILES IDX 7 13 8 14 9 15 13 16 11 17 10 18 12 20 4 22 21 24 18 26
REMARK H PARENT 10 19 12 21 4 23 21 25 18 27
REMARK Flexibility Score: inf
ROOT
ATOM      1  C   UNL     1     -23.581  -9.877   8.710  1.00  0.00     0.180 A 
ATOM      2  C   UNL     1     -22.674  -9.340   7.780  1.00  0.00     0.208 A 
ATOM      3  C   UNL     1     -22.758  -7.976   7.458  1.00  0.00     0.238 A 
ATOM      4  O   UNL     1     -21.978  -7.512   6.585  1.00  0.00    -0.285 OA
ATOM      5  C   UNL     1     -23.736  -7.163   8.080  1.00  0.00     0.111 A 
ATOM      6  C   UNL     1     -23.885  -5.761   7.859  1.00  0.00     0.134 A 
ATOM      7  C   UNL     1     -24.970  -5.084   8.428  1.00  0.00     0.093 A 
ATOM      8  C   UNL     1     -25.873  -5.744   9.265  1.00  0.00     0.123 A 
ATOM      9  C   UNL     1     -25.701  -7.100   9.535  1.00  0.00     0.094 A 
ATOM     10  C   UNL     1     -24.649  -7.811   8.952  1.00  0.00     0.146 A 
ATOM     11  O   UNL     1     -24.528  -9.104   9.227  1.00  0.00    -0.452 OA
ENDROOT
BRANCH   1  12
ATOM     12  C   UNL     1     -23.539 -11.300   9.119  1.00  0.00     0.025 A 
ATOM     13  C   UNL     1     -22.838 -11.711  10.266  1.00  0.00     0.016 A 
ATOM     14  C   UNL     1     -22.832 -13.056  10.647  1.00  0.00     0.051 A 
ATOM     15  C   UNL     1     -23.538 -14.005   9.896  1.00  0.00     0.157 A 
ATOM     16  C   UNL     1     -24.262 -12.253   8.382  1.00  0.00     0.062 A 
ATOM     17  C   UNL     1     -24.257 -13.602   8.763  1.00  0.00     0.158 A 
BRANCH  15  18
ATOM     18  O   UNL     1     -23.533 -15.347  10.271  1.00  0.00    -0.504 OA
ATOM     19  H   UNL     1     -23.497 -15.625  11.245  1.00  0.00     0.293 HD
ENDBRANCH  15  18
BRANCH  17  20
ATOM     20  O   UNL     1     -24.963 -14.547   8.022  1.00  0.00    -0.504 OA
ATOM     21  H   UNL     1     -24.891 -14.591   7.012  1.00  0.00     0.293 HD
ENDBRANCH  17  20
ENDBRANCH   1  12
BRANCH   2  22
ATOM     22  O   UNL     1     -21.730 -10.164   7.161  1.00  0.00    -0.502 OA
ATOM     23  H   UNL     1     -21.776 -10.400   6.177  1.00  0.00     0.293 HD
ENDBRANCH   2  22
BRANCH   6  24
ATOM     24  O   UNL     1     -22.988  -4.988   7.116  1.00  0.00    -0.507 OA
ATOM     25  H   UNL     1     -22.003  -4.898   7.318  1.00  0.00     0.293 HD
ENDBRANCH   6  24
BRANCH   8  26
ATOM     26  O   UNL     1     -26.941  -5.059   9.842  1.00  0.00    -0.508 OA
ATOM     27  H   UNL     1     -26.795  -4.235  10.413  1.00  0.00     0.293 HD
ENDBRANCH   8  26
TORSDOF 6
ENDMDL
