MODEL 1
REMARK VINA RESULT:    -4.294      0.000      0.000
REMARK INTER + INTRA:         -12.675
REMARK INTER:                  -9.314
REMARK INTRA:                  -3.362
REMARK UNBOUND:                -3.362
REMARK SMILES CCCCCCCCCCCCCCCCCCCCCC(=O)[O-]
REMARK SMILES IDX 12 1 11 2 10 3 9 4 8 5 7 6 6 7 5 8 4 9 3 10 2 11 1 12 13 13
REMARK SMILES IDX 14 14 15 15 16 16 17 17 18 18 19 19 20 20 21 21 22 22 23 23
REMARK SMILES IDX 24 24
REMARK H PARENT
REMARK Flexibility Score: inf
ROOT
ATOM      1  C   UNL     1      -9.196  -3.484   5.600  1.00  0.00     0.000 C 
ENDROOT
BRANCH   1   2
ATOM      2  C   UNL     1      -8.385  -4.374   6.563  1.00  0.00     0.000 C 
BRANCH   2   3
ATOM      3  C   UNL     1      -9.078  -5.688   6.973  1.00  0.00     0.000 C 
BRANCH   3   4
ATOM      4  C   UNL     1      -8.922  -6.846   5.967  1.00  0.00    -0.000 C 
BRANCH   4   5
ATOM      5  C   UNL     1     -10.188  -7.179   5.155  1.00  0.00    -0.000 C 
BRANCH   5   6
ATOM      6  C   UNL     1     -11.466  -6.445   5.605  1.00  0.00    -0.000 C 
BRANCH   6   7
ATOM      7  C   UNL     1     -12.427  -6.095   4.449  1.00  0.00    -0.000 C 
BRANCH   7   8
ATOM      8  C   UNL     1     -12.998  -4.671   4.562  1.00  0.00    -0.000 C 
BRANCH   8   9
ATOM      9  C   UNL     1     -12.620  -3.978   5.883  1.00  0.00    -0.000 C 
BRANCH   9  10
ATOM     10  C   UNL     1     -12.840  -2.452   5.909  1.00  0.00    -0.000 C 
BRANCH  10  11
ATOM     11  C   UNL     1     -12.871  -1.775   4.527  1.00  0.00    -0.003 C 
ATOM     12  C   UNL     1     -14.072  -0.849   4.345  1.00  0.00     0.004 C 
ENDBRANCH  10  11
ENDBRANCH   9  10
ENDBRANCH   8   9
ENDBRANCH   7   8
ENDBRANCH   6   7
ENDBRANCH   5   6
ENDBRANCH   4   5
ENDBRANCH   3   4
ENDBRANCH   2   3
ENDBRANCH   1   2
BRANCH   1  13
ATOM     13  C   UNL     1      -8.754  -3.545   4.123  1.00  0.00     0.000 C 
BRANCH  13  14
ATOM     14  C   UNL     1      -9.896  -3.414   3.100  1.00  0.00     0.000 C 
BRANCH  14  15
ATOM     15  C   UNL     1      -9.874  -2.071   2.351  1.00  0.00     0.000 C 
BRANCH  15  16
ATOM     16  C   UNL     1      -8.585  -1.275   2.611  1.00  0.00     0.000 C 
BRANCH  16  17
ATOM     17  C   UNL     1      -8.821   0.246   2.590  1.00  0.00     0.000 C 
BRANCH  17  18
ATOM     18  C   UNL     1     -10.293   0.627   2.825  1.00  0.00     0.000 C 
BRANCH  18  19
ATOM     19  C   UNL     1     -10.600   1.219   4.214  1.00  0.00     0.000 C 
BRANCH  19  20
ATOM     20  C   UNL     1     -11.902   2.038   4.309  1.00  0.00     0.006 C 
BRANCH  20  21
ATOM     21  C   UNL     1     -12.180   2.913   3.072  1.00  0.00     0.053 C 
BRANCH  21  22
ATOM     22  C   UNL     1     -13.631   3.267   2.940  1.00  0.00     0.041 C 
ATOM     23  O   UNL     1     -14.510   2.560   3.499  1.00  0.00    -0.550 OA
ATOM     24  O   UNL     1     -14.011   4.397   2.227  1.00  0.00    -0.550 OA
ENDBRANCH  21  22
ENDBRANCH  20  21
ENDBRANCH  19  20
ENDBRANCH  18  19
ENDBRANCH  17  18
ENDBRANCH  16  17
ENDBRANCH  15  16
ENDBRANCH  14  15
ENDBRANCH  13  14
ENDBRANCH   1  13
TORSDOF 20
ENDMDL
MODEL 2
REMARK VINA RESULT:    -4.270      3.010      6.099
REMARK INTER + INTRA:         -12.624
REMARK INTER:                  -9.254
REMARK INTRA:                  -3.370
REMARK UNBOUND:                -3.362
REMARK SMILES CCCCCCCCCCCCCCCCCCCCCC(=O)[O-]
REMARK SMILES IDX 12 1 11 2 10 3 9 4 8 5 7 6 6 7 5 8 4 9 3 10 2 11 1 12 13 13
REMARK SMILES IDX 14 14 15 15 16 16 17 17 18 18 19 19 20 20 21 21 22 22 23 23
REMARK SMILES IDX 24 24
REMARK H PARENT
REMARK Flexibility Score: inf
ROOT
ATOM      1  C   UNL     1      -8.424  -4.395   6.382  1.00  0.00     0.000 C 
ENDROOT
BRANCH   1   2
ATOM      2  C   UNL     1      -9.382  -3.497   5.574  1.00  0.00     0.000 C 
BRANCH   2   3
ATOM      3  C   UNL     1      -9.049  -3.379   4.074  1.00  0.00     0.000 C 
BRANCH   3   4
ATOM      4  C   UNL     1     -10.274  -3.297   3.141  1.00  0.00    -0.000 C 
BRANCH   4   5
ATOM      5  C   UNL     1     -10.296  -2.079   2.199  1.00  0.00    -0.000 C 
BRANCH   5   6
ATOM      6  C   UNL     1      -8.927  -1.417   1.953  1.00  0.00    -0.000 C 
BRANCH   6   7
ATOM      7  C   UNL     1      -8.748  -0.063   2.673  1.00  0.00    -0.000 C 
BRANCH   7   8
ATOM      8  C   UNL     1     -10.061   0.732   2.776  1.00  0.00    -0.000 C 
BRANCH   8   9
ATOM      9  C   UNL     1     -10.477   1.015   4.230  1.00  0.00    -0.000 C 
BRANCH   9  10
ATOM     10  C   UNL     1     -11.736   0.266   4.710  1.00  0.00    -0.000 C 
BRANCH  10  11
ATOM     11  C   UNL     1     -13.007   0.531   3.882  1.00  0.00    -0.003 C 
ATOM     12  C   UNL     1     -14.209  -0.281   4.361  1.00  0.00     0.004 C 
ENDBRANCH  10  11
ENDBRANCH   9  10
ENDBRANCH   8   9
ENDBRANCH   7   8
ENDBRANCH   6   7
ENDBRANCH   5   6
ENDBRANCH   4   5
ENDBRANCH   3   4
ENDBRANCH   2   3
ENDBRANCH   1   2
BRANCH   1  13
ATOM     13  C   UNL     1      -9.026  -5.734   6.858  1.00  0.00     0.000 C 
BRANCH  13  14
ATOM     14  C   UNL     1      -8.687  -6.947   5.974  1.00  0.00     0.000 C 
BRANCH  14  15
ATOM     15  C   UNL     1      -9.726  -7.184   4.865  1.00  0.00     0.000 C 
BRANCH  15  16
ATOM     16  C   UNL     1     -11.164  -7.228   5.407  1.00  0.00     0.000 C 
BRANCH  16  17
ATOM     17  C   UNL     1     -12.041  -6.100   4.836  1.00  0.00     0.000 C 
BRANCH  17  18
ATOM     18  C   UNL     1     -12.667  -5.216   5.930  1.00  0.00     0.000 C 
BRANCH  18  19
ATOM     19  C   UNL     1     -13.179  -3.846   5.446  1.00  0.00     0.000 C 
BRANCH  19  20
ATOM     20  C   UNL     1     -13.797  -3.834   4.035  1.00  0.00     0.006 C 
BRANCH  20  21
ATOM     21  C   UNL     1     -15.299  -4.174   4.008  1.00  0.00     0.053 C 
BRANCH  21  22
ATOM     22  C   UNL     1     -15.559  -5.564   3.510  1.00  0.00     0.041 C 
ATOM     23  O   UNL     1     -16.520  -6.234   3.970  1.00  0.00    -0.550 OA
ATOM     24  O   UNL     1     -14.758  -6.108   2.514  1.00  0.00    -0.550 OA
ENDBRANCH  21  22
ENDBRANCH  20  21
ENDBRANCH  19  20
ENDBRANCH  18  19
ENDBRANCH  17  18
ENDBRANCH  16  17
ENDBRANCH  15  16
ENDBRANCH  14  15
ENDBRANCH  13  14
ENDBRANCH   1  13
TORSDOF 20
ENDMDL
MODEL 3
REMARK VINA RESULT:    -4.159      2.167      5.974
REMARK INTER + INTRA:         -12.384
REMARK INTER:                  -8.726
REMARK INTRA:                  -3.658
REMARK UNBOUND:                -3.362
REMARK SMILES CCCCCCCCCCCCCCCCCCCCCC(=O)[O-]
REMARK SMILES IDX 12 1 11 2 10 3 9 4 8 5 7 6 6 7 5 8 4 9 3 10 2 11 1 12 13 13
REMARK SMILES IDX 14 14 15 15 16 16 17 17 18 18 19 19 20 20 21 21 22 22 23 23
REMARK SMILES IDX 24 24
REMARK H PARENT
REMARK Flexibility Score: inf
ROOT
ATOM      1  C   UNL     1      -9.395  -3.360   5.272  1.00  0.00     0.000 C 
ENDROOT
BRANCH   1   2
ATOM      2  C   UNL     1      -8.981  -3.539   3.798  1.00  0.00     0.000 C 
BRANCH   2   3
ATOM      3  C   UNL     1      -9.948  -2.917   2.772  1.00  0.00     0.000 C 
BRANCH   3   4
ATOM      4  C   UNL     1      -9.386  -1.708   1.999  1.00  0.00    -0.000 C 
BRANCH   4   5
ATOM      5  C   UNL     1      -8.940  -0.523   2.877  1.00  0.00    -0.000 C 
BRANCH   5   6
ATOM      6  C   UNL     1      -9.952   0.635   2.976  1.00  0.00    -0.000 C 
BRANCH   6   7
ATOM      7  C   UNL     1     -10.512   0.856   4.397  1.00  0.00    -0.000 C 
BRANCH   7   8
ATOM      8  C   UNL     1     -11.466  -0.266   4.840  1.00  0.00    -0.000 C 
BRANCH   8   9
ATOM      9  C   UNL     1     -12.565  -0.561   3.804  1.00  0.00    -0.000 C 
BRANCH   9  10
ATOM     10  C   UNL     1     -13.826   0.320   3.916  1.00  0.00    -0.000 C 
BRANCH  10  11
ATOM     11  C   UNL     1     -13.854   1.538   2.976  1.00  0.00    -0.003 C 
ATOM     12  C   UNL     1     -13.605   2.858   3.703  1.00  0.00     0.004 C 
ENDBRANCH  10  11
ENDBRANCH   9  10
ENDBRANCH   8   9
ENDBRANCH   7   8
ENDBRANCH   6   7
ENDBRANCH   5   6
ENDBRANCH   4   5
ENDBRANCH   3   4
ENDBRANCH   2   3
ENDBRANCH   1   2
BRANCH   1  13
ATOM     13  C   UNL     1      -8.587  -4.196   6.286  1.00  0.00     0.000 C 
BRANCH  13  14
ATOM     14  C   UNL     1      -9.292  -5.472   6.780  1.00  0.00     0.000 C 
BRANCH  14  15
ATOM     15  C   UNL     1      -8.929  -6.713   5.948  1.00  0.00     0.000 C 
BRANCH  15  16
ATOM     16  C   UNL     1      -9.986  -7.034   4.879  1.00  0.00     0.000 C 
BRANCH  16  17
ATOM     17  C   UNL     1     -11.306  -7.534   5.491  1.00  0.00     0.000 C 
BRANCH  17  18
ATOM     18  C   UNL     1     -12.526  -6.714   5.038  1.00  0.00     0.000 C 
BRANCH  18  19
ATOM     19  C   UNL     1     -12.193  -5.377   4.349  1.00  0.00     0.000 C 
BRANCH  19  20
ATOM     20  C   UNL     1     -13.038  -4.172   4.804  1.00  0.00     0.006 C 
BRANCH  20  21
ATOM     21  C   UNL     1     -12.923  -3.860   6.308  1.00  0.00     0.053 C 
BRANCH  21  22
ATOM     22  C   UNL     1     -13.933  -2.849   6.759  1.00  0.00     0.041 C 
ATOM     23  O   UNL     1     -15.163  -3.112   6.706  1.00  0.00    -0.550 OA
ATOM     24  O   UNL     1     -13.515  -1.626   7.269  1.00  0.00    -0.550 OA
ENDBRANCH  21  22
ENDBRANCH  20  21
ENDBRANCH  19  20
ENDBRANCH  18  19
ENDBRANCH  17  18
ENDBRANCH  16  17
ENDBRANCH  15  16
ENDBRANCH  14  15
ENDBRANCH  13  14
ENDBRANCH   1  13
TORSDOF 20
ENDMDL
MODEL 4
REMARK VINA RESULT:    -4.159      1.334      5.178
REMARK INTER + INTRA:         -12.384
REMARK INTER:                  -8.903
REMARK INTRA:                  -3.480
REMARK UNBOUND:                -3.362
REMARK SMILES CCCCCCCCCCCCCCCCCCCCCC(=O)[O-]
REMARK SMILES IDX 12 1 11 2 10 3 9 4 8 5 7 6 6 7 5 8 4 9 3 10 2 11 1 12 13 13
REMARK SMILES IDX 14 14 15 15 16 16 17 17 18 18 19 19 20 20 21 21 22 22 23 23
REMARK SMILES IDX 24 24
REMARK H PARENT
REMARK Flexibility Score: inf
ROOT
ATOM      1  C   UNL     1      -8.439  -4.619   6.349  1.00  0.00     0.000 C 
ENDROOT
BRANCH   1   2
ATOM      2  C   UNL     1      -9.159  -3.468   5.620  1.00  0.00     0.000 C 
BRANCH   2   3
ATOM      3  C   UNL     1      -8.777  -3.301   4.135  1.00  0.00     0.000 C 
BRANCH   3   4
ATOM      4  C   UNL     1      -9.941  -3.477   3.141  1.00  0.00    -0.000 C 
BRANCH   4   5
ATOM      5  C   UNL     1     -10.265  -2.235   2.290  1.00  0.00    -0.000 C 
BRANCH   5   6
ATOM      6  C   UNL     1      -9.096  -1.250   2.099  1.00  0.00    -0.000 C 
BRANCH   6   7
ATOM      7  C   UNL     1      -9.487   0.231   2.296  1.00  0.00    -0.000 C 
BRANCH   7   8
ATOM      8  C   UNL     1      -9.843   0.561   3.756  1.00  0.00    -0.000 C 
BRANCH   8   9
ATOM      9  C   UNL     1     -10.658   1.858   3.895  1.00  0.00    -0.000 C 
BRANCH   9  10
ATOM     10  C   UNL     1     -11.319   2.360   2.595  1.00  0.00    -0.000 C 
BRANCH  10  11
ATOM     11  C   UNL     1     -12.657   3.096   2.787  1.00  0.00    -0.003 C 
ATOM     12  C   UNL     1     -12.864   3.591   4.217  1.00  0.00     0.004 C 
ENDBRANCH  10  11
ENDBRANCH   9  10
ENDBRANCH   8   9
ENDBRANCH   7   8
ENDBRANCH   6   7
ENDBRANCH   5   6
ENDBRANCH   4   5
ENDBRANCH   3   4
ENDBRANCH   2   3
ENDBRANCH   1   2
BRANCH   1  13
ATOM     13  C   UNL     1      -9.303  -5.870   6.612  1.00  0.00     0.000 C 
BRANCH  13  14
ATOM     14  C   UNL     1      -9.631  -6.705   5.361  1.00  0.00     0.000 C 
BRANCH  14  15
ATOM     15  C   UNL     1     -11.101  -7.153   5.314  1.00  0.00     0.000 C 
BRANCH  15  16
ATOM     16  C   UNL     1     -12.011  -6.118   4.634  1.00  0.00     0.000 C 
BRANCH  16  17
ATOM     17  C   UNL     1     -13.082  -5.560   5.588  1.00  0.00     0.000 C 
BRANCH  17  18
ATOM     18  C   UNL     1     -12.720  -4.174   6.150  1.00  0.00     0.000 C 
BRANCH  18  19
ATOM     19  C   UNL     1     -13.071  -2.988   5.233  1.00  0.00     0.000 C 
BRANCH  19  20
ATOM     20  C   UNL     1     -12.248  -1.706   5.470  1.00  0.00     0.006 C 
BRANCH  20  21
ATOM     21  C   UNL     1     -13.092  -0.417   5.487  1.00  0.00     0.053 C 
BRANCH  21  22
ATOM     22  C   UNL     1     -13.825  -0.200   4.198  1.00  0.00     0.041 C 
ATOM     23  O   UNL     1     -13.247  -0.400   3.097  1.00  0.00    -0.550 OA
ATOM     24  O   UNL     1     -15.158   0.193   4.212  1.00  0.00    -0.550 OA
ENDBRANCH  21  22
ENDBRANCH  20  21
ENDBRANCH  19  20
ENDBRANCH  18  19
ENDBRANCH  17  18
ENDBRANCH  16  17
ENDBRANCH  15  16
ENDBRANCH  14  15
ENDBRANCH  13  14
ENDBRANCH   1  13
TORSDOF 20
ENDMDL
MODEL 5
REMARK VINA RESULT:    -4.152      1.889      5.718
REMARK INTER + INTRA:         -12.367
REMARK INTER:                  -8.977
REMARK INTRA:                  -3.390
REMARK UNBOUND:                -3.362
REMARK SMILES CCCCCCCCCCCCCCCCCCCCCC(=O)[O-]
REMARK SMILES IDX 12 1 11 2 10 3 9 4 8 5 7 6 6 7 5 8 4 9 3 10 2 11 1 12 13 13
REMARK SMILES IDX 14 14 15 15 16 16 17 17 18 18 19 19 20 20 21 21 22 22 23 23
REMARK SMILES IDX 24 24
REMARK H PARENT
REMARK Flexibility Score: inf
ROOT
ATOM      1  C   UNL     1      -9.227  -3.493   5.585  1.00  0.00     0.000 C 
ENDROOT
BRANCH   1   2
ATOM      2  C   UNL     1      -8.659  -3.298   4.165  1.00  0.00     0.000 C 
BRANCH   2   3
ATOM      3  C   UNL     1      -9.711  -3.308   3.039  1.00  0.00     0.000 C 
BRANCH   3   4
ATOM      4  C   UNL     1      -9.756  -2.029   2.180  1.00  0.00    -0.000 C 
BRANCH   4   5
ATOM      5  C   UNL     1      -8.640  -1.008   2.471  1.00  0.00    -0.000 C 
BRANCH   5   6
ATOM      6  C   UNL     1      -9.126   0.377   2.939  1.00  0.00    -0.000 C 
BRANCH   6   7
ATOM      7  C   UNL     1     -10.380   0.884   2.194  1.00  0.00    -0.000 C 
BRANCH   7   8
ATOM      8  C   UNL     1     -11.188   1.902   3.017  1.00  0.00    -0.000 C 
BRANCH   8   9
ATOM      9  C   UNL     1     -12.391   1.268   3.737  1.00  0.00    -0.000 C 
BRANCH   9  10
ATOM     10  C   UNL     1     -13.039   0.075   3.006  1.00  0.00    -0.000 C 
BRANCH  10  11
ATOM     11  C   UNL     1     -12.847  -1.290   3.692  1.00  0.00    -0.003 C 
ATOM     12  C   UNL     1     -12.109  -1.188   5.025  1.00  0.00     0.004 C 
ENDBRANCH  10  11
ENDBRANCH   9  10
ENDBRANCH   8   9
ENDBRANCH   7   8
ENDBRANCH   6   7
ENDBRANCH   5   6
ENDBRANCH   4   5
ENDBRANCH   3   4
ENDBRANCH   2   3
ENDBRANCH   1   2
BRANCH   1  13
ATOM     13  C   UNL     1      -8.607  -4.658   6.385  1.00  0.00     0.000 C 
BRANCH  13  14
ATOM     14  C   UNL     1      -9.546  -5.855   6.618  1.00  0.00     0.000 C 
BRANCH  14  15
ATOM     15  C   UNL     1      -9.790  -6.677   5.341  1.00  0.00     0.000 C 
BRANCH  15  16
ATOM     16  C   UNL     1     -11.280  -6.980   5.113  1.00  0.00     0.000 C 
BRANCH  16  17
ATOM     17  C   UNL     1     -12.176  -5.761   5.393  1.00  0.00     0.000 C 
BRANCH  17  18
ATOM     18  C   UNL     1     -12.628  -5.043   4.109  1.00  0.00     0.000 C 
BRANCH  18  19
ATOM     19  C   UNL     1     -14.153  -4.936   3.924  1.00  0.00     0.000 C 
BRANCH  19  20
ATOM     20  C   UNL     1     -14.874  -4.004   4.918  1.00  0.00     0.006 C 
BRANCH  20  21
ATOM     21  C   UNL     1     -16.026  -3.196   4.291  1.00  0.00     0.053 C 
BRANCH  21  22
ATOM     22  C   UNL     1     -16.145  -1.823   4.882  1.00  0.00     0.041 C 
ATOM     23  O   UNL     1     -16.843  -0.945   4.311  1.00  0.00    -0.550 OA
ATOM     24  O   UNL     1     -15.511  -1.524   6.081  1.00  0.00    -0.550 OA
ENDBRANCH  21  22
ENDBRANCH  20  21
ENDBRANCH  19  20
ENDBRANCH  18  19
ENDBRANCH  17  18
ENDBRANCH  16  17
ENDBRANCH  15  16
ENDBRANCH  14  15
ENDBRANCH  13  14
ENDBRANCH   1  13
TORSDOF 20
ENDMDL
MODEL 6
REMARK VINA RESULT:    -4.130      2.449      3.703
REMARK INTER + INTRA:         -12.321
REMARK INTER:                  -9.722
REMARK INTRA:                  -2.599
REMARK UNBOUND:                -3.362
REMARK SMILES CCCCCCCCCCCCCCCCCCCCCC(=O)[O-]
REMARK SMILES IDX 12 1 11 2 10 3 9 4 8 5 7 6 6 7 5 8 4 9 3 10 2 11 1 12 13 13
REMARK SMILES IDX 14 14 15 15 16 16 17 17 18 18 19 19 20 20 21 21 22 22 23 23
REMARK SMILES IDX 24 24
REMARK H PARENT
REMARK Flexibility Score: inf
ROOT
ATOM      1  C   UNL     1      -9.112  -5.561   6.926  1.00  0.00     0.000 C 
ENDROOT
BRANCH   1   2
ATOM      2  C   UNL     1      -8.974  -6.809   6.031  1.00  0.00     0.000 C 
BRANCH   2   3
ATOM      3  C   UNL     1      -9.991  -6.895   4.876  1.00  0.00     0.000 C 
BRANCH   3   4
ATOM      4  C   UNL     1     -11.431  -6.491   5.246  1.00  0.00    -0.000 C 
BRANCH   4   5
ATOM      5  C   UNL     1     -12.034  -5.363   4.388  1.00  0.00    -0.000 C 
BRANCH   5   6
ATOM      6  C   UNL     1     -13.327  -5.733   3.636  1.00  0.00    -0.000 C 
BRANCH   6   7
ATOM      7  C   UNL     1     -14.024  -7.000   4.177  1.00  0.00    -0.000 C 
BRANCH   7   8
ATOM      8  C   UNL     1     -15.108  -7.532   3.224  1.00  0.00    -0.000 C 
BRANCH   8   9
ATOM      9  C   UNL     1     -15.576  -6.482   2.202  1.00  0.00    -0.000 C 
BRANCH   9  10
ATOM     10  C   UNL     1     -17.062  -6.083   2.305  1.00  0.00    -0.000 C 
BRANCH  10  11
ATOM     11  C   UNL     1     -17.492  -5.522   3.673  1.00  0.00    -0.003 C 
ATOM     12  C   UNL     1     -16.774  -4.224   4.036  1.00  0.00     0.004 C 
ENDBRANCH  10  11
ENDBRANCH   9  10
ENDBRANCH   8   9
ENDBRANCH   7   8
ENDBRANCH   6   7
ENDBRANCH   5   6
ENDBRANCH   4   5
ENDBRANCH   3   4
ENDBRANCH   2   3
ENDBRANCH   1   2
BRANCH   1  13
ATOM     13  C   UNL     1      -8.396  -4.298   6.405  1.00  0.00     0.000 C 
BRANCH  13  14
ATOM     14  C   UNL     1      -9.256  -3.390   5.509  1.00  0.00     0.000 C 
BRANCH  14  15
ATOM     15  C   UNL     1      -8.613  -3.128   4.136  1.00  0.00     0.000 C 
BRANCH  15  16
ATOM     16  C   UNL     1      -9.657  -2.905   3.031  1.00  0.00     0.000 C 
BRANCH  16  17
ATOM     17  C   UNL     1      -9.346  -1.669   2.169  1.00  0.00     0.000 C 
BRANCH  17  18
ATOM     18  C   UNL     1      -9.189  -0.383   3.000  1.00  0.00     0.000 C 
BRANCH  18  19
ATOM     19  C   UNL     1     -10.214   0.723   2.688  1.00  0.00     0.000 C 
BRANCH  19  20
ATOM     20  C   UNL     1     -11.337   0.893   3.729  1.00  0.00     0.006 C 
BRANCH  20  21
ATOM     21  C   UNL     1     -11.339  -0.187   4.828  1.00  0.00     0.053 C 
BRANCH  21  22
ATOM     22  C   UNL     1     -12.439  -1.187   4.641  1.00  0.00     0.041 C 
ATOM     23  O   UNL     1     -13.057  -1.254   3.546  1.00  0.00    -0.550 OA
ATOM     24  O   UNL     1     -12.761  -2.069   5.665  1.00  0.00    -0.550 OA
ENDBRANCH  21  22
ENDBRANCH  20  21
ENDBRANCH  19  20
ENDBRANCH  18  19
ENDBRANCH  17  18
ENDBRANCH  16  17
ENDBRANCH  15  16
ENDBRANCH  14  15
ENDBRANCH  13  14
ENDBRANCH   1  13
TORSDOF 20
ENDMDL
MODEL 7
REMARK VINA RESULT:    -4.114      1.157      1.733
REMARK INTER + INTRA:         -12.286
REMARK INTER:                  -8.655
REMARK INTRA:                  -3.631
REMARK UNBOUND:                -3.362
REMARK SMILES CCCCCCCCCCCCCCCCCCCCCC(=O)[O-]
REMARK SMILES IDX 12 1 11 2 10 3 9 4 8 5 7 6 6 7 5 8 4 9 3 10 2 11 1 12 13 13
REMARK SMILES IDX 14 14 15 15 16 16 17 17 18 18 19 19 20 20 21 21 22 22 23 23
REMARK SMILES IDX 24 24
REMARK H PARENT
REMARK Flexibility Score: inf
ROOT
ATOM      1  C   UNL     1      -8.632  -3.484   5.249  1.00  0.00     0.000 C 
ENDROOT
BRANCH   1   2
ATOM      2  C   UNL     1      -8.799  -4.471   6.421  1.00  0.00     0.000 C 
BRANCH   2   3
ATOM      3  C   UNL     1      -9.245  -5.890   6.016  1.00  0.00     0.000 C 
BRANCH   3   4
ATOM      4  C   UNL     1     -10.745  -6.182   6.215  1.00  0.00    -0.000 C 
BRANCH   4   5
ATOM      5  C   UNL     1     -11.464  -6.769   4.986  1.00  0.00    -0.000 C 
BRANCH   5   6
ATOM      6  C   UNL     1     -13.001  -6.654   5.010  1.00  0.00    -0.000 C 
BRANCH   6   7
ATOM      7  C   UNL     1     -13.591  -5.896   3.801  1.00  0.00    -0.000 C 
BRANCH   7   8
ATOM      8  C   UNL     1     -12.763  -4.657   3.417  1.00  0.00    -0.000 C 
BRANCH   8   9
ATOM      9  C   UNL     1     -13.234  -3.378   4.129  1.00  0.00    -0.000 C 
BRANCH   9  10
ATOM     10  C   UNL     1     -12.365  -2.934   5.323  1.00  0.00    -0.000 C 
BRANCH  10  11
ATOM     11  C   UNL     1     -13.145  -2.609   6.610  1.00  0.00    -0.003 C 
ATOM     12  C   UNL     1     -13.882  -3.818   7.181  1.00  0.00     0.004 C 
ENDBRANCH  10  11
ENDBRANCH   9  10
ENDBRANCH   8   9
ENDBRANCH   7   8
ENDBRANCH   6   7
ENDBRANCH   5   6
ENDBRANCH   4   5
ENDBRANCH   3   4
ENDBRANCH   2   3
ENDBRANCH   1   2
BRANCH   1  13
ATOM     13  C   UNL     1      -9.077  -4.020   3.872  1.00  0.00     0.000 C 
BRANCH  13  14
ATOM     14  C   UNL     1      -9.657  -2.959   2.921  1.00  0.00     0.000 C 
BRANCH  14  15
ATOM     15  C   UNL     1      -9.488  -1.526   3.453  1.00  0.00     0.000 C 
BRANCH  15  16
ATOM     16  C   UNL     1      -9.257  -0.504   2.328  1.00  0.00     0.000 C 
BRANCH  16  17
ATOM     17  C   UNL     1     -10.398   0.524   2.227  1.00  0.00     0.000 C 
BRANCH  17  18
ATOM     18  C   UNL     1     -11.768  -0.126   1.962  1.00  0.00     0.000 C 
BRANCH  18  19
ATOM     19  C   UNL     1     -12.798   0.041   3.096  1.00  0.00     0.000 C 
BRANCH  19  20
ATOM     20  C   UNL     1     -12.295   0.806   4.335  1.00  0.00     0.006 C 
BRANCH  20  21
ATOM     21  C   UNL     1     -13.165   2.020   4.714  1.00  0.00     0.053 C 
BRANCH  21  22
ATOM     22  C   UNL     1     -13.571   2.825   3.516  1.00  0.00     0.041 C 
ATOM     23  O   UNL     1     -12.707   3.456   2.852  1.00  0.00    -0.550 OA
ATOM     24  O   UNL     1     -14.900   2.851   3.112  1.00  0.00    -0.550 OA
ENDBRANCH  21  22
ENDBRANCH  20  21
ENDBRANCH  19  20
ENDBRANCH  18  19
ENDBRANCH  17  18
ENDBRANCH  16  17
ENDBRANCH  15  16
ENDBRANCH  14  15
ENDBRANCH  13  14
ENDBRANCH   1  13
TORSDOF 20
ENDMDL
MODEL 8
REMARK VINA RESULT:    -4.085      2.830      6.359
REMARK INTER + INTRA:         -12.224
REMARK INTER:                  -9.564
REMARK INTRA:                  -2.660
REMARK UNBOUND:                -3.362
REMARK SMILES CCCCCCCCCCCCCCCCCCCCCC(=O)[O-]
REMARK SMILES IDX 12 1 11 2 10 3 9 4 8 5 7 6 6 7 5 8 4 9 3 10 2 11 1 12 13 13
REMARK SMILES IDX 14 14 15 15 16 16 17 17 18 18 19 19 20 20 21 21 22 22 23 23
REMARK SMILES IDX 24 24
REMARK H PARENT
REMARK Flexibility Score: inf
ROOT
ATOM      1  C   UNL     1     -10.859   0.367   2.126  1.00  0.00     0.000 C 
ENDROOT
BRANCH   1   2
ATOM      2  C   UNL     1      -9.439   0.225   2.709  1.00  0.00     0.000 C 
BRANCH   2   3
ATOM      3  C   UNL     1      -8.809  -1.173   2.552  1.00  0.00     0.000 C 
BRANCH   3   4
ATOM      4  C   UNL     1      -9.818  -2.337   2.488  1.00  0.00    -0.000 C 
BRANCH   4   5
ATOM      5  C   UNL     1      -9.524  -3.507   3.445  1.00  0.00    -0.000 C 
BRANCH   5   6
ATOM      6  C   UNL     1      -8.556  -3.182   4.599  1.00  0.00    -0.000 C 
BRANCH   6   7
ATOM      7  C   UNL     1      -8.677  -4.138   5.806  1.00  0.00    -0.000 C 
BRANCH   7   8
ATOM      8  C   UNL     1     -10.039  -4.850   5.864  1.00  0.00    -0.000 C 
BRANCH   8   9
ATOM      9  C   UNL     1      -9.912  -6.369   6.073  1.00  0.00    -0.000 C 
BRANCH   9  10
ATOM     10  C   UNL     1      -9.641  -7.187   4.794  1.00  0.00    -0.000 C 
BRANCH  10  11
ATOM     11  C   UNL     1      -9.047  -8.587   5.030  1.00  0.00    -0.003 C 
ATOM     12  C   UNL     1      -7.843  -8.572   5.970  1.00  0.00     0.004 C 
ENDBRANCH  10  11
ENDBRANCH   9  10
ENDBRANCH   8   9
ENDBRANCH   7   8
ENDBRANCH   6   7
ENDBRANCH   5   6
ENDBRANCH   4   5
ENDBRANCH   3   4
ENDBRANCH   2   3
ENDBRANCH   1   2
BRANCH   1  13
ATOM     13  C   UNL     1     -11.518   1.746   2.336  1.00  0.00     0.000 C 
BRANCH  13  14
ATOM     14  C   UNL     1     -12.954   1.700   2.887  1.00  0.00     0.000 C 
BRANCH  14  15
ATOM     15  C   UNL     1     -13.016   1.938   4.406  1.00  0.00     0.000 C 
BRANCH  15  16
ATOM     16  C   UNL     1     -13.512   0.702   5.174  1.00  0.00     0.000 C 
BRANCH  16  17
ATOM     17  C   UNL     1     -12.374  -0.282   5.499  1.00  0.00     0.000 C 
BRANCH  17  18
ATOM     18  C   UNL     1     -12.469  -1.593   4.698  1.00  0.00     0.000 C 
BRANCH  18  19
ATOM     19  C   UNL     1     -13.861  -1.901   4.116  1.00  0.00     0.000 C 
BRANCH  19  20
ATOM     20  C   UNL     1     -14.477  -3.244   4.556  1.00  0.00     0.006 C 
BRANCH  20  21
ATOM     21  C   UNL     1     -13.654  -4.475   4.136  1.00  0.00     0.053 C 
BRANCH  21  22
ATOM     22  C   UNL     1     -14.496  -5.523   3.472  1.00  0.00     0.041 C 
ATOM     23  O   UNL     1     -15.646  -5.239   3.048  1.00  0.00    -0.550 OA
ATOM     24  O   UNL     1     -13.997  -6.808   3.293  1.00  0.00    -0.550 OA
ENDBRANCH  21  22
ENDBRANCH  20  21
ENDBRANCH  19  20
ENDBRANCH  18  19
ENDBRANCH  17  18
ENDBRANCH  16  17
ENDBRANCH  15  16
ENDBRANCH  14  15
ENDBRANCH  13  14
ENDBRANCH   1  13
TORSDOF 20
ENDMDL
MODEL 9
REMARK VINA RESULT:    -4.071      2.937      6.593
REMARK INTER + INTRA:         -12.192
REMARK INTER:                  -8.661
REMARK INTRA:                  -3.532
REMARK UNBOUND:                -3.362
REMARK SMILES CCCCCCCCCCCCCCCCCCCCCC(=O)[O-]
REMARK SMILES IDX 12 1 11 2 10 3 9 4 8 5 7 6 6 7 5 8 4 9 3 10 2 11 1 12 13 13
REMARK SMILES IDX 14 14 15 15 16 16 17 17 18 18 19 19 20 20 21 21 22 22 23 23
REMARK SMILES IDX 24 24
REMARK H PARENT
REMARK Flexibility Score: inf
ROOT
ATOM      1  C   UNL     1     -10.980   0.512   4.504  1.00  0.00     0.000 C 
ENDROOT
BRANCH   1   2
ATOM      2  C   UNL     1     -10.196   0.451   3.179  1.00  0.00     0.000 C 
BRANCH   2   3
ATOM      3  C   UNL     1     -10.626  -0.677   2.221  1.00  0.00     0.000 C 
BRANCH   3   4
ATOM      4  C   UNL     1      -9.843  -1.995   2.375  1.00  0.00    -0.000 C 
BRANCH   4   5
ATOM      5  C   UNL     1      -8.696  -1.956   3.402  1.00  0.00    -0.000 C 
BRANCH   5   6
ATOM      6  C   UNL     1      -8.423  -3.287   4.128  1.00  0.00    -0.000 C 
BRANCH   6   7
ATOM      7  C   UNL     1      -9.142  -3.417   5.488  1.00  0.00    -0.000 C 
BRANCH   7   8
ATOM      8  C   UNL     1      -8.346  -4.256   6.503  1.00  0.00    -0.000 C 
BRANCH   8   9
ATOM      9  C   UNL     1      -9.097  -5.521   6.954  1.00  0.00    -0.000 C 
BRANCH   9  10
ATOM     10  C   UNL     1     -10.251  -5.962   6.032  1.00  0.00    -0.000 C 
BRANCH  10  11
ATOM     11  C   UNL     1      -9.874  -7.014   4.974  1.00  0.00    -0.003 C 
ATOM     12  C   UNL     1      -8.817  -8.001   5.466  1.00  0.00     0.004 C 
ENDBRANCH  10  11
ENDBRANCH   9  10
ENDBRANCH   8   9
ENDBRANCH   7   8
ENDBRANCH   6   7
ENDBRANCH   5   6
ENDBRANCH   4   5
ENDBRANCH   3   4
ENDBRANCH   2   3
ENDBRANCH   1   2
BRANCH   1  13
ATOM     13  C   UNL     1     -12.403  -0.083   4.451  1.00  0.00     0.000 C 
BRANCH  13  14
ATOM     14  C   UNL     1     -12.758  -1.017   5.621  1.00  0.00     0.000 C 
BRANCH  14  15
ATOM     15  C   UNL     1     -12.403  -2.487   5.339  1.00  0.00     0.000 C 
BRANCH  15  16
ATOM     16  C   UNL     1     -13.047  -3.009   4.046  1.00  0.00     0.000 C 
BRANCH  16  17
ATOM     17  C   UNL     1     -12.406  -4.322   3.560  1.00  0.00     0.000 C 
BRANCH  17  18
ATOM     18  C   UNL     1     -13.434  -5.447   3.347  1.00  0.00     0.000 C 
BRANCH  18  19
ATOM     19  C   UNL     1     -13.534  -6.464   4.500  1.00  0.00     0.000 C 
BRANCH  19  20
ATOM     20  C   UNL     1     -14.519  -6.092   5.625  1.00  0.00     0.006 C 
BRANCH  20  21
ATOM     21  C   UNL     1     -13.844  -5.486   6.870  1.00  0.00     0.053 C 
BRANCH  21  22
ATOM     22  C   UNL     1     -14.713  -4.471   7.551  1.00  0.00     0.041 C 
ATOM     23  O   UNL     1     -15.967  -4.551   7.467  1.00  0.00    -0.550 OA
ATOM     24  O   UNL     1     -14.138  -3.456   8.306  1.00  0.00    -0.550 OA
ENDBRANCH  21  22
ENDBRANCH  20  21
ENDBRANCH  19  20
ENDBRANCH  18  19
ENDBRANCH  17  18
ENDBRANCH  16  17
ENDBRANCH  15  16
ENDBRANCH  14  15
ENDBRANCH  13  14
ENDBRANCH   1  13
TORSDOF 20
ENDMDL
