MODEL 1
REMARK VINA RESULT:    28.171      0.000      0.000
REMARK INTER + INTRA:          44.761
REMARK INTER:                  38.876
REMARK INTRA:                   5.885
REMARK UNBOUND:                 5.885
REMARK SMILES CC[C@H](CC[C@H](C)[C@H]1CC[C@@H]2[C@@H]3CC=C4C[C@@H](O)CC[C@@]4(C)[C@H]3CC[C@@]21C)C(C)C
REMARK SMILES IDX 5 1 4 2 3 3 2 4 1 5 28 6 29 7 30 8 6 9 7 10 8 11 9 12 26 13
REMARK SMILES IDX 10 14 11 15 25 16 27 17 12 18 24 19 23 20 13 21 21 22 14 23
REMARK SMILES IDX 15 24 20 25 22 26 16 27 19 28 17 29 18 30
REMARK H PARENT 18 31
REMARK Flexibility Score: inf
ROOT
ATOM      1  C   UNL     1      -3.243  61.362  -5.801  1.00  0.00     0.004 C 
ENDROOT
BRANCH   1   2
ATOM      2  C   UNL     1      -3.067  61.416  -7.335  1.00  0.00     0.004 C 
BRANCH   2   3
ATOM      3  C   UNL     1      -3.840  60.304  -8.108  1.00  0.00    -0.009 C 
BRANCH   3   4
ATOM      4  C   UNL     1      -3.208  58.899  -7.888  1.00  0.00     0.000 C 
ATOM      5  C   UNL     1      -1.676  58.904  -7.873  1.00  0.00     0.004 C 
ENDBRANCH   3   4
BRANCH   3   6
ATOM      6  C   UNL     1      -5.384  60.284  -7.809  1.00  0.00    -0.014 C 
ATOM      7  C   UNL     1      -5.855  61.601  -7.160  1.00  0.00     0.007 C 
ATOM      8  C   UNL     1      -5.795  59.113  -6.895  1.00  0.00     0.007 C 
ENDBRANCH   3   6
ENDBRANCH   2   3
ENDBRANCH   1   2
BRANCH   1   9
ATOM      9  C   UNL     1      -3.822  60.011  -5.295  1.00  0.00    -0.011 C 
ATOM     10  C   UNL     1      -5.282  60.184  -4.815  1.00  0.00     0.008 C 
BRANCH   9  11
ATOM     11  C   UNL     1      -2.854  59.375  -4.224  1.00  0.00    -0.002 C 
ATOM     12  C   UNL     1      -1.514  58.902  -4.824  1.00  0.00     0.005 C 
ATOM     13  C   UNL     1      -2.451  60.235  -2.978  1.00  0.00    -0.026 C 
ATOM     14  C   UNL     1      -0.424  59.852  -4.324  1.00  0.00     0.005 C 
ATOM     15  C   UNL     1      -1.102  60.870  -3.394  1.00  0.00    -0.001 C 
ATOM     16  C   UNL     1      -2.255  59.267  -1.760  1.00  0.00     0.007 C 
ATOM     17  C   UNL     1      -3.498  61.311  -2.594  1.00  0.00     0.012 C 
ATOM     18  C   UNL     1      -0.242  61.373  -2.202  1.00  0.00     0.000 C 
ATOM     19  C   UNL     1      -1.432  59.853  -0.603  1.00  0.00     0.005 C 
ATOM     20  C   UNL     1      -0.043  60.316  -1.091  1.00  0.00     0.003 C 
ATOM     21  C   UNL     1       1.123  61.907  -2.652  1.00  0.00     0.031 C 
ATOM     22  C   UNL     1       0.999  60.777   0.046  1.00  0.00    -0.008 C 
ATOM     23  C   UNL     1       1.734  62.636  -1.498  1.00  0.00    -0.027 C 
ATOM     24  C   UNL     1       1.612  62.167  -0.240  1.00  0.00    -0.065 C 
ATOM     25  C   UNL     1       0.352  60.832   1.465  1.00  0.00     0.014 C 
ATOM     26  C   UNL     1       2.159  59.746   0.059  1.00  0.00     0.016 C 
ATOM     27  C   UNL     1       1.923  63.120   0.899  1.00  0.00     0.063 C 
ATOM     28  C   UNL     1       1.305  61.278   2.594  1.00  0.00     0.033 C 
ATOM     29  C   UNL     1       2.321  62.373   2.180  1.00  0.00     0.118 C 
BRANCH  29  30
ATOM     30  O   UNL     1       2.533  63.279   3.234  1.00  0.00    -0.393 OA
ATOM     31  H   UNL     1       3.195  62.872   3.853  1.00  0.00     0.210 HD
ENDBRANCH  29  30
ENDBRANCH   9  11
ENDBRANCH   1   9
TORSDOF 7
ENDMDL
MODEL 2
REMARK VINA RESULT:    31.059      2.574      4.699
REMARK INTER + INTRA:          48.746
REMARK INTER:                  47.672
REMARK INTRA:                   1.075
REMARK UNBOUND:                 5.885
REMARK SMILES CC[C@H](CC[C@H](C)[C@H]1CC[C@@H]2[C@@H]3CC=C4C[C@@H](O)CC[C@@]4(C)[C@H]3CC[C@@]21C)C(C)C
REMARK SMILES IDX 5 1 4 2 3 3 2 4 1 5 28 6 29 7 30 8 6 9 7 10 8 11 9 12 26 13
REMARK SMILES IDX 10 14 11 15 25 16 27 17 12 18 24 19 23 20 13 21 21 22 14 23
REMARK SMILES IDX 15 24 20 25 22 26 16 27 19 28 17 29 18 30
REMARK H PARENT 18 31
REMARK Flexibility Score: inf
ROOT
ATOM      1  C   UNL     1       0.631  58.875  -7.205  1.00  0.00     0.004 C 
ENDROOT
BRANCH   1   2
ATOM      2  C   UNL     1       1.003  60.060  -8.124  1.00  0.00     0.004 C 
BRANCH   2   3
ATOM      3  C   UNL     1       2.450  60.604  -7.913  1.00  0.00    -0.009 C 
BRANCH   3   4
ATOM      4  C   UNL     1       2.492  61.737  -6.847  1.00  0.00     0.000 C 
ATOM      5  C   UNL     1       2.772  63.125  -7.430  1.00  0.00     0.004 C 
ENDBRANCH   3   4
BRANCH   3   6
ATOM      6  C   UNL     1       3.505  59.483  -7.591  1.00  0.00    -0.014 C 
ATOM      7  C   UNL     1       3.608  59.215  -6.077  1.00  0.00     0.007 C 
ATOM      8  C   UNL     1       4.911  59.822  -8.125  1.00  0.00     0.007 C 
ENDBRANCH   3   6
ENDBRANCH   2   3
ENDBRANCH   1   2
BRANCH   1   9
ATOM      9  C   UNL     1      -0.775  59.017  -6.557  1.00  0.00    -0.011 C 
ATOM     10  C   UNL     1      -1.885  58.956  -7.633  1.00  0.00     0.008 C 
BRANCH   9  11
ATOM     11  C   UNL     1      -0.822  60.301  -5.642  1.00  0.00    -0.002 C 
ATOM     12  C   UNL     1      -2.205  60.541  -5.004  1.00  0.00     0.005 C 
ATOM     13  C   UNL     1       0.190  60.406  -4.451  1.00  0.00    -0.026 C 
ATOM     14  C   UNL     1      -2.080  60.246  -3.508  1.00  0.00     0.005 C 
ATOM     15  C   UNL     1      -0.614  59.871  -3.242  1.00  0.00    -0.001 C 
ATOM     16  C   UNL     1       0.552  61.919  -4.250  1.00  0.00     0.007 C 
ATOM     17  C   UNL     1       1.500  59.607  -4.669  1.00  0.00     0.012 C 
ATOM     18  C   UNL     1      -0.046  60.301  -1.861  1.00  0.00     0.000 C 
ATOM     19  C   UNL     1       1.149  62.256  -2.875  1.00  0.00     0.005 C 
ATOM     20  C   UNL     1       0.201  61.822  -1.738  1.00  0.00     0.003 C 
ATOM     21  C   UNL     1      -0.925  59.828  -0.697  1.00  0.00     0.031 C 
ATOM     22  C   UNL     1       0.608  62.282  -0.251  1.00  0.00    -0.008 C 
ATOM     23  C   UNL     1      -0.150  60.016   0.569  1.00  0.00    -0.027 C 
ATOM     24  C   UNL     1       0.625  61.104   0.751  1.00  0.00    -0.065 C 
ATOM     25  C   UNL     1       2.011  62.964  -0.197  1.00  0.00     0.014 C 
ATOM     26  C   UNL     1      -0.464  63.295   0.234  1.00  0.00     0.016 C 
ATOM     27  C   UNL     1       1.650  61.058   1.868  1.00  0.00     0.063 C 
ATOM     28  C   UNL     1       2.457  63.416   1.209  1.00  0.00     0.033 C 
ATOM     29  C   UNL     1       2.032  62.463   2.355  1.00  0.00     0.118 C 
BRANCH  29  30
ATOM     30  O   UNL     1       3.035  62.389   3.338  1.00  0.00    -0.393 OA
ATOM     31  H   UNL     1       3.201  63.311   3.669  1.00  0.00     0.210 HD
ENDBRANCH  29  30
ENDBRANCH   9  11
ENDBRANCH   1   9
TORSDOF 7
ENDMDL
