MODEL 1
REMARK VINA RESULT:    -4.203      0.000      0.000
REMARK INTER + INTRA:          -5.071
REMARK INTER:                  -4.940
REMARK INTRA:                  -0.131
REMARK UNBOUND:                -0.131
REMARK SMILES O=C([O-])C=Cc1ccc(O)c(O)c1
REMARK SMILES IDX 6 1 13 2 7 3 11 4 8 5 9 6 5 7 4 8 2 9 1 10 3 11 12 12 10 14
REMARK H PARENT 12 13 10 15
REMARK Flexibility Score: inf
ROOT
ATOM      1  C   UNL     1      15.432  -6.129  13.088  1.00  0.00    -0.022 A 
ATOM      2  C   UNL     1      15.416  -6.586  11.753  1.00  0.00     0.058 A 
ATOM      3  C   UNL     1      15.326  -7.068  14.126  1.00  0.00     0.012 A 
ATOM      4  C   UNL     1      15.321  -7.958  11.472  1.00  0.00     0.157 A 
ATOM      5  C   UNL     1      15.234  -8.433  13.845  1.00  0.00     0.051 A 
ATOM      6  C   UNL     1      15.234  -8.882  12.519  1.00  0.00     0.157 A 
ENDROOT
BRANCH   1   7
ATOM      7  C   UNL     1      15.519  -4.690  13.437  1.00  0.00     0.010 C 
ATOM      8  C   UNL     1      16.573  -4.135  14.050  1.00  0.00     0.025 C 
BRANCH   8   9
ATOM      9  C   UNL     1      16.611  -2.703  14.387  1.00  0.00     0.064 C 
ATOM     10  O   UNL     1      17.033  -1.875  13.538  1.00  0.00    -0.545 OA
ATOM     11  O   UNL     1      16.189  -2.247  15.631  1.00  0.00    -0.545 OA
ENDBRANCH   8   9
ENDBRANCH   1   7
BRANCH   4  12
ATOM     12  O   UNL     1      15.309  -8.407  10.153  1.00  0.00    -0.504 OA
ATOM     13  H   UNL     1      15.520  -7.788   9.378  1.00  0.00     0.293 HD
ENDBRANCH   4  12
BRANCH   6  14
ATOM     14  O   UNL     1      15.143 -10.243  12.234  1.00  0.00    -0.504 OA
ATOM     15  H   UNL     1      15.946 -10.774  11.916  1.00  0.00     0.293 HD
ENDBRANCH   6  14
TORSDOF 4
ENDMDL
MODEL 2
REMARK VINA RESULT:    -4.109      6.770      7.939
REMARK INTER + INTRA:          -4.960
REMARK INTER:                  -4.825
REMARK INTRA:                  -0.136
REMARK UNBOUND:                -0.131
REMARK SMILES O=C([O-])C=Cc1ccc(O)c(O)c1
REMARK SMILES IDX 6 1 13 2 7 3 11 4 8 5 9 6 5 7 4 8 2 9 1 10 3 11 12 12 10 14
REMARK H PARENT 12 13 10 15
REMARK Flexibility Score: inf
ROOT
ATOM      1  C   UNL     1      15.714  -5.281   6.452  1.00  0.00    -0.022 A 
ATOM      2  C   UNL     1      16.483  -6.262   7.112  1.00  0.00     0.058 A 
ATOM      3  C   UNL     1      16.366  -4.161   5.912  1.00  0.00     0.012 A 
ATOM      4  C   UNL     1      17.877  -6.131   7.204  1.00  0.00     0.157 A 
ATOM      5  C   UNL     1      17.754  -4.032   6.002  1.00  0.00     0.051 A 
ATOM      6  C   UNL     1      18.513  -5.017   6.645  1.00  0.00     0.157 A 
ENDROOT
BRANCH   1   7
ATOM      7  C   UNL     1      14.237  -5.367   6.339  1.00  0.00     0.010 C 
ATOM      8  C   UNL     1      13.395  -4.481   6.885  1.00  0.00     0.025 C 
BRANCH   8   9
ATOM      9  C   UNL     1      11.935  -4.613   6.756  1.00  0.00     0.064 C 
ATOM     10  O   UNL     1      11.196  -3.630   7.024  1.00  0.00    -0.545 OA
ATOM     11  O   UNL     1      11.357  -5.807   6.341  1.00  0.00    -0.545 OA
ENDBRANCH   8   9
ENDBRANCH   1   7
BRANCH   4  12
ATOM     12  O   UNL     1      18.635  -7.104   7.853  1.00  0.00    -0.504 OA
ATOM     13  H   UNL     1      18.834  -7.048   8.846  1.00  0.00     0.293 HD
ENDBRANCH   4  12
BRANCH   6  14
ATOM     14  O   UNL     1      19.899  -4.894   6.736  1.00  0.00    -0.504 OA
ATOM     15  H   UNL     1      20.465  -4.662   5.928  1.00  0.00     0.293 HD
ENDBRANCH   6  14
TORSDOF 4
ENDMDL
MODEL 3
REMARK VINA RESULT:    -4.080      5.133      7.464
REMARK INTER + INTRA:          -4.927
REMARK INTER:                  -4.799
REMARK INTRA:                  -0.128
REMARK UNBOUND:                -0.131
REMARK SMILES O=C([O-])C=Cc1ccc(O)c(O)c1
REMARK SMILES IDX 6 1 13 2 7 3 11 4 8 5 9 6 5 7 4 8 2 9 1 10 3 11 12 12 10 14
REMARK H PARENT 12 13 10 15
REMARK Flexibility Score: inf
ROOT
ATOM      1  C   UNL     1      16.600  -6.125   7.322  1.00  0.00    -0.022 A 
ATOM      2  C   UNL     1      18.002  -5.972   7.324  1.00  0.00     0.058 A 
ATOM      3  C   UNL     1      15.828  -5.275   6.515  1.00  0.00     0.012 A 
ATOM      4  C   UNL     1      18.614  -5.003   6.515  1.00  0.00     0.157 A 
ATOM      5  C   UNL     1      16.438  -4.312   5.707  1.00  0.00     0.051 A 
ATOM      6  C   UNL     1      17.831  -4.175   5.703  1.00  0.00     0.157 A 
ENDROOT
BRANCH   1   7
ATOM      7  C   UNL     1      15.904  -7.126   8.168  1.00  0.00     0.010 C 
ATOM      8  C   UNL     1      15.977  -7.151   9.505  1.00  0.00     0.025 C 
BRANCH   8   9
ATOM      9  C   UNL     1      15.279  -8.170  10.303  1.00  0.00     0.064 C 
ATOM     10  O   UNL     1      14.665  -9.103   9.722  1.00  0.00    -0.545 OA
ATOM     11  O   UNL     1      15.285  -8.122  11.693  1.00  0.00    -0.545 OA
ENDBRANCH   8   9
ENDBRANCH   1   7
BRANCH   4  12
ATOM     12  O   UNL     1      20.000  -4.856   6.517  1.00  0.00    -0.504 OA
ATOM     13  H   UNL     1      20.450  -4.066   6.964  1.00  0.00     0.293 HD
ENDBRANCH   4  12
BRANCH   6  14
ATOM     14  O   UNL     1      18.444  -3.216   4.898  1.00  0.00    -0.504 OA
ATOM     15  H   UNL     1      19.204  -2.641   5.244  1.00  0.00     0.293 HD
ENDBRANCH   6  14
TORSDOF 4
ENDMDL
MODEL 4
REMARK VINA RESULT:    -4.025      0.802      1.772
REMARK INTER + INTRA:          -4.862
REMARK INTER:                  -4.737
REMARK INTRA:                  -0.125
REMARK UNBOUND:                -0.131
REMARK SMILES O=C([O-])C=Cc1ccc(O)c(O)c1
REMARK SMILES IDX 6 1 13 2 7 3 11 4 8 5 9 6 5 7 4 8 2 9 1 10 3 11 12 12 10 14
REMARK H PARENT 12 13 10 15
REMARK Flexibility Score: inf
ROOT
ATOM      1  C   UNL     1      15.323  -5.991  12.768  1.00  0.00    -0.022 A 
ATOM      2  C   UNL     1      15.730  -7.082  13.565  1.00  0.00     0.058 A 
ATOM      3  C   UNL     1      14.805  -6.243  11.488  1.00  0.00     0.012 A 
ATOM      4  C   UNL     1      15.594  -8.397  13.093  1.00  0.00     0.157 A 
ATOM      5  C   UNL     1      14.669  -7.553  11.020  1.00  0.00     0.051 A 
ATOM      6  C   UNL     1      15.060  -8.632  11.821  1.00  0.00     0.157 A 
ENDROOT
BRANCH   1   7
ATOM      7  C   UNL     1      15.456  -4.583  13.217  1.00  0.00     0.010 C 
ATOM      8  C   UNL     1      16.410  -4.155  14.053  1.00  0.00     0.025 C 
BRANCH   8   9
ATOM      9  C   UNL     1      16.497  -2.749  14.480  1.00  0.00     0.064 C 
ATOM     10  O   UNL     1      16.896  -1.876  13.666  1.00  0.00    -0.545 OA
ATOM     11  O   UNL     1      16.143  -2.367  15.769  1.00  0.00    -0.545 OA
ENDBRANCH   8   9
ENDBRANCH   1   7
BRANCH   4  12
ATOM     12  O   UNL     1      15.993  -9.474  13.883  1.00  0.00    -0.504 OA
ATOM     13  H   UNL     1      16.957  -9.590  14.175  1.00  0.00     0.293 HD
ENDBRANCH   4  12
BRANCH   6  14
ATOM     14  O   UNL     1      14.925  -9.940  11.359  1.00  0.00    -0.504 OA
ATOM     15  H   UNL     1      14.904 -10.153  10.368  1.00  0.00     0.293 HD
ENDBRANCH   6  14
TORSDOF 4
ENDMDL
MODEL 5
REMARK VINA RESULT:    -3.943     14.467     15.250
REMARK INTER + INTRA:          -4.766
REMARK INTER:                  -4.641
REMARK INTRA:                  -0.124
REMARK UNBOUND:                -0.131
REMARK SMILES O=C([O-])C=Cc1ccc(O)c(O)c1
REMARK SMILES IDX 6 1 13 2 7 3 11 4 8 5 9 6 5 7 4 8 2 9 1 10 3 11 12 12 10 14
REMARK H PARENT 12 13 10 15
REMARK Flexibility Score: inf
ROOT
ATOM      1  C   UNL     1      13.456 -17.882  21.441  1.00  0.00    -0.022 A 
ATOM      2  C   UNL     1      14.188 -18.329  20.321  1.00  0.00     0.058 A 
ATOM      3  C   UNL     1      14.156 -17.452  22.579  1.00  0.00     0.012 A 
ATOM      4  C   UNL     1      15.591 -18.319  20.337  1.00  0.00     0.157 A 
ATOM      5  C   UNL     1      15.553 -17.441  22.593  1.00  0.00     0.051 A 
ATOM      6  C   UNL     1      16.274 -17.871  21.473  1.00  0.00     0.157 A 
ENDROOT
BRANCH   1   7
ATOM      7  C   UNL     1      11.972 -17.883  21.478  1.00  0.00     0.010 C 
ATOM      8  C   UNL     1      11.204 -18.363  20.492  1.00  0.00     0.025 C 
BRANCH   8   9
ATOM      9  C   UNL     1       9.734 -18.334  20.567  1.00  0.00     0.064 C 
ATOM     10  O   UNL     1       9.093 -19.415  20.627  1.00  0.00    -0.545 OA
ATOM     11  O   UNL     1       9.040 -17.129  20.572  1.00  0.00    -0.545 OA
ENDBRANCH   8   9
ENDBRANCH   1   7
BRANCH   4  12
ATOM     12  O   UNL     1      16.311 -18.758  19.228  1.00  0.00    -0.504 OA
ATOM     13  H   UNL     1      17.322 -18.835  19.247  1.00  0.00     0.293 HD
ENDBRANCH   4  12
BRANCH   6  14
ATOM     14  O   UNL     1      17.667 -17.861  21.483  1.00  0.00    -0.504 OA
ATOM     15  H   UNL     1      18.196 -17.144  20.999  1.00  0.00     0.293 HD
ENDBRANCH   6  14
TORSDOF 4
ENDMDL
MODEL 6
REMARK VINA RESULT:    -3.904     13.826     14.551
REMARK INTER + INTRA:          -4.719
REMARK INTER:                  -4.592
REMARK INTRA:                  -0.128
REMARK UNBOUND:                -0.131
REMARK SMILES O=C([O-])C=Cc1ccc(O)c(O)c1
REMARK SMILES IDX 6 1 13 2 7 3 11 4 8 5 9 6 5 7 4 8 2 9 1 10 3 11 12 12 10 14
REMARK H PARENT 12 13 10 15
REMARK Flexibility Score: inf
ROOT
ATOM      1  C   UNL     1      12.328 -17.927  20.017  1.00  0.00    -0.022 A 
ATOM      2  C   UNL     1      12.285 -17.929  18.607  1.00  0.00     0.058 A 
ATOM      3  C   UNL     1      11.191 -18.339  20.729  1.00  0.00     0.012 A 
ATOM      4  C   UNL     1      11.134 -18.360  17.931  1.00  0.00     0.157 A 
ATOM      5  C   UNL     1      10.046 -18.770  20.055  1.00  0.00     0.051 A 
ATOM      6  C   UNL     1      10.015 -18.784  18.655  1.00  0.00     0.157 A 
ENDROOT
BRANCH   1   7
ATOM      7  C   UNL     1      13.517 -17.470  20.779  1.00  0.00     0.010 C 
ATOM      8  C   UNL     1      14.513 -18.279  21.159  1.00  0.00     0.025 C 
BRANCH   8   9
ATOM      9  C   UNL     1      15.669 -17.784  21.924  1.00  0.00     0.064 C 
ATOM     10  O   UNL     1      15.488 -17.251  23.049  1.00  0.00    -0.545 OA
ATOM     11  O   UNL     1      16.962 -17.896  21.424  1.00  0.00    -0.545 OA
ENDBRANCH   8   9
ENDBRANCH   1   7
BRANCH   4  12
ATOM     12  O   UNL     1      11.096 -18.364  16.537  1.00  0.00    -0.504 OA
ATOM     13  H   UNL     1      10.525 -19.026  16.023  1.00  0.00     0.293 HD
ENDBRANCH   4  12
BRANCH   6  14
ATOM     14  O   UNL     1       8.875 -19.214  17.978  1.00  0.00    -0.504 OA
ATOM     15  H   UNL     1       8.034 -18.649  17.943  1.00  0.00     0.293 HD
ENDBRANCH   6  14
TORSDOF 4
ENDMDL
MODEL 7
REMARK VINA RESULT:    -3.873     14.327     15.229
REMARK INTER + INTRA:          -4.684
REMARK INTER:                  -4.559
REMARK INTRA:                  -0.124
REMARK UNBOUND:                -0.131
REMARK SMILES O=C([O-])C=Cc1ccc(O)c(O)c1
REMARK SMILES IDX 6 1 13 2 7 3 11 4 8 5 9 6 5 7 4 8 2 9 1 10 3 11 12 12 10 14
REMARK H PARENT 12 13 10 15
REMARK Flexibility Score: inf
ROOT
ATOM      1  C   UNL     1      13.942 -17.914  20.562  1.00  0.00    -0.022 A 
ATOM      2  C   UNL     1      14.293 -17.527  21.872  1.00  0.00     0.058 A 
ATOM      3  C   UNL     1      14.963 -18.273  19.666  1.00  0.00     0.012 A 
ATOM      4  C   UNL     1      15.636 -17.524  22.279  1.00  0.00     0.157 A 
ATOM      5  C   UNL     1      16.299 -18.272  20.073  1.00  0.00     0.051 A 
ATOM      6  C   UNL     1      16.639 -17.901  21.379  1.00  0.00     0.157 A 
ENDROOT
BRANCH   1   7
ATOM      7  C   UNL     1      12.539 -17.923  20.080  1.00  0.00     0.010 C 
ATOM      8  C   UNL     1      11.497 -18.305  20.830  1.00  0.00     0.025 C 
BRANCH   8   9
ATOM      9  C   UNL     1      10.122 -18.307  20.306  1.00  0.00     0.064 C 
ATOM     10  O   UNL     1       9.690 -17.300  19.688  1.00  0.00    -0.545 OA
ATOM     11  O   UNL     1       9.289 -19.407  20.483  1.00  0.00    -0.545 OA
ENDBRANCH   8   9
ENDBRANCH   1   7
BRANCH   4  12
ATOM     12  O   UNL     1      15.979 -17.144  23.575  1.00  0.00    -0.504 OA
ATOM     13  H   UNL     1      15.649 -17.657  24.384  1.00  0.00     0.293 HD
ENDBRANCH   4  12
BRANCH   6  14
ATOM     14  O   UNL     1      17.971 -17.900  21.789  1.00  0.00    -0.504 OA
ATOM     15  H   UNL     1      18.301 -18.515  22.524  1.00  0.00     0.293 HD
ENDBRANCH   6  14
TORSDOF 4
ENDMDL
MODEL 8
REMARK VINA RESULT:    -3.867     12.286     13.435
REMARK INTER + INTRA:          -4.677
REMARK INTER:                  -4.552
REMARK INTRA:                  -0.125
REMARK UNBOUND:                -0.131
REMARK SMILES O=C([O-])C=Cc1ccc(O)c(O)c1
REMARK SMILES IDX 6 1 13 2 7 3 11 4 8 5 9 6 5 7 4 8 2 9 1 10 3 11 12 12 10 14
REMARK H PARENT 12 13 10 15
REMARK Flexibility Score: inf
ROOT
ATOM      1  C   UNL     1      25.237 -14.640  17.628  1.00  0.00    -0.022 A 
ATOM      2  C   UNL     1      23.957 -14.478  18.199  1.00  0.00     0.058 A 
ATOM      3  C   UNL     1      25.849 -15.902  17.685  1.00  0.00     0.012 A 
ATOM      4  C   UNL     1      23.299 -15.566  18.792  1.00  0.00     0.157 A 
ATOM      5  C   UNL     1      25.191 -16.986  18.274  1.00  0.00     0.051 A 
ATOM      6  C   UNL     1      23.915 -16.822  18.825  1.00  0.00     0.157 A 
ENDROOT
BRANCH   1   7
ATOM      7  C   UNL     1      25.978 -13.519  17.000  1.00  0.00     0.010 C 
ATOM      8  C   UNL     1      25.387 -12.461  16.431  1.00  0.00     0.025 C 
BRANCH   8   9
ATOM      9  C   UNL     1      26.163 -11.376  15.809  1.00  0.00     0.064 C 
ATOM     10  O   UNL     1      27.384 -11.246  16.089  1.00  0.00    -0.545 OA
ATOM     11  O   UNL     1      25.571 -10.490  14.917  1.00  0.00    -0.545 OA
ENDBRANCH   8   9
ENDBRANCH   1   7
BRANCH   4  12
ATOM     12  O   UNL     1      22.034 -15.404  19.353  1.00  0.00    -0.504 OA
ATOM     13  H   UNL     1      21.553 -16.170  19.811  1.00  0.00     0.293 HD
ENDBRANCH   4  12
BRANCH   6  14
ATOM     14  O   UNL     1      23.256 -17.901  19.412  1.00  0.00    -0.504 OA
ATOM     15  H   UNL     1      22.248 -17.912  19.519  1.00  0.00     0.293 HD
ENDBRANCH   6  14
TORSDOF 4
ENDMDL
MODEL 9
REMARK VINA RESULT:    -3.716     13.436     14.484
REMARK INTER + INTRA:          -4.498
REMARK INTER:                  -4.369
REMARK INTRA:                  -0.129
REMARK UNBOUND:                -0.131
REMARK SMILES O=C([O-])C=Cc1ccc(O)c(O)c1
REMARK SMILES IDX 6 1 13 2 7 3 11 4 8 5 9 6 5 7 4 8 2 9 1 10 3 11 12 12 10 14
REMARK H PARENT 12 13 10 15
REMARK Flexibility Score: inf
ROOT
ATOM      1  C   UNL     1      13.192 -17.622  20.032  1.00  0.00    -0.022 A 
ATOM      2  C   UNL     1      12.104 -18.074  20.808  1.00  0.00     0.058 A 
ATOM      3  C   UNL     1      13.060 -17.591  18.634  1.00  0.00     0.012 A 
ATOM      4  C   UNL     1      10.903 -18.461  20.193  1.00  0.00     0.157 A 
ATOM      5  C   UNL     1      11.863 -17.975  18.024  1.00  0.00     0.051 A 
ATOM      6  C   UNL     1      10.782 -18.408  18.800  1.00  0.00     0.157 A 
ENDROOT
BRANCH   1   7
ATOM      7  C   UNL     1      14.485 -17.212  20.633  1.00  0.00     0.010 C 
ATOM      8  C   UNL     1      15.468 -18.068  20.939  1.00  0.00     0.025 C 
BRANCH   8   9
ATOM      9  C   UNL     1      16.731 -17.617  21.544  1.00  0.00     0.064 C 
ATOM     10  O   UNL     1      17.224 -16.510  21.204  1.00  0.00    -0.545 OA
ATOM     11  O   UNL     1      17.392 -18.395  22.489  1.00  0.00    -0.545 OA
ENDBRANCH   8   9
ENDBRANCH   1   7
BRANCH   4  12
ATOM     12  O   UNL     1       9.829 -18.904  20.962  1.00  0.00    -0.504 OA
ATOM     13  H   UNL     1       8.943 -19.160  20.541  1.00  0.00     0.293 HD
ENDBRANCH   4  12
BRANCH   6  14
ATOM     14  O   UNL     1       9.586 -18.791  18.195  1.00  0.00    -0.504 OA
ATOM     15  H   UNL     1       9.356 -19.767  18.047  1.00  0.00     0.293 HD
ENDBRANCH   6  14
TORSDOF 4
ENDMDL
