MODEL 1
REMARK VINA RESULT:    -5.394      0.000      0.000
REMARK INTER + INTRA:          -6.608
REMARK INTER:                  -6.341
REMARK INTRA:                  -0.267
REMARK UNBOUND:                -0.267
REMARK SMILES O=c1cc(-c2ccc(O)c(O)c2)oc2cc(O)cc(O)c12
REMARK SMILES IDX 4 1 3 2 2 3 1 4 21 5 19 6 18 7 16 8 15 9 14 10 13 11 5 12
REMARK SMILES IDX 6 13 7 14 8 15 12 16 10 17 9 18 11 20 20 22 17 24
REMARK H PARENT 9 19 11 21 20 23 17 25
REMARK Flexibility Score: inf
ROOT
ATOM      1  C   UNL     1       1.741  11.871   3.977  1.00  0.00     0.138 A 
ATOM      2  C   UNL     1       2.476  12.936   3.440  1.00  0.00     0.100 A 
ATOM      3  C   UNL     1       1.878  14.190   3.303  1.00  0.00     0.197 A 
ATOM      4  O   UNL     1       2.582  15.140   2.875  1.00  0.00    -0.289 OA
ATOM      5  C   UNL     1       0.525  14.368   3.677  1.00  0.00     0.107 A 
ATOM      6  C   UNL     1      -0.202  15.589   3.545  1.00  0.00     0.134 A 
ATOM      7  C   UNL     1      -1.502  15.678   4.057  1.00  0.00     0.093 A 
ATOM      8  C   UNL     1      -2.123  14.573   4.643  1.00  0.00     0.123 A 
ATOM      9  C   UNL     1      -1.442  13.361   4.728  1.00  0.00     0.094 A 
ATOM     10  C   UNL     1      -0.132  13.249   4.258  1.00  0.00     0.146 A 
ATOM     11  O   UNL     1       0.488  12.079   4.372  1.00  0.00    -0.456 OA
ENDROOT
BRANCH   1  12
ATOM     12  C   UNL     1       2.327  10.518   4.144  1.00  0.00     0.021 A 
ATOM     13  C   UNL     1       1.723   9.376   3.584  1.00  0.00     0.016 A 
ATOM     14  C   UNL     1       2.292   8.112   3.766  1.00  0.00     0.051 A 
ATOM     15  C   UNL     1       3.467   7.966   4.513  1.00  0.00     0.157 A 
ATOM     16  C   UNL     1       3.500  10.360   4.905  1.00  0.00     0.062 A 
ATOM     17  C   UNL     1       4.070   9.092   5.086  1.00  0.00     0.158 A 
BRANCH  15  18
ATOM     18  O   UNL     1       4.036   6.708   4.695  1.00  0.00    -0.504 OA
ATOM     19  H   UNL     1       4.343   6.391   5.607  1.00  0.00     0.293 HD
ENDBRANCH  15  18
BRANCH  17  20
ATOM     20  O   UNL     1       5.238   8.944   5.833  1.00  0.00    -0.504 OA
ATOM     21  H   UNL     1       5.960   8.287   5.562  1.00  0.00     0.293 HD
ENDBRANCH  17  20
ENDBRANCH   1  12
BRANCH   6  22
ATOM     22  O   UNL     1       0.295  16.727   2.900  1.00  0.00    -0.507 OA
ATOM     23  H   UNL     1       0.240  17.666   3.265  1.00  0.00     0.293 HD
ENDBRANCH   6  22
BRANCH   8  24
ATOM     24  O   UNL     1      -3.422  14.667   5.137  1.00  0.00    -0.508 OA
ATOM     25  H   UNL     1      -4.228  14.585   4.528  1.00  0.00     0.293 HD
ENDBRANCH   8  24
TORSDOF 5
ENDMDL
MODEL 2
REMARK VINA RESULT:    -5.394      1.259      1.528
REMARK INTER + INTRA:          -6.608
REMARK INTER:                  -6.342
REMARK INTRA:                  -0.266
REMARK UNBOUND:                -0.267
REMARK SMILES O=c1cc(-c2ccc(O)c(O)c2)oc2cc(O)cc(O)c12
REMARK SMILES IDX 4 1 3 2 2 3 1 4 21 5 19 6 18 7 16 8 15 9 14 10 13 11 5 12
REMARK SMILES IDX 6 13 7 14 8 15 12 16 10 17 9 18 11 20 20 22 17 24
REMARK H PARENT 9 19 11 21 20 23 17 25
REMARK Flexibility Score: inf
ROOT
ATOM      1  C   UNL     1       0.939  11.103   4.295  1.00  0.00     0.138 A 
ATOM      2  C   UNL     1       1.299  12.251   3.576  1.00  0.00     0.100 A 
ATOM      3  C   UNL     1       0.468  13.372   3.604  1.00  0.00     0.197 A 
ATOM      4  O   UNL     1       0.848  14.407   3.000  1.00  0.00    -0.289 OA
ATOM      5  C   UNL     1      -0.745  13.330   4.331  1.00  0.00     0.107 A 
ATOM      6  C   UNL     1      -1.690  14.398   4.398  1.00  0.00     0.134 A 
ATOM      7  C   UNL     1      -2.800  14.285   5.244  1.00  0.00     0.093 A 
ATOM      8  C   UNL     1      -3.031  13.120   5.979  1.00  0.00     0.123 A 
ATOM      9  C   UNL     1      -2.144  12.051   5.878  1.00  0.00     0.094 A 
ATOM     10  C   UNL     1      -1.009  12.146   5.070  1.00  0.00     0.146 A 
ATOM     11  O   UNL     1      -0.179  11.108   5.014  1.00  0.00    -0.456 OA
ENDROOT
BRANCH   1  12
ATOM     12  C   UNL     1       1.784   9.882   4.298  1.00  0.00     0.021 A 
ATOM     13  C   UNL     1       1.399   8.713   3.615  1.00  0.00     0.016 A 
ATOM     14  C   UNL     1       2.209   7.575   3.645  1.00  0.00     0.051 A 
ATOM     15  C   UNL     1       3.413   7.582   4.360  1.00  0.00     0.157 A 
ATOM     16  C   UNL     1       2.988   9.876   5.026  1.00  0.00     0.062 A 
ATOM     17  C   UNL     1       3.802   8.735   5.054  1.00  0.00     0.158 A 
BRANCH  15  18
ATOM     18  O   UNL     1       4.224   6.450   4.389  1.00  0.00    -0.504 OA
ATOM     19  H   UNL     1       5.196   6.487   4.108  1.00  0.00     0.293 HD
ENDBRANCH  15  18
BRANCH  17  20
ATOM     20  O   UNL     1       4.999   8.738   5.768  1.00  0.00    -0.504 OA
ATOM     21  H   UNL     1       5.735   8.069   5.573  1.00  0.00     0.293 HD
ENDBRANCH  17  20
ENDBRANCH   1  12
BRANCH   6  22
ATOM     22  O   UNL     1      -1.598  15.571   3.641  1.00  0.00    -0.507 OA
ATOM     23  H   UNL     1      -2.206  15.809   2.872  1.00  0.00     0.293 HD
ENDBRANCH   6  22
BRANCH   8  24
ATOM     24  O   UNL     1      -4.147  13.011   6.807  1.00  0.00    -0.508 OA
ATOM     25  H   UNL     1      -4.742  13.807   7.001  1.00  0.00     0.293 HD
ENDBRANCH   8  24
TORSDOF 5
ENDMDL
MODEL 3
REMARK VINA RESULT:    -5.375      1.108      2.732
REMARK INTER + INTRA:          -6.584
REMARK INTER:                  -6.307
REMARK INTRA:                  -0.278
REMARK UNBOUND:                -0.267
REMARK SMILES O=c1cc(-c2ccc(O)c(O)c2)oc2cc(O)cc(O)c12
REMARK SMILES IDX 4 1 3 2 2 3 1 4 21 5 19 6 18 7 16 8 15 9 14 10 13 11 5 12
REMARK SMILES IDX 6 13 7 14 8 15 12 16 10 17 9 18 11 20 20 22 17 24
REMARK H PARENT 9 19 11 21 20 23 17 25
REMARK Flexibility Score: inf
ROOT
ATOM      1  C   UNL     1       0.736  10.938   4.422  1.00  0.00     0.138 A 
ATOM      2  C   UNL     1      -0.566  10.827   4.928  1.00  0.00     0.100 A 
ATOM      3  C   UNL     1      -1.391  11.953   4.966  1.00  0.00     0.197 A 
ATOM      4  O   UNL     1      -2.574  11.809   5.367  1.00  0.00    -0.289 OA
ATOM      5  C   UNL     1      -0.896  13.202   4.522  1.00  0.00     0.107 A 
ATOM      6  C   UNL     1      -1.631  14.425   4.551  1.00  0.00     0.134 A 
ATOM      7  C   UNL     1      -1.079  15.576   3.977  1.00  0.00     0.093 A 
ATOM      8  C   UNL     1       0.206  15.564   3.430  1.00  0.00     0.123 A 
ATOM      9  C   UNL     1       0.954  14.389   3.446  1.00  0.00     0.094 A 
ATOM     10  C   UNL     1       0.418  13.215   3.979  1.00  0.00     0.146 A 
ATOM     11  O   UNL     1       1.159  12.111   3.961  1.00  0.00    -0.456 OA
ENDROOT
BRANCH   1  12
ATOM     12  C   UNL     1       1.655   9.774   4.361  1.00  0.00     0.021 A 
ATOM     13  C   UNL     1       1.327   8.609   3.641  1.00  0.00     0.016 A 
ATOM     14  C   UNL     1       2.207   7.524   3.609  1.00  0.00     0.051 A 
ATOM     15  C   UNL     1       3.424   7.580   4.299  1.00  0.00     0.157 A 
ATOM     16  C   UNL     1       2.874   9.815   5.063  1.00  0.00     0.062 A 
ATOM     17  C   UNL     1       3.756   8.727   5.029  1.00  0.00     0.158 A 
BRANCH  15  18
ATOM     18  O   UNL     1       4.304   6.500   4.268  1.00  0.00    -0.504 OA
ATOM     19  H   UNL     1       5.101   6.447   4.890  1.00  0.00     0.293 HD
ENDBRANCH  15  18
BRANCH  17  20
ATOM     20  O   UNL     1       4.967   8.778   5.719  1.00  0.00    -0.504 OA
ATOM     21  H   UNL     1       5.742   9.342   5.389  1.00  0.00     0.293 HD
ENDBRANCH  17  20
ENDBRANCH   1  12
BRANCH   6  22
ATOM     22  O   UNL     1      -2.888  14.566   5.149  1.00  0.00    -0.507 OA
ATOM     23  H   UNL     1      -3.477  15.381   5.066  1.00  0.00     0.293 HD
ENDBRANCH   6  22
BRANCH   8  24
ATOM     24  O   UNL     1       0.754  16.719   2.875  1.00  0.00    -0.508 OA
ATOM     25  H   UNL     1       1.041  16.756   1.904  1.00  0.00     0.293 HD
ENDBRANCH   8  24
TORSDOF 5
ENDMDL
MODEL 4
REMARK VINA RESULT:    -5.103      2.084      7.419
REMARK INTER + INTRA:          -6.265
REMARK INTER:                  -5.999
REMARK INTRA:                  -0.266
REMARK UNBOUND:                -0.267
REMARK SMILES O=c1cc(-c2ccc(O)c(O)c2)oc2cc(O)cc(O)c12
REMARK SMILES IDX 4 1 3 2 2 3 1 4 21 5 19 6 18 7 16 8 15 9 14 10 13 11 5 12
REMARK SMILES IDX 6 13 7 14 8 15 12 16 10 17 9 18 11 20 20 22 17 24
REMARK H PARENT 9 19 11 21 20 23 17 25
REMARK Flexibility Score: inf
ROOT
ATOM      1  C   UNL     1      -0.144  10.861   4.317  1.00  0.00     0.138 A 
ATOM      2  C   UNL     1      -0.589   9.732   3.615  1.00  0.00     0.100 A 
ATOM      3  C   UNL     1       0.263   8.638   3.455  1.00  0.00     0.197 A 
ATOM      4  O   UNL     1      -0.185   7.616   2.875  1.00  0.00    -0.289 OA
ATOM      5  C   UNL     1       1.579   8.689   3.974  1.00  0.00     0.107 A 
ATOM      6  C   UNL     1       2.548   7.651   3.836  1.00  0.00     0.134 A 
ATOM      7  C   UNL     1       3.780   7.765   4.492  1.00  0.00     0.093 A 
ATOM      8  C   UNL     1       4.100   8.907   5.230  1.00  0.00     0.123 A 
ATOM      9  C   UNL     1       3.182   9.949   5.326  1.00  0.00     0.094 A 
ATOM     10  C   UNL     1       1.931   9.851   4.713  1.00  0.00     0.146 A 
ATOM     11  O   UNL     1       1.078  10.862   4.841  1.00  0.00    -0.456 OA
ENDROOT
BRANCH   1  12
ATOM     12  C   UNL     1      -1.008  12.052   4.515  1.00  0.00     0.021 A 
ATOM     13  C   UNL     1      -0.804  13.242   3.791  1.00  0.00     0.016 A 
ATOM     14  C   UNL     1      -1.626  14.352   4.006  1.00  0.00     0.051 A 
ATOM     15  C   UNL     1      -2.659  14.294   4.950  1.00  0.00     0.157 A 
ATOM     16  C   UNL     1      -2.039  12.008   5.471  1.00  0.00     0.062 A 
ATOM     17  C   UNL     1      -2.864  13.121   5.685  1.00  0.00     0.158 A 
BRANCH  15  18
ATOM     18  O   UNL     1      -3.481  15.398   5.165  1.00  0.00    -0.504 OA
ATOM     19  H   UNL     1      -3.858  15.937   4.394  1.00  0.00     0.293 HD
ENDBRANCH  15  18
BRANCH  17  20
ATOM     20  O   UNL     1      -3.890  13.068   6.628  1.00  0.00    -0.504 OA
ATOM     21  H   UNL     1      -4.557  13.824   6.727  1.00  0.00     0.293 HD
ENDBRANCH  17  20
ENDBRANCH   1  12
BRANCH   6  22
ATOM     22  O   UNL     1       2.362   6.508   3.052  1.00  0.00    -0.507 OA
ATOM     23  H   UNL     1       2.752   5.600   3.255  1.00  0.00     0.293 HD
ENDBRANCH   6  22
BRANCH   8  24
ATOM     24  O   UNL     1       5.334   9.018   5.867  1.00  0.00    -0.508 OA
ATOM     25  H   UNL     1       6.137   9.422   5.400  1.00  0.00     0.293 HD
ENDBRANCH   8  24
TORSDOF 5
ENDMDL
MODEL 5
REMARK VINA RESULT:    -4.604      3.486      4.767
REMARK INTER + INTRA:          -5.679
REMARK INTER:                  -5.411
REMARK INTRA:                  -0.268
REMARK UNBOUND:                -0.267
REMARK SMILES O=c1cc(-c2ccc(O)c(O)c2)oc2cc(O)cc(O)c12
REMARK SMILES IDX 4 1 3 2 2 3 1 4 21 5 19 6 18 7 16 8 15 9 14 10 13 11 5 12
REMARK SMILES IDX 6 13 7 14 8 15 12 16 10 17 9 18 11 20 20 22 17 24
REMARK H PARENT 9 19 11 21 20 23 17 25
REMARK Flexibility Score: inf
ROOT
ATOM      1  C   UNL     1      -0.192  10.189   4.949  1.00  0.00     0.138 A 
ATOM      2  C   UNL     1      -0.581  11.207   5.830  1.00  0.00     0.100 A 
ATOM      3  C   UNL     1      -1.929  11.358   6.160  1.00  0.00     0.197 A 
ATOM      4  O   UNL     1      -2.239  12.240   7.001  1.00  0.00    -0.289 OA
ATOM      5  C   UNL     1      -2.895  10.503   5.579  1.00  0.00     0.107 A 
ATOM      6  C   UNL     1      -4.300  10.588   5.810  1.00  0.00     0.134 A 
ATOM      7  C   UNL     1      -5.149   9.614   5.271  1.00  0.00     0.093 A 
ATOM      8  C   UNL     1      -4.650   8.592   4.460  1.00  0.00     0.123 A 
ATOM      9  C   UNL     1      -3.287   8.531   4.184  1.00  0.00     0.094 A 
ATOM     10  C   UNL     1      -2.409   9.467   4.735  1.00  0.00     0.146 A 
ATOM     11  O   UNL     1      -1.113   9.364   4.459  1.00  0.00    -0.456 OA
ENDROOT
BRANCH   1  12
ATOM     12  C   UNL     1       1.227   9.986   4.562  1.00  0.00     0.021 A 
ATOM     13  C   UNL     1       1.628   9.949   3.213  1.00  0.00     0.016 A 
ATOM     14  C   UNL     1       2.969   9.745   2.878  1.00  0.00     0.051 A 
ATOM     15  C   UNL     1       3.930   9.568   3.881  1.00  0.00     0.157 A 
ATOM     16  C   UNL     1       2.197   9.793   5.563  1.00  0.00     0.062 A 
ATOM     17  C   UNL     1       3.542   9.590   5.226  1.00  0.00     0.158 A 
BRANCH  15  18
ATOM     18  O   UNL     1       5.268   9.367   3.550  1.00  0.00    -0.504 OA
ATOM     19  H   UNL     1       5.598   9.455   2.596  1.00  0.00     0.293 HD
ENDBRANCH  15  18
BRANCH  17  20
ATOM     20  O   UNL     1       4.500   9.410   6.223  1.00  0.00    -0.504 OA
ATOM     21  H   UNL     1       4.236   9.221   7.183  1.00  0.00     0.293 HD
ENDBRANCH  17  20
ENDBRANCH   1  12
BRANCH   6  22
ATOM     22  O   UNL     1      -4.911  11.617   6.535  1.00  0.00    -0.507 OA
ATOM     23  H   UNL     1      -5.717  12.139   6.226  1.00  0.00     0.293 HD
ENDBRANCH   6  22
BRANCH   8  24
ATOM     24  O   UNL     1      -5.505   7.635   3.915  1.00  0.00    -0.508 OA
ATOM     25  H   UNL     1      -5.294   7.174   3.038  1.00  0.00     0.293 HD
ENDBRANCH   8  24
TORSDOF 5
ENDMDL
MODEL 6
REMARK VINA RESULT:    -4.455      1.857      3.353
REMARK INTER + INTRA:          -5.503
REMARK INTER:                  -5.210
REMARK INTRA:                  -0.293
REMARK UNBOUND:                -0.267
REMARK SMILES O=c1cc(-c2ccc(O)c(O)c2)oc2cc(O)cc(O)c12
REMARK SMILES IDX 4 1 3 2 2 3 1 4 21 5 19 6 18 7 16 8 15 9 14 10 13 11 5 12
REMARK SMILES IDX 6 13 7 14 8 15 12 16 10 17 9 18 11 20 20 22 17 24
REMARK H PARENT 9 19 11 21 20 23 17 25
REMARK Flexibility Score: inf
ROOT
ATOM      1  C   UNL     1       0.569  11.374   4.743  1.00  0.00     0.138 A 
ATOM      2  C   UNL     1      -0.301  10.670   5.586  1.00  0.00     0.100 A 
ATOM      3  C   UNL     1      -1.520  11.242   5.953  1.00  0.00     0.197 A 
ATOM      4  O   UNL     1      -2.307  10.561   6.660  1.00  0.00    -0.289 OA
ATOM      5  C   UNL     1      -1.855  12.539   5.497  1.00  0.00     0.107 A 
ATOM      6  C   UNL     1      -3.051  13.238   5.839  1.00  0.00     0.134 A 
ATOM      7  C   UNL     1      -3.327  14.471   5.234  1.00  0.00     0.093 A 
ATOM      8  C   UNL     1      -2.422  15.056   4.345  1.00  0.00     0.123 A 
ATOM      9  C   UNL     1      -1.227  14.408   4.047  1.00  0.00     0.094 A 
ATOM     10  C   UNL     1      -0.938  13.161   4.607  1.00  0.00     0.146 A 
ATOM     11  O   UNL     1       0.208  12.569   4.284  1.00  0.00    -0.456 OA
ENDROOT
BRANCH   1  12
ATOM     12  C   UNL     1       1.878  10.814   4.323  1.00  0.00     0.021 A 
ATOM     13  C   UNL     1       2.613  11.370   3.258  1.00  0.00     0.016 A 
ATOM     14  C   UNL     1       3.838  10.816   2.877  1.00  0.00     0.051 A 
ATOM     15  C   UNL     1       4.347   9.696   3.547  1.00  0.00     0.157 A 
ATOM     16  C   UNL     1       2.391   9.681   4.980  1.00  0.00     0.062 A 
ATOM     17  C   UNL     1       3.620   9.127   4.599  1.00  0.00     0.158 A 
BRANCH  15  18
ATOM     18  O   UNL     1       5.568   9.143   3.170  1.00  0.00    -0.504 OA
ATOM     19  H   UNL     1       6.138   9.560   2.444  1.00  0.00     0.293 HD
ENDBRANCH  15  18
BRANCH  17  20
ATOM     20  O   UNL     1       4.126   8.009   5.261  1.00  0.00    -0.504 OA
ATOM     21  H   UNL     1       4.474   7.204   4.753  1.00  0.00     0.293 HD
ENDBRANCH  17  20
ENDBRANCH   1  12
BRANCH   6  22
ATOM     22  O   UNL     1      -3.981  12.782   6.779  1.00  0.00    -0.507 OA
ATOM     23  H   UNL     1      -4.726  12.131   6.582  1.00  0.00     0.293 HD
ENDBRANCH   6  22
BRANCH   8  24
ATOM     24  O   UNL     1      -2.699  16.290   3.760  1.00  0.00    -0.508 OA
ATOM     25  H   UNL     1      -2.553  17.159   4.260  1.00  0.00     0.293 HD
ENDBRANCH   8  24
TORSDOF 5
ENDMDL
MODEL 7
REMARK VINA RESULT:    -4.284      4.435      7.302
REMARK INTER + INTRA:          -5.303
REMARK INTER:                  -4.988
REMARK INTRA:                  -0.315
REMARK UNBOUND:                -0.267
REMARK SMILES O=c1cc(-c2ccc(O)c(O)c2)oc2cc(O)cc(O)c12
REMARK SMILES IDX 4 1 3 2 2 3 1 4 21 5 19 6 18 7 16 8 15 9 14 10 13 11 5 12
REMARK SMILES IDX 6 13 7 14 8 15 12 16 10 17 9 18 11 20 20 22 17 24
REMARK H PARENT 9 19 11 21 20 23 17 25
REMARK Flexibility Score: inf
ROOT
ATOM      1  C   UNL     1      -1.147   8.714   3.590  1.00  0.00     0.138 A 
ATOM      2  C   UNL     1      -0.877  10.024   4.010  1.00  0.00     0.100 A 
ATOM      3  C   UNL     1       0.445  10.439   4.173  1.00  0.00     0.197 A 
ATOM      4  O   UNL     1       0.657  11.637   4.491  1.00  0.00    -0.289 OA
ATOM      5  C   UNL     1       1.502   9.526   3.944  1.00  0.00     0.107 A 
ATOM      6  C   UNL     1       2.887   9.825   4.117  1.00  0.00     0.134 A 
ATOM      7  C   UNL     1       3.849   8.877   3.748  1.00  0.00     0.093 A 
ATOM      8  C   UNL     1       3.475   7.620   3.268  1.00  0.00     0.123 A 
ATOM      9  C   UNL     1       2.126   7.298   3.147  1.00  0.00     0.094 A 
ATOM     10  C   UNL     1       1.142   8.234   3.474  1.00  0.00     0.146 A 
ATOM     11  O   UNL     1      -0.134   7.892   3.329  1.00  0.00    -0.456 OA
ENDROOT
BRANCH   1  12
ATOM     12  C   UNL     1      -2.534   8.220   3.402  1.00  0.00     0.021 A 
ATOM     13  C   UNL     1      -3.633   9.099   3.368  1.00  0.00     0.016 A 
ATOM     14  C   UNL     1      -4.930   8.605   3.200  1.00  0.00     0.051 A 
ATOM     15  C   UNL     1      -5.152   7.229   3.070  1.00  0.00     0.157 A 
ATOM     16  C   UNL     1      -2.768   6.838   3.284  1.00  0.00     0.062 A 
ATOM     17  C   UNL     1      -4.068   6.344   3.115  1.00  0.00     0.158 A 
BRANCH  15  18
ATOM     18  O   UNL     1      -6.443   6.735   2.901  1.00  0.00    -0.504 OA
ATOM     19  H   UNL     1      -7.009   6.446   3.691  1.00  0.00     0.293 HD
ENDBRANCH  15  18
BRANCH  17  20
ATOM     20  O   UNL     1      -4.292   4.974   2.990  1.00  0.00    -0.504 OA
ATOM     21  H   UNL     1      -4.922   4.480   3.612  1.00  0.00     0.293 HD
ENDBRANCH  17  20
ENDBRANCH   1  12
BRANCH   6  22
ATOM     22  O   UNL     1       3.365  11.019   4.668  1.00  0.00    -0.507 OA
ATOM     23  H   UNL     1       3.768  11.108   5.588  1.00  0.00     0.293 HD
ENDBRANCH   6  22
BRANCH   8  24
ATOM     24  O   UNL     1       4.440   6.677   2.918  1.00  0.00    -0.508 OA
ATOM     25  H   UNL     1       5.291   6.564   3.456  1.00  0.00     0.293 HD
ENDBRANCH   8  24
TORSDOF 5
ENDMDL
MODEL 8
REMARK VINA RESULT:    -4.087      2.558      7.318
REMARK INTER + INTRA:          -5.071
REMARK INTER:                  -4.770
REMARK INTRA:                  -0.301
REMARK UNBOUND:                -0.267
REMARK SMILES O=c1cc(-c2ccc(O)c(O)c2)oc2cc(O)cc(O)c12
REMARK SMILES IDX 4 1 3 2 2 3 1 4 21 5 19 6 18 7 16 8 15 9 14 10 13 11 5 12
REMARK SMILES IDX 6 13 7 14 8 15 12 16 10 17 9 18 11 20 20 22 17 24
REMARK H PARENT 9 19 11 21 20 23 17 25
REMARK Flexibility Score: inf
ROOT
ATOM      1  C   UNL     1       0.137  10.558   3.778  1.00  0.00     0.138 A 
ATOM      2  C   UNL     1       1.283  11.210   4.252  1.00  0.00     0.100 A 
ATOM      3  C   UNL     1       2.467  10.490   4.422  1.00  0.00     0.197 A 
ATOM      4  O   UNL     1       3.494  11.116   4.790  1.00  0.00    -0.289 OA
ATOM      5  C   UNL     1       2.493   9.103   4.145  1.00  0.00     0.107 A 
ATOM      6  C   UNL     1       3.630   8.260   4.320  1.00  0.00     0.134 A 
ATOM      7  C   UNL     1       3.572   6.925   3.901  1.00  0.00     0.093 A 
ATOM      8  C   UNL     1       2.397   6.387   3.370  1.00  0.00     0.123 A 
ATOM      9  C   UNL     1       1.264   7.187   3.246  1.00  0.00     0.094 A 
ATOM     10  C   UNL     1       1.301   8.532   3.622  1.00  0.00     0.146 A 
ATOM     11  O   UNL     1       0.202   9.265   3.472  1.00  0.00    -0.456 OA
ENDROOT
BRANCH   1  12
ATOM     12  C   UNL     1      -1.148  11.274   3.580  1.00  0.00     0.021 A 
ATOM     13  C   UNL     1      -1.190  12.612   3.145  1.00  0.00     0.016 A 
ATOM     14  C   UNL     1      -2.414  13.266   2.977  1.00  0.00     0.051 A 
ATOM     15  C   UNL     1      -3.614  12.598   3.246  1.00  0.00     0.157 A 
ATOM     16  C   UNL     1      -2.359  10.616   3.861  1.00  0.00     0.062 A 
ATOM     17  C   UNL     1      -3.586  11.271   3.691  1.00  0.00     0.158 A 
BRANCH  15  18
ATOM     18  O   UNL     1      -4.836  13.246   3.078  1.00  0.00    -0.504 OA
ATOM     19  H   UNL     1      -5.255  13.359   2.163  1.00  0.00     0.293 HD
ENDBRANCH  15  18
BRANCH  17  20
ATOM     20  O   UNL     1      -4.783  10.609   3.963  1.00  0.00    -0.504 OA
ATOM     21  H   UNL     1      -4.818   9.604   4.082  1.00  0.00     0.293 HD
ENDBRANCH  17  20
ENDBRANCH   1  12
BRANCH   6  22
ATOM     22  O   UNL     1       4.825   8.675   4.918  1.00  0.00    -0.507 OA
ATOM     23  H   UNL     1       5.412   9.420   4.576  1.00  0.00     0.293 HD
ENDBRANCH   6  22
BRANCH   8  24
ATOM     24  O   UNL     1       2.343   5.053   2.971  1.00  0.00    -0.508 OA
ATOM     25  H   UNL     1       3.185   4.509   2.826  1.00  0.00     0.293 HD
ENDBRANCH   8  24
TORSDOF 5
ENDMDL
MODEL 9
REMARK VINA RESULT:    -4.056      2.568      6.628
REMARK INTER + INTRA:          -5.035
REMARK INTER:                  -4.757
REMARK INTRA:                  -0.278
REMARK UNBOUND:                -0.267
REMARK SMILES O=c1cc(-c2ccc(O)c(O)c2)oc2cc(O)cc(O)c12
REMARK SMILES IDX 4 1 3 2 2 3 1 4 21 5 19 6 18 7 16 8 15 9 14 10 13 11 5 12
REMARK SMILES IDX 6 13 7 14 8 15 12 16 10 17 9 18 11 20 20 22 17 24
REMARK H PARENT 9 19 11 21 20 23 17 25
REMARK Flexibility Score: inf
ROOT
ATOM      1  C   UNL     1      -0.960  11.414   4.852  1.00  0.00     0.138 A 
ATOM      2  C   UNL     1      -0.527  12.481   4.053  1.00  0.00     0.100 A 
ATOM      3  C   UNL     1       0.805  12.541   3.643  1.00  0.00     0.197 A 
ATOM      4  O   UNL     1       1.149  13.476   2.876  1.00  0.00    -0.289 OA
ATOM      5  C   UNL     1       1.716  11.542   4.063  1.00  0.00     0.107 A 
ATOM      6  C   UNL     1       3.106  11.522   3.741  1.00  0.00     0.134 A 
ATOM      7  C   UNL     1       3.886  10.421   4.116  1.00  0.00     0.093 A 
ATOM      8  C   UNL     1       3.339   9.368   4.853  1.00  0.00     0.123 A 
ATOM      9  C   UNL     1       1.995   9.404   5.220  1.00  0.00     0.094 A 
ATOM     10  C   UNL     1       1.183  10.472   4.831  1.00  0.00     0.146 A 
ATOM     11  O   UNL     1      -0.097  10.460   5.188  1.00  0.00    -0.456 OA
ENDROOT
BRANCH   1  12
ATOM     12  C   UNL     1      -2.365  11.302   5.318  1.00  0.00     0.021 A 
ATOM     13  C   UNL     1      -3.056  10.076   5.295  1.00  0.00     0.016 A 
ATOM     14  C   UNL     1      -4.383  10.001   5.729  1.00  0.00     0.051 A 
ATOM     15  C   UNL     1      -5.043  11.148   6.186  1.00  0.00     0.157 A 
ATOM     16  C   UNL     1      -3.041  12.452   5.766  1.00  0.00     0.062 A 
ATOM     17  C   UNL     1      -4.371  12.376   6.202  1.00  0.00     0.158 A 
BRANCH  15  18
ATOM     18  O   UNL     1      -6.364  11.077   6.622  1.00  0.00    -0.504 OA
ATOM     19  H   UNL     1      -6.594  10.921   7.596  1.00  0.00     0.293 HD
ENDBRANCH  15  18
BRANCH  17  20
ATOM     20  O   UNL     1      -5.031  13.518   6.654  1.00  0.00    -0.504 OA
ATOM     21  H   UNL     1      -5.528  14.130   6.017  1.00  0.00     0.293 HD
ENDBRANCH  17  20
ENDBRANCH   1  12
BRANCH   6  22
ATOM     22  O   UNL     1       3.770  12.562   3.082  1.00  0.00    -0.507 OA
ATOM     23  H   UNL     1       4.089  13.412   3.521  1.00  0.00     0.293 HD
ENDBRANCH   6  22
BRANCH   8  24
ATOM     24  O   UNL     1       4.126   8.283   5.235  1.00  0.00    -0.508 OA
ATOM     25  H   UNL     1       5.015   8.091   4.789  1.00  0.00     0.293 HD
ENDBRANCH   8  24
TORSDOF 5
ENDMDL
