MODEL 1
REMARK VINA RESULT:    -3.639      0.000      0.000
REMARK INTER + INTRA:          -6.870
REMARK INTER:                  -6.193
REMARK INTRA:                  -0.677
REMARK UNBOUND:                -0.677
REMARK SMILES CCCCCCCCCCCCCC(=O)[O-]
REMARK SMILES IDX 8 1 9 2 10 3 11 4 12 5 13 6 14 7 15 8 16 9 7 10 6 11 5 12
REMARK SMILES IDX 4 13 3 14 2 15 1 16
REMARK H PARENT
REMARK Flexibility Score: inf
ROOT
ATOM      1  C   UNL     1    -115.549-100.070  35.657  1.00  0.00     0.000 C 
ENDROOT
BRANCH   1   2
ATOM      2  C   UNL     1    -115.030 -98.646  35.421  1.00  0.00     0.000 C 
BRANCH   2   3
ATOM      3  C   UNL     1    -115.784 -97.968  34.271  1.00  0.00     0.000 C 
BRANCH   3   4
ATOM      4  C   UNL     1    -115.886 -98.902  33.056  1.00  0.00     0.000 C 
BRANCH   4   5
ATOM      5  C   UNL     1    -117.278 -98.875  32.403  1.00  0.00     0.006 C 
BRANCH   5   6
ATOM      6  C   UNL     1    -117.996 -97.534  32.600  1.00  0.00     0.053 C 
BRANCH   6   7
ATOM      7  C   UNL     1    -118.427 -96.975  31.280  1.00  0.00     0.041 C 
ATOM      8  O   UNL     1    -118.456 -97.710  30.259  1.00  0.00    -0.550 OA
ATOM      9  O   UNL     1    -118.747 -95.627  31.168  1.00  0.00    -0.550 OA
ENDBRANCH   6   7
ENDBRANCH   5   6
ENDBRANCH   4   5
ENDBRANCH   3   4
ENDBRANCH   2   3
ENDBRANCH   1   2
BRANCH   1  10
ATOM     10  C   UNL     1    -116.907-100.051  36.368  1.00  0.00     0.000 C 
BRANCH  10  11
ATOM     11  C   UNL     1    -116.837 -99.237  37.669  1.00  0.00    -0.000 C 
BRANCH  11  12
ATOM     12  C   UNL     1    -117.365-100.016  38.884  1.00  0.00    -0.000 C 
BRANCH  12  13
ATOM     13  C   UNL     1    -117.444 -99.152  40.152  1.00  0.00    -0.000 C 
BRANCH  13  14
ATOM     14  C   UNL     1    -116.554 -99.727  41.264  1.00  0.00    -0.000 C 
BRANCH  14  15
ATOM     15  C   UNL     1    -116.295 -98.719  42.394  1.00  0.00    -0.003 C 
ATOM     16  C   UNL     1    -117.211 -98.931  43.599  1.00  0.00     0.004 C 
ENDBRANCH  14  15
ENDBRANCH  13  14
ENDBRANCH  12  13
ENDBRANCH  11  12
ENDBRANCH  10  11
ENDBRANCH   1  10
TORSDOF 12
ENDMDL
MODEL 2
REMARK VINA RESULT:    -3.506      6.132     10.481
REMARK INTER + INTRA:          -6.643
REMARK INTER:                  -6.139
REMARK INTRA:                  -0.504
REMARK UNBOUND:                -0.677
REMARK SMILES CCCCCCCCCCCCCC(=O)[O-]
REMARK SMILES IDX 8 1 9 2 10 3 11 4 12 5 13 6 14 7 15 8 16 9 7 10 6 11 5 12
REMARK SMILES IDX 4 13 3 14 2 15 1 16
REMARK H PARENT
REMARK Flexibility Score: inf
ROOT
ATOM      1  C   UNL     1    -116.122 -98.630  41.985  1.00  0.00     0.000 C 
ENDROOT
BRANCH   1   2
ATOM      2  C   UNL     1    -117.199 -98.246  43.007  1.00  0.00     0.000 C 
BRANCH   2   3
ATOM      3  C   UNL     1    -117.623 -99.459  43.843  1.00  0.00     0.000 C 
BRANCH   3   4
ATOM      4  C   UNL     1    -118.321 -99.016  45.137  1.00  0.00     0.000 C 
BRANCH   4   5
ATOM      5  C   UNL     1    -118.375 -97.487  45.288  1.00  0.00     0.006 C 
BRANCH   5   6
ATOM      6  C   UNL     1    -119.120 -97.045  46.553  1.00  0.00     0.053 C 
BRANCH   6   7
ATOM      7  C   UNL     1    -118.301 -96.055  47.322  1.00  0.00     0.041 C 
ATOM      8  O   UNL     1    -118.165 -94.878  46.897  1.00  0.00    -0.550 OA
ATOM      9  O   UNL     1    -117.645 -96.449  48.482  1.00  0.00    -0.550 OA
ENDBRANCH   6   7
ENDBRANCH   5   6
ENDBRANCH   4   5
ENDBRANCH   3   4
ENDBRANCH   2   3
ENDBRANCH   1   2
BRANCH   1  10
ATOM     10  C   UNL     1    -116.580 -99.807  41.115  1.00  0.00     0.000 C 
BRANCH  10  11
ATOM     11  C   UNL     1    -117.575 -99.343  40.041  1.00  0.00    -0.000 C 
BRANCH  11  12
ATOM     12  C   UNL     1    -117.286 -99.954  38.661  1.00  0.00    -0.000 C 
BRANCH  12  13
ATOM     13  C   UNL     1    -116.618 -98.959  37.700  1.00  0.00    -0.000 C 
BRANCH  13  14
ATOM     14  C   UNL     1    -116.208 -99.650  36.391  1.00  0.00    -0.000 C 
BRANCH  14  15
ATOM     15  C   UNL     1    -115.156 -98.853  35.606  1.00  0.00    -0.003 C 
ATOM     16  C   UNL     1    -115.755 -98.070  34.439  1.00  0.00     0.004 C 
ENDBRANCH  14  15
ENDBRANCH  13  14
ENDBRANCH  12  13
ENDBRANCH  11  12
ENDBRANCH  10  11
ENDBRANCH   1  10
TORSDOF 12
ENDMDL
MODEL 3
REMARK VINA RESULT:    -3.318      3.659      7.897
REMARK INTER + INTRA:          -6.323
REMARK INTER:                  -5.297
REMARK INTRA:                  -1.025
REMARK UNBOUND:                -0.677
REMARK SMILES CCCCCCCCCCCCCC(=O)[O-]
REMARK SMILES IDX 8 1 9 2 10 3 11 4 12 5 13 6 14 7 15 8 16 9 7 10 6 11 5 12
REMARK SMILES IDX 4 13 3 14 2 15 1 16
REMARK H PARENT
REMARK Flexibility Score: inf
ROOT
ATOM      1  C   UNL     1    -115.506 -97.614  34.555  1.00  0.00     0.000 C 
ENDROOT
BRANCH   1   2
ATOM      2  C   UNL     1    -115.371 -98.825  35.486  1.00  0.00     0.000 C 
BRANCH   2   3
ATOM      3  C   UNL     1    -116.350 -98.729  36.661  1.00  0.00     0.000 C 
BRANCH   3   4
ATOM      4  C   UNL     1    -116.709-100.125  37.193  1.00  0.00     0.000 C 
BRANCH   4   5
ATOM      5  C   UNL     1    -117.655-100.073  38.403  1.00  0.00     0.006 C 
BRANCH   5   6
ATOM      6  C   UNL     1    -116.904 -99.952  39.735  1.00  0.00     0.053 C 
BRANCH   6   7
ATOM      7  C   UNL     1    -117.284 -98.685  40.434  1.00  0.00     0.041 C 
ATOM      8  O   UNL     1    -116.985 -98.514  41.646  1.00  0.00    -0.550 OA
ATOM      9  O   UNL     1    -118.014 -97.712  39.762  1.00  0.00    -0.550 OA
ENDBRANCH   6   7
ENDBRANCH   5   6
ENDBRANCH   4   5
ENDBRANCH   3   4
ENDBRANCH   2   3
ENDBRANCH   1   2
BRANCH   1  10
ATOM     10  C   UNL     1    -115.863 -98.051  33.130  1.00  0.00     0.000 C 
BRANCH  10  11
ATOM     11  C   UNL     1    -115.861 -99.582  33.006  1.00  0.00    -0.000 C 
BRANCH  11  12
ATOM     12  C   UNL     1    -117.088-100.117  32.250  1.00  0.00    -0.000 C 
BRANCH  12  13
ATOM     13  C   UNL     1    -118.252 -99.116  32.224  1.00  0.00    -0.000 C 
BRANCH  13  14
ATOM     14  C   UNL     1    -118.826 -98.978  30.806  1.00  0.00    -0.000 C 
BRANCH  14  15
ATOM     15  C   UNL     1    -118.888 -97.517  30.334  1.00  0.00    -0.003 C 
ATOM     16  C   UNL     1    -118.712 -96.517  31.476  1.00  0.00     0.004 C 
ENDBRANCH  14  15
ENDBRANCH  13  14
ENDBRANCH  12  13
ENDBRANCH  11  12
ENDBRANCH  10  11
ENDBRANCH   1  10
TORSDOF 12
ENDMDL
MODEL 4
REMARK VINA RESULT:    -3.295      5.599      9.690
REMARK INTER + INTRA:          -6.284
REMARK INTER:                  -5.920
REMARK INTRA:                  -0.364
REMARK UNBOUND:                -0.677
REMARK SMILES CCCCCCCCCCCCCC(=O)[O-]
REMARK SMILES IDX 8 1 9 2 10 3 11 4 12 5 13 6 14 7 15 8 16 9 7 10 6 11 5 12
REMARK SMILES IDX 4 13 3 14 2 15 1 16
REMARK H PARENT
REMARK Flexibility Score: inf
ROOT
ATOM      1  C   UNL     1    -117.230 -99.196  39.369  1.00  0.00     0.000 C 
ENDROOT
BRANCH   1   2
ATOM      2  C   UNL     1    -117.335-100.062  40.630  1.00  0.00     0.000 C 
BRANCH   2   3
ATOM      3  C   UNL     1    -116.631 -99.395  41.817  1.00  0.00     0.000 C 
BRANCH   3   4
ATOM      4  C   UNL     1    -117.475 -98.242  42.379  1.00  0.00     0.000 C 
BRANCH   4   5
ATOM      5  C   UNL     1    -117.722 -98.370  43.891  1.00  0.00     0.006 C 
BRANCH   5   6
ATOM      6  C   UNL     1    -118.776 -97.381  44.403  1.00  0.00     0.053 C 
BRANCH   6   7
ATOM      7  C   UNL     1    -118.472 -96.979  45.812  1.00  0.00     0.041 C 
ATOM      8  O   UNL     1    -118.522 -95.767  46.151  1.00  0.00    -0.550 OA
ATOM      9  O   UNL     1    -118.084 -97.938  46.740  1.00  0.00    -0.550 OA
ENDBRANCH   6   7
ENDBRANCH   5   6
ENDBRANCH   4   5
ENDBRANCH   3   4
ENDBRANCH   2   3
ENDBRANCH   1   2
BRANCH   1  10
ATOM     10  C   UNL     1    -117.165-100.064  38.107  1.00  0.00     0.000 C 
BRANCH  10  11
ATOM     11  C   UNL     1    -116.489 -99.308  36.953  1.00  0.00    -0.000 C 
BRANCH  11  12
ATOM     12  C   UNL     1    -116.854 -99.881  35.574  1.00  0.00    -0.000 C 
BRANCH  12  13
ATOM     13  C   UNL     1    -117.064 -98.788  34.515  1.00  0.00    -0.000 C 
BRANCH  13  14
ATOM     14  C   UNL     1    -115.843 -97.860  34.436  1.00  0.00    -0.000 C 
BRANCH  14  15
ATOM     15  C   UNL     1    -115.798 -97.054  33.129  1.00  0.00    -0.003 C 
ATOM     16  C   UNL     1    -117.188 -96.748  32.574  1.00  0.00     0.004 C 
ENDBRANCH  14  15
ENDBRANCH  13  14
ENDBRANCH  12  13
ENDBRANCH  11  12
ENDBRANCH  10  11
ENDBRANCH   1  10
TORSDOF 12
ENDMDL
MODEL 5
REMARK VINA RESULT:    -3.235      2.706      5.513
REMARK INTER + INTRA:          -6.181
REMARK INTER:                  -5.634
REMARK INTRA:                  -0.548
REMARK UNBOUND:                -0.677
REMARK SMILES CCCCCCCCCCCCCC(=O)[O-]
REMARK SMILES IDX 8 1 9 2 10 3 11 4 12 5 13 6 14 7 15 8 16 9 7 10 6 11 5 12
REMARK SMILES IDX 4 13 3 14 2 15 1 16
REMARK H PARENT
REMARK Flexibility Score: inf
ROOT
ATOM      1  C   UNL     1    -116.482 -98.958  41.250  1.00  0.00     0.000 C 
ENDROOT
BRANCH   1   2
ATOM      2  C   UNL     1    -117.848 -99.466  40.773  1.00  0.00     0.000 C 
BRANCH   2   3
ATOM      3  C   UNL     1    -117.746-100.100  39.381  1.00  0.00     0.000 C 
BRANCH   3   4
ATOM      4  C   UNL     1    -116.740 -99.340  38.504  1.00  0.00     0.000 C 
BRANCH   4   5
ATOM      5  C   UNL     1    -116.688 -99.874  37.064  1.00  0.00     0.006 C 
BRANCH   5   6
ATOM      6  C   UNL     1    -115.848 -98.988  36.136  1.00  0.00     0.053 C 
BRANCH   6   7
ATOM      7  C   UNL     1    -116.683 -98.481  35.002  1.00  0.00     0.041 C 
ATOM      8  O   UNL     1    -116.208 -97.647  34.187  1.00  0.00    -0.550 OA
ATOM      9  O   UNL     1    -118.005 -98.891  34.876  1.00  0.00    -0.550 OA
ENDBRANCH   6   7
ENDBRANCH   5   6
ENDBRANCH   4   5
ENDBRANCH   3   4
ENDBRANCH   2   3
ENDBRANCH   1   2
BRANCH   1  10
ATOM     10  C   UNL     1    -116.410 -98.921  42.781  1.00  0.00     0.000 C 
BRANCH  10  11
ATOM     11  C   UNL     1    -117.801 -98.694  43.392  1.00  0.00    -0.000 C 
BRANCH  11  12
ATOM     12  C   UNL     1    -117.950 -99.336  44.781  1.00  0.00    -0.000 C 
BRANCH  12  13
ATOM     13  C   UNL     1    -118.656 -98.415  45.787  1.00  0.00    -0.000 C 
BRANCH  13  14
ATOM     14  C   UNL     1    -117.981 -98.486  47.165  1.00  0.00    -0.000 C 
BRANCH  14  15
ATOM     15  C   UNL     1    -118.151 -97.191  47.973  1.00  0.00    -0.003 C 
ATOM     16  C   UNL     1    -118.351 -95.962  47.088  1.00  0.00     0.004 C 
ENDBRANCH  14  15
ENDBRANCH  13  14
ENDBRANCH  12  13
ENDBRANCH  11  12
ENDBRANCH  10  11
ENDBRANCH   1  10
TORSDOF 12
ENDMDL
MODEL 6
REMARK VINA RESULT:    -2.996      1.630      2.828
REMARK INTER + INTRA:          -5.775
REMARK INTER:                  -5.177
REMARK INTRA:                  -0.598
REMARK UNBOUND:                -0.677
REMARK SMILES CCCCCCCCCCCCCC(=O)[O-]
REMARK SMILES IDX 8 1 9 2 10 3 11 4 12 5 13 6 14 7 15 8 16 9 7 10 6 11 5 12
REMARK SMILES IDX 4 13 3 14 2 15 1 16
REMARK H PARENT
REMARK Flexibility Score: inf
ROOT
ATOM      1  C   UNL     1    -117.268 -99.974  38.276  1.00  0.00     0.000 C 
ENDROOT
BRANCH   1   2
ATOM      2  C   UNL     1    -116.519 -99.191  37.190  1.00  0.00     0.000 C 
BRANCH   2   3
ATOM      3  C   UNL     1    -116.435 -99.996  35.888  1.00  0.00     0.000 C 
BRANCH   3   4
ATOM      4  C   UNL     1    -117.511 -99.542  34.891  1.00  0.00     0.000 C 
BRANCH   4   5
ATOM      5  C   UNL     1    -117.079 -99.728  33.428  1.00  0.00     0.006 C 
BRANCH   5   6
ATOM      6  C   UNL     1    -115.954 -98.770  33.018  1.00  0.00     0.053 C 
BRANCH   6   7
ATOM      7  C   UNL     1    -116.477 -97.373  32.895  1.00  0.00     0.041 C 
ATOM      8  O   UNL     1    -115.868 -96.417  33.442  1.00  0.00    -0.550 OA
ATOM      9  O   UNL     1    -117.668 -97.135  32.219  1.00  0.00    -0.550 OA
ENDBRANCH   6   7
ENDBRANCH   5   6
ENDBRANCH   4   5
ENDBRANCH   3   4
ENDBRANCH   2   3
ENDBRANCH   1   2
BRANCH   1  10
ATOM     10  C   UNL     1    -116.978 -99.402  39.668  1.00  0.00     0.000 C 
BRANCH  10  11
ATOM     11  C   UNL     1    -118.226 -98.730  40.258  1.00  0.00    -0.000 C 
BRANCH  11  12
ATOM     12  C   UNL     1    -117.950 -98.045  41.606  1.00  0.00    -0.000 C 
BRANCH  12  13
ATOM     13  C   UNL     1    -116.820 -98.723  42.396  1.00  0.00    -0.000 C 
BRANCH  13  14
ATOM     14  C   UNL     1    -117.203 -98.882  43.875  1.00  0.00    -0.000 C 
BRANCH  14  15
ATOM     15  C   UNL     1    -118.462 -98.084  44.247  1.00  0.00    -0.003 C 
ATOM     16  C   UNL     1    -118.372 -97.450  45.635  1.00  0.00     0.004 C 
ENDBRANCH  14  15
ENDBRANCH  13  14
ENDBRANCH  12  13
ENDBRANCH  11  12
ENDBRANCH  10  11
ENDBRANCH   1  10
TORSDOF 12
ENDMDL
MODEL 7
REMARK VINA RESULT:    -2.948      4.565      8.614
REMARK INTER + INTRA:          -5.693
REMARK INTER:                  -5.057
REMARK INTRA:                  -0.637
REMARK UNBOUND:                -0.677
REMARK SMILES CCCCCCCCCCCCCC(=O)[O-]
REMARK SMILES IDX 8 1 9 2 10 3 11 4 12 5 13 6 14 7 15 8 16 9 7 10 6 11 5 12
REMARK SMILES IDX 4 13 3 14 2 15 1 16
REMARK H PARENT
REMARK Flexibility Score: inf
ROOT
ATOM      1  C   UNL     1    -116.333 -99.760  36.441  1.00  0.00     0.000 C 
ENDROOT
BRANCH   1   2
ATOM      2  C   UNL     1    -116.873 -99.088  37.710  1.00  0.00     0.000 C 
BRANCH   2   3
ATOM      3  C   UNL     1    -117.174-100.125  38.798  1.00  0.00     0.000 C 
BRANCH   3   4
ATOM      4  C   UNL     1    -118.195 -99.581  39.807  1.00  0.00     0.000 C 
BRANCH   4   5
ATOM      5  C   UNL     1    -117.721 -98.289  40.493  1.00  0.00     0.006 C 
BRANCH   5   6
ATOM      6  C   UNL     1    -118.020 -98.275  41.997  1.00  0.00     0.053 C 
BRANCH   6   7
ATOM      7  C   UNL     1    -116.848 -98.798  42.767  1.00  0.00     0.041 C 
ATOM      8  O   UNL     1    -116.986 -99.165  43.963  1.00  0.00    -0.550 OA
ATOM      9  O   UNL     1    -115.590 -98.833  42.177  1.00  0.00    -0.550 OA
ENDBRANCH   6   7
ENDBRANCH   5   6
ENDBRANCH   4   5
ENDBRANCH   3   4
ENDBRANCH   2   3
ENDBRANCH   1   2
BRANCH   1  10
ATOM     10  C   UNL     1    -115.349 -98.843  35.706  1.00  0.00     0.000 C 
BRANCH  10  11
ATOM     11  C   UNL     1    -115.580 -98.891  34.189  1.00  0.00    -0.000 C 
BRANCH  11  12
ATOM     12  C   UNL     1    -116.749 -99.808  33.796  1.00  0.00    -0.000 C 
BRANCH  12  13
ATOM     13  C   UNL     1    -116.981 -99.855  32.278  1.00  0.00    -0.000 C 
BRANCH  13  14
ATOM     14  C   UNL     1    -118.369 -99.306  31.917  1.00  0.00    -0.000 C 
BRANCH  14  15
ATOM     15  C   UNL     1    -118.492 -97.796  32.174  1.00  0.00    -0.003 C 
ATOM     16  C   UNL     1    -118.091 -96.955  30.963  1.00  0.00     0.004 C 
ENDBRANCH  14  15
ENDBRANCH  13  14
ENDBRANCH  12  13
ENDBRANCH  11  12
ENDBRANCH  10  11
ENDBRANCH   1  10
TORSDOF 12
ENDMDL
MODEL 8
REMARK VINA RESULT:    -2.816      1.133      1.586
REMARK INTER + INTRA:          -5.469
REMARK INTER:                  -4.922
REMARK INTRA:                  -0.547
REMARK UNBOUND:                -0.677
REMARK SMILES CCCCCCCCCCCCCC(=O)[O-]
REMARK SMILES IDX 8 1 9 2 10 3 11 4 12 5 13 6 14 7 15 8 16 9 7 10 6 11 5 12
REMARK SMILES IDX 4 13 3 14 2 15 1 16
REMARK H PARENT
REMARK Flexibility Score: inf
ROOT
ATOM      1  C   UNL     1    -115.882 -98.306  34.936  1.00  0.00     0.000 C 
ENDROOT
BRANCH   1   2
ATOM      2  C   UNL     1    -116.964 -99.043  34.137  1.00  0.00     0.000 C 
BRANCH   2   3
ATOM      3  C   UNL     1    -116.344 -99.891  33.021  1.00  0.00     0.000 C 
BRANCH   3   4
ATOM      4  C   UNL     1    -117.352-100.124  31.885  1.00  0.00     0.000 C 
BRANCH   4   5
ATOM      5  C   UNL     1    -118.650 -99.322  32.071  1.00  0.00     0.006 C 
BRANCH   5   6
ATOM      6  C   UNL     1    -118.984 -98.449  30.854  1.00  0.00     0.053 C 
BRANCH   6   7
ATOM      7  C   UNL     1    -118.345 -97.102  30.988  1.00  0.00     0.041 C 
ATOM      8  O   UNL     1    -117.871 -96.732  32.094  1.00  0.00    -0.550 OA
ATOM      9  O   UNL     1    -118.320 -96.235  29.902  1.00  0.00    -0.550 OA
ENDBRANCH   6   7
ENDBRANCH   5   6
ENDBRANCH   4   5
ENDBRANCH   3   4
ENDBRANCH   2   3
ENDBRANCH   1   2
BRANCH   1  10
ATOM     10  C   UNL     1    -115.662 -98.962  36.304  1.00  0.00     0.000 C 
BRANCH  10  11
ATOM     11  C   UNL     1    -116.972 -99.546  36.852  1.00  0.00    -0.000 C 
BRANCH  11  12
ATOM     12  C   UNL     1    -116.820-100.116  38.271  1.00  0.00    -0.000 C 
BRANCH  12  13
ATOM     13  C   UNL     1    -117.348 -99.162  39.353  1.00  0.00    -0.000 C 
BRANCH  13  14
ATOM     14  C   UNL     1    -116.896 -99.612  40.750  1.00  0.00    -0.000 C 
BRANCH  14  15
ATOM     15  C   UNL     1    -116.987 -98.486  41.791  1.00  0.00    -0.003 C 
ATOM     16  C   UNL     1    -116.888 -98.998  43.227  1.00  0.00     0.004 C 
ENDBRANCH  14  15
ENDBRANCH  13  14
ENDBRANCH  12  13
ENDBRANCH  11  12
ENDBRANCH  10  11
ENDBRANCH   1  10
TORSDOF 12
ENDMDL
