MODEL 1
REMARK VINA RESULT:    -6.872      0.000      0.000
REMARK INTER + INTRA:          -8.575
REMARK INTER:                  -8.278
REMARK INTRA:                  -0.297
REMARK UNBOUND:                -0.297
REMARK SMILES O=c1c(O)c(-c2ccc(O)c(O)c2)oc2cc(O)cc(O)c12
REMARK SMILES IDX 5 1 3 2 2 3 1 4 22 5 20 6 19 7 17 8 16 9 15 10 14 11 6 12
REMARK SMILES IDX 7 13 8 14 9 15 13 16 11 17 10 18 12 20 4 22 21 24 18 26
REMARK H PARENT 10 19 12 21 4 23 21 25 18 27
REMARK Flexibility Score: inf
ROOT
ATOM      1  C   UNL     1      27.779  -8.725  43.496  1.00  0.00     0.180 A 
ATOM      2  C   UNL     1      27.644  -7.936  44.652  1.00  0.00     0.208 A 
ATOM      3  C   UNL     1      26.782  -6.827  44.623  1.00  0.00     0.238 A 
ATOM      4  O   UNL     1      26.624  -6.157  45.676  1.00  0.00    -0.285 OA
ATOM      5  C   UNL     1      26.079  -6.513  43.435  1.00  0.00     0.111 A 
ATOM      6  C   UNL     1      25.211  -5.391  43.281  1.00  0.00     0.134 A 
ATOM      7  C   UNL     1      24.465  -5.251  42.103  1.00  0.00     0.093 A 
ATOM      8  C   UNL     1      24.608  -6.156  41.050  1.00  0.00     0.123 A 
ATOM      9  C   UNL     1      25.497  -7.222  41.168  1.00  0.00     0.094 A 
ATOM     10  C   UNL     1      26.227  -7.408  42.344  1.00  0.00     0.146 A 
ATOM     11  O   UNL     1      27.055  -8.442  42.418  1.00  0.00    -0.452 OA
ENDROOT
BRANCH   1  12
ATOM     12  C   UNL     1      28.687  -9.894  43.441  1.00  0.00     0.025 A 
ATOM     13  C   UNL     1      28.209 -11.199  43.633  1.00  0.00     0.016 A 
ATOM     14  C   UNL     1      29.087 -12.284  43.599  1.00  0.00     0.051 A 
ATOM     15  C   UNL     1      30.457 -12.088  43.387  1.00  0.00     0.157 A 
ATOM     16  C   UNL     1      30.062  -9.693  43.250  1.00  0.00     0.062 A 
ATOM     17  C   UNL     1      30.952 -10.774  43.214  1.00  0.00     0.158 A 
BRANCH  15  18
ATOM     18  O   UNL     1      31.280 -13.216  43.360  1.00  0.00    -0.504 OA
ATOM     19  H   UNL     1      31.051 -14.092  43.807  1.00  0.00     0.293 HD
ENDBRANCH  15  18
BRANCH  17  20
ATOM     20  O   UNL     1      32.305 -10.500  43.009  1.00  0.00    -0.504 OA
ATOM     21  H   UNL     1      32.949 -10.246  43.744  1.00  0.00     0.293 HD
ENDBRANCH  17  20
ENDBRANCH   1  12
BRANCH   2  22
ATOM     22  O   UNL     1      28.331  -8.277  45.819  1.00  0.00    -0.502 OA
ATOM     23  H   UNL     1      29.313  -8.065  45.955  1.00  0.00     0.293 HD
ENDBRANCH   2  22
BRANCH   6  24
ATOM     24  O   UNL     1      25.065  -4.379  44.235  1.00  0.00    -0.507 OA
ATOM     25  H   UNL     1      25.386  -3.429  44.119  1.00  0.00     0.293 HD
ENDBRANCH   6  24
BRANCH   8  26
ATOM     26  O   UNL     1      23.875  -6.000  39.875  1.00  0.00    -0.508 OA
ATOM     27  H   UNL     1      23.295  -6.747  39.508  1.00  0.00     0.293 HD
ENDBRANCH   8  26
TORSDOF 6
ENDMDL
MODEL 2
REMARK VINA RESULT:    -6.863      2.257      7.469
REMARK INTER + INTRA:          -8.564
REMARK INTER:                  -8.408
REMARK INTRA:                  -0.156
REMARK UNBOUND:                -0.297
REMARK SMILES O=c1c(O)c(-c2ccc(O)c(O)c2)oc2cc(O)cc(O)c12
REMARK SMILES IDX 5 1 3 2 2 3 1 4 22 5 20 6 19 7 17 8 16 9 15 10 14 11 6 12
REMARK SMILES IDX 7 13 8 14 9 15 13 16 11 17 10 18 12 20 4 22 21 24 18 26
REMARK H PARENT 10 19 12 21 4 23 21 25 18 27
REMARK Flexibility Score: inf
ROOT
ATOM      1  C   UNL     1      29.780 -10.543  43.173  1.00  0.00     0.180 A 
ATOM      2  C   UNL     1      30.954 -10.450  43.939  1.00  0.00     0.208 A 
ATOM      3  C   UNL     1      31.942 -11.437  43.794  1.00  0.00     0.238 A 
ATOM      4  O   UNL     1      33.014 -11.320  44.442  1.00  0.00    -0.285 OA
ATOM      5  C   UNL     1      31.737 -12.512  42.896  1.00  0.00     0.111 A 
ATOM      6  C   UNL     1      32.652 -13.589  42.698  1.00  0.00     0.134 A 
ATOM      7  C   UNL     1      32.407 -14.529  41.688  1.00  0.00     0.093 A 
ATOM      8  C   UNL     1      31.245 -14.467  40.915  1.00  0.00     0.123 A 
ATOM      9  C   UNL     1      30.317 -13.453  41.141  1.00  0.00     0.094 A 
ATOM     10  C   UNL     1      30.552 -12.481  42.115  1.00  0.00     0.146 A 
ATOM     11  O   UNL     1      29.646 -11.527  42.290  1.00  0.00    -0.452 OA
ENDROOT
BRANCH   1  12
ATOM     12  C   UNL     1      28.682  -9.555  43.289  1.00  0.00     0.025 A 
ATOM     13  C   UNL     1      27.408  -9.930  43.744  1.00  0.00     0.016 A 
ATOM     14  C   UNL     1      26.382  -8.986  43.823  1.00  0.00     0.051 A 
ATOM     15  C   UNL     1      26.601  -7.658  43.439  1.00  0.00     0.157 A 
ATOM     16  C   UNL     1      28.898  -8.230  42.883  1.00  0.00     0.062 A 
ATOM     17  C   UNL     1      27.876  -7.276  42.959  1.00  0.00     0.158 A 
BRANCH  15  18
ATOM     18  O   UNL     1      25.534  -6.764  43.547  1.00  0.00    -0.504 OA
ATOM     19  H   UNL     1      25.564  -5.807  43.223  1.00  0.00     0.293 HD
ENDBRANCH  15  18
BRANCH  17  20
ATOM     20  O   UNL     1      28.166  -5.973  42.548  1.00  0.00    -0.504 OA
ATOM     21  H   UNL     1      27.546  -5.188  42.680  1.00  0.00     0.293 HD
ENDBRANCH  17  20
ENDBRANCH   1  12
BRANCH   2  22
ATOM     22  O   UNL     1      31.145  -9.369  44.804  1.00  0.00    -0.502 OA
ATOM     23  H   UNL     1      31.744  -9.424  45.620  1.00  0.00     0.293 HD
ENDBRANCH   2  22
BRANCH   6  24
ATOM     24  O   UNL     1      33.795 -13.795  43.477  1.00  0.00    -0.507 OA
ATOM     25  H   UNL     1      33.842 -14.407  44.278  1.00  0.00     0.293 HD
ENDBRANCH   6  24
BRANCH   8  26
ATOM     26  O   UNL     1      31.000 -15.415  39.925  1.00  0.00    -0.508 OA
ATOM     27  H   UNL     1      30.687 -15.146  38.998  1.00  0.00     0.293 HD
ENDBRANCH   8  26
TORSDOF 6
ENDMDL
MODEL 3
REMARK VINA RESULT:    -6.745      1.673      3.273
REMARK INTER + INTRA:          -8.422
REMARK INTER:                  -8.090
REMARK INTRA:                  -0.332
REMARK UNBOUND:                -0.297
REMARK SMILES O=c1c(O)c(-c2ccc(O)c(O)c2)oc2cc(O)cc(O)c12
REMARK SMILES IDX 5 1 3 2 2 3 1 4 22 5 20 6 19 7 17 8 16 9 15 10 14 11 6 12
REMARK SMILES IDX 7 13 8 14 9 15 13 16 11 17 10 18 12 20 4 22 21 24 18 26
REMARK H PARENT 10 19 12 21 4 23 21 25 18 27
REMARK Flexibility Score: inf
ROOT
ATOM      1  C   UNL     1      27.761  -7.787  43.502  1.00  0.00     0.180 A 
ATOM      2  C   UNL     1      27.185  -7.230  42.348  1.00  0.00     0.208 A 
ATOM      3  C   UNL     1      26.549  -5.981  42.438  1.00  0.00     0.238 A 
ATOM      4  O   UNL     1      26.083  -5.463  41.391  1.00  0.00    -0.285 OA
ATOM      5  C   UNL     1      26.483  -5.314  43.685  1.00  0.00     0.111 A 
ATOM      6  C   UNL     1      25.829  -4.064  43.902  1.00  0.00     0.134 A 
ATOM      7  C   UNL     1      25.939  -3.432  45.147  1.00  0.00     0.093 A 
ATOM      8  C   UNL     1      26.624  -4.038  46.202  1.00  0.00     0.123 A 
ATOM      9  C   UNL     1      27.216  -5.286  46.019  1.00  0.00     0.094 A 
ATOM     10  C   UNL     1      27.154  -5.923  44.778  1.00  0.00     0.146 A 
ATOM     11  O   UNL     1      27.740  -7.106  44.643  1.00  0.00    -0.452 OA
ENDROOT
BRANCH   1  12
ATOM     12  C   UNL     1      28.426  -9.111  43.492  1.00  0.00     0.025 A 
ATOM     13  C   UNL     1      27.696 -10.297  43.669  1.00  0.00     0.016 A 
ATOM     14  C   UNL     1      28.347 -11.532  43.678  1.00  0.00     0.051 A 
ATOM     15  C   UNL     1      29.737 -11.607  43.525  1.00  0.00     0.157 A 
ATOM     16  C   UNL     1      29.821  -9.183  43.360  1.00  0.00     0.062 A 
ATOM     17  C   UNL     1      30.484 -10.416  43.368  1.00  0.00     0.158 A 
BRANCH  15  18
ATOM     18  O   UNL     1      30.326 -12.873  43.540  1.00  0.00    -0.504 OA
ATOM     19  H   UNL     1      30.725 -13.320  42.726  1.00  0.00     0.293 HD
ENDBRANCH  15  18
BRANCH  17  20
ATOM     20  O   UNL     1      31.872 -10.413  43.221  1.00  0.00    -0.504 OA
ATOM     21  H   UNL     1      32.522 -10.551  43.981  1.00  0.00     0.293 HD
ENDBRANCH  17  20
ENDBRANCH   1  12
BRANCH   2  22
ATOM     22  O   UNL     1      27.280  -7.896  41.123  1.00  0.00    -0.502 OA
ATOM     23  H   UNL     1      26.474  -8.291  40.654  1.00  0.00     0.293 HD
ENDBRANCH   2  22
BRANCH   6  24
ATOM     24  O   UNL     1      25.043  -3.418  42.942  1.00  0.00    -0.507 OA
ATOM     25  H   UNL     1      24.608  -2.516  43.068  1.00  0.00     0.293 HD
ENDBRANCH   6  24
BRANCH   8  26
ATOM     26  O   UNL     1      26.715  -3.411  47.443  1.00  0.00    -0.508 OA
ATOM     27  H   UNL     1      26.333  -3.835  48.281  1.00  0.00     0.293 HD
ENDBRANCH   8  26
TORSDOF 6
ENDMDL
MODEL 4
REMARK VINA RESULT:    -6.699      1.793      2.798
REMARK INTER + INTRA:          -8.366
REMARK INTER:                  -8.032
REMARK INTRA:                  -0.334
REMARK UNBOUND:                -0.297
REMARK SMILES O=c1c(O)c(-c2ccc(O)c(O)c2)oc2cc(O)cc(O)c12
REMARK SMILES IDX 5 1 3 2 2 3 1 4 22 5 20 6 19 7 17 8 16 9 15 10 14 11 6 12
REMARK SMILES IDX 7 13 8 14 9 15 13 16 11 17 10 18 12 20 4 22 21 24 18 26
REMARK H PARENT 10 19 12 21 4 23 21 25 18 27
REMARK Flexibility Score: inf
ROOT
ATOM      1  C   UNL     1      29.403 -10.073  43.760  1.00  0.00     0.180 A 
ATOM      2  C   UNL     1      28.950 -10.022  45.089  1.00  0.00     0.208 A 
ATOM      3  C   UNL     1      28.047  -9.014  45.463  1.00  0.00     0.238 A 
ATOM      4  O   UNL     1      27.603  -9.005  46.640  1.00  0.00    -0.285 OA
ATOM      5  C   UNL     1      27.621  -8.061  44.507  1.00  0.00     0.111 A 
ATOM      6  C   UNL     1      26.739  -6.973  44.783  1.00  0.00     0.134 A 
ATOM      7  C   UNL     1      26.281  -6.169  43.732  1.00  0.00     0.093 A 
ATOM      8  C   UNL     1      26.725  -6.374  42.424  1.00  0.00     0.123 A 
ATOM      9  C   UNL     1      27.631  -7.396  42.153  1.00  0.00     0.094 A 
ATOM     10  C   UNL     1      28.078  -8.237  43.174  1.00  0.00     0.146 A 
ATOM     11  O   UNL     1      28.933  -9.205  42.870  1.00  0.00    -0.452 OA
ENDROOT
BRANCH   1  12
ATOM     12  C   UNL     1      30.375 -11.090  43.296  1.00  0.00     0.025 A 
ATOM     13  C   UNL     1      31.759 -10.872  43.386  1.00  0.00     0.016 A 
ATOM     14  C   UNL     1      32.656 -11.836  42.922  1.00  0.00     0.051 A 
ATOM     15  C   UNL     1      32.193 -13.026  42.348  1.00  0.00     0.157 A 
ATOM     16  C   UNL     1      29.908 -12.272  42.702  1.00  0.00     0.062 A 
ATOM     17  C   UNL     1      30.800 -13.245  42.233  1.00  0.00     0.158 A 
BRANCH  15  18
ATOM     18  O   UNL     1      33.142 -13.950  41.907  1.00  0.00    -0.504 OA
ATOM     19  H   UNL     1      34.079 -13.703  41.620  1.00  0.00     0.293 HD
ENDBRANCH  15  18
BRANCH  17  20
ATOM     20  O   UNL     1      30.264 -14.402  41.663  1.00  0.00    -0.504 OA
ATOM     21  H   UNL     1      30.229 -14.579  40.671  1.00  0.00     0.293 HD
ENDBRANCH  17  20
ENDBRANCH   1  12
BRANCH   2  22
ATOM     22  O   UNL     1      29.367 -10.985  46.011  1.00  0.00    -0.502 OA
ATOM     23  H   UNL     1      28.725 -11.639  46.443  1.00  0.00     0.293 HD
ENDBRANCH   2  22
BRANCH   6  24
ATOM     24  O   UNL     1      26.308  -6.625  46.068  1.00  0.00    -0.507 OA
ATOM     25  H   UNL     1      26.748  -6.929  46.924  1.00  0.00     0.293 HD
ENDBRANCH   6  24
BRANCH   8  26
ATOM     26  O   UNL     1      26.277  -5.559  41.386  1.00  0.00    -0.508 OA
ATOM     27  H   UNL     1      25.436  -5.778  40.865  1.00  0.00     0.293 HD
ENDBRANCH   8  26
TORSDOF 6
ENDMDL
MODEL 5
REMARK VINA RESULT:    -6.521      0.892      1.621
REMARK INTER + INTRA:          -8.153
REMARK INTER:                  -7.837
REMARK INTRA:                  -0.316
REMARK UNBOUND:                -0.297
REMARK SMILES O=c1c(O)c(-c2ccc(O)c(O)c2)oc2cc(O)cc(O)c12
REMARK SMILES IDX 5 1 3 2 2 3 1 4 22 5 20 6 19 7 17 8 16 9 15 10 14 11 6 12
REMARK SMILES IDX 7 13 8 14 9 15 13 16 11 17 10 18 12 20 4 22 21 24 18 26
REMARK H PARENT 10 19 12 21 4 23 21 25 18 27
REMARK Flexibility Score: inf
ROOT
ATOM      1  C   UNL     1      27.550  -8.601  43.811  1.00  0.00     0.180 A 
ATOM      2  C   UNL     1      27.347  -7.676  44.849  1.00  0.00     0.208 A 
ATOM      3  C   UNL     1      26.490  -6.584  44.631  1.00  0.00     0.238 A 
ATOM      4  O   UNL     1      26.270  -5.789  45.581  1.00  0.00    -0.285 OA
ATOM      5  C   UNL     1      25.861  -6.424  43.373  1.00  0.00     0.111 A 
ATOM      6  C   UNL     1      25.005  -5.336  43.028  1.00  0.00     0.134 A 
ATOM      7  C   UNL     1      24.332  -5.347  41.800  1.00  0.00     0.093 A 
ATOM      8  C   UNL     1      24.535  -6.376  40.878  1.00  0.00     0.123 A 
ATOM      9  C   UNL     1      25.415  -7.413  41.181  1.00  0.00     0.094 A 
ATOM     10  C   UNL     1      26.072  -7.448  42.413  1.00  0.00     0.146 A 
ATOM     11  O   UNL     1      26.892  -8.460  42.665  1.00  0.00    -0.452 OA
ENDROOT
BRANCH   1  12
ATOM     12  C   UNL     1      28.457  -9.763  43.957  1.00  0.00     0.025 A 
ATOM     13  C   UNL     1      29.846  -9.629  43.798  1.00  0.00     0.016 A 
ATOM     14  C   UNL     1      30.680 -10.743  43.916  1.00  0.00     0.051 A 
ATOM     15  C   UNL     1      30.146 -12.009  44.182  1.00  0.00     0.157 A 
ATOM     16  C   UNL     1      27.919 -11.035  44.201  1.00  0.00     0.062 A 
ATOM     17  C   UNL     1      28.746 -12.158  44.322  1.00  0.00     0.158 A 
BRANCH  15  18
ATOM     18  O   UNL     1      31.036 -13.080  44.293  1.00  0.00    -0.504 OA
ATOM     19  H   UNL     1      31.615 -13.252  45.103  1.00  0.00     0.293 HD
ENDBRANCH  15  18
BRANCH  17  20
ATOM     20  O   UNL     1      28.142 -13.391  44.578  1.00  0.00    -0.504 OA
ATOM     21  H   UNL     1      28.058 -14.131  43.897  1.00  0.00     0.293 HD
ENDBRANCH  17  20
ENDBRANCH   1  12
BRANCH   2  22
ATOM     22  O   UNL     1      27.962  -7.865  46.089  1.00  0.00    -0.502 OA
ATOM     23  H   UNL     1      28.291  -7.093  46.657  1.00  0.00     0.293 HD
ENDBRANCH   2  22
BRANCH   6  24
ATOM     24  O   UNL     1      24.804  -4.213  43.838  1.00  0.00    -0.507 OA
ATOM     25  H   UNL     1      24.130  -3.485  43.655  1.00  0.00     0.293 HD
ENDBRANCH   6  24
BRANCH   8  26
ATOM     26  O   UNL     1      23.875  -6.372  39.651  1.00  0.00    -0.508 OA
ATOM     27  H   UNL     1      23.607  -5.507  39.196  1.00  0.00     0.293 HD
ENDBRANCH   8  26
TORSDOF 6
ENDMDL
MODEL 6
REMARK VINA RESULT:    -6.515      1.791      6.910
REMARK INTER + INTRA:          -8.145
REMARK INTER:                  -7.822
REMARK INTRA:                  -0.323
REMARK UNBOUND:                -0.297
REMARK SMILES O=c1c(O)c(-c2ccc(O)c(O)c2)oc2cc(O)cc(O)c12
REMARK SMILES IDX 5 1 3 2 2 3 1 4 22 5 20 6 19 7 17 8 16 9 15 10 14 11 6 12
REMARK SMILES IDX 7 13 8 14 9 15 13 16 11 17 10 18 12 20 4 22 21 24 18 26
REMARK H PARENT 10 19 12 21 4 23 21 25 18 27
REMARK Flexibility Score: inf
ROOT
ATOM      1  C   UNL     1      28.303  -9.033  43.748  1.00  0.00     0.180 A 
ATOM      2  C   UNL     1      27.958  -9.689  44.942  1.00  0.00     0.208 A 
ATOM      3  C   UNL     1      28.691 -10.822  45.332  1.00  0.00     0.238 A 
ATOM      4  O   UNL     1      28.414 -11.373  46.429  1.00  0.00    -0.285 OA
ATOM      5  C   UNL     1      29.748 -11.293  44.516  1.00  0.00     0.111 A 
ATOM      6  C   UNL     1      30.531 -12.453  44.794  1.00  0.00     0.134 A 
ATOM      7  C   UNL     1      31.636 -12.751  43.986  1.00  0.00     0.093 A 
ATOM      8  C   UNL     1      31.945 -11.967  42.872  1.00  0.00     0.123 A 
ATOM      9  C   UNL     1      31.151 -10.866  42.559  1.00  0.00     0.094 A 
ATOM     10  C   UNL     1      30.065 -10.523  43.367  1.00  0.00     0.146 A 
ATOM     11  O   UNL     1      29.342  -9.460  43.038  1.00  0.00    -0.452 OA
ENDROOT
BRANCH   1  12
ATOM     12  C   UNL     1      27.562  -7.848  43.257  1.00  0.00     0.025 A 
ATOM     13  C   UNL     1      26.504  -7.976  42.342  1.00  0.00     0.016 A 
ATOM     14  C   UNL     1      25.835  -6.843  41.875  1.00  0.00     0.051 A 
ATOM     15  C   UNL     1      26.214  -5.564  42.300  1.00  0.00     0.157 A 
ATOM     16  C   UNL     1      27.957  -6.567  43.667  1.00  0.00     0.062 A 
ATOM     17  C   UNL     1      27.292  -5.424  43.205  1.00  0.00     0.158 A 
BRANCH  15  18
ATOM     18  O   UNL     1      25.501  -4.473  41.798  1.00  0.00    -0.504 OA
ATOM     19  H   UNL     1      24.660  -4.106  42.221  1.00  0.00     0.293 HD
ENDBRANCH  15  18
BRANCH  17  20
ATOM     20  O   UNL     1      27.732  -4.181  43.665  1.00  0.00    -0.504 OA
ATOM     21  H   UNL     1      28.061  -4.009  44.603  1.00  0.00     0.293 HD
ENDBRANCH  17  20
ENDBRANCH   1  12
BRANCH   2  22
ATOM     22  O   UNL     1      26.926  -9.195  45.743  1.00  0.00    -0.502 OA
ATOM     23  H   UNL     1      26.583  -8.245  45.664  1.00  0.00     0.293 HD
ENDBRANCH   2  22
BRANCH   6  24
ATOM     24  O   UNL     1      30.252 -13.355  45.826  1.00  0.00    -0.507 OA
ATOM     25  H   UNL     1      29.843 -14.268  45.697  1.00  0.00     0.293 HD
ENDBRANCH   6  24
BRANCH   8  26
ATOM     26  O   UNL     1      33.036 -12.280  42.064  1.00  0.00    -0.508 OA
ATOM     27  H   UNL     1      33.784 -12.880  42.392  1.00  0.00     0.293 HD
ENDBRANCH   8  26
TORSDOF 6
ENDMDL
MODEL 7
REMARK VINA RESULT:    -6.510      1.588      6.936
REMARK INTER + INTRA:          -8.139
REMARK INTER:                  -7.855
REMARK INTRA:                  -0.284
REMARK UNBOUND:                -0.297
REMARK SMILES O=c1c(O)c(-c2ccc(O)c(O)c2)oc2cc(O)cc(O)c12
REMARK SMILES IDX 5 1 3 2 2 3 1 4 22 5 20 6 19 7 17 8 16 9 15 10 14 11 6 12
REMARK SMILES IDX 7 13 8 14 9 15 13 16 11 17 10 18 12 20 4 22 21 24 18 26
REMARK H PARENT 10 19 12 21 4 23 21 25 18 27
REMARK Flexibility Score: inf
ROOT
ATOM      1  C   UNL     1      27.840  -8.684  43.608  1.00  0.00     0.180 A 
ATOM      2  C   UNL     1      27.303  -9.516  44.605  1.00  0.00     0.208 A 
ATOM      3  C   UNL     1      28.027 -10.649  45.011  1.00  0.00     0.238 A 
ATOM      4  O   UNL     1      27.567 -11.359  45.941  1.00  0.00    -0.285 OA
ATOM      5  C   UNL     1      29.271 -10.944  44.402  1.00  0.00     0.111 A 
ATOM      6  C   UNL     1      30.071 -12.086  44.707  1.00  0.00     0.134 A 
ATOM      7  C   UNL     1      31.345 -12.209  44.138  1.00  0.00     0.093 A 
ATOM      8  C   UNL     1      31.821 -11.264  43.227  1.00  0.00     0.123 A 
ATOM      9  C   UNL     1      31.023 -10.176  42.878  1.00  0.00     0.094 A 
ATOM     10  C   UNL     1      29.763 -10.008  43.456  1.00  0.00     0.146 A 
ATOM     11  O   UNL     1      29.041  -8.952  43.104  1.00  0.00    -0.452 OA
ENDROOT
BRANCH   1  12
ATOM     12  C   UNL     1      27.125  -7.487  43.110  1.00  0.00     0.025 A 
ATOM     13  C   UNL     1      27.106  -6.290  43.844  1.00  0.00     0.016 A 
ATOM     14  C   UNL     1      26.406  -5.181  43.366  1.00  0.00     0.051 A 
ATOM     15  C   UNL     1      25.703  -5.246  42.157  1.00  0.00     0.157 A 
ATOM     16  C   UNL     1      26.404  -7.561  41.909  1.00  0.00     0.062 A 
ATOM     17  C   UNL     1      25.699  -6.455  41.420  1.00  0.00     0.158 A 
BRANCH  15  18
ATOM     18  O   UNL     1      25.027  -4.100  41.733  1.00  0.00    -0.504 OA
ATOM     19  H   UNL     1      24.446  -3.533  42.334  1.00  0.00     0.293 HD
ENDBRANCH  15  18
BRANCH  17  20
ATOM     20  O   UNL     1      25.013  -6.598  40.213  1.00  0.00    -0.504 OA
ATOM     21  H   UNL     1      25.357  -6.265  39.324  1.00  0.00     0.293 HD
ENDBRANCH  17  20
ENDBRANCH   1  12
BRANCH   2  22
ATOM     22  O   UNL     1      26.084  -9.194  45.207  1.00  0.00    -0.502 OA
ATOM     23  H   UNL     1      25.646  -8.287  45.099  1.00  0.00     0.293 HD
ENDBRANCH   2  22
BRANCH   6  24
ATOM     24  O   UNL     1      29.653 -13.135  45.533  1.00  0.00    -0.507 OA
ATOM     25  H   UNL     1      29.787 -13.168  46.532  1.00  0.00     0.293 HD
ENDBRANCH   6  24
BRANCH   8  26
ATOM     26  O   UNL     1      33.083 -11.402  42.653  1.00  0.00    -0.508 OA
ATOM     27  H   UNL     1      33.791 -10.682  42.749  1.00  0.00     0.293 HD
ENDBRANCH   8  26
TORSDOF 6
ENDMDL
MODEL 8
REMARK VINA RESULT:    -6.408      1.562      7.027
REMARK INTER + INTRA:          -8.016
REMARK INTER:                  -7.813
REMARK INTRA:                  -0.203
REMARK UNBOUND:                -0.297
REMARK SMILES O=c1c(O)c(-c2ccc(O)c(O)c2)oc2cc(O)cc(O)c12
REMARK SMILES IDX 5 1 3 2 2 3 1 4 22 5 20 6 19 7 17 8 16 9 15 10 14 11 6 12
REMARK SMILES IDX 7 13 8 14 9 15 13 16 11 17 10 18 12 20 4 22 21 24 18 26
REMARK H PARENT 10 19 12 21 4 23 21 25 18 27
REMARK Flexibility Score: inf
ROOT
ATOM      1  C   UNL     1      27.203  -8.269  43.592  1.00  0.00     0.180 A 
ATOM      2  C   UNL     1      26.406  -9.368  43.955  1.00  0.00     0.208 A 
ATOM      3  C   UNL     1      27.014 -10.622  44.132  1.00  0.00     0.238 A 
ATOM      4  O   UNL     1      26.305 -11.590  44.510  1.00  0.00    -0.285 OA
ATOM      5  C   UNL     1      28.407 -10.764  43.926  1.00  0.00     0.111 A 
ATOM      6  C   UNL     1      29.122 -11.994  44.038  1.00  0.00     0.134 A 
ATOM      7  C   UNL     1      30.519 -11.993  43.942  1.00  0.00     0.093 A 
ATOM      8  C   UNL     1      31.221 -10.816  43.673  1.00  0.00     0.123 A 
ATOM      9  C   UNL     1      30.528  -9.620  43.503  1.00  0.00     0.094 A 
ATOM     10  C   UNL     1      29.137  -9.583  43.629  1.00  0.00     0.146 A 
ATOM     11  O   UNL     1      28.517  -8.421  43.471  1.00  0.00    -0.452 OA
ENDROOT
BRANCH   1  12
ATOM     12  C   UNL     1      26.631  -6.922  43.363  1.00  0.00     0.025 A 
ATOM     13  C   UNL     1      26.874  -5.865  44.254  1.00  0.00     0.016 A 
ATOM     14  C   UNL     1      26.306  -4.609  44.030  1.00  0.00     0.051 A 
ATOM     15  C   UNL     1      25.477  -4.387  42.925  1.00  0.00     0.157 A 
ATOM     16  C   UNL     1      25.784  -6.708  42.266  1.00  0.00     0.062 A 
ATOM     17  C   UNL     1      25.209  -5.452  42.032  1.00  0.00     0.158 A 
BRANCH  15  18
ATOM     18  O   UNL     1      24.944  -3.107  42.756  1.00  0.00    -0.504 OA
ATOM     19  H   UNL     1      24.548  -2.770  41.890  1.00  0.00     0.293 HD
ENDBRANCH  15  18
BRANCH  17  20
ATOM     20  O   UNL     1      24.384  -5.308  40.915  1.00  0.00    -0.504 OA
ATOM     21  H   UNL     1      23.423  -5.615  40.878  1.00  0.00     0.293 HD
ENDBRANCH  17  20
ENDBRANCH   1  12
BRANCH   2  22
ATOM     22  O   UNL     1      25.036  -9.201  44.174  1.00  0.00    -0.502 OA
ATOM     23  H   UNL     1      24.346  -9.360  43.449  1.00  0.00     0.293 HD
ENDBRANCH   2  22
BRANCH   6  24
ATOM     24  O   UNL     1      28.510 -13.239  44.214  1.00  0.00    -0.507 OA
ATOM     25  H   UNL     1      28.524 -13.988  43.538  1.00  0.00     0.293 HD
ENDBRANCH   6  24
BRANCH   8  26
ATOM     26  O   UNL     1      32.610 -10.827  43.562  1.00  0.00    -0.508 OA
ATOM     27  H   UNL     1      33.158 -11.636  43.833  1.00  0.00     0.293 HD
ENDBRANCH   8  26
TORSDOF 6
ENDMDL
MODEL 9
REMARK VINA RESULT:    -6.258      1.906      3.630
REMARK INTER + INTRA:          -7.836
REMARK INTER:                  -7.525
REMARK INTRA:                  -0.311
REMARK UNBOUND:                -0.297
REMARK SMILES O=c1c(O)c(-c2ccc(O)c(O)c2)oc2cc(O)cc(O)c12
REMARK SMILES IDX 5 1 3 2 2 3 1 4 22 5 20 6 19 7 17 8 16 9 15 10 14 11 6 12
REMARK SMILES IDX 7 13 8 14 9 15 13 16 11 17 10 18 12 20 4 22 21 24 18 26
REMARK H PARENT 10 19 12 21 4 23 21 25 18 27
REMARK Flexibility Score: inf
ROOT
ATOM      1  C   UNL     1      27.717  -7.742  43.726  1.00  0.00     0.180 A 
ATOM      2  C   UNL     1      27.216  -7.175  42.541  1.00  0.00     0.208 A 
ATOM      3  C   UNL     1      26.558  -5.936  42.604  1.00  0.00     0.238 A 
ATOM      4  O   UNL     1      26.160  -5.407  41.534  1.00  0.00    -0.285 OA
ATOM      5  C   UNL     1      26.394  -5.289  43.853  1.00  0.00     0.111 A 
ATOM      6  C   UNL     1      25.708  -4.051  44.040  1.00  0.00     0.134 A 
ATOM      7  C   UNL     1      25.721  -3.437  45.299  1.00  0.00     0.093 A 
ATOM      8  C   UNL     1      26.338  -4.050  46.392  1.00  0.00     0.123 A 
ATOM      9  C   UNL     1      26.958  -5.286  46.233  1.00  0.00     0.094 A 
ATOM     10  C   UNL     1      26.994  -5.905  44.981  1.00  0.00     0.146 A 
ATOM     11  O   UNL     1      27.605  -7.078  44.872  1.00  0.00    -0.452 OA
ENDROOT
BRANCH   1  12
ATOM     12  C   UNL     1      28.400  -9.056  43.744  1.00  0.00     0.025 A 
ATOM     13  C   UNL     1      29.766  -9.173  43.439  1.00  0.00     0.016 A 
ATOM     14  C   UNL     1      30.383 -10.425  43.440  1.00  0.00     0.051 A 
ATOM     15  C   UNL     1      29.652 -11.582  43.731  1.00  0.00     0.157 A 
ATOM     16  C   UNL     1      27.660 -10.216  44.014  1.00  0.00     0.062 A 
ATOM     17  C   UNL     1      28.270 -11.477  44.018  1.00  0.00     0.158 A 
BRANCH  15  18
ATOM     18  O   UNL     1      30.330 -12.803  43.719  1.00  0.00    -0.504 OA
ATOM     19  H   UNL     1      29.931 -13.668  43.382  1.00  0.00     0.293 HD
ENDBRANCH  15  18
BRANCH  17  20
ATOM     20  O   UNL     1      27.475 -12.587  44.307  1.00  0.00    -0.504 OA
ATOM     21  H   UNL     1      27.744 -13.327  44.939  1.00  0.00     0.293 HD
ENDBRANCH  17  20
ENDBRANCH   1  12
BRANCH   2  22
ATOM     22  O   UNL     1      27.408  -7.820  41.317  1.00  0.00    -0.502 OA
ATOM     23  H   UNL     1      28.258  -8.326  41.096  1.00  0.00     0.293 HD
ENDBRANCH   2  22
BRANCH   6  24
ATOM     24  O   UNL     1      24.983  -3.401  43.036  1.00  0.00    -0.507 OA
ATOM     25  H   UNL     1      25.004  -3.650  42.058  1.00  0.00     0.293 HD
ENDBRANCH   6  24
BRANCH   8  26
ATOM     26  O   UNL     1      26.331  -3.441  47.645  1.00  0.00    -0.508 OA
ATOM     27  H   UNL     1      25.591  -3.615  48.315  1.00  0.00     0.293 HD
ENDBRANCH   8  26
TORSDOF 6
ENDMDL
