MODEL 1
REMARK VINA RESULT:     0.227      0.000      0.000
REMARK INTER + INTRA:          -0.631
REMARK INTER:                   0.492
REMARK INTRA:                  -1.123
REMARK UNBOUND:                -1.123
REMARK SMILES CCCCCCCCCCCCCCCCCCCCCC(=O)[O-]
REMARK SMILES IDX 12 1 11 2 10 3 9 4 8 5 7 6 6 7 5 8 4 9 3 10 2 11 1 12 13 13
REMARK SMILES IDX 14 14 15 15 16 16 17 17 18 18 19 19 20 20 21 21 22 22 23 23
REMARK SMILES IDX 24 24
REMARK H PARENT
REMARK Flexibility Score: inf
ROOT
ATOM      1  C   UNL     1      33.096  34.746   1.812  1.00  0.00     0.000 C 
ENDROOT
BRANCH   1   2
ATOM      2  C   UNL     1      34.508  35.295   1.551  1.00  0.00     0.000 C 
BRANCH   2   3
ATOM      3  C   UNL     1      34.526  36.417   0.500  1.00  0.00     0.000 C 
BRANCH   3   4
ATOM      4  C   UNL     1      35.116  37.706   1.090  1.00  0.00    -0.000 C 
BRANCH   4   5
ATOM      5  C   UNL     1      34.436  38.973   0.546  1.00  0.00    -0.000 C 
BRANCH   5   6
ATOM      6  C   UNL     1      33.553  38.693  -0.682  1.00  0.00    -0.000 C 
BRANCH   6   7
ATOM      7  C   UNL     1      34.290  38.997  -2.005  1.00  0.00    -0.000 C 
BRANCH   7   8
ATOM      8  C   UNL     1      33.350  39.125  -3.217  1.00  0.00    -0.000 C 
BRANCH   8   9
ATOM      9  C   UNL     1      33.510  37.972  -4.222  1.00  0.00    -0.000 C 
BRANCH   9  10
ATOM     10  C   UNL     1      32.455  36.864  -4.010  1.00  0.00    -0.000 C 
BRANCH  10  11
ATOM     11  C   UNL     1      32.220  36.509  -2.531  1.00  0.00    -0.003 C 
ATOM     12  C   UNL     1      32.279  35.007  -2.260  1.00  0.00     0.004 C 
ENDBRANCH  10  11
ENDBRANCH   9  10
ENDBRANCH   8   9
ENDBRANCH   7   8
ENDBRANCH   6   7
ENDBRANCH   5   6
ENDBRANCH   4   5
ENDBRANCH   3   4
ENDBRANCH   2   3
ENDBRANCH   1   2
BRANCH   1  13
ATOM     13  C   UNL     1      32.002  35.804   1.588  1.00  0.00     0.000 C 
BRANCH  13  14
ATOM     14  C   UNL     1      31.761  36.690   2.825  1.00  0.00     0.000 C 
BRANCH  14  15
ATOM     15  C   UNL     1      31.888  38.205   2.585  1.00  0.00     0.000 C 
BRANCH  15  16
ATOM     16  C   UNL     1      32.602  38.937   3.735  1.00  0.00     0.000 C 
BRANCH  16  17
ATOM     17  C   UNL     1      34.105  39.123   3.473  1.00  0.00     0.000 C 
BRANCH  17  18
ATOM     18  C   UNL     1      34.960  39.101   4.761  1.00  0.00     0.000 C 
BRANCH  18  19
ATOM     19  C   UNL     1      34.655  37.872   5.635  1.00  0.00     0.000 C 
BRANCH  19  20
ATOM     20  C   UNL     1      34.726  38.171   7.143  1.00  0.00     0.006 C 
BRANCH  20  21
ATOM     21  C   UNL     1      33.621  39.119   7.644  1.00  0.00     0.053 C 
BRANCH  21  22
ATOM     22  C   UNL     1      33.133  38.759   9.015  1.00  0.00     0.041 C 
ATOM     23  O   UNL     1      33.929  38.262   9.859  1.00  0.00    -0.550 OA
ATOM     24  O   UNL     1      31.815  39.009   9.374  1.00  0.00    -0.550 OA
ENDBRANCH  21  22
ENDBRANCH  20  21
ENDBRANCH  19  20
ENDBRANCH  18  19
ENDBRANCH  17  18
ENDBRANCH  16  17
ENDBRANCH  15  16
ENDBRANCH  14  15
ENDBRANCH  13  14
ENDBRANCH   1  13
TORSDOF 20
ENDMDL
