MODEL 1
REMARK VINA RESULT:    -6.042      0.000      0.000
REMARK INTER + INTRA:          -6.635
REMARK INTER:                  -6.572
REMARK INTRA:                  -0.064
REMARK UNBOUND:                -0.064
REMARK SMILES COc1cc2ccc(=O)oc2cc1O
REMARK SMILES IDX 3 1 13 2 12 3 11 4 5 5 4 6 6 7 7 8 8 9 9 10 10 11 2 12 1 13
REMARK SMILES IDX 14 14
REMARK H PARENT 14 15
REMARK Flexibility Score: inf
ROOT
ATOM      1  C   UNL     1     -35.994  16.208  50.784  1.00  0.00     0.161 A 
ATOM      2  C   UNL     1     -34.976  16.623  49.903  1.00  0.00     0.161 A 
ATOM      3  C   UNL     1     -33.637  16.337  50.191  1.00  0.00     0.098 A 
ATOM      4  C   UNL     1     -33.295  15.640  51.352  1.00  0.00     0.142 A 
ATOM      5  C   UNL     1     -34.307  15.221  52.240  1.00  0.00     0.022 A 
ATOM      6  C   UNL     1     -35.650  15.505  51.956  1.00  0.00     0.062 A 
ATOM      7  C   UNL     1     -33.935  14.525  53.394  1.00  0.00     0.019 A 
ATOM      8  C   UNL     1     -32.585  14.267  53.633  1.00  0.00     0.094 A 
ATOM      9  C   UNL     1     -31.636  14.714  52.708  1.00  0.00     0.336 A 
ATOM     10  O   UNL     1     -30.413  14.491  52.904  1.00  0.00    -0.246 OA
ATOM     11  O   UNL     1     -32.018  15.374  51.617  1.00  0.00    -0.423 OA
ENDROOT
BRANCH   1  12
ATOM     12  O   UNL     1     -37.329  16.510  50.464  1.00  0.00    -0.493 OA
ATOM     13  C   UNL     1     -38.288  15.558  50.014  1.00  0.00     0.278 C 
ENDBRANCH   1  12
BRANCH   2  14
ATOM     14  O   UNL     1     -35.277  17.320  48.733  1.00  0.00    -0.504 OA
ATOM     15  H   UNL     1     -35.084  16.942  47.814  1.00  0.00     0.293 HD
ENDBRANCH   2  14
TORSDOF 2
ENDMDL
MODEL 2
REMARK VINA RESULT:    -5.712      1.245      5.410
REMARK INTER + INTRA:          -6.277
REMARK INTER:                  -6.231
REMARK INTRA:                  -0.046
REMARK UNBOUND:                -0.064
REMARK SMILES COc1cc2ccc(=O)oc2cc1O
REMARK SMILES IDX 3 1 13 2 12 3 11 4 5 5 4 6 6 7 7 8 8 9 9 10 10 11 2 12 1 13
REMARK SMILES IDX 14 14
REMARK H PARENT 14 15
REMARK Flexibility Score: inf
ROOT
ATOM      1  C   UNL     1     -32.046  15.128  52.448  1.00  0.00     0.161 A 
ATOM      2  C   UNL     1     -33.020  14.655  53.349  1.00  0.00     0.161 A 
ATOM      3  C   UNL     1     -34.380  14.828  53.070  1.00  0.00     0.098 A 
ATOM      4  C   UNL     1     -34.787  15.471  51.899  1.00  0.00     0.142 A 
ATOM      5  C   UNL     1     -33.820  15.949  50.992  1.00  0.00     0.022 A 
ATOM      6  C   UNL     1     -32.456  15.778  51.266  1.00  0.00     0.062 A 
ATOM      7  C   UNL     1     -34.256  16.589  49.827  1.00  0.00     0.019 A 
ATOM      8  C   UNL     1     -35.624  16.735  49.598  1.00  0.00     0.094 A 
ATOM      9  C   UNL     1     -36.527  16.237  50.544  1.00  0.00     0.336 A 
ATOM     10  O   UNL     1     -37.765  16.358  50.356  1.00  0.00    -0.246 OA
ATOM     11  O   UNL     1     -36.083  15.631  51.643  1.00  0.00    -0.423 OA
ENDROOT
BRANCH   1  12
ATOM     12  O   UNL     1     -30.689  14.937  52.758  1.00  0.00    -0.493 OA
ATOM     13  C   UNL     1     -29.642  15.830  52.390  1.00  0.00     0.278 C 
ENDBRANCH   1  12
BRANCH   2  14
ATOM     14  O   UNL     1     -32.654  14.007  54.528  1.00  0.00    -0.504 OA
ATOM     15  H   UNL     1     -33.118  14.187  55.410  1.00  0.00     0.293 HD
ENDBRANCH   2  14
TORSDOF 2
ENDMDL
MODEL 3
REMARK VINA RESULT:    -5.650      7.278      8.496
REMARK INTER + INTRA:          -6.209
REMARK INTER:                  -6.170
REMARK INTRA:                  -0.039
REMARK UNBOUND:                -0.064
REMARK SMILES COc1cc2ccc(=O)oc2cc1O
REMARK SMILES IDX 3 1 13 2 12 3 11 4 5 5 4 6 6 7 7 8 8 9 9 10 10 11 2 12 1 13
REMARK SMILES IDX 14 14
REMARK H PARENT 14 15
REMARK Flexibility Score: inf
ROOT
ATOM      1  C   UNL     1     -26.927  16.532  54.257  1.00  0.00     0.161 A 
ATOM      2  C   UNL     1     -27.490  16.718  52.979  1.00  0.00     0.161 A 
ATOM      3  C   UNL     1     -27.461  15.681  52.040  1.00  0.00     0.098 A 
ATOM      4  C   UNL     1     -26.875  14.455  52.357  1.00  0.00     0.142 A 
ATOM      5  C   UNL     1     -26.309  14.258  53.633  1.00  0.00     0.022 A 
ATOM      6  C   UNL     1     -26.335  15.294  54.578  1.00  0.00     0.062 A 
ATOM      7  C   UNL     1     -25.730  13.019  53.923  1.00  0.00     0.019 A 
ATOM      8  C   UNL     1     -25.728  12.020  52.949  1.00  0.00     0.094 A 
ATOM      9  C   UNL     1     -26.307  12.286  51.704  1.00  0.00     0.336 A 
ATOM     10  O   UNL     1     -26.317  11.398  50.813  1.00  0.00    -0.246 OA
ATOM     11  O   UNL     1     -26.853  13.475  51.456  1.00  0.00    -0.423 OA
ENDROOT
BRANCH   1  12
ATOM     12  O   UNL     1     -26.974  17.594  55.177  1.00  0.00    -0.493 OA
ATOM     13  C   UNL     1     -26.001  18.630  55.265  1.00  0.00     0.278 C 
ENDBRANCH   1  12
BRANCH   2  14
ATOM     14  O   UNL     1     -28.084  17.929  52.624  1.00  0.00    -0.504 OA
ATOM     15  H   UNL     1     -29.031  17.982  52.269  1.00  0.00     0.293 HD
ENDBRANCH   2  14
TORSDOF 2
ENDMDL
MODEL 4
REMARK VINA RESULT:    -5.611      7.471      8.296
REMARK INTER + INTRA:          -6.167
REMARK INTER:                  -6.122
REMARK INTRA:                  -0.044
REMARK UNBOUND:                -0.064
REMARK SMILES COc1cc2ccc(=O)oc2cc1O
REMARK SMILES IDX 3 1 13 2 12 3 11 4 5 5 4 6 6 7 7 8 8 9 9 10 10 11 2 12 1 13
REMARK SMILES IDX 14 14
REMARK H PARENT 14 15
REMARK Flexibility Score: inf
ROOT
ATOM      1  C   UNL     1     -27.188  15.675  52.908  1.00  0.00     0.161 A 
ATOM      2  C   UNL     1     -27.555  16.913  53.470  1.00  0.00     0.161 A 
ATOM      3  C   UNL     1     -27.633  17.060  54.860  1.00  0.00     0.098 A 
ATOM      4  C   UNL     1     -27.350  15.984  55.702  1.00  0.00     0.142 A 
ATOM      5  C   UNL     1     -26.981  14.740  55.150  1.00  0.00     0.022 A 
ATOM      6  C   UNL     1     -26.901  14.587  53.759  1.00  0.00     0.062 A 
ATOM      7  C   UNL     1     -26.703  13.680  56.019  1.00  0.00     0.019 A 
ATOM      8  C   UNL     1     -26.796  13.882  57.396  1.00  0.00     0.094 A 
ATOM      9  C   UNL     1     -27.168  15.143  57.873  1.00  0.00     0.336 A 
ATOM     10  O   UNL     1     -27.258  15.345  59.111  1.00  0.00    -0.246 OA
ATOM     11  O   UNL     1     -27.428  16.134  57.023  1.00  0.00    -0.423 OA
ENDROOT
BRANCH   1  12
ATOM     12  O   UNL     1     -27.118  15.561  51.509  1.00  0.00    -0.493 OA
ATOM     13  C   UNL     1     -27.174  14.331  50.794  1.00  0.00     0.278 C 
ENDBRANCH   1  12
BRANCH   2  14
ATOM     14  O   UNL     1     -27.846  18.012  52.661  1.00  0.00    -0.504 OA
ATOM     15  H   UNL     1     -27.525  18.077  51.703  1.00  0.00     0.293 HD
ENDBRANCH   2  14
TORSDOF 2
ENDMDL
MODEL 5
REMARK VINA RESULT:    -5.608      1.734      5.321
REMARK INTER + INTRA:          -6.164
REMARK INTER:                  -6.114
REMARK INTRA:                  -0.050
REMARK UNBOUND:                -0.064
REMARK SMILES COc1cc2ccc(=O)oc2cc1O
REMARK SMILES IDX 3 1 13 2 12 3 11 4 5 5 4 6 6 7 7 8 8 9 9 10 10 11 2 12 1 13
REMARK SMILES IDX 14 14
REMARK H PARENT 14 15
REMARK Flexibility Score: inf
ROOT
ATOM      1  C   UNL     1     -31.816  13.615  54.459  1.00  0.00     0.161 A 
ATOM      2  C   UNL     1     -30.804  13.884  53.516  1.00  0.00     0.161 A 
ATOM      3  C   UNL     1     -31.085  14.653  52.381  1.00  0.00     0.098 A 
ATOM      4  C   UNL     1     -32.368  15.159  52.170  1.00  0.00     0.142 A 
ATOM      5  C   UNL     1     -33.388  14.895  53.107  1.00  0.00     0.022 A 
ATOM      6  C   UNL     1     -33.112  14.126  54.245  1.00  0.00     0.062 A 
ATOM      7  C   UNL     1     -34.664  15.416  52.868  1.00  0.00     0.019 A 
ATOM      8  C   UNL     1     -34.890  16.176  51.720  1.00  0.00     0.094 A 
ATOM      9  C   UNL     1     -33.830  16.397  50.835  1.00  0.00     0.336 A 
ATOM     10  O   UNL     1     -34.012  17.080  49.794  1.00  0.00    -0.246 OA
ATOM     11  O   UNL     1     -32.625  15.889  51.086  1.00  0.00    -0.423 OA
ENDROOT
BRANCH   1  12
ATOM     12  O   UNL     1     -31.500  12.840  55.588  1.00  0.00    -0.493 OA
ATOM     13  C   UNL     1     -32.306  11.780  56.092  1.00  0.00     0.278 C 
ENDBRANCH   1  12
BRANCH   2  14
ATOM     14  O   UNL     1     -29.509  13.396  53.693  1.00  0.00    -0.504 OA
ATOM     15  H   UNL     1     -28.736  13.693  53.111  1.00  0.00     0.293 HD
ENDBRANCH   2  14
TORSDOF 2
ENDMDL
MODEL 6
REMARK VINA RESULT:    -5.551      2.178      3.676
REMARK INTER + INTRA:          -6.101
REMARK INTER:                  -6.036
REMARK INTRA:                  -0.065
REMARK UNBOUND:                -0.064
REMARK SMILES COc1cc2ccc(=O)oc2cc1O
REMARK SMILES IDX 3 1 13 2 12 3 11 4 5 5 4 6 6 7 7 8 8 9 9 10 10 11 2 12 1 13
REMARK SMILES IDX 14 14
REMARK H PARENT 14 15
REMARK Flexibility Score: inf
ROOT
ATOM      1  C   UNL     1     -32.796  15.754  52.069  1.00  0.00     0.161 A 
ATOM      2  C   UNL     1     -31.391  15.708  51.961  1.00  0.00     0.161 A 
ATOM      3  C   UNL     1     -30.660  14.764  52.690  1.00  0.00     0.098 A 
ATOM      4  C   UNL     1     -31.311  13.859  53.531  1.00  0.00     0.142 A 
ATOM      5  C   UNL     1     -32.716  13.897  53.646  1.00  0.00     0.022 A 
ATOM      6  C   UNL     1     -33.454  14.841  52.918  1.00  0.00     0.062 A 
ATOM      7  C   UNL     1     -33.340  12.978  54.496  1.00  0.00     0.019 A 
ATOM      8  C   UNL     1     -32.563  12.058  55.199  1.00  0.00     0.094 A 
ATOM      9  C   UNL     1     -31.174  12.080  55.036  1.00  0.00     0.336 A 
ATOM     10  O   UNL     1     -30.455  11.258  55.661  1.00  0.00    -0.246 OA
ATOM     11  O   UNL     1     -30.606  12.965  54.220  1.00  0.00    -0.423 OA
ENDROOT
BRANCH   1  12
ATOM     12  O   UNL     1     -33.500  16.714  51.323  1.00  0.00    -0.493 OA
ATOM     13  C   UNL     1     -34.129  16.461  50.071  1.00  0.00     0.278 C 
ENDBRANCH   1  12
BRANCH   2  14
ATOM     14  O   UNL     1     -30.705  16.594  51.132  1.00  0.00    -0.504 OA
ATOM     15  H   UNL     1     -30.641  17.585  51.334  1.00  0.00     0.293 HD
ENDBRANCH   2  14
TORSDOF 2
ENDMDL
MODEL 7
REMARK VINA RESULT:    -5.459      2.110      5.785
REMARK INTER + INTRA:          -6.002
REMARK INTER:                  -5.938
REMARK INTRA:                  -0.064
REMARK UNBOUND:                -0.064
REMARK SMILES COc1cc2ccc(=O)oc2cc1O
REMARK SMILES IDX 3 1 13 2 12 3 11 4 5 5 4 6 6 7 7 8 8 9 9 10 10 11 2 12 1 13
REMARK SMILES IDX 14 14
REMARK H PARENT 14 15
REMARK Flexibility Score: inf
ROOT
ATOM      1  C   UNL     1     -29.466  14.600  52.912  1.00  0.00     0.161 A 
ATOM      2  C   UNL     1     -29.416  15.540  51.864  1.00  0.00     0.161 A 
ATOM      3  C   UNL     1     -30.597  16.100  51.364  1.00  0.00     0.098 A 
ATOM      4  C   UNL     1     -31.835  15.734  51.896  1.00  0.00     0.142 A 
ATOM      5  C   UNL     1     -31.896  14.794  52.944  1.00  0.00     0.022 A 
ATOM      6  C   UNL     1     -30.716  14.230  53.449  1.00  0.00     0.062 A 
ATOM      7  C   UNL     1     -33.150  14.447  53.457  1.00  0.00     0.019 A 
ATOM      8  C   UNL     1     -34.295  15.035  52.922  1.00  0.00     0.094 A 
ATOM      9  C   UNL     1     -34.159  15.960  51.881  1.00  0.00     0.336 A 
ATOM     10  O   UNL     1     -35.179  16.503  51.384  1.00  0.00    -0.246 OA
ATOM     11  O   UNL     1     -32.953  16.272  51.412  1.00  0.00    -0.423 OA
ENDROOT
BRANCH   1  12
ATOM     12  O   UNL     1     -28.262  14.058  53.392  1.00  0.00    -0.493 OA
ATOM     13  C   UNL     1     -27.660  14.400  54.636  1.00  0.00     0.278 C 
ENDBRANCH   1  12
BRANCH   2  14
ATOM     14  O   UNL     1     -28.199  15.932  51.307  1.00  0.00    -0.504 OA
ATOM     15  H   UNL     1     -27.721  15.376  50.608  1.00  0.00     0.293 HD
ENDBRANCH   2  14
TORSDOF 2
ENDMDL
MODEL 8
REMARK VINA RESULT:    -5.450      7.495      8.574
REMARK INTER + INTRA:          -5.992
REMARK INTER:                  -5.929
REMARK INTRA:                  -0.063
REMARK UNBOUND:                -0.064
REMARK SMILES COc1cc2ccc(=O)oc2cc1O
REMARK SMILES IDX 3 1 13 2 12 3 11 4 5 5 4 6 6 7 7 8 8 9 9 10 10 11 2 12 1 13
REMARK SMILES IDX 14 14
REMARK H PARENT 14 15
REMARK Flexibility Score: inf
ROOT
ATOM      1  C   UNL     1     -26.769  15.703  55.292  1.00  0.00     0.161 A 
ATOM      2  C   UNL     1     -27.201  16.871  54.632  1.00  0.00     0.161 A 
ATOM      3  C   UNL     1     -27.396  16.864  53.246  1.00  0.00     0.098 A 
ATOM      4  C   UNL     1     -27.164  15.705  52.504  1.00  0.00     0.142 A 
ATOM      5  C   UNL     1     -26.731  14.532  53.155  1.00  0.00     0.022 A 
ATOM      6  C   UNL     1     -26.534  14.532  54.543  1.00  0.00     0.062 A 
ATOM      7  C   UNL     1     -26.507  13.386  52.385  1.00  0.00     0.019 A 
ATOM      8  C   UNL     1     -26.717  13.434  51.007  1.00  0.00     0.094 A 
ATOM      9  C   UNL     1     -27.147  14.634  50.429  1.00  0.00     0.336 A 
ATOM     10  O   UNL     1     -27.342  14.699  49.188  1.00  0.00    -0.246 OA
ATOM     11  O   UNL     1     -27.352  15.710  51.186  1.00  0.00    -0.423 OA
ENDROOT
BRANCH   1  12
ATOM     12  O   UNL     1     -26.583  15.744  56.684  1.00  0.00    -0.493 OA
ATOM     13  C   UNL     1     -27.561  15.347  57.641  1.00  0.00     0.278 C 
ENDBRANCH   1  12
BRANCH   2  14
ATOM     14  O   UNL     1     -27.443  18.048  55.339  1.00  0.00    -0.504 OA
ATOM     15  H   UNL     1     -26.870  18.336  56.122  1.00  0.00     0.293 HD
ENDBRANCH   2  14
TORSDOF 2
ENDMDL
MODEL 9
REMARK VINA RESULT:    -5.396      7.307      8.346
REMARK INTER + INTRA:          -5.933
REMARK INTER:                  -5.880
REMARK INTRA:                  -0.053
REMARK UNBOUND:                -0.064
REMARK SMILES COc1cc2ccc(=O)oc2cc1O
REMARK SMILES IDX 3 1 13 2 12 3 11 4 5 5 4 6 6 7 7 8 8 9 9 10 10 11 2 12 1 13
REMARK SMILES IDX 14 14
REMARK H PARENT 14 15
REMARK Flexibility Score: inf
ROOT
ATOM      1  C   UNL     1     -27.353  14.649  50.881  1.00  0.00     0.161 A 
ATOM      2  C   UNL     1     -27.247  15.360  52.093  1.00  0.00     0.161 A 
ATOM      3  C   UNL     1     -26.780  14.719  53.246  1.00  0.00     0.098 A 
ATOM      4  C   UNL     1     -26.416  13.372  53.209  1.00  0.00     0.142 A 
ATOM      5  C   UNL     1     -26.519  12.652  52.001  1.00  0.00     0.022 A 
ATOM      6  C   UNL     1     -26.986  13.288  50.843  1.00  0.00     0.062 A 
ATOM      7  C   UNL     1     -26.147  11.303  51.995  1.00  0.00     0.019 A 
ATOM      8  C   UNL     1     -25.688  10.714  53.173  1.00  0.00     0.094 A 
ATOM      9  C   UNL     1     -25.613  11.490  54.334  1.00  0.00     0.336 A 
ATOM     10  O   UNL     1     -25.201  10.978  55.407  1.00  0.00    -0.246 OA
ATOM     11  O   UNL     1     -25.973  12.772  54.312  1.00  0.00    -0.423 OA
ENDROOT
BRANCH   1  12
ATOM     12  O   UNL     1     -27.825  15.322  49.742  1.00  0.00    -0.493 OA
ATOM     13  C   UNL     1     -27.166  15.333  48.479  1.00  0.00     0.278 C 
ENDBRANCH   1  12
BRANCH   2  14
ATOM     14  O   UNL     1     -27.600  16.706  52.170  1.00  0.00    -0.504 OA
ATOM     15  H   UNL     1     -28.273  17.051  52.844  1.00  0.00     0.293 HD
ENDBRANCH   2  14
TORSDOF 2
ENDMDL
