MODEL 1
REMARK VINA RESULT:    -3.985      0.000      0.000
REMARK INTER + INTRA:         -14.503
REMARK INTER:                 -10.041
REMARK INTRA:                  -4.461
REMARK UNBOUND:                -4.461
REMARK SMILES CCCCCCCCCCCCCCCCCCCCCCCCCCCC(=O)[O-]
REMARK SMILES IDX 15 1 16 2 17 3 18 4 19 5 20 6 21 7 22 8 23 9 24 10 25 11
REMARK SMILES IDX 26 12 27 13 28 14 29 15 30 16 14 17 13 18 12 19 11 20 10 21
REMARK SMILES IDX 9 22 8 23 7 24 6 25 5 26 4 27 3 28 2 29 1 30
REMARK H PARENT
REMARK Flexibility Score: inf
ROOT
ATOM      1  C   UNL     1      14.011  16.533  17.422  1.00  0.00     0.000 C 
ENDROOT
BRANCH   1   2
ATOM      2  C   UNL     1      14.779  16.262  16.120  1.00  0.00     0.000 C 
BRANCH   2   3
ATOM      3  C   UNL     1      15.679  17.438  15.694  1.00  0.00     0.000 C 
BRANCH   3   4
ATOM      4  C   UNL     1      14.943  18.618  15.033  1.00  0.00     0.000 C 
BRANCH   4   5
ATOM      5  C   UNL     1      15.213  19.960  15.727  1.00  0.00     0.000 C 
BRANCH   5   6
ATOM      6  C   UNL     1      13.993  20.421  16.533  1.00  0.00     0.000 C 
BRANCH   6   7
ATOM      7  C   UNL     1      14.141  20.047  18.014  1.00  0.00     0.000 C 
BRANCH   7   8
ATOM      8  C   UNL     1      15.595  20.136  18.503  1.00  0.00     0.000 C 
BRANCH   8   9
ATOM      9  C   UNL     1      16.025  18.892  19.299  1.00  0.00     0.000 C 
BRANCH   9  10
ATOM     10  C   UNL     1      17.504  18.527  19.084  1.00  0.00     0.000 C 
BRANCH  10  11
ATOM     11  C   UNL     1      18.168  19.203  17.872  1.00  0.00     0.000 C 
BRANCH  11  12
ATOM     12  C   UNL     1      19.088  18.256  17.084  1.00  0.00     0.006 C 
BRANCH  12  13
ATOM     13  C   UNL     1      19.743  17.229  18.012  1.00  0.00     0.053 C 
BRANCH  13  14
ATOM     14  C   UNL     1      21.141  17.639  18.352  1.00  0.00     0.041 C 
ATOM     15  O   UNL     1      21.937  16.813  18.872  1.00  0.00    -0.550 OA
ATOM     16  O   UNL     1      21.565  18.939  18.100  1.00  0.00    -0.550 OA
ENDBRANCH  13  14
ENDBRANCH  12  13
ENDBRANCH  11  12
ENDBRANCH  10  11
ENDBRANCH   9  10
ENDBRANCH   8   9
ENDBRANCH   7   8
ENDBRANCH   6   7
ENDBRANCH   5   6
ENDBRANCH   4   5
ENDBRANCH   3   4
ENDBRANCH   2   3
ENDBRANCH   1   2
BRANCH   1  17
ATOM     17  C   UNL     1      12.877  15.518  17.619  1.00  0.00     0.000 C 
BRANCH  17  18
ATOM     18  C   UNL     1      11.615  15.956  16.865  1.00  0.00     0.000 C 
BRANCH  18  19
ATOM     19  C   UNL     1      11.426  17.483  16.847  1.00  0.00     0.000 C 
BRANCH  19  20
ATOM     20  C   UNL     1      11.342  18.118  15.444  1.00  0.00     0.000 C 
BRANCH  20  21
ATOM     21  C   UNL     1      11.390  17.122  14.271  1.00  0.00     0.000 C 
BRANCH  21  22
ATOM     22  C   UNL     1      10.616  17.615  13.036  1.00  0.00    -0.000 C 
BRANCH  22  23
ATOM     23  C   UNL     1      11.044  19.033  12.601  1.00  0.00    -0.000 C 
BRANCH  23  24
ATOM     24  C   UNL     1       9.883  19.913  12.111  1.00  0.00    -0.000 C 
BRANCH  24  25
ATOM     25  C   UNL     1       8.593  19.709  12.921  1.00  0.00    -0.000 C 
BRANCH  25  26
ATOM     26  C   UNL     1       7.335  19.598  12.039  1.00  0.00    -0.000 C 
BRANCH  26  27
ATOM     27  C   UNL     1       7.035  18.188  11.497  1.00  0.00    -0.000 C 
BRANCH  27  28
ATOM     28  C   UNL     1       7.334  18.043   9.994  1.00  0.00    -0.000 C 
BRANCH  28  29
ATOM     29  C   UNL     1       8.362  16.938   9.703  1.00  0.00    -0.003 C 
ATOM     30  C   UNL     1       8.373  15.848  10.775  1.00  0.00     0.004 C 
ENDBRANCH  28  29
ENDBRANCH  27  28
ENDBRANCH  26  27
ENDBRANCH  25  26
ENDBRANCH  24  25
ENDBRANCH  23  24
ENDBRANCH  22  23
ENDBRANCH  21  22
ENDBRANCH  20  21
ENDBRANCH  19  20
ENDBRANCH  18  19
ENDBRANCH  17  18
ENDBRANCH   1  17
TORSDOF 26
ENDMDL
MODEL 2
REMARK VINA RESULT:    -3.904      1.112      2.160
REMARK INTER + INTRA:         -14.298
REMARK INTER:                 -10.162
REMARK INTRA:                  -4.136
REMARK UNBOUND:                -4.461
REMARK SMILES CCCCCCCCCCCCCCCCCCCCCCCCCCCC(=O)[O-]
REMARK SMILES IDX 15 1 16 2 17 3 18 4 19 5 20 6 21 7 22 8 23 9 24 10 25 11
REMARK SMILES IDX 26 12 27 13 28 14 29 15 30 16 14 17 13 18 12 19 11 20 10 21
REMARK SMILES IDX 9 22 8 23 7 24 6 25 5 26 4 27 3 28 2 29 1 30
REMARK H PARENT
REMARK Flexibility Score: inf
ROOT
ATOM      1  C   UNL     1      16.097  16.846  16.097  1.00  0.00     0.000 C 
ENDROOT
BRANCH   1   2
ATOM      2  C   UNL     1      16.409  17.635  14.817  1.00  0.00     0.000 C 
BRANCH   2   3
ATOM      3  C   UNL     1      15.529  18.889  14.651  1.00  0.00     0.000 C 
BRANCH   3   4
ATOM      4  C   UNL     1      16.161  20.202  15.151  1.00  0.00     0.000 C 
BRANCH   4   5
ATOM      5  C   UNL     1      15.299  20.926  16.194  1.00  0.00     0.000 C 
BRANCH   5   6
ATOM      6  C   UNL     1      14.099  20.067  16.612  1.00  0.00     0.000 C 
BRANCH   6   7
ATOM      7  C   UNL     1      14.074  19.865  18.133  1.00  0.00     0.000 C 
BRANCH   7   8
ATOM      8  C   UNL     1      15.456  20.048  18.776  1.00  0.00     0.000 C 
BRANCH   8   9
ATOM      9  C   UNL     1      15.934  18.786  19.515  1.00  0.00     0.000 C 
BRANCH   9  10
ATOM     10  C   UNL     1      17.446  18.542  19.366  1.00  0.00     0.000 C 
BRANCH  10  11
ATOM     11  C   UNL     1      18.060  19.067  18.057  1.00  0.00     0.000 C 
BRANCH  11  12
ATOM     12  C   UNL     1      19.588  18.903  18.001  1.00  0.00     0.006 C 
BRANCH  12  13
ATOM     13  C   UNL     1      19.981  17.424  17.950  1.00  0.00     0.053 C 
BRANCH  13  14
ATOM     14  C   UNL     1      20.895  17.079  19.083  1.00  0.00     0.041 C 
ATOM     15  O   UNL     1      20.735  17.612  20.212  1.00  0.00    -0.550 OA
ATOM     16  O   UNL     1      21.930  16.171  18.890  1.00  0.00    -0.550 OA
ENDBRANCH  13  14
ENDBRANCH  12  13
ENDBRANCH  11  12
ENDBRANCH  10  11
ENDBRANCH   9  10
ENDBRANCH   8   9
ENDBRANCH   7   8
ENDBRANCH   6   7
ENDBRANCH   5   6
ENDBRANCH   4   5
ENDBRANCH   3   4
ENDBRANCH   2   3
ENDBRANCH   1   2
BRANCH   1  17
ATOM     17  C   UNL     1      14.679  16.262  16.059  1.00  0.00     0.000 C 
BRANCH  17  18
ATOM     18  C   UNL     1      14.000  16.388  17.429  1.00  0.00     0.000 C 
BRANCH  18  19
ATOM     19  C   UNL     1      12.811  15.425  17.600  1.00  0.00     0.000 C 
BRANCH  19  20
ATOM     20  C   UNL     1      11.608  15.698  16.675  1.00  0.00     0.000 C 
BRANCH  20  21
ATOM     21  C   UNL     1      11.065  17.138  16.713  1.00  0.00     0.000 C 
BRANCH  21  22
ATOM     22  C   UNL     1      11.373  17.928  15.429  1.00  0.00    -0.000 C 
BRANCH  22  23
ATOM     23  C   UNL     1      11.354  17.034  14.170  1.00  0.00    -0.000 C 
BRANCH  23  24
ATOM     24  C   UNL     1      10.352  17.488  13.097  1.00  0.00    -0.000 C 
BRANCH  24  25
ATOM     25  C   UNL     1      10.144  16.443  11.990  1.00  0.00    -0.000 C 
BRANCH  25  26
ATOM     26  C   UNL     1       8.663  16.082  11.768  1.00  0.00    -0.000 C 
BRANCH  26  27
ATOM     27  C   UNL     1       7.885  17.038  10.843  1.00  0.00    -0.000 C 
BRANCH  27  28
ATOM     28  C   UNL     1       8.569  17.248   9.480  1.00  0.00    -0.000 C 
BRANCH  28  29
ATOM     29  C   UNL     1       9.071  18.688   9.289  1.00  0.00    -0.003 C 
ATOM     30  C   UNL     1       8.673  19.608  10.444  1.00  0.00     0.004 C 
ENDBRANCH  28  29
ENDBRANCH  27  28
ENDBRANCH  26  27
ENDBRANCH  25  26
ENDBRANCH  24  25
ENDBRANCH  23  24
ENDBRANCH  22  23
ENDBRANCH  21  22
ENDBRANCH  20  21
ENDBRANCH  19  20
ENDBRANCH  18  19
ENDBRANCH  17  18
ENDBRANCH   1  17
TORSDOF 26
ENDMDL
MODEL 3
REMARK VINA RESULT:    -3.884      3.953      8.968
REMARK INTER + INTRA:         -14.248
REMARK INTER:                 -10.197
REMARK INTRA:                  -4.051
REMARK UNBOUND:                -4.461
REMARK SMILES CCCCCCCCCCCCCCCCCCCCCCCCCCCC(=O)[O-]
REMARK SMILES IDX 15 1 16 2 17 3 18 4 19 5 20 6 21 7 22 8 23 9 24 10 25 11
REMARK SMILES IDX 26 12 27 13 28 14 29 15 30 16 14 17 13 18 12 19 11 20 10 21
REMARK SMILES IDX 9 22 8 23 7 24 6 25 5 26 4 27 3 28 2 29 1 30
REMARK H PARENT
REMARK Flexibility Score: inf
ROOT
ATOM      1  C   UNL     1      10.252  16.539  11.943  1.00  0.00     0.000 C 
ENDROOT
BRANCH   1   2
ATOM      2  C   UNL     1       8.778  16.149  12.129  1.00  0.00     0.000 C 
BRANCH   2   3
ATOM      3  C   UNL     1       8.068  15.822  10.801  1.00  0.00     0.000 C 
BRANCH   3   4
ATOM      4  C   UNL     1       8.214  16.889   9.701  1.00  0.00     0.000 C 
BRANCH   4   5
ATOM      5  C   UNL     1       7.500  18.205  10.040  1.00  0.00     0.000 C 
BRANCH   5   6
ATOM      6  C   UNL     1       8.455  19.399   9.924  1.00  0.00     0.000 C 
BRANCH   6   7
ATOM      7  C   UNL     1       9.786  18.974   9.286  1.00  0.00     0.000 C 
BRANCH   7   8
ATOM      8  C   UNL     1      10.723  20.163   9.028  1.00  0.00     0.000 C 
BRANCH   8   9
ATOM      9  C   UNL     1      10.579  20.728   7.605  1.00  0.00     0.000 C 
BRANCH   9  10
ATOM     10  C   UNL     1      11.863  20.579   6.770  1.00  0.00     0.000 C 
BRANCH  10  11
ATOM     11  C   UNL     1      12.284  19.127   6.484  1.00  0.00     0.000 C 
BRANCH  11  12
ATOM     12  C   UNL     1      13.620  18.747   7.143  1.00  0.00     0.006 C 
BRANCH  12  13
ATOM     13  C   UNL     1      14.445  19.994   7.473  1.00  0.00     0.053 C 
BRANCH  13  14
ATOM     14  C   UNL     1      14.944  19.941   8.882  1.00  0.00     0.041 C 
ATOM     15  O   UNL     1      16.166  19.750   9.117  1.00  0.00    -0.550 OA
ATOM     16  O   UNL     1      14.056  20.098   9.940  1.00  0.00    -0.550 OA
ENDBRANCH  13  14
ENDBRANCH  12  13
ENDBRANCH  11  12
ENDBRANCH  10  11
ENDBRANCH   9  10
ENDBRANCH   8   9
ENDBRANCH   7   8
ENDBRANCH   6   7
ENDBRANCH   5   6
ENDBRANCH   4   5
ENDBRANCH   3   4
ENDBRANCH   2   3
ENDBRANCH   1   2
BRANCH   1  17
ATOM     17  C   UNL     1      10.760  17.370  13.128  1.00  0.00     0.000 C 
BRANCH  17  18
ATOM     18  C   UNL     1      10.042  18.725  13.192  1.00  0.00     0.000 C 
BRANCH  18  19
ATOM     19  C   UNL     1      10.973  19.878  13.606  1.00  0.00     0.000 C 
BRANCH  19  20
ATOM     20  C   UNL     1      12.165  19.471  14.496  1.00  0.00     0.000 C 
BRANCH  20  21
ATOM     21  C   UNL     1      12.587  20.517  15.544  1.00  0.00     0.000 C 
BRANCH  21  22
ATOM     22  C   UNL     1      13.811  20.078  16.368  1.00  0.00    -0.000 C 
BRANCH  22  23
ATOM     23  C   UNL     1      14.996  19.649  15.476  1.00  0.00    -0.000 C 
BRANCH  23  24
ATOM     24  C   UNL     1      16.002  18.722  16.178  1.00  0.00    -0.000 C 
BRANCH  24  25
ATOM     25  C   UNL     1      15.333  17.524  16.869  1.00  0.00    -0.000 C 
BRANCH  25  26
ATOM     26  C   UNL     1      14.824  16.460  15.878  1.00  0.00    -0.000 C 
BRANCH  26  27
ATOM     27  C   UNL     1      13.318  16.145  15.967  1.00  0.00    -0.000 C 
BRANCH  27  28
ATOM     28  C   UNL     1      12.649  16.746  17.215  1.00  0.00    -0.000 C 
BRANCH  28  29
ATOM     29  C   UNL     1      11.132  16.925  17.041  1.00  0.00    -0.003 C 
ATOM     30  C   UNL     1      10.467  15.709  16.395  1.00  0.00     0.004 C 
ENDBRANCH  28  29
ENDBRANCH  27  28
ENDBRANCH  26  27
ENDBRANCH  25  26
ENDBRANCH  24  25
ENDBRANCH  23  24
ENDBRANCH  22  23
ENDBRANCH  21  22
ENDBRANCH  20  21
ENDBRANCH  19  20
ENDBRANCH  18  19
ENDBRANCH  17  18
ENDBRANCH   1  17
TORSDOF 26
ENDMDL
MODEL 4
REMARK VINA RESULT:    -3.870      1.875      3.001
REMARK INTER + INTRA:         -14.212
REMARK INTER:                 -10.636
REMARK INTRA:                  -3.576
REMARK UNBOUND:                -4.461
REMARK SMILES CCCCCCCCCCCCCCCCCCCCCCCCCCCC(=O)[O-]
REMARK SMILES IDX 15 1 16 2 17 3 18 4 19 5 20 6 21 7 22 8 23 9 24 10 25 11
REMARK SMILES IDX 26 12 27 13 28 14 29 15 30 16 14 17 13 18 12 19 11 20 10 21
REMARK SMILES IDX 9 22 8 23 7 24 6 25 5 26 4 27 3 28 2 29 1 30
REMARK H PARENT
REMARK Flexibility Score: inf
ROOT
ATOM      1  C   UNL     1      12.977  15.843  17.655  1.00  0.00     0.000 C 
ENDROOT
BRANCH   1   2
ATOM      2  C   UNL     1      14.242  16.233  16.877  1.00  0.00     0.000 C 
BRANCH   2   3
ATOM      3  C   UNL     1      14.997  17.419  17.506  1.00  0.00     0.000 C 
BRANCH   3   4
ATOM      4  C   UNL     1      16.175  17.960  16.675  1.00  0.00     0.000 C 
BRANCH   4   5
ATOM      5  C   UNL     1      16.409  17.172  15.378  1.00  0.00     0.000 C 
BRANCH   5   6
ATOM      6  C   UNL     1      16.630  18.115  14.190  1.00  0.00     0.000 C 
BRANCH   6   7
ATOM      7  C   UNL     1      17.199  19.461  14.658  1.00  0.00     0.000 C 
BRANCH   7   8
ATOM      8  C   UNL     1      18.406  19.915  13.824  1.00  0.00     0.000 C 
BRANCH   8   9
ATOM      9  C   UNL     1      19.721  19.873  14.620  1.00  0.00     0.000 C 
BRANCH   9  10
ATOM     10  C   UNL     1      19.936  18.534  15.348  1.00  0.00     0.000 C 
BRANCH  10  11
ATOM     11  C   UNL     1      20.408  18.659  16.807  1.00  0.00     0.000 C 
BRANCH  11  12
ATOM     12  C   UNL     1      20.255  17.353  17.603  1.00  0.00     0.006 C 
BRANCH  12  13
ATOM     13  C   UNL     1      20.874  17.482  18.998  1.00  0.00     0.053 C 
BRANCH  13  14
ATOM     14  C   UNL     1      20.145  16.622  19.982  1.00  0.00     0.041 C 
ATOM     15  O   UNL     1      19.426  17.146  20.873  1.00  0.00    -0.550 OA
ATOM     16  O   UNL     1      20.265  15.238  19.918  1.00  0.00    -0.550 OA
ENDBRANCH  13  14
ENDBRANCH  12  13
ENDBRANCH  11  12
ENDBRANCH  10  11
ENDBRANCH   9  10
ENDBRANCH   8   9
ENDBRANCH   7   8
ENDBRANCH   6   7
ENDBRANCH   5   6
ENDBRANCH   4   5
ENDBRANCH   3   4
ENDBRANCH   2   3
ENDBRANCH   1   2
BRANCH   1  17
ATOM     17  C   UNL     1      11.854  15.407  16.706  1.00  0.00     0.000 C 
BRANCH  17  18
ATOM     18  C   UNL     1      10.894  16.571  16.425  1.00  0.00     0.000 C 
BRANCH  18  19
ATOM     19  C   UNL     1      11.363  17.468  15.265  1.00  0.00     0.000 C 
BRANCH  19  20
ATOM     20  C   UNL     1      11.956  18.828  15.687  1.00  0.00     0.000 C 
BRANCH  20  21
ATOM     21  C   UNL     1      13.165  19.299  14.858  1.00  0.00     0.000 C 
BRANCH  21  22
ATOM     22  C   UNL     1      12.908  20.631  14.130  1.00  0.00    -0.000 C 
BRANCH  22  23
ATOM     23  C   UNL     1      13.074  20.506  12.601  1.00  0.00    -0.000 C 
BRANCH  23  24
ATOM     24  C   UNL     1      11.751  20.582  11.821  1.00  0.00    -0.000 C 
BRANCH  24  25
ATOM     25  C   UNL     1      10.515  20.569  12.735  1.00  0.00    -0.000 C 
BRANCH  25  26
ATOM     26  C   UNL     1       9.667  19.291  12.587  1.00  0.00    -0.000 C 
BRANCH  26  27
ATOM     27  C   UNL     1      10.257  18.214  11.657  1.00  0.00    -0.000 C 
BRANCH  27  28
ATOM     28  C   UNL     1      10.028  16.782  12.173  1.00  0.00    -0.000 C 
BRANCH  28  29
ATOM     29  C   UNL     1       8.658  16.220  11.759  1.00  0.00    -0.003 C 
ATOM     30  C   UNL     1       8.479  16.162  10.241  1.00  0.00     0.004 C 
ENDBRANCH  28  29
ENDBRANCH  27  28
ENDBRANCH  26  27
ENDBRANCH  25  26
ENDBRANCH  24  25
ENDBRANCH  23  24
ENDBRANCH  22  23
ENDBRANCH  21  22
ENDBRANCH  20  21
ENDBRANCH  19  20
ENDBRANCH  18  19
ENDBRANCH  17  18
ENDBRANCH   1  17
TORSDOF 26
ENDMDL
MODEL 5
REMARK VINA RESULT:    -3.853      4.178      9.870
REMARK INTER + INTRA:         -14.172
REMARK INTER:                  -9.742
REMARK INTRA:                  -4.429
REMARK UNBOUND:                -4.461
REMARK SMILES CCCCCCCCCCCCCCCCCCCCCCCCCCCC(=O)[O-]
REMARK SMILES IDX 15 1 16 2 17 3 18 4 19 5 20 6 21 7 22 8 23 9 24 10 25 11
REMARK SMILES IDX 26 12 27 13 28 14 29 15 30 16 14 17 13 18 12 19 11 20 10 21
REMARK SMILES IDX 9 22 8 23 7 24 6 25 5 26 4 27 3 28 2 29 1 30
REMARK H PARENT
REMARK Flexibility Score: inf
ROOT
ATOM      1  C   UNL     1      14.678  16.153  15.997  1.00  0.00     0.000 C 
ENDROOT
BRANCH   1   2
ATOM      2  C   UNL     1      13.899  16.461  17.284  1.00  0.00     0.000 C 
BRANCH   2   3
ATOM      3  C   UNL     1      12.514  15.787  17.329  1.00  0.00     0.000 C 
BRANCH   3   4
ATOM      4  C   UNL     1      11.338  16.679  16.888  1.00  0.00     0.000 C 
BRANCH   4   5
ATOM      5  C   UNL     1      11.722  18.159  16.757  1.00  0.00     0.000 C 
BRANCH   5   6
ATOM      6  C   UNL     1      11.561  18.646  15.312  1.00  0.00     0.000 C 
BRANCH   6   7
ATOM      7  C   UNL     1      11.351  17.464  14.356  1.00  0.00     0.000 C 
BRANCH   7   8
ATOM      8  C   UNL     1      10.501  17.837  13.133  1.00  0.00     0.000 C 
BRANCH   8   9
ATOM      9  C   UNL     1      10.125  19.328  13.110  1.00  0.00     0.000 C 
BRANCH   9  10
ATOM     10  C   UNL     1       8.657  19.568  12.716  1.00  0.00     0.000 C 
BRANCH  10  11
ATOM     11  C   UNL     1       8.441  20.000  11.255  1.00  0.00     0.000 C 
BRANCH  11  12
ATOM     12  C   UNL     1       7.391  19.146  10.525  1.00  0.00     0.006 C 
BRANCH  12  13
ATOM     13  C   UNL     1       7.277  17.756  11.156  1.00  0.00     0.053 C 
BRANCH  13  14
ATOM     14  C   UNL     1       8.005  16.740  10.334  1.00  0.00     0.041 C 
ATOM     15  O   UNL     1       8.323  15.628  10.832  1.00  0.00    -0.550 OA
ATOM     16  O   UNL     1       8.338  17.023   9.014  1.00  0.00    -0.550 OA
ENDBRANCH  13  14
ENDBRANCH  12  13
ENDBRANCH  11  12
ENDBRANCH  10  11
ENDBRANCH   9  10
ENDBRANCH   8   9
ENDBRANCH   7   8
ENDBRANCH   6   7
ENDBRANCH   5   6
ENDBRANCH   4   5
ENDBRANCH   3   4
ENDBRANCH   2   3
ENDBRANCH   1   2
BRANCH   1  17
ATOM     17  C   UNL     1      15.811  17.164  15.778  1.00  0.00     0.000 C 
BRANCH  17  18
ATOM     18  C   UNL     1      15.280  18.444  15.120  1.00  0.00     0.000 C 
BRANCH  18  19
ATOM     19  C   UNL     1      16.313  19.585  15.106  1.00  0.00     0.000 C 
BRANCH  19  20
ATOM     20  C   UNL     1      15.872  20.876  15.826  1.00  0.00     0.000 C 
BRANCH  20  21
ATOM     21  C   UNL     1      14.420  20.879  16.336  1.00  0.00     0.000 C 
BRANCH  21  22
ATOM     22  C   UNL     1      14.322  21.081  17.859  1.00  0.00    -0.000 C 
BRANCH  22  23
ATOM     23  C   UNL     1      14.445  19.753  18.637  1.00  0.00    -0.000 C 
BRANCH  23  24
ATOM     24  C   UNL     1      15.704  19.659  19.515  1.00  0.00    -0.000 C 
BRANCH  24  25
ATOM     25  C   UNL     1      16.616  18.483  19.131  1.00  0.00    -0.000 C 
BRANCH  25  26
ATOM     26  C   UNL     1      18.111  18.855  19.120  1.00  0.00    -0.000 C 
BRANCH  26  27
ATOM     27  C   UNL     1      18.723  19.079  17.723  1.00  0.00    -0.000 C 
BRANCH  27  28
ATOM     28  C   UNL     1      19.070  17.766  17.000  1.00  0.00    -0.000 C 
BRANCH  28  29
ATOM     29  C   UNL     1      19.947  17.993  15.758  1.00  0.00    -0.003 C 
ATOM     30  C   UNL     1      20.504  19.415  15.683  1.00  0.00     0.004 C 
ENDBRANCH  28  29
ENDBRANCH  27  28
ENDBRANCH  26  27
ENDBRANCH  25  26
ENDBRANCH  24  25
ENDBRANCH  23  24
ENDBRANCH  22  23
ENDBRANCH  21  22
ENDBRANCH  20  21
ENDBRANCH  19  20
ENDBRANCH  18  19
ENDBRANCH  17  18
ENDBRANCH   1  17
TORSDOF 26
ENDMDL
MODEL 6
REMARK VINA RESULT:    -3.844      1.411      2.408
REMARK INTER + INTRA:         -14.148
REMARK INTER:                 -10.687
REMARK INTRA:                  -3.461
REMARK UNBOUND:                -4.461
REMARK SMILES CCCCCCCCCCCCCCCCCCCCCCCCCCCC(=O)[O-]
REMARK SMILES IDX 15 1 16 2 17 3 18 4 19 5 20 6 21 7 22 8 23 9 24 10 25 11
REMARK SMILES IDX 26 12 27 13 28 14 29 15 30 16 14 17 13 18 12 19 11 20 10 21
REMARK SMILES IDX 9 22 8 23 7 24 6 25 5 26 4 27 3 28 2 29 1 30
REMARK H PARENT
REMARK Flexibility Score: inf
ROOT
ATOM      1  C   UNL     1      14.390  16.001  16.126  1.00  0.00     0.000 C 
ENDROOT
BRANCH   1   2
ATOM      2  C   UNL     1      15.470  17.088  16.009  1.00  0.00     0.000 C 
BRANCH   2   3
ATOM      3  C   UNL     1      15.130  18.365  16.800  1.00  0.00     0.000 C 
BRANCH   3   4
ATOM      4  C   UNL     1      15.071  19.656  15.964  1.00  0.00     0.000 C 
BRANCH   4   5
ATOM      5  C   UNL     1      14.797  19.398  14.476  1.00  0.00     0.000 C 
BRANCH   5   6
ATOM      6  C   UNL     1      15.873  20.045  13.595  1.00  0.00     0.000 C 
BRANCH   6   7
ATOM      7  C   UNL     1      17.033  19.072  13.345  1.00  0.00     0.000 C 
BRANCH   7   8
ATOM      8  C   UNL     1      18.335  19.517  14.028  1.00  0.00     0.000 C 
BRANCH   8   9
ATOM      9  C   UNL     1      18.855  18.479  15.036  1.00  0.00     0.000 C 
BRANCH   9  10
ATOM     10  C   UNL     1      20.146  18.928  15.745  1.00  0.00     0.000 C 
BRANCH  10  11
ATOM     11  C   UNL     1      19.977  19.286  17.231  1.00  0.00     0.000 C 
BRANCH  11  12
ATOM     12  C   UNL     1      20.776  18.365  18.166  1.00  0.00     0.006 C 
BRANCH  12  13
ATOM     13  C   UNL     1      20.039  17.042  18.397  1.00  0.00     0.053 C 
BRANCH  13  14
ATOM     14  C   UNL     1      20.790  16.179  19.362  1.00  0.00     0.041 C 
ATOM     15  O   UNL     1      20.170  15.504  20.225  1.00  0.00    -0.550 OA
ATOM     16  O   UNL     1      22.178  16.125  19.312  1.00  0.00    -0.550 OA
ENDBRANCH  13  14
ENDBRANCH  12  13
ENDBRANCH  11  12
ENDBRANCH  10  11
ENDBRANCH   9  10
ENDBRANCH   8   9
ENDBRANCH   7   8
ENDBRANCH   6   7
ENDBRANCH   5   6
ENDBRANCH   4   5
ENDBRANCH   3   4
ENDBRANCH   2   3
ENDBRANCH   1   2
BRANCH   1  17
ATOM     17  C   UNL     1      13.506  16.229  17.359  1.00  0.00     0.000 C 
BRANCH  17  18
ATOM     18  C   UNL     1      12.145  15.541  17.188  1.00  0.00     0.000 C 
BRANCH  18  19
ATOM     19  C   UNL     1      11.002  16.532  16.909  1.00  0.00     0.000 C 
BRANCH  19  20
ATOM     20  C   UNL     1      11.423  18.014  16.831  1.00  0.00     0.000 C 
BRANCH  20  21
ATOM     21  C   UNL     1      11.405  18.627  15.420  1.00  0.00     0.000 C 
BRANCH  21  22
ATOM     22  C   UNL     1      11.109  17.590  14.321  1.00  0.00    -0.000 C 
BRANCH  22  23
ATOM     23  C   UNL     1      10.891  18.244  12.939  1.00  0.00    -0.000 C 
BRANCH  23  24
ATOM     24  C   UNL     1      10.087  19.553  12.988  1.00  0.00    -0.000 C 
BRANCH  24  25
ATOM     25  C   UNL     1       8.609  19.363  12.611  1.00  0.00    -0.000 C 
BRANCH  25  26
ATOM     26  C   UNL     1       8.301  19.755  11.153  1.00  0.00    -0.000 C 
BRANCH  26  27
ATOM     27  C   UNL     1       7.845  18.598  10.244  1.00  0.00    -0.000 C 
BRANCH  27  28
ATOM     28  C   UNL     1       8.995  17.658   9.841  1.00  0.00    -0.000 C 
BRANCH  28  29
ATOM     29  C   UNL     1       8.684  16.184  10.147  1.00  0.00    -0.003 C 
ATOM     30  C   UNL     1       7.957  16.000  11.479  1.00  0.00     0.004 C 
ENDBRANCH  28  29
ENDBRANCH  27  28
ENDBRANCH  26  27
ENDBRANCH  25  26
ENDBRANCH  24  25
ENDBRANCH  23  24
ENDBRANCH  22  23
ENDBRANCH  21  22
ENDBRANCH  20  21
ENDBRANCH  19  20
ENDBRANCH  18  19
ENDBRANCH  17  18
ENDBRANCH   1  17
TORSDOF 26
ENDMDL
MODEL 7
REMARK VINA RESULT:    -3.821      4.225      9.602
REMARK INTER + INTRA:         -14.091
REMARK INTER:                  -9.337
REMARK INTRA:                  -4.754
REMARK UNBOUND:                -4.461
REMARK SMILES CCCCCCCCCCCCCCCCCCCCCCCCCCCC(=O)[O-]
REMARK SMILES IDX 15 1 16 2 17 3 18 4 19 5 20 6 21 7 22 8 23 9 24 10 25 11
REMARK SMILES IDX 26 12 27 13 28 14 29 15 30 16 14 17 13 18 12 19 11 20 10 21
REMARK SMILES IDX 9 22 8 23 7 24 6 25 5 26 4 27 3 28 2 29 1 30
REMARK H PARENT
REMARK Flexibility Score: inf
ROOT
ATOM      1  C   UNL     1      15.978  17.781  15.372  1.00  0.00     0.000 C 
ENDROOT
BRANCH   1   2
ATOM      2  C   UNL     1      15.464  16.395  15.790  1.00  0.00     0.000 C 
BRANCH   2   3
ATOM      3  C   UNL     1      14.144  16.454  16.581  1.00  0.00     0.000 C 
BRANCH   3   4
ATOM      4  C   UNL     1      12.880  16.117  15.768  1.00  0.00     0.000 C 
BRANCH   4   5
ATOM      5  C   UNL     1      11.634  16.872  16.251  1.00  0.00     0.000 C 
BRANCH   5   6
ATOM      6  C   UNL     1      12.021  18.130  17.038  1.00  0.00     0.000 C 
BRANCH   6   7
ATOM      7  C   UNL     1      11.749  19.396  16.215  1.00  0.00     0.000 C 
BRANCH   7   8
ATOM      8  C   UNL     1      13.016  19.950  15.546  1.00  0.00     0.000 C 
BRANCH   8   9
ATOM      9  C   UNL     1      13.029  19.717  14.025  1.00  0.00     0.000 C 
BRANCH   9  10
ATOM     10  C   UNL     1      11.708  20.124  13.348  1.00  0.00     0.000 C 
BRANCH  10  11
ATOM     11  C   UNL     1      11.149  19.096  12.350  1.00  0.00     0.000 C 
BRANCH  11  12
ATOM     12  C   UNL     1      10.367  17.961  13.031  1.00  0.00     0.006 C 
BRANCH  12  13
ATOM     13  C   UNL     1      10.185  16.772  12.082  1.00  0.00     0.053 C 
BRANCH  13  14
ATOM     14  C   UNL     1       8.849  16.829  11.412  1.00  0.00     0.041 C 
ATOM     15  O   UNL     1       8.012  17.712  11.736  1.00  0.00    -0.550 OA
ATOM     16  O   UNL     1       8.524  15.900  10.429  1.00  0.00    -0.550 OA
ENDBRANCH  13  14
ENDBRANCH  12  13
ENDBRANCH  11  12
ENDBRANCH  10  11
ENDBRANCH   9  10
ENDBRANCH   8   9
ENDBRANCH   7   8
ENDBRANCH   6   7
ENDBRANCH   5   6
ENDBRANCH   4   5
ENDBRANCH   3   4
ENDBRANCH   2   3
ENDBRANCH   1   2
BRANCH   1  17
ATOM     17  C   UNL     1      16.802  17.701  14.081  1.00  0.00     0.000 C 
BRANCH  17  18
ATOM     18  C   UNL     1      17.323  19.087  13.679  1.00  0.00     0.000 C 
BRANCH  18  19
ATOM     19  C   UNL     1      18.170  19.753  14.778  1.00  0.00     0.000 C 
BRANCH  19  20
ATOM     20  C   UNL     1      19.696  19.604  14.610  1.00  0.00     0.000 C 
BRANCH  20  21
ATOM     21  C   UNL     1      20.421  18.928  15.788  1.00  0.00     0.000 C 
BRANCH  21  22
ATOM     22  C   UNL     1      19.650  17.721  16.352  1.00  0.00    -0.000 C 
BRANCH  22  23
ATOM     23  C   UNL     1      20.253  17.206  17.676  1.00  0.00    -0.000 C 
BRANCH  23  24
ATOM     24  C   UNL     1      20.604  18.319  18.677  1.00  0.00    -0.000 C 
BRANCH  24  25
ATOM     25  C   UNL     1      19.406  18.751  19.538  1.00  0.00    -0.000 C 
BRANCH  25  26
ATOM     26  C   UNL     1      18.804  20.100  19.104  1.00  0.00    -0.000 C 
BRANCH  26  27
ATOM     27  C   UNL     1      17.489  20.007  18.307  1.00  0.00    -0.000 C 
BRANCH  27  28
ATOM     28  C   UNL     1      16.592  18.841  18.757  1.00  0.00    -0.000 C 
BRANCH  28  29
ATOM     29  C   UNL     1      15.100  19.209  18.750  1.00  0.00    -0.003 C 
ATOM     30  C   UNL     1      14.866  20.720  18.747  1.00  0.00     0.004 C 
ENDBRANCH  28  29
ENDBRANCH  27  28
ENDBRANCH  26  27
ENDBRANCH  25  26
ENDBRANCH  24  25
ENDBRANCH  23  24
ENDBRANCH  22  23
ENDBRANCH  21  22
ENDBRANCH  20  21
ENDBRANCH  19  20
ENDBRANCH  18  19
ENDBRANCH  17  18
ENDBRANCH   1  17
TORSDOF 26
ENDMDL
MODEL 8
REMARK VINA RESULT:    -3.759      1.370      2.120
REMARK INTER + INTRA:         -13.933
REMARK INTER:                  -9.204
REMARK INTRA:                  -4.730
REMARK UNBOUND:                -4.461
REMARK SMILES CCCCCCCCCCCCCCCCCCCCCCCCCCCC(=O)[O-]
REMARK SMILES IDX 15 1 16 2 17 3 18 4 19 5 20 6 21 7 22 8 23 9 24 10 25 11
REMARK SMILES IDX 26 12 27 13 28 14 29 15 30 16 14 17 13 18 12 19 11 20 10 21
REMARK SMILES IDX 9 22 8 23 7 24 6 25 5 26 4 27 3 28 2 29 1 30
REMARK H PARENT
REMARK Flexibility Score: inf
ROOT
ATOM      1  C   UNL     1      16.025  16.627  15.785  1.00  0.00     0.000 C 
ENDROOT
BRANCH   1   2
ATOM      2  C   UNL     1      16.623  17.380  14.587  1.00  0.00     0.000 C 
BRANCH   2   3
ATOM      3  C   UNL     1      17.603  18.494  15.002  1.00  0.00     0.000 C 
BRANCH   3   4
ATOM      4  C   UNL     1      17.070  19.929  14.836  1.00  0.00     0.000 C 
BRANCH   4   5
ATOM      5  C   UNL     1      15.775  19.998  14.014  1.00  0.00     0.000 C 
BRANCH   5   6
ATOM      6  C   UNL     1      14.628  20.591  14.841  1.00  0.00     0.000 C 
BRANCH   6   7
ATOM      7  C   UNL     1      15.020  20.703  16.320  1.00  0.00     0.000 C 
BRANCH   7   8
ATOM      8  C   UNL     1      13.885  20.283  17.266  1.00  0.00     0.000 C 
BRANCH   8   9
ATOM      9  C   UNL     1      14.383  19.413  18.433  1.00  0.00     0.000 C 
BRANCH   9  10
ATOM     10  C   UNL     1      15.871  19.039  18.306  1.00  0.00     0.000 C 
BRANCH  10  11
ATOM     11  C   UNL     1      16.532  18.563  19.612  1.00  0.00     0.000 C 
BRANCH  11  12
ATOM     12  C   UNL     1      17.967  19.085  19.783  1.00  0.00     0.006 C 
BRANCH  12  13
ATOM     13  C   UNL     1      18.674  19.205  18.430  1.00  0.00     0.053 C 
BRANCH  13  14
ATOM     14  C   UNL     1      19.754  18.177  18.303  1.00  0.00     0.041 C 
ATOM     15  O   UNL     1      20.850  18.330  18.904  1.00  0.00    -0.550 OA
ATOM     16  O   UNL     1      19.551  17.049  17.516  1.00  0.00    -0.550 OA
ENDBRANCH  13  14
ENDBRANCH  12  13
ENDBRANCH  11  12
ENDBRANCH  10  11
ENDBRANCH   9  10
ENDBRANCH   8   9
ENDBRANCH   7   8
ENDBRANCH   6   7
ENDBRANCH   5   6
ENDBRANCH   4   5
ENDBRANCH   3   4
ENDBRANCH   2   3
ENDBRANCH   1   2
BRANCH   1  17
ATOM     17  C   UNL     1      14.492  16.646  15.743  1.00  0.00     0.000 C 
BRANCH  17  18
ATOM     18  C   UNL     1      13.904  16.208  17.091  1.00  0.00     0.000 C 
BRANCH  18  19
ATOM     19  C   UNL     1      12.416  15.826  17.001  1.00  0.00     0.000 C 
BRANCH  19  20
ATOM     20  C   UNL     1      11.463  16.984  16.641  1.00  0.00     0.000 C 
BRANCH  20  21
ATOM     21  C   UNL     1      11.001  17.019  15.173  1.00  0.00     0.000 C 
BRANCH  21  22
ATOM     22  C   UNL     1      11.602  18.197  14.386  1.00  0.00    -0.000 C 
BRANCH  22  23
ATOM     23  C   UNL     1      11.111  19.565  14.906  1.00  0.00    -0.000 C 
BRANCH  23  24
ATOM     24  C   UNL     1      10.632  20.519  13.800  1.00  0.00    -0.000 C 
BRANCH  24  25
ATOM     25  C   UNL     1       9.123  20.414  13.530  1.00  0.00    -0.000 C 
BRANCH  25  26
ATOM     26  C   UNL     1       8.788  20.175  12.046  1.00  0.00    -0.000 C 
BRANCH  26  27
ATOM     27  C   UNL     1       8.514  18.708  11.661  1.00  0.00    -0.000 C 
BRANCH  27  28
ATOM     28  C   UNL     1       9.749  17.998  11.079  1.00  0.00    -0.000 C 
BRANCH  28  29
ATOM     29  C   UNL     1       9.871  16.542  11.559  1.00  0.00    -0.003 C 
ATOM     30  C   UNL     1       8.513  15.908  11.865  1.00  0.00     0.004 C 
ENDBRANCH  28  29
ENDBRANCH  27  28
ENDBRANCH  26  27
ENDBRANCH  25  26
ENDBRANCH  24  25
ENDBRANCH  23  24
ENDBRANCH  22  23
ENDBRANCH  21  22
ENDBRANCH  20  21
ENDBRANCH  19  20
ENDBRANCH  18  19
ENDBRANCH  17  18
ENDBRANCH   1  17
TORSDOF 26
ENDMDL
MODEL 9
REMARK VINA RESULT:    -3.706      1.428      2.610
REMARK INTER + INTRA:         -13.801
REMARK INTER:                  -9.478
REMARK INTRA:                  -4.323
REMARK UNBOUND:                -4.461
REMARK SMILES CCCCCCCCCCCCCCCCCCCCCCCCCCCC(=O)[O-]
REMARK SMILES IDX 15 1 16 2 17 3 18 4 19 5 20 6 21 7 22 8 23 9 24 10 25 11
REMARK SMILES IDX 26 12 27 13 28 14 29 15 30 16 14 17 13 18 12 19 11 20 10 21
REMARK SMILES IDX 9 22 8 23 7 24 6 25 5 26 4 27 3 28 2 29 1 30
REMARK H PARENT
REMARK Flexibility Score: inf
ROOT
ATOM      1  C   UNL     1      13.249  15.830  17.645  1.00  0.00     0.000 C 
ENDROOT
BRANCH   1   2
ATOM      2  C   UNL     1      14.353  16.638  16.946  1.00  0.00     0.000 C 
BRANCH   2   3
ATOM      3  C   UNL     1      14.999  17.695  17.860  1.00  0.00     0.000 C 
BRANCH   3   4
ATOM      4  C   UNL     1      14.231  19.026  17.967  1.00  0.00     0.000 C 
BRANCH   4   5
ATOM      5  C   UNL     1      15.155  20.248  18.062  1.00  0.00     0.000 C 
BRANCH   5   6
ATOM      6  C   UNL     1      15.041  21.125  16.809  1.00  0.00     0.000 C 
BRANCH   6   7
ATOM      7  C   UNL     1      13.700  20.894  16.099  1.00  0.00     0.000 C 
BRANCH   7   8
ATOM      8  C   UNL     1      13.869  20.579  14.606  1.00  0.00     0.000 C 
BRANCH   8   9
ATOM      9  C   UNL     1      14.863  19.431  14.355  1.00  0.00     0.000 C 
BRANCH   9  10
ATOM     10  C   UNL     1      15.999  19.825  13.395  1.00  0.00     0.000 C 
BRANCH  10  11
ATOM     11  C   UNL     1      17.411  19.442  13.872  1.00  0.00     0.000 C 
BRANCH  11  12
ATOM     12  C   UNL     1      17.403  18.597  15.156  1.00  0.00     0.006 C 
BRANCH  12  13
ATOM     13  C   UNL     1      18.822  18.160  15.535  1.00  0.00     0.053 C 
BRANCH  13  14
ATOM     14  C   UNL     1      19.023  18.245  17.016  1.00  0.00     0.041 C 
ATOM     15  O   UNL     1      18.370  19.076  17.699  1.00  0.00    -0.550 OA
ATOM     16  O   UNL     1      19.939  17.406  17.642  1.00  0.00    -0.550 OA
ENDBRANCH  13  14
ENDBRANCH  12  13
ENDBRANCH  11  12
ENDBRANCH  10  11
ENDBRANCH   9  10
ENDBRANCH   8   9
ENDBRANCH   7   8
ENDBRANCH   6   7
ENDBRANCH   5   6
ENDBRANCH   4   5
ENDBRANCH   3   4
ENDBRANCH   2   3
ENDBRANCH   1   2
BRANCH   1  17
ATOM     17  C   UNL     1      12.091  15.527  16.686  1.00  0.00     0.000 C 
BRANCH  17  18
ATOM     18  C   UNL     1      10.984  16.581  16.816  1.00  0.00     0.000 C 
BRANCH  18  19
ATOM     19  C   UNL     1      11.223  17.815  15.928  1.00  0.00     0.000 C 
BRANCH  19  20
ATOM     20  C   UNL     1      11.649  17.508  14.478  1.00  0.00     0.000 C 
BRANCH  20  21
ATOM     21  C   UNL     1      10.667  17.982  13.392  1.00  0.00     0.000 C 
BRANCH  21  22
ATOM     22  C   UNL     1      10.792  19.486  13.089  1.00  0.00    -0.000 C 
BRANCH  22  23
ATOM     23  C   UNL     1       9.603  20.299  13.647  1.00  0.00    -0.000 C 
BRANCH  23  24
ATOM     24  C   UNL     1       8.554  20.676  12.589  1.00  0.00    -0.000 C 
BRANCH  24  25
ATOM     25  C   UNL     1       7.685  19.484  12.156  1.00  0.00    -0.000 C 
BRANCH  25  26
ATOM     26  C   UNL     1       7.486  19.402  10.630  1.00  0.00    -0.000 C 
BRANCH  26  27
ATOM     27  C   UNL     1       8.783  19.316   9.802  1.00  0.00    -0.000 C 
BRANCH  27  28
ATOM     28  C   UNL     1       9.460  17.937   9.885  1.00  0.00    -0.000 C 
BRANCH  28  29
ATOM     29  C   UNL     1       8.460  16.780   9.733  1.00  0.00    -0.003 C 
ATOM     30  C   UNL     1       8.424  15.868  10.961  1.00  0.00     0.004 C 
ENDBRANCH  28  29
ENDBRANCH  27  28
ENDBRANCH  26  27
ENDBRANCH  25  26
ENDBRANCH  24  25
ENDBRANCH  23  24
ENDBRANCH  22  23
ENDBRANCH  21  22
ENDBRANCH  20  21
ENDBRANCH  19  20
ENDBRANCH  18  19
ENDBRANCH  17  18
ENDBRANCH   1  17
TORSDOF 26
ENDMDL
