MODEL 1
REMARK VINA RESULT:    -3.581      0.000      0.000
REMARK INTER + INTRA:         -15.368
REMARK INTER:                  -9.443
REMARK INTRA:                  -5.925
REMARK UNBOUND:                -5.925
REMARK SMILES CCCCCCCCCCCCCCCCCCCCCCCCCCCCCC(=O)[O-]
REMARK SMILES IDX 16 1 17 2 18 3 19 4 20 5 21 6 22 7 23 8 24 9 25 10 26 11
REMARK SMILES IDX 27 12 28 13 29 14 30 15 31 16 32 17 15 18 14 19 13 20 12 21
REMARK SMILES IDX 11 22 10 23 9 24 8 25 7 26 6 27 5 28 4 29 3 30 2 31 1 32
REMARK H PARENT
REMARK Flexibility Score: inf
ROOT
ATOM      1  C   UNL     1      -1.472   8.019  42.773  1.00  0.00     0.000 C 
ENDROOT
BRANCH   1   2
ATOM      2  C   UNL     1      -2.719   7.246  42.306  1.00  0.00     0.000 C 
BRANCH   2   3
ATOM      3  C   UNL     1      -2.570   5.724  42.461  1.00  0.00     0.000 C 
BRANCH   3   4
ATOM      4  C   UNL     1      -2.988   4.950  41.200  1.00  0.00     0.000 C 
BRANCH   4   5
ATOM      5  C   UNL     1      -3.465   5.873  40.068  1.00  0.00     0.000 C 
BRANCH   5   6
ATOM      6  C   UNL     1      -2.649   5.647  38.789  1.00  0.00     0.000 C 
BRANCH   6   7
ATOM      7  C   UNL     1      -1.296   4.996  39.111  1.00  0.00     0.000 C 
BRANCH   7   8
ATOM      8  C   UNL     1      -0.776   4.107  37.970  1.00  0.00     0.000 C 
BRANCH   8   9
ATOM      9  C   UNL     1      -1.706   4.119  36.743  1.00  0.00     0.000 C 
BRANCH   9  10
ATOM     10  C   UNL     1      -0.926   3.967  35.419  1.00  0.00     0.000 C 
BRANCH  10  11
ATOM     11  C   UNL     1       0.570   3.666  35.612  1.00  0.00     0.000 C 
BRANCH  11  12
ATOM     12  C   UNL     1       1.391   3.857  34.325  1.00  0.00     0.000 C 
BRANCH  12  13
ATOM     13  C   UNL     1       0.886   5.028  33.460  1.00  0.00     0.006 C 
BRANCH  13  14
ATOM     14  C   UNL     1       1.860   6.215  33.361  1.00  0.00     0.053 C 
BRANCH  14  15
ATOM     15  C   UNL     1       1.406   7.233  32.360  1.00  0.00     0.041 C 
ATOM     16  O   UNL     1       1.066   6.875  31.202  1.00  0.00    -0.550 OA
ATOM     17  O   UNL     1       1.394   8.581  32.695  1.00  0.00    -0.550 OA
ENDBRANCH  14  15
ENDBRANCH  13  14
ENDBRANCH  12  13
ENDBRANCH  11  12
ENDBRANCH  10  11
ENDBRANCH   9  10
ENDBRANCH   8   9
ENDBRANCH   7   8
ENDBRANCH   6   7
ENDBRANCH   5   6
ENDBRANCH   4   5
ENDBRANCH   3   4
ENDBRANCH   2   3
ENDBRANCH   1   2
BRANCH   1  18
ATOM     18  C   UNL     1      -0.138   7.313  42.448  1.00  0.00     0.000 C 
BRANCH  18  19
ATOM     19  C   UNL     1       0.646   8.038  41.342  1.00  0.00     0.000 C 
BRANCH  19  20
ATOM     20  C   UNL     1      -0.016   9.374  40.976  1.00  0.00     0.000 C 
BRANCH  20  21
ATOM     21  C   UNL     1      -0.293   9.503  39.470  1.00  0.00     0.000 C 
BRANCH  21  22
ATOM     22  C   UNL     1      -1.721   9.112  39.043  1.00  0.00     0.000 C 
BRANCH  22  23
ATOM     23  C   UNL     1      -1.950   9.169  37.517  1.00  0.00     0.000 C 
BRANCH  23  24
ATOM     24  C   UNL     1      -1.195   8.054  36.770  1.00  0.00    -0.000 C 
BRANCH  24  25
ATOM     25  C   UNL     1      -0.074   8.604  35.869  1.00  0.00    -0.000 C 
BRANCH  25  26
ATOM     26  C   UNL     1       1.329   8.206  36.365  1.00  0.00    -0.000 C 
BRANCH  26  27
ATOM     27  C   UNL     1       1.336   6.864  37.131  1.00  0.00    -0.000 C 
BRANCH  27  28
ATOM     28  C   UNL     1       2.162   6.893  38.431  1.00  0.00    -0.000 C 
BRANCH  28  29
ATOM     29  C   UNL     1       2.525   5.513  39.008  1.00  0.00    -0.000 C 
BRANCH  29  30
ATOM     30  C   UNL     1       3.025   4.481  37.976  1.00  0.00    -0.000 C 
BRANCH  30  31
ATOM     31  C   UNL     1       4.528   4.558  37.657  1.00  0.00    -0.003 C 
ATOM     32  C   UNL     1       5.400   4.616  38.911  1.00  0.00     0.004 C 
ENDBRANCH  30  31
ENDBRANCH  29  30
ENDBRANCH  28  29
ENDBRANCH  27  28
ENDBRANCH  26  27
ENDBRANCH  25  26
ENDBRANCH  24  25
ENDBRANCH  23  24
ENDBRANCH  22  23
ENDBRANCH  21  22
ENDBRANCH  20  21
ENDBRANCH  19  20
ENDBRANCH  18  19
ENDBRANCH   1  18
TORSDOF 28
ENDMDL
MODEL 2
REMARK VINA RESULT:    -3.523      3.079      6.966
REMARK INTER + INTRA:         -15.213
REMARK INTER:                  -9.053
REMARK INTRA:                  -6.161
REMARK UNBOUND:                -5.925
REMARK SMILES CCCCCCCCCCCCCCCCCCCCCCCCCCCCCC(=O)[O-]
REMARK SMILES IDX 16 1 17 2 18 3 19 4 20 5 21 6 22 7 23 8 24 9 25 10 26 11
REMARK SMILES IDX 27 12 28 13 29 14 30 15 31 16 32 17 15 18 14 19 13 20 12 21
REMARK SMILES IDX 11 22 10 23 9 24 8 25 7 26 6 27 5 28 4 29 3 30 2 31 1 32
REMARK H PARENT
REMARK Flexibility Score: inf
ROOT
ATOM      1  C   UNL     1      -1.261   4.331  37.553  1.00  0.00     0.000 C 
ENDROOT
BRANCH   1   2
ATOM      2  C   UNL     1      -1.712   5.653  36.906  1.00  0.00     0.000 C 
BRANCH   2   3
ATOM      3  C   UNL     1      -1.196   5.818  35.466  1.00  0.00     0.000 C 
BRANCH   3   4
ATOM      4  C   UNL     1      -0.783   7.262  35.141  1.00  0.00     0.000 C 
BRANCH   4   5
ATOM      5  C   UNL     1      -1.642   8.305  35.874  1.00  0.00     0.000 C 
BRANCH   5   6
ATOM      6  C   UNL     1      -0.877   9.622  36.058  1.00  0.00     0.000 C 
BRANCH   6   7
ATOM      7  C   UNL     1       0.563   9.358  36.522  1.00  0.00     0.000 C 
BRANCH   7   8
ATOM      8  C   UNL     1       0.726   9.467  38.047  1.00  0.00     0.000 C 
BRANCH   8   9
ATOM      9  C   UNL     1      -0.515  10.071  38.731  1.00  0.00     0.000 C 
BRANCH   9  10
ATOM     10  C   UNL     1      -1.181   9.080  39.710  1.00  0.00     0.000 C 
BRANCH  10  11
ATOM     11  C   UNL     1      -2.555   8.572  39.239  1.00  0.00     0.000 C 
BRANCH  11  12
ATOM     12  C   UNL     1      -3.110   7.441  40.120  1.00  0.00     0.000 C 
BRANCH  12  13
ATOM     13  C   UNL     1      -2.977   7.733  41.627  1.00  0.00     0.006 C 
BRANCH  13  14
ATOM     14  C   UNL     1      -2.675   6.498  42.492  1.00  0.00     0.053 C 
BRANCH  14  15
ATOM     15  C   UNL     1      -1.233   6.099  42.421  1.00  0.00     0.041 C 
ATOM     16  O   UNL     1      -0.917   4.884  42.317  1.00  0.00    -0.550 OA
ATOM     17  O   UNL     1      -0.238   7.063  42.506  1.00  0.00    -0.550 OA
ENDBRANCH  14  15
ENDBRANCH  13  14
ENDBRANCH  12  13
ENDBRANCH  11  12
ENDBRANCH  10  11
ENDBRANCH   9  10
ENDBRANCH   8   9
ENDBRANCH   7   8
ENDBRANCH   6   7
ENDBRANCH   5   6
ENDBRANCH   4   5
ENDBRANCH   3   4
ENDBRANCH   2   3
ENDBRANCH   1   2
BRANCH   1  18
ATOM     18  C   UNL     1      -0.435   4.514  38.845  1.00  0.00     0.000 C 
BRANCH  18  19
ATOM     19  C   UNL     1       0.073   5.956  39.007  1.00  0.00     0.000 C 
BRANCH  19  20
ATOM     20  C   UNL     1       1.532   5.979  39.487  1.00  0.00     0.000 C 
BRANCH  20  21
ATOM     21  C   UNL     1       2.522   5.559  38.389  1.00  0.00     0.000 C 
BRANCH  21  22
ATOM     22  C   UNL     1       2.316   6.263  37.034  1.00  0.00     0.000 C 
BRANCH  22  23
ATOM     23  C   UNL     1       2.600   5.358  35.815  1.00  0.00     0.000 C 
BRANCH  23  24
ATOM     24  C   UNL     1       1.981   3.957  35.970  1.00  0.00    -0.000 C 
BRANCH  24  25
ATOM     25  C   UNL     1       3.022   2.833  35.818  1.00  0.00    -0.000 C 
BRANCH  25  26
ATOM     26  C   UNL     1       3.008   2.204  34.412  1.00  0.00    -0.000 C 
BRANCH  26  27
ATOM     27  C   UNL     1       3.923   2.947  33.414  1.00  0.00    -0.000 C 
BRANCH  27  28
ATOM     28  C   UNL     1       3.159   3.808  32.389  1.00  0.00    -0.000 C 
BRANCH  28  29
ATOM     29  C   UNL     1       1.656   3.501  32.267  1.00  0.00    -0.000 C 
BRANCH  29  30
ATOM     30  C   UNL     1       0.716   4.679  32.599  1.00  0.00    -0.000 C 
BRANCH  30  31
ATOM     31  C   UNL     1       0.868   5.908  31.684  1.00  0.00    -0.003 C 
ATOM     32  C   UNL     1       1.465   7.116  32.405  1.00  0.00     0.004 C 
ENDBRANCH  30  31
ENDBRANCH  29  30
ENDBRANCH  28  29
ENDBRANCH  27  28
ENDBRANCH  26  27
ENDBRANCH  25  26
ENDBRANCH  24  25
ENDBRANCH  23  24
ENDBRANCH  22  23
ENDBRANCH  21  22
ENDBRANCH  20  21
ENDBRANCH  19  20
ENDBRANCH  18  19
ENDBRANCH   1  18
TORSDOF 28
ENDMDL
MODEL 3
REMARK VINA RESULT:    -3.510      1.425      3.670
REMARK INTER + INTRA:         -15.181
REMARK INTER:                  -9.105
REMARK INTRA:                  -6.076
REMARK UNBOUND:                -5.925
REMARK SMILES CCCCCCCCCCCCCCCCCCCCCCCCCCCCCC(=O)[O-]
REMARK SMILES IDX 16 1 17 2 18 3 19 4 20 5 21 6 22 7 23 8 24 9 25 10 26 11
REMARK SMILES IDX 27 12 28 13 29 14 30 15 31 16 32 17 15 18 14 19 13 20 12 21
REMARK SMILES IDX 11 22 10 23 9 24 8 25 7 26 6 27 5 28 4 29 3 30 2 31 1 32
REMARK H PARENT
REMARK Flexibility Score: inf
ROOT
ATOM      1  C   UNL     1      -2.631   5.996  42.460  1.00  0.00     0.000 C 
ENDROOT
BRANCH   1   2
ATOM      2  C   UNL     1      -1.396   6.698  43.053  1.00  0.00     0.000 C 
BRANCH   2   3
ATOM      3  C   UNL     1      -1.128   8.072  42.417  1.00  0.00     0.000 C 
BRANCH   3   4
ATOM      4  C   UNL     1       0.278   8.184  41.806  1.00  0.00     0.000 C 
BRANCH   4   5
ATOM      5  C   UNL     1       0.770   6.860  41.201  1.00  0.00     0.000 C 
BRANCH   5   6
ATOM      6  C   UNL     1       1.240   7.054  39.753  1.00  0.00     0.000 C 
BRANCH   6   7
ATOM      7  C   UNL     1       1.301   5.709  39.013  1.00  0.00     0.000 C 
BRANCH   7   8
ATOM      8  C   UNL     1       2.022   4.618  39.820  1.00  0.00     0.000 C 
BRANCH   8   9
ATOM      9  C   UNL     1       2.783   3.625  38.922  1.00  0.00     0.000 C 
BRANCH   9  10
ATOM     10  C   UNL     1       2.292   3.668  37.459  1.00  0.00     0.000 C 
BRANCH  10  11
ATOM     11  C   UNL     1       3.368   4.122  36.456  1.00  0.00     0.000 C 
BRANCH  11  12
ATOM     12  C   UNL     1       2.973   5.393  35.687  1.00  0.00     0.000 C 
BRANCH  12  13
ATOM     13  C   UNL     1       2.963   5.192  34.159  1.00  0.00     0.006 C 
BRANCH  13  14
ATOM     14  C   UNL     1       1.593   4.813  33.574  1.00  0.00     0.053 C 
BRANCH  14  15
ATOM     15  C   UNL     1       1.562   4.944  32.081  1.00  0.00     0.041 C 
ATOM     16  O   UNL     1       0.875   5.850  31.540  1.00  0.00    -0.550 OA
ATOM     17  O   UNL     1       2.262   4.045  31.289  1.00  0.00    -0.550 OA
ENDBRANCH  14  15
ENDBRANCH  13  14
ENDBRANCH  12  13
ENDBRANCH  11  12
ENDBRANCH  10  11
ENDBRANCH   9  10
ENDBRANCH   8   9
ENDBRANCH   7   8
ENDBRANCH   6   7
ENDBRANCH   5   6
ENDBRANCH   4   5
ENDBRANCH   3   4
ENDBRANCH   2   3
ENDBRANCH   1   2
BRANCH   1  18
ATOM     18  C   UNL     1      -2.304   4.712  41.668  1.00  0.00     0.000 C 
BRANCH  18  19
ATOM     19  C   UNL     1      -2.267   4.962  40.151  1.00  0.00     0.000 C 
BRANCH  19  20
ATOM     20  C   UNL     1      -3.087   6.205  39.773  1.00  0.00     0.000 C 
BRANCH  20  21
ATOM     21  C   UNL     1      -2.264   7.238  38.986  1.00  0.00     0.000 C 
BRANCH  21  22
ATOM     22  C   UNL     1      -2.690   8.701  39.207  1.00  0.00     0.000 C 
BRANCH  22  23
ATOM     23  C   UNL     1      -2.046   9.692  38.213  1.00  0.00     0.000 C 
BRANCH  23  24
ATOM     24  C   UNL     1      -0.570   9.977  38.546  1.00  0.00    -0.000 C 
BRANCH  24  25
ATOM     25  C   UNL     1       0.334   9.935  37.300  1.00  0.00    -0.000 C 
BRANCH  25  26
ATOM     26  C   UNL     1      -0.458   9.669  36.006  1.00  0.00    -0.000 C 
BRANCH  26  27
ATOM     27  C   UNL     1      -0.022   8.370  35.293  1.00  0.00    -0.000 C 
BRANCH  27  28
ATOM     28  C   UNL     1      -0.321   7.088  36.093  1.00  0.00    -0.000 C 
BRANCH  28  29
ATOM     29  C   UNL     1      -1.236   6.072  35.387  1.00  0.00    -0.000 C 
BRANCH  29  30
ATOM     30  C   UNL     1      -2.006   5.120  36.324  1.00  0.00    -0.000 C 
BRANCH  30  31
ATOM     31  C   UNL     1      -1.255   3.829  36.698  1.00  0.00    -0.003 C 
ATOM     32  C   UNL     1      -0.933   2.956  35.486  1.00  0.00     0.004 C 
ENDBRANCH  30  31
ENDBRANCH  29  30
ENDBRANCH  28  29
ENDBRANCH  27  28
ENDBRANCH  26  27
ENDBRANCH  25  26
ENDBRANCH  24  25
ENDBRANCH  23  24
ENDBRANCH  22  23
ENDBRANCH  21  22
ENDBRANCH  20  21
ENDBRANCH  19  20
ENDBRANCH  18  19
ENDBRANCH   1  18
TORSDOF 28
ENDMDL
MODEL 4
REMARK VINA RESULT:    -3.474      3.254      5.977
REMARK INTER + INTRA:         -15.085
REMARK INTER:                 -11.095
REMARK INTRA:                  -3.990
REMARK UNBOUND:                -5.925
REMARK SMILES CCCCCCCCCCCCCCCCCCCCCCCCCCCCCC(=O)[O-]
REMARK SMILES IDX 16 1 17 2 18 3 19 4 20 5 21 6 22 7 23 8 24 9 25 10 26 11
REMARK SMILES IDX 27 12 28 13 29 14 30 15 31 16 32 17 15 18 14 19 13 20 12 21
REMARK SMILES IDX 11 22 10 23 9 24 8 25 7 26 6 27 5 28 4 29 3 30 2 31 1 32
REMARK H PARENT
REMARK Flexibility Score: inf
ROOT
ATOM      1  C   UNL     1      -1.802   9.308  37.227  1.00  0.00     0.000 C 
ENDROOT
BRANCH   1   2
ATOM      2  C   UNL     1      -0.851   8.687  36.188  1.00  0.00     0.000 C 
BRANCH   2   3
ATOM      3  C   UNL     1      -1.369   7.353  35.628  1.00  0.00     0.000 C 
BRANCH   3   4
ATOM      4  C   UNL     1      -0.471   6.780  34.520  1.00  0.00     0.000 C 
BRANCH   4   5
ATOM      5  C   UNL     1      -0.227   5.270  34.673  1.00  0.00     0.000 C 
BRANCH   5   6
ATOM      6  C   UNL     1       0.037   4.611  33.313  1.00  0.00     0.000 C 
BRANCH   6   7
ATOM      7  C   UNL     1       0.574   5.636  32.303  1.00  0.00     0.000 C 
BRANCH   7   8
ATOM      8  C   UNL     1       0.453   5.157  30.848  1.00  0.00     0.000 C 
BRANCH   8   9
ATOM      9  C   UNL     1       1.371   5.940  29.891  1.00  0.00     0.000 C 
BRANCH   9  10
ATOM     10  C   UNL     1       1.583   5.201  28.552  1.00  0.00     0.000 C 
BRANCH  10  11
ATOM     11  C   UNL     1       3.056   5.122  28.114  1.00  0.00     0.000 C 
BRANCH  11  12
ATOM     12  C   UNL     1       3.388   6.076  26.954  1.00  0.00     0.000 C 
BRANCH  12  13
ATOM     13  C   UNL     1       3.535   7.542  27.406  1.00  0.00     0.006 C 
BRANCH  13  14
ATOM     14  C   UNL     1       3.971   8.512  26.296  1.00  0.00     0.053 C 
BRANCH  14  15
ATOM     15  C   UNL     1       2.800   9.106  25.574  1.00  0.00     0.041 C 
ATOM     16  O   UNL     1       2.974   9.739  24.499  1.00  0.00    -0.550 OA
ATOM     17  O   UNL     1       1.523   8.992  26.106  1.00  0.00    -0.550 OA
ENDBRANCH  14  15
ENDBRANCH  13  14
ENDBRANCH  12  13
ENDBRANCH  11  12
ENDBRANCH  10  11
ENDBRANCH   9  10
ENDBRANCH   8   9
ENDBRANCH   7   8
ENDBRANCH   6   7
ENDBRANCH   5   6
ENDBRANCH   4   5
ENDBRANCH   3   4
ENDBRANCH   2   3
ENDBRANCH   1   2
BRANCH   1  18
ATOM     18  C   UNL     1      -1.083  10.076  38.357  1.00  0.00     0.000 C 
BRANCH  18  19
ATOM     19  C   UNL     1       0.441  10.107  38.156  1.00  0.00     0.000 C 
BRANCH  19  20
ATOM     20  C   UNL     1       1.179   9.766  39.459  1.00  0.00     0.000 C 
BRANCH  20  21
ATOM     21  C   UNL     1       0.241   9.716  40.675  1.00  0.00     0.000 C 
BRANCH  21  22
ATOM     22  C   UNL     1       0.398   8.464  41.558  1.00  0.00     0.000 C 
BRANCH  22  23
ATOM     23  C   UNL     1      -0.776   8.243  42.536  1.00  0.00     0.000 C 
BRANCH  23  24
ATOM     24  C   UNL     1      -1.771   7.185  42.027  1.00  0.00    -0.000 C 
BRANCH  24  25
ATOM     25  C   UNL     1      -2.943   7.807  41.245  1.00  0.00    -0.000 C 
BRANCH  25  26
ATOM     26  C   UNL     1      -3.038   7.275  39.803  1.00  0.00    -0.000 C 
BRANCH  26  27
ATOM     27  C   UNL     1      -3.065   5.731  39.735  1.00  0.00    -0.000 C 
BRANCH  27  28
ATOM     28  C   UNL     1      -1.839   5.117  39.033  1.00  0.00    -0.000 C 
BRANCH  28  29
ATOM     29  C   UNL     1      -0.679   6.092  38.765  1.00  0.00    -0.000 C 
BRANCH  29  30
ATOM     30  C   UNL     1       0.724   5.556  39.118  1.00  0.00    -0.000 C 
BRANCH  30  31
ATOM     31  C   UNL     1       1.890   6.478  38.718  1.00  0.00    -0.003 C 
ATOM     32  C   UNL     1       2.128   6.516  37.209  1.00  0.00     0.004 C 
ENDBRANCH  30  31
ENDBRANCH  29  30
ENDBRANCH  28  29
ENDBRANCH  27  28
ENDBRANCH  26  27
ENDBRANCH  25  26
ENDBRANCH  24  25
ENDBRANCH  23  24
ENDBRANCH  22  23
ENDBRANCH  21  22
ENDBRANCH  20  21
ENDBRANCH  19  20
ENDBRANCH  18  19
ENDBRANCH   1  18
TORSDOF 28
ENDMDL
MODEL 5
REMARK VINA RESULT:    -3.464      2.951      5.344
REMARK INTER + INTRA:         -15.059
REMARK INTER:                  -8.257
REMARK INTRA:                  -6.801
REMARK UNBOUND:                -5.925
REMARK SMILES CCCCCCCCCCCCCCCCCCCCCCCCCCCCCC(=O)[O-]
REMARK SMILES IDX 16 1 17 2 18 3 19 4 20 5 21 6 22 7 23 8 24 9 25 10 26 11
REMARK SMILES IDX 27 12 28 13 29 14 30 15 31 16 32 17 15 18 14 19 13 20 12 21
REMARK SMILES IDX 11 22 10 23 9 24 8 25 7 26 6 27 5 28 4 29 3 30 2 31 1 32
REMARK H PARENT
REMARK Flexibility Score: inf
ROOT
ATOM      1  C   UNL     1       0.131   9.795  38.669  1.00  0.00     0.000 C 
ENDROOT
BRANCH   1   2
ATOM      2  C   UNL     1       1.079   9.423  39.823  1.00  0.00     0.000 C 
BRANCH   2   3
ATOM      3  C   UNL     1       0.367   9.369  41.185  1.00  0.00     0.000 C 
BRANCH   3   4
ATOM      4  C   UNL     1       0.776   8.148  42.026  1.00  0.00     0.000 C 
BRANCH   4   5
ATOM      5  C   UNL     1      -0.430   7.413  42.632  1.00  0.00     0.000 C 
BRANCH   5   6
ATOM      6  C   UNL     1      -1.719   8.226  42.457  1.00  0.00     0.000 C 
BRANCH   6   7
ATOM      7  C   UNL     1      -2.801   7.392  41.755  1.00  0.00     0.000 C 
BRANCH   7   8
ATOM      8  C   UNL     1      -2.663   5.886  42.028  1.00  0.00     0.000 C 
BRANCH   8   9
ATOM      9  C   UNL     1      -2.980   5.030  40.789  1.00  0.00     0.000 C 
BRANCH   9  10
ATOM     10  C   UNL     1      -2.946   5.857  39.485  1.00  0.00     0.000 C 
BRANCH  10  11
ATOM     11  C   UNL     1      -1.747   5.533  38.576  1.00  0.00     0.000 C 
BRANCH  11  12
ATOM     12  C   UNL     1      -0.420   6.095  39.113  1.00  0.00     0.000 C 
BRANCH  12  13
ATOM     13  C   UNL     1       0.649   5.007  39.331  1.00  0.00     0.006 C 
BRANCH  13  14
ATOM     14  C   UNL     1       0.890   4.634  40.803  1.00  0.00     0.053 C 
BRANCH  14  15
ATOM     15  C   UNL     1       0.642   3.180  41.065  1.00  0.00     0.041 C 
ATOM     16  O   UNL     1      -0.426   2.810  41.620  1.00  0.00    -0.550 OA
ATOM     17  O   UNL     1       1.605   2.238  40.730  1.00  0.00    -0.550 OA
ENDBRANCH  14  15
ENDBRANCH  13  14
ENDBRANCH  12  13
ENDBRANCH  11  12
ENDBRANCH  10  11
ENDBRANCH   9  10
ENDBRANCH   8   9
ENDBRANCH   7   8
ENDBRANCH   6   7
ENDBRANCH   5   6
ENDBRANCH   4   5
ENDBRANCH   3   4
ENDBRANCH   2   3
ENDBRANCH   1   2
BRANCH   1  18
ATOM     18  C   UNL     1      -1.366   9.731  39.040  1.00  0.00     0.000 C 
BRANCH  18  19
ATOM     19  C   UNL     1      -2.236   9.268  37.859  1.00  0.00     0.000 C 
BRANCH  19  20
ATOM     20  C   UNL     1      -1.438   9.272  36.547  1.00  0.00     0.000 C 
BRANCH  20  21
ATOM     21  C   UNL     1      -1.451   7.905  35.844  1.00  0.00     0.000 C 
BRANCH  21  22
ATOM     22  C   UNL     1      -0.132   7.530  35.142  1.00  0.00     0.000 C 
BRANCH  22  23
ATOM     23  C   UNL     1       1.061   7.368  36.108  1.00  0.00     0.000 C 
BRANCH  23  24
ATOM     24  C   UNL     1       1.915   6.130  35.780  1.00  0.00    -0.000 C 
BRANCH  24  25
ATOM     25  C   UNL     1       1.130   5.063  34.995  1.00  0.00    -0.000 C 
BRANCH  25  26
ATOM     26  C   UNL     1       0.554   3.965  35.908  1.00  0.00    -0.000 C 
BRANCH  26  27
ATOM     27  C   UNL     1       1.339   2.637  35.817  1.00  0.00    -0.000 C 
BRANCH  27  28
ATOM     28  C   UNL     1       1.817   2.100  37.179  1.00  0.00    -0.000 C 
BRANCH  28  29
ATOM     29  C   UNL     1       3.319   2.277  37.464  1.00  0.00    -0.000 C 
BRANCH  29  30
ATOM     30  C   UNL     1       3.698   3.577  38.202  1.00  0.00    -0.000 C 
BRANCH  30  31
ATOM     31  C   UNL     1       4.733   4.457  37.477  1.00  0.00    -0.003 C 
ATOM     32  C   UNL     1       4.955   4.039  36.024  1.00  0.00     0.004 C 
ENDBRANCH  30  31
ENDBRANCH  29  30
ENDBRANCH  28  29
ENDBRANCH  27  28
ENDBRANCH  26  27
ENDBRANCH  25  26
ENDBRANCH  24  25
ENDBRANCH  23  24
ENDBRANCH  22  23
ENDBRANCH  21  22
ENDBRANCH  20  21
ENDBRANCH  19  20
ENDBRANCH  18  19
ENDBRANCH   1  18
TORSDOF 28
ENDMDL
MODEL 6
REMARK VINA RESULT:    -3.461      1.696      4.663
REMARK INTER + INTRA:         -15.050
REMARK INTER:                  -8.812
REMARK INTRA:                  -6.238
REMARK UNBOUND:                -5.925
REMARK SMILES CCCCCCCCCCCCCCCCCCCCCCCCCCCCCC(=O)[O-]
REMARK SMILES IDX 16 1 17 2 18 3 19 4 20 5 21 6 22 7 23 8 24 9 25 10 26 11
REMARK SMILES IDX 27 12 28 13 29 14 30 15 31 16 32 17 15 18 14 19 13 20 12 21
REMARK SMILES IDX 11 22 10 23 9 24 8 25 7 26 6 27 5 28 4 29 3 30 2 31 1 32
REMARK H PARENT
REMARK Flexibility Score: inf
ROOT
ATOM      1  C   UNL     1      -2.463   5.340  40.487  1.00  0.00     0.000 C 
ENDROOT
BRANCH   1   2
ATOM      2  C   UNL     1      -3.169   6.458  39.699  1.00  0.00     0.000 C 
BRANCH   2   3
ATOM      3  C   UNL     1      -2.758   7.865  40.163  1.00  0.00     0.000 C 
BRANCH   3   4
ATOM      4  C   UNL     1      -2.516   8.833  38.994  1.00  0.00     0.000 C 
BRANCH   4   5
ATOM      5  C   UNL     1      -1.113   9.460  39.021  1.00  0.00     0.000 C 
BRANCH   5   6
ATOM      6  C   UNL     1      -0.456   9.284  40.396  1.00  0.00     0.000 C 
BRANCH   6   7
ATOM      7  C   UNL     1       0.941   8.661  40.259  1.00  0.00     0.000 C 
BRANCH   7   8
ATOM      8  C   UNL     1       1.274   8.257  38.814  1.00  0.00     0.000 C 
BRANCH   8   9
ATOM      9  C   UNL     1       2.128   6.978  38.740  1.00  0.00     0.000 C 
BRANCH   9  10
ATOM     10  C   UNL     1       2.287   6.466  37.292  1.00  0.00     0.000 C 
BRANCH  10  11
ATOM     11  C   UNL     1       3.114   5.173  37.179  1.00  0.00     0.000 C 
BRANCH  11  12
ATOM     12  C   UNL     1       3.652   4.929  35.759  1.00  0.00     0.000 C 
BRANCH  12  13
ATOM     13  C   UNL     1       2.544   4.562  34.752  1.00  0.00     0.006 C 
BRANCH  13  14
ATOM     14  C   UNL     1       2.196   5.677  33.752  1.00  0.00     0.053 C 
BRANCH  14  15
ATOM     15  C   UNL     1       0.906   5.412  33.039  1.00  0.00     0.041 C 
ATOM     16  O   UNL     1       0.534   6.165  32.101  1.00  0.00    -0.550 OA
ATOM     17  O   UNL     1       0.096   4.356  33.435  1.00  0.00    -0.550 OA
ENDBRANCH  14  15
ENDBRANCH  13  14
ENDBRANCH  12  13
ENDBRANCH  11  12
ENDBRANCH  10  11
ENDBRANCH   9  10
ENDBRANCH   8   9
ENDBRANCH   7   8
ENDBRANCH   6   7
ENDBRANCH   5   6
ENDBRANCH   4   5
ENDBRANCH   3   4
ENDBRANCH   2   3
ENDBRANCH   1   2
BRANCH   1  18
ATOM     18  C   UNL     1      -2.621   5.456  42.019  1.00  0.00     0.000 C 
BRANCH  18  19
ATOM     19  C   UNL     1      -1.303   5.174  42.759  1.00  0.00     0.000 C 
BRANCH  19  20
ATOM     20  C   UNL     1      -0.136   5.949  42.129  1.00  0.00     0.000 C 
BRANCH  20  21
ATOM     21  C   UNL     1       1.028   5.032  41.718  1.00  0.00     0.000 C 
BRANCH  21  22
ATOM     22  C   UNL     1       0.789   3.533  41.979  1.00  0.00     0.000 C 
BRANCH  22  23
ATOM     23  C   UNL     1       0.460   2.726  40.705  1.00  0.00     0.000 C 
BRANCH  23  24
ATOM     24  C   UNL     1       0.599   3.570  39.426  1.00  0.00    -0.000 C 
BRANCH  24  25
ATOM     25  C   UNL     1       0.832   2.706  38.172  1.00  0.00    -0.000 C 
BRANCH  25  26
ATOM     26  C   UNL     1      -0.039   3.149  36.982  1.00  0.00    -0.000 C 
BRANCH  26  27
ATOM     27  C   UNL     1      -1.291   3.943  37.417  1.00  0.00    -0.000 C 
BRANCH  27  28
ATOM     28  C   UNL     1      -1.732   5.017  36.404  1.00  0.00    -0.000 C 
BRANCH  28  29
ATOM     29  C   UNL     1      -1.073   6.396  36.582  1.00  0.00    -0.000 C 
BRANCH  29  30
ATOM     30  C   UNL     1      -1.111   7.307  35.338  1.00  0.00    -0.000 C 
BRANCH  30  31
ATOM     31  C   UNL     1      -0.868   8.801  35.619  1.00  0.00    -0.003 C 
ATOM     32  C   UNL     1       0.563   9.239  35.311  1.00  0.00     0.004 C 
ENDBRANCH  30  31
ENDBRANCH  29  30
ENDBRANCH  28  29
ENDBRANCH  27  28
ENDBRANCH  26  27
ENDBRANCH  25  26
ENDBRANCH  24  25
ENDBRANCH  23  24
ENDBRANCH  22  23
ENDBRANCH  21  22
ENDBRANCH  20  21
ENDBRANCH  19  20
ENDBRANCH  18  19
ENDBRANCH   1  18
TORSDOF 28
ENDMDL
MODEL 7
REMARK VINA RESULT:    -3.455      1.812      2.082
REMARK INTER + INTRA:         -15.034
REMARK INTER:                  -9.217
REMARK INTRA:                  -5.818
REMARK UNBOUND:                -5.925
REMARK SMILES CCCCCCCCCCCCCCCCCCCCCCCCCCCCCC(=O)[O-]
REMARK SMILES IDX 16 1 17 2 18 3 19 4 20 5 21 6 22 7 23 8 24 9 25 10 26 11
REMARK SMILES IDX 27 12 28 13 29 14 30 15 31 16 32 17 15 18 14 19 13 20 12 21
REMARK SMILES IDX 11 22 10 23 9 24 8 25 7 26 6 27 5 28 4 29 3 30 2 31 1 32
REMARK H PARENT
REMARK Flexibility Score: inf
ROOT
ATOM      1  C   UNL     1      -1.547   8.019  42.672  1.00  0.00     0.000 C 
ENDROOT
BRANCH   1   2
ATOM      2  C   UNL     1      -2.816   7.282  42.205  1.00  0.00     0.000 C 
BRANCH   2   3
ATOM      3  C   UNL     1      -2.699   5.754  42.334  1.00  0.00     0.000 C 
BRANCH   3   4
ATOM      4  C   UNL     1      -2.884   5.025  40.994  1.00  0.00     0.000 C 
BRANCH   4   5
ATOM      5  C   UNL     1      -3.301   5.969  39.855  1.00  0.00     0.000 C 
BRANCH   5   6
ATOM      6  C   UNL     1      -2.484   5.700  38.585  1.00  0.00     0.000 C 
BRANCH   6   7
ATOM      7  C   UNL     1      -1.163   4.993  38.924  1.00  0.00     0.000 C 
BRANCH   7   8
ATOM      8  C   UNL     1      -0.669   4.080  37.790  1.00  0.00     0.000 C 
BRANCH   8   9
ATOM      9  C   UNL     1      -1.638   4.049  36.594  1.00  0.00     0.000 C 
BRANCH   9  10
ATOM     10  C   UNL     1      -0.898   4.138  35.242  1.00  0.00     0.000 C 
BRANCH  10  11
ATOM     11  C   UNL     1       0.618   4.364  35.378  1.00  0.00     0.000 C 
BRANCH  11  12
ATOM     12  C   UNL     1       1.236   5.045  34.146  1.00  0.00     0.000 C 
BRANCH  12  13
ATOM     13  C   UNL     1       2.772   5.148  34.224  1.00  0.00     0.006 C 
BRANCH  13  14
ATOM     14  C   UNL     1       3.525   4.116  33.367  1.00  0.00     0.053 C 
BRANCH  14  15
ATOM     15  C   UNL     1       4.307   3.151  34.205  1.00  0.00     0.041 C 
ATOM     16  O   UNL     1       5.490   3.422  34.545  1.00  0.00    -0.550 OA
ATOM     17  O   UNL     1       3.744   1.939  34.580  1.00  0.00    -0.550 OA
ENDBRANCH  14  15
ENDBRANCH  13  14
ENDBRANCH  12  13
ENDBRANCH  11  12
ENDBRANCH  10  11
ENDBRANCH   9  10
ENDBRANCH   8   9
ENDBRANCH   7   8
ENDBRANCH   6   7
ENDBRANCH   5   6
ENDBRANCH   4   5
ENDBRANCH   3   4
ENDBRANCH   2   3
ENDBRANCH   1   2
BRANCH   1  18
ATOM     18  C   UNL     1      -0.234   7.277  42.345  1.00  0.00     0.000 C 
BRANCH  18  19
ATOM     19  C   UNL     1       0.615   8.032  41.309  1.00  0.00     0.000 C 
BRANCH  19  20
ATOM     20  C   UNL     1      -0.015   9.388  40.957  1.00  0.00     0.000 C 
BRANCH  20  21
ATOM     21  C   UNL     1      -0.258   9.553  39.448  1.00  0.00     0.000 C 
BRANCH  21  22
ATOM     22  C   UNL     1      -1.695   9.237  38.990  1.00  0.00     0.000 C 
BRANCH  22  23
ATOM     23  C   UNL     1      -1.897   9.343  37.463  1.00  0.00     0.000 C 
BRANCH  23  24
ATOM     24  C   UNL     1      -1.113   8.265  36.693  1.00  0.00    -0.000 C 
BRANCH  24  25
ATOM     25  C   UNL     1       0.033   8.858  35.853  1.00  0.00    -0.000 C 
BRANCH  25  26
ATOM     26  C   UNL     1       1.421   8.437  36.370  1.00  0.00    -0.000 C 
BRANCH  26  27
ATOM     27  C   UNL     1       1.391   7.107  37.155  1.00  0.00    -0.000 C 
BRANCH  27  28
ATOM     28  C   UNL     1       2.231   7.125  38.447  1.00  0.00    -0.000 C 
BRANCH  28  29
ATOM     29  C   UNL     1       2.551   5.742  39.041  1.00  0.00    -0.000 C 
BRANCH  29  30
ATOM     30  C   UNL     1       2.964   4.667  38.015  1.00  0.00    -0.000 C 
BRANCH  30  31
ATOM     31  C   UNL     1       4.465   4.636  37.675  1.00  0.00    -0.003 C 
ATOM     32  C   UNL     1       5.355   4.576  38.916  1.00  0.00     0.004 C 
ENDBRANCH  30  31
ENDBRANCH  29  30
ENDBRANCH  28  29
ENDBRANCH  27  28
ENDBRANCH  26  27
ENDBRANCH  25  26
ENDBRANCH  24  25
ENDBRANCH  23  24
ENDBRANCH  22  23
ENDBRANCH  21  22
ENDBRANCH  20  21
ENDBRANCH  19  20
ENDBRANCH  18  19
ENDBRANCH   1  18
TORSDOF 28
ENDMDL
MODEL 8
REMARK VINA RESULT:    -3.447      2.972      5.180
REMARK INTER + INTRA:         -15.014
REMARK INTER:                  -8.730
REMARK INTRA:                  -6.284
REMARK UNBOUND:                -5.925
REMARK SMILES CCCCCCCCCCCCCCCCCCCCCCCCCCCCCC(=O)[O-]
REMARK SMILES IDX 16 1 17 2 18 3 19 4 20 5 21 6 22 7 23 8 24 9 25 10 26 11
REMARK SMILES IDX 27 12 28 13 29 14 30 15 31 16 32 17 15 18 14 19 13 20 12 21
REMARK SMILES IDX 11 22 10 23 9 24 8 25 7 26 6 27 5 28 4 29 3 30 2 31 1 32
REMARK H PARENT
REMARK Flexibility Score: inf
ROOT
ATOM      1  C   UNL     1      -2.400   5.207  39.856  1.00  0.00     0.000 C 
ENDROOT
BRANCH   1   2
ATOM      2  C   UNL     1      -3.390   6.339  39.526  1.00  0.00     0.000 C 
BRANCH   2   3
ATOM      3  C   UNL     1      -2.945   7.701  40.083  1.00  0.00     0.000 C 
BRANCH   3   4
ATOM      4  C   UNL     1      -2.331   8.614  39.010  1.00  0.00     0.000 C 
BRANCH   4   5
ATOM      5  C   UNL     1      -0.815   8.804  39.186  1.00  0.00     0.000 C 
BRANCH   5   6
ATOM      6  C   UNL     1      -0.351   8.302  40.559  1.00  0.00     0.000 C 
BRANCH   6   7
ATOM      7  C   UNL     1       0.953   7.501  40.437  1.00  0.00     0.000 C 
BRANCH   7   8
ATOM      8  C   UNL     1       1.514   7.491  39.006  1.00  0.00     0.000 C 
BRANCH   8   9
ATOM      9  C   UNL     1       2.514   6.344  38.771  1.00  0.00     0.000 C 
BRANCH   9  10
ATOM     10  C   UNL     1       2.564   5.908  37.291  1.00  0.00     0.000 C 
BRANCH  10  11
ATOM     11  C   UNL     1       3.668   4.880  36.984  1.00  0.00     0.000 C 
BRANCH  11  12
ATOM     12  C   UNL     1       3.113   3.480  36.676  1.00  0.00     0.000 C 
BRANCH  12  13
ATOM     13  C   UNL     1       1.606   3.352  36.973  1.00  0.00     0.006 C 
BRANCH  13  14
ATOM     14  C   UNL     1       1.139   1.924  37.301  1.00  0.00     0.053 C 
BRANCH  14  15
ATOM     15  C   UNL     1       1.273   1.608  38.759  1.00  0.00     0.041 C 
ATOM     16  O   UNL     1       1.457   0.420  39.135  1.00  0.00    -0.550 OA
ATOM     17  O   UNL     1       1.157   2.618  39.704  1.00  0.00    -0.550 OA
ENDBRANCH  14  15
ENDBRANCH  13  14
ENDBRANCH  12  13
ENDBRANCH  11  12
ENDBRANCH  10  11
ENDBRANCH   9  10
ENDBRANCH   8   9
ENDBRANCH   7   8
ENDBRANCH   6   7
ENDBRANCH   5   6
ENDBRANCH   4   5
ENDBRANCH   3   4
ENDBRANCH   2   3
ENDBRANCH   1   2
BRANCH   1  18
ATOM     18  C   UNL     1      -1.289   5.018  38.801  1.00  0.00     0.000 C 
BRANCH  18  19
ATOM     19  C   UNL     1      -1.830   5.121  37.366  1.00  0.00     0.000 C 
BRANCH  19  20
ATOM     20  C   UNL     1      -0.899   5.961  36.480  1.00  0.00     0.000 C 
BRANCH  20  21
ATOM     21  C   UNL     1      -1.652   7.046  35.693  1.00  0.00     0.000 C 
BRANCH  21  22
ATOM     22  C   UNL     1      -0.934   8.407  35.627  1.00  0.00     0.000 C 
BRANCH  22  23
ATOM     23  C   UNL     1       0.582   8.296  35.357  1.00  0.00     0.000 C 
BRANCH  23  24
ATOM     24  C   UNL     1       0.967   8.811  33.959  1.00  0.00    -0.000 C 
BRANCH  24  25
ATOM     25  C   UNL     1       1.416   7.679  33.017  1.00  0.00    -0.000 C 
BRANCH  25  26
ATOM     26  C   UNL     1       1.574   6.333  33.747  1.00  0.00    -0.000 C 
BRANCH  26  27
ATOM     27  C   UNL     1       0.668   5.225  33.165  1.00  0.00    -0.000 C 
BRANCH  27  28
ATOM     28  C   UNL     1       1.157   3.796  33.470  1.00  0.00    -0.000 C 
BRANCH  28  29
ATOM     29  C   UNL     1       1.823   3.065  32.291  1.00  0.00    -0.000 C 
BRANCH  29  30
ATOM     30  C   UNL     1       3.262   3.519  31.967  1.00  0.00    -0.000 C 
BRANCH  30  31
ATOM     31  C   UNL     1       4.148   3.794  33.195  1.00  0.00    -0.003 C 
ATOM     32  C   UNL     1       5.088   2.634  33.522  1.00  0.00     0.004 C 
ENDBRANCH  30  31
ENDBRANCH  29  30
ENDBRANCH  28  29
ENDBRANCH  27  28
ENDBRANCH  26  27
ENDBRANCH  25  26
ENDBRANCH  24  25
ENDBRANCH  23  24
ENDBRANCH  22  23
ENDBRANCH  21  22
ENDBRANCH  20  21
ENDBRANCH  19  20
ENDBRANCH  18  19
ENDBRANCH   1  18
TORSDOF 28
ENDMDL
MODEL 9
REMARK VINA RESULT:    -3.438      1.908      4.845
REMARK INTER + INTRA:         -14.991
REMARK INTER:                  -8.448
REMARK INTRA:                  -6.542
REMARK UNBOUND:                -5.925
REMARK SMILES CCCCCCCCCCCCCCCCCCCCCCCCCCCCCC(=O)[O-]
REMARK SMILES IDX 16 1 17 2 18 3 19 4 20 5 21 6 22 7 23 8 24 9 25 10 26 11
REMARK SMILES IDX 27 12 28 13 29 14 30 15 31 16 32 17 15 18 14 19 13 20 12 21
REMARK SMILES IDX 11 22 10 23 9 24 8 25 7 26 6 27 5 28 4 29 3 30 2 31 1 32
REMARK H PARENT
REMARK Flexibility Score: inf
ROOT
ATOM      1  C   UNL     1      -1.862   9.673  37.274  1.00  0.00     0.000 C 
ENDROOT
BRANCH   1   2
ATOM      2  C   UNL     1      -1.144   9.005  36.087  1.00  0.00     0.000 C 
BRANCH   2   3
ATOM      3  C   UNL     1      -1.758   7.648  35.706  1.00  0.00     0.000 C 
BRANCH   3   4
ATOM      4  C   UNL     1      -0.703   6.609  35.293  1.00  0.00     0.000 C 
BRANCH   4   5
ATOM      5  C   UNL     1       0.390   6.417  36.357  1.00  0.00     0.000 C 
BRANCH   5   6
ATOM      6  C   UNL     1       1.789   6.493  35.733  1.00  0.00     0.000 C 
BRANCH   6   7
ATOM      7  C   UNL     1       1.811   5.815  34.354  1.00  0.00     0.000 C 
BRANCH   7   8
ATOM      8  C   UNL     1       3.129   5.075  34.076  1.00  0.00     0.000 C 
BRANCH   8   9
ATOM      9  C   UNL     1       2.980   3.546  34.177  1.00  0.00     0.000 C 
BRANCH   9  10
ATOM     10  C   UNL     1       3.419   3.007  35.555  1.00  0.00     0.000 C 
BRANCH  10  11
ATOM     11  C   UNL     1       2.263   2.860  36.561  1.00  0.00     0.000 C 
BRANCH  11  12
ATOM     12  C   UNL     1       1.025   2.179  35.955  1.00  0.00     0.000 C 
BRANCH  12  13
ATOM     13  C   UNL     1      -0.261   3.009  36.127  1.00  0.00     0.006 C 
BRANCH  13  14
ATOM     14  C   UNL     1      -1.365   2.697  35.102  1.00  0.00     0.053 C 
BRANCH  14  15
ATOM     15  C   UNL     1      -0.821   2.558  33.713  1.00  0.00     0.041 C 
ATOM     16  O   UNL     1      -0.452   3.577  33.072  1.00  0.00    -0.550 OA
ATOM     17  O   UNL     1      -0.756   1.308  33.113  1.00  0.00    -0.550 OA
ENDBRANCH  14  15
ENDBRANCH  13  14
ENDBRANCH  12  13
ENDBRANCH  11  12
ENDBRANCH  10  11
ENDBRANCH   9  10
ENDBRANCH   8   9
ENDBRANCH   7   8
ENDBRANCH   6   7
ENDBRANCH   5   6
ENDBRANCH   4   5
ENDBRANCH   3   4
ENDBRANCH   2   3
ENDBRANCH   1   2
BRANCH   1  18
ATOM     18  C   UNL     1      -0.965   9.887  38.511  1.00  0.00     0.000 C 
BRANCH  18  19
ATOM     19  C   UNL     1       0.511   9.570  38.218  1.00  0.00     0.000 C 
BRANCH  19  20
ATOM     20  C   UNL     1       1.141   8.755  39.357  1.00  0.00     0.000 C 
BRANCH  20  21
ATOM     21  C   UNL     1       0.500   9.052  40.722  1.00  0.00     0.000 C 
BRANCH  21  22
ATOM     22  C   UNL     1       0.145   7.804  41.552  1.00  0.00     0.000 C 
BRANCH  22  23
ATOM     23  C   UNL     1      -1.058   8.008  42.497  1.00  0.00     0.000 C 
BRANCH  23  24
ATOM     24  C   UNL     1      -2.288   7.191  42.064  1.00  0.00    -0.000 C 
BRANCH  24  25
ATOM     25  C   UNL     1      -3.027   7.826  40.871  1.00  0.00    -0.000 C 
BRANCH  25  26
ATOM     26  C   UNL     1      -3.295   6.817  39.740  1.00  0.00    -0.000 C 
BRANCH  26  27
ATOM     27  C   UNL     1      -2.005   6.369  39.017  1.00  0.00    -0.000 C 
BRANCH  27  28
ATOM     28  C   UNL     1      -1.750   4.851  39.080  1.00  0.00    -0.000 C 
BRANCH  28  29
ATOM     29  C   UNL     1      -0.737   4.399  40.147  1.00  0.00    -0.000 C 
BRANCH  29  30
ATOM     30  C   UNL     1       0.625   3.925  39.599  1.00  0.00    -0.000 C 
BRANCH  30  31
ATOM     31  C   UNL     1       1.849   4.651  40.186  1.00  0.00    -0.003 C 
ATOM     32  C   UNL     1       2.613   5.467  39.144  1.00  0.00     0.004 C 
ENDBRANCH  30  31
ENDBRANCH  29  30
ENDBRANCH  28  29
ENDBRANCH  27  28
ENDBRANCH  26  27
ENDBRANCH  25  26
ENDBRANCH  24  25
ENDBRANCH  23  24
ENDBRANCH  22  23
ENDBRANCH  21  22
ENDBRANCH  20  21
ENDBRANCH  19  20
ENDBRANCH  18  19
ENDBRANCH   1  18
TORSDOF 28
ENDMDL
