MODEL 1
REMARK VINA RESULT:    -4.814      0.000      0.000
REMARK INTER + INTRA:         -15.363
REMARK INTER:                 -11.006
REMARK INTRA:                  -4.358
REMARK UNBOUND:                -4.358
REMARK SMILES CCCCCCCCCCCCCCCCCCCCCCCC(=O)[O-]
REMARK SMILES IDX 13 1 14 2 15 3 16 4 17 5 18 6 19 7 20 8 21 9 22 10 23 11
REMARK SMILES IDX 24 12 25 13 26 14 12 15 11 16 10 17 9 18 8 19 7 20 6 21 5 22
REMARK SMILES IDX 4 23 3 24 2 25 1 26
REMARK H PARENT
REMARK Flexibility Score: inf
ROOT
ATOM      1  C   UNL     1      57.194  11.752  88.735  1.00  0.00     0.000 C 
ENDROOT
BRANCH   1   2
ATOM      2  C   UNL     1      57.165  10.439  89.542  1.00  0.00     0.000 C 
BRANCH   2   3
ATOM      3  C   UNL     1      58.169  10.371  90.707  1.00  0.00     0.000 C 
BRANCH   3   4
ATOM      4  C   UNL     1      59.132  11.567  90.736  1.00  0.00     0.000 C 
BRANCH   4   5
ATOM      5  C   UNL     1      58.909  12.425  91.989  1.00  0.00     0.000 C 
BRANCH   5   6
ATOM      6  C   UNL     1      57.640  12.030  92.761  1.00  0.00     0.000 C 
BRANCH   6   7
ATOM      7  C   UNL     1      56.562  13.127  92.737  1.00  0.00     0.000 C 
BRANCH   7   8
ATOM      8  C   UNL     1      55.173  12.589  93.144  1.00  0.00     0.000 C 
BRANCH   8   9
ATOM      9  C   UNL     1      54.544  11.647  92.101  1.00  0.00     0.000 C 
BRANCH   9  10
ATOM     10  C   UNL     1      54.613  10.149  92.456  1.00  0.00     0.006 C 
BRANCH  10  11
ATOM     11  C   UNL     1      54.816   9.865  93.953  1.00  0.00     0.053 C 
BRANCH  11  12
ATOM     12  C   UNL     1      54.038   8.669  94.407  1.00  0.00     0.041 C 
ATOM     13  O   UNL     1      53.685   8.563  95.612  1.00  0.00    -0.550 OA
ATOM     14  O   UNL     1      53.684   7.681  93.496  1.00  0.00    -0.550 OA
ENDBRANCH  11  12
ENDBRANCH  10  11
ENDBRANCH   9  10
ENDBRANCH   8   9
ENDBRANCH   7   8
ENDBRANCH   6   7
ENDBRANCH   5   6
ENDBRANCH   4   5
ENDBRANCH   3   4
ENDBRANCH   2   3
ENDBRANCH   1   2
BRANCH   1  15
ATOM     15  C   UNL     1      56.104  12.774  89.113  1.00  0.00     0.000 C 
BRANCH  15  16
ATOM     16  C   UNL     1      56.425  14.237  88.746  1.00  0.00     0.000 C 
BRANCH  16  17
ATOM     17  C   UNL     1      57.213  15.019  89.814  1.00  0.00     0.000 C 
BRANCH  17  18
ATOM     18  C   UNL     1      58.718  15.085  89.517  1.00  0.00    -0.000 C 
BRANCH  18  19
ATOM     19  C   UNL     1      59.315  16.413  90.005  1.00  0.00    -0.000 C 
BRANCH  19  20
ATOM     20  C   UNL     1      58.999  16.708  91.482  1.00  0.00    -0.000 C 
BRANCH  20  21
ATOM     21  C   UNL     1      59.726  15.804  92.495  1.00  0.00    -0.000 C 
BRANCH  21  22
ATOM     22  C   UNL     1      58.982  15.687  93.834  1.00  0.00    -0.000 C 
BRANCH  22  23
ATOM     23  C   UNL     1      59.718  14.735  94.790  1.00  0.00    -0.000 C 
BRANCH  23  24
ATOM     24  C   UNL     1      59.021  14.613  96.154  1.00  0.00    -0.000 C 
BRANCH  24  25
ATOM     25  C   UNL     1      57.499  14.445  96.031  1.00  0.00    -0.003 C 
ATOM     26  C   UNL     1      57.067  13.039  96.441  1.00  0.00     0.004 C 
ENDBRANCH  24  25
ENDBRANCH  23  24
ENDBRANCH  22  23
ENDBRANCH  21  22
ENDBRANCH  20  21
ENDBRANCH  19  20
ENDBRANCH  18  19
ENDBRANCH  17  18
ENDBRANCH  16  17
ENDBRANCH  15  16
ENDBRANCH   1  15
TORSDOF 22
ENDMDL
MODEL 2
REMARK VINA RESULT:    -4.800      1.323      4.571
REMARK INTER + INTRA:         -15.331
REMARK INTER:                 -11.346
REMARK INTRA:                  -3.985
REMARK UNBOUND:                -4.358
REMARK SMILES CCCCCCCCCCCCCCCCCCCCCCCC(=O)[O-]
REMARK SMILES IDX 13 1 14 2 15 3 16 4 17 5 18 6 19 7 20 8 21 9 22 10 23 11
REMARK SMILES IDX 24 12 25 13 26 14 12 15 11 16 10 17 9 18 8 19 7 20 6 21 5 22
REMARK SMILES IDX 4 23 3 24 2 25 1 26
REMARK H PARENT
REMARK Flexibility Score: inf
ROOT
ATOM      1  C   UNL     1      59.113  12.311  92.168  1.00  0.00     0.000 C 
ENDROOT
BRANCH   1   2
ATOM      2  C   UNL     1      59.744  13.562  92.812  1.00  0.00     0.000 C 
BRANCH   2   3
ATOM      3  C   UNL     1      59.330  13.818  94.272  1.00  0.00     0.000 C 
BRANCH   3   4
ATOM      4  C   UNL     1      58.683  15.196  94.476  1.00  0.00     0.000 C 
BRANCH   4   5
ATOM      5  C   UNL     1      57.562  15.435  93.455  1.00  0.00     0.000 C 
BRANCH   5   6
ATOM      6  C   UNL     1      56.238  14.769  93.861  1.00  0.00     0.000 C 
BRANCH   6   7
ATOM      7  C   UNL     1      55.267  14.600  92.680  1.00  0.00     0.000 C 
BRANCH   7   8
ATOM      8  C   UNL     1      54.182  13.539  92.963  1.00  0.00     0.000 C 
BRANCH   8   9
ATOM      9  C   UNL     1      54.294  12.285  92.077  1.00  0.00     0.000 C 
BRANCH   9  10
ATOM     10  C   UNL     1      55.471  11.352  92.422  1.00  0.00     0.006 C 
BRANCH  10  11
ATOM     11  C   UNL     1      55.182   9.861  92.190  1.00  0.00     0.053 C 
BRANCH  11  12
ATOM     12  C   UNL     1      54.495   9.233  93.363  1.00  0.00     0.041 C 
ATOM     13  O   UNL     1      53.945   8.106  93.247  1.00  0.00    -0.550 OA
ATOM     14  O   UNL     1      54.481   9.883  94.591  1.00  0.00    -0.550 OA
ENDBRANCH  11  12
ENDBRANCH  10  11
ENDBRANCH   9  10
ENDBRANCH   8   9
ENDBRANCH   7   8
ENDBRANCH   6   7
ENDBRANCH   5   6
ENDBRANCH   4   5
ENDBRANCH   3   4
ENDBRANCH   2   3
ENDBRANCH   1   2
BRANCH   1  15
ATOM     15  C   UNL     1      60.114  11.347  91.501  1.00  0.00     0.000 C 
BRANCH  15  16
ATOM     16  C   UNL     1      59.641  10.734  90.167  1.00  0.00     0.000 C 
BRANCH  16  17
ATOM     17  C   UNL     1      58.410   9.816  90.273  1.00  0.00     0.000 C 
BRANCH  17  18
ATOM     18  C   UNL     1      57.289  10.204  89.297  1.00  0.00    -0.000 C 
BRANCH  18  19
ATOM     19  C   UNL     1      57.455  11.654  88.820  1.00  0.00    -0.000 C 
BRANCH  19  20
ATOM     20  C   UNL     1      56.117  12.405  88.699  1.00  0.00    -0.000 C 
BRANCH  20  21
ATOM     21  C   UNL     1      56.171  13.895  89.086  1.00  0.00    -0.000 C 
BRANCH  21  22
ATOM     22  C   UNL     1      57.432  14.261  89.882  1.00  0.00    -0.000 C 
BRANCH  22  23
ATOM     23  C   UNL     1      58.195  15.411  89.206  1.00  0.00    -0.000 C 
BRANCH  23  24
ATOM     24  C   UNL     1      59.343  15.950  90.073  1.00  0.00    -0.000 C 
BRANCH  24  25
ATOM     25  C   UNL     1      58.994  17.279  90.761  1.00  0.00    -0.003 C 
ATOM     26  C   UNL     1      59.993  18.370  90.387  1.00  0.00     0.004 C 
ENDBRANCH  24  25
ENDBRANCH  23  24
ENDBRANCH  22  23
ENDBRANCH  21  22
ENDBRANCH  20  21
ENDBRANCH  19  20
ENDBRANCH  18  19
ENDBRANCH  17  18
ENDBRANCH  16  17
ENDBRANCH  15  16
ENDBRANCH   1  15
TORSDOF 22
ENDMDL
MODEL 3
REMARK VINA RESULT:    -4.757      3.236      5.959
REMARK INTER + INTRA:         -15.233
REMARK INTER:                 -11.063
REMARK INTRA:                  -4.170
REMARK UNBOUND:                -4.358
REMARK SMILES CCCCCCCCCCCCCCCCCCCCCCCC(=O)[O-]
REMARK SMILES IDX 13 1 14 2 15 3 16 4 17 5 18 6 19 7 20 8 21 9 22 10 23 11
REMARK SMILES IDX 24 12 25 13 26 14 12 15 11 16 10 17 9 18 8 19 7 20 6 21 5 22
REMARK SMILES IDX 4 23 3 24 2 25 1 26
REMARK H PARENT
REMARK Flexibility Score: inf
ROOT
ATOM      1  C   UNL     1      56.356  12.051  88.421  1.00  0.00     0.000 C 
ENDROOT
BRANCH   1   2
ATOM      2  C   UNL     1      55.982  13.191  89.388  1.00  0.00     0.000 C 
BRANCH   2   3
ATOM      3  C   UNL     1      56.463  14.590  88.960  1.00  0.00     0.000 C 
BRANCH   3   4
ATOM      4  C   UNL     1      57.443  15.216  89.963  1.00  0.00     0.000 C 
BRANCH   4   5
ATOM      5  C   UNL     1      58.856  15.308  89.369  1.00  0.00     0.000 C 
BRANCH   5   6
ATOM      6  C   UNL     1      59.638  16.527  89.883  1.00  0.00     0.000 C 
BRANCH   6   7
ATOM      7  C   UNL     1      59.348  16.842  91.361  1.00  0.00     0.000 C 
BRANCH   7   8
ATOM      8  C   UNL     1      60.406  16.230  92.305  1.00  0.00     0.000 C 
BRANCH   8   9
ATOM      9  C   UNL     1      60.282  16.705  93.765  1.00  0.00     0.000 C 
BRANCH   9  10
ATOM     10  C   UNL     1      60.591  15.628  94.823  1.00  0.00     0.006 C 
BRANCH  10  11
ATOM     11  C   UNL     1      59.603  15.600  96.001  1.00  0.00     0.053 C 
BRANCH  11  12
ATOM     12  C   UNL     1      60.183  16.221  97.233  1.00  0.00     0.041 C 
ATOM     13  O   UNL     1      60.623  17.401  97.202  1.00  0.00    -0.550 OA
ATOM     14  O   UNL     1      60.218  15.505  98.424  1.00  0.00    -0.550 OA
ENDBRANCH  11  12
ENDBRANCH  10  11
ENDBRANCH   9  10
ENDBRANCH   8   9
ENDBRANCH   7   8
ENDBRANCH   6   7
ENDBRANCH   5   6
ENDBRANCH   4   5
ENDBRANCH   3   4
ENDBRANCH   2   3
ENDBRANCH   1   2
BRANCH   1  15
ATOM     15  C   UNL     1      57.278  10.969  89.016  1.00  0.00     0.000 C 
BRANCH  15  16
ATOM     16  C   UNL     1      58.788  11.269  88.917  1.00  0.00     0.000 C 
BRANCH  16  17
ATOM     17  C   UNL     1      59.522  11.363  90.267  1.00  0.00     0.000 C 
BRANCH  17  18
ATOM     18  C   UNL     1      58.578  11.655  91.442  1.00  0.00    -0.000 C 
BRANCH  18  19
ATOM     19  C   UNL     1      59.094  12.834  92.280  1.00  0.00    -0.000 C 
BRANCH  19  20
ATOM     20  C   UNL     1      58.189  13.160  93.482  1.00  0.00    -0.000 C 
BRANCH  20  21
ATOM     21  C   UNL     1      57.344  14.438  93.332  1.00  0.00    -0.000 C 
BRANCH  21  22
ATOM     22  C   UNL     1      56.057  14.406  94.170  1.00  0.00    -0.000 C 
BRANCH  22  23
ATOM     23  C   UNL     1      54.817  14.581  93.280  1.00  0.00    -0.000 C 
BRANCH  23  24
ATOM     24  C   UNL     1      54.166  13.241  92.903  1.00  0.00    -0.000 C 
BRANCH  24  25
ATOM     25  C   UNL     1      54.633  12.082  93.797  1.00  0.00    -0.003 C 
ATOM     26  C   UNL     1      55.263  10.967  92.965  1.00  0.00     0.004 C 
ENDBRANCH  24  25
ENDBRANCH  23  24
ENDBRANCH  22  23
ENDBRANCH  21  22
ENDBRANCH  20  21
ENDBRANCH  19  20
ENDBRANCH  18  19
ENDBRANCH  17  18
ENDBRANCH  16  17
ENDBRANCH  15  16
ENDBRANCH   1  15
TORSDOF 22
ENDMDL
MODEL 4
REMARK VINA RESULT:    -4.739      3.204      7.215
REMARK INTER + INTRA:         -15.193
REMARK INTER:                 -10.720
REMARK INTRA:                  -4.473
REMARK UNBOUND:                -4.358
REMARK SMILES CCCCCCCCCCCCCCCCCCCCCCCC(=O)[O-]
REMARK SMILES IDX 13 1 14 2 15 3 16 4 17 5 18 6 19 7 20 8 21 9 22 10 23 11
REMARK SMILES IDX 24 12 25 13 26 14 12 15 11 16 10 17 9 18 8 19 7 20 6 21 5 22
REMARK SMILES IDX 4 23 3 24 2 25 1 26
REMARK H PARENT
REMARK Flexibility Score: inf
ROOT
ATOM      1  C   UNL     1      57.349  14.983  93.251  1.00  0.00     0.000 C 
ENDROOT
BRANCH   1   2
ATOM      2  C   UNL     1      58.599  14.137  92.935  1.00  0.00     0.000 C 
BRANCH   2   3
ATOM      3  C   UNL     1      58.945  14.026  91.439  1.00  0.00     0.000 C 
BRANCH   3   4
ATOM      4  C   UNL     1      58.168  15.027  90.571  1.00  0.00     0.000 C 
BRANCH   4   5
ATOM      5  C   UNL     1      59.077  15.652  89.503  1.00  0.00     0.000 C 
BRANCH   5   6
ATOM      6  C   UNL     1      59.825  16.894  90.013  1.00  0.00     0.000 C 
BRANCH   6   7
ATOM      7  C   UNL     1      59.078  17.618  91.146  1.00  0.00     0.000 C 
BRANCH   7   8
ATOM      8  C   UNL     1      59.968  17.832  92.388  1.00  0.00     0.000 C 
BRANCH   8   9
ATOM      9  C   UNL     1      61.138  16.836  92.493  1.00  0.00     0.000 C 
BRANCH   9  10
ATOM     10  C   UNL     1      61.552  16.473  93.932  1.00  0.00     0.006 C 
BRANCH  10  11
ATOM     11  C   UNL     1      60.422  16.603  94.965  1.00  0.00     0.053 C 
BRANCH  11  12
ATOM     12  C   UNL     1      60.788  15.980  96.276  1.00  0.00     0.041 C 
ATOM     13  O   UNL     1      60.787  16.672  97.329  1.00  0.00    -0.550 OA
ATOM     14  O   UNL     1      61.108  14.629  96.341  1.00  0.00    -0.550 OA
ENDBRANCH  11  12
ENDBRANCH  10  11
ENDBRANCH   9  10
ENDBRANCH   8   9
ENDBRANCH   7   8
ENDBRANCH   6   7
ENDBRANCH   5   6
ENDBRANCH   4   5
ENDBRANCH   3   4
ENDBRANCH   2   3
ENDBRANCH   1   2
BRANCH   1  15
ATOM     15  C   UNL     1      56.978  15.063  94.745  1.00  0.00     0.000 C 
BRANCH  15  16
ATOM     16  C   UNL     1      57.638  13.995  95.641  1.00  0.00     0.000 C 
BRANCH  16  17
ATOM     17  C   UNL     1      56.661  13.002  96.297  1.00  0.00     0.000 C 
BRANCH  17  18
ATOM     18  C   UNL     1      56.465  11.722  95.470  1.00  0.00    -0.000 C 
BRANCH  18  19
ATOM     19  C   UNL     1      55.023  11.619  94.953  1.00  0.00    -0.000 C 
BRANCH  19  20
ATOM     20  C   UNL     1      54.865  12.118  93.505  1.00  0.00    -0.000 C 
BRANCH  20  21
ATOM     21  C   UNL     1      55.948  11.627  92.527  1.00  0.00    -0.000 C 
BRANCH  21  22
ATOM     22  C   UNL     1      55.820  12.251  91.130  1.00  0.00    -0.000 C 
BRANCH  22  23
ATOM     23  C   UNL     1      56.615  11.444  90.092  1.00  0.00    -0.000 C 
BRANCH  23  24
ATOM     24  C   UNL     1      57.385  10.271  90.719  1.00  0.00    -0.000 C 
BRANCH  24  25
ATOM     25  C   UNL     1      58.818  10.145  90.178  1.00  0.00    -0.003 C 
ATOM     26  C   UNL     1      59.096  11.198  89.109  1.00  0.00     0.004 C 
ENDBRANCH  24  25
ENDBRANCH  23  24
ENDBRANCH  22  23
ENDBRANCH  21  22
ENDBRANCH  20  21
ENDBRANCH  19  20
ENDBRANCH  18  19
ENDBRANCH  17  18
ENDBRANCH  16  17
ENDBRANCH  15  16
ENDBRANCH   1  15
TORSDOF 22
ENDMDL
MODEL 5
REMARK VINA RESULT:    -4.736      1.575      4.256
REMARK INTER + INTRA:         -15.184
REMARK INTER:                 -11.096
REMARK INTRA:                  -4.088
REMARK UNBOUND:                -4.358
REMARK SMILES CCCCCCCCCCCCCCCCCCCCCCCC(=O)[O-]
REMARK SMILES IDX 13 1 14 2 15 3 16 4 17 5 18 6 19 7 20 8 21 9 22 10 23 11
REMARK SMILES IDX 24 12 25 13 26 14 12 15 11 16 10 17 9 18 8 19 7 20 6 21 5 22
REMARK SMILES IDX 4 23 3 24 2 25 1 26
REMARK H PARENT
REMARK Flexibility Score: inf
ROOT
ATOM      1  C   UNL     1      58.132  15.282  89.872  1.00  0.00     0.000 C 
ENDROOT
BRANCH   1   2
ATOM      2  C   UNL     1      56.698  14.728  89.985  1.00  0.00     0.000 C 
BRANCH   2   3
ATOM      3  C   UNL     1      56.214  13.925  88.763  1.00  0.00     0.000 C 
BRANCH   3   4
ATOM      4  C   UNL     1      56.008  12.435  89.072  1.00  0.00     0.000 C 
BRANCH   4   5
ATOM      5  C   UNL     1      56.827  11.556  88.116  1.00  0.00     0.000 C 
BRANCH   5   6
ATOM      6  C   UNL     1      58.225  11.226  88.664  1.00  0.00     0.000 C 
BRANCH   6   7
ATOM      7  C   UNL     1      58.179  10.390  89.954  1.00  0.00     0.000 C 
BRANCH   7   8
ATOM      8  C   UNL     1      59.161  10.914  91.024  1.00  0.00     0.000 C 
BRANCH   8   9
ATOM      9  C   UNL     1      58.709  12.225  91.693  1.00  0.00     0.000 C 
BRANCH   9  10
ATOM     10  C   UNL     1      57.782  12.043  92.910  1.00  0.00     0.006 C 
BRANCH  10  11
ATOM     11  C   UNL     1      56.283  12.073  92.572  1.00  0.00     0.053 C 
BRANCH  11  12
ATOM     12  C   UNL     1      55.577  10.839  93.043  1.00  0.00     0.041 C 
ATOM     13  O   UNL     1      55.228  10.730  94.249  1.00  0.00    -0.550 OA
ATOM     14  O   UNL     1      55.285   9.818  92.147  1.00  0.00    -0.550 OA
ENDBRANCH  11  12
ENDBRANCH  10  11
ENDBRANCH   9  10
ENDBRANCH   8   9
ENDBRANCH   7   8
ENDBRANCH   6   7
ENDBRANCH   5   6
ENDBRANCH   4   5
ENDBRANCH   3   4
ENDBRANCH   2   3
ENDBRANCH   1   2
BRANCH   1  15
ATOM     15  C   UNL     1      58.659  15.989  91.135  1.00  0.00     0.000 C 
BRANCH  15  16
ATOM     16  C   UNL     1      57.635  16.130  92.281  1.00  0.00     0.000 C 
BRANCH  16  17
ATOM     17  C   UNL     1      58.030  15.431  93.595  1.00  0.00     0.000 C 
BRANCH  17  18
ATOM     18  C   UNL     1      56.828  15.166  94.515  1.00  0.00    -0.000 C 
BRANCH  18  19
ATOM     19  C   UNL     1      57.286  14.578  95.858  1.00  0.00    -0.000 C 
BRANCH  19  20
ATOM     20  C   UNL     1      58.805  14.692  96.079  1.00  0.00    -0.000 C 
BRANCH  20  21
ATOM     21  C   UNL     1      59.223  15.515  97.311  1.00  0.00    -0.000 C 
BRANCH  21  22
ATOM     22  C   UNL     1      60.588  16.196  97.141  1.00  0.00    -0.000 C 
BRANCH  22  23
ATOM     23  C   UNL     1      60.758  16.738  95.713  1.00  0.00    -0.000 C 
BRANCH  23  24
ATOM     24  C   UNL     1      61.984  16.149  94.998  1.00  0.00    -0.000 C 
BRANCH  24  25
ATOM     25  C   UNL     1      61.642  15.560  93.621  1.00  0.00    -0.003 C 
ATOM     26  C   UNL     1      61.540  14.038  93.684  1.00  0.00     0.004 C 
ENDBRANCH  24  25
ENDBRANCH  23  24
ENDBRANCH  22  23
ENDBRANCH  21  22
ENDBRANCH  20  21
ENDBRANCH  19  20
ENDBRANCH  18  19
ENDBRANCH  17  18
ENDBRANCH  16  17
ENDBRANCH  15  16
ENDBRANCH   1  15
TORSDOF 22
ENDMDL
MODEL 6
REMARK VINA RESULT:    -4.716      3.521      6.350
REMARK INTER + INTRA:         -15.139
REMARK INTER:                 -11.301
REMARK INTRA:                  -3.838
REMARK UNBOUND:                -4.358
REMARK SMILES CCCCCCCCCCCCCCCCCCCCCCCC(=O)[O-]
REMARK SMILES IDX 13 1 14 2 15 3 16 4 17 5 18 6 19 7 20 8 21 9 22 10 23 11
REMARK SMILES IDX 24 12 25 13 26 14 12 15 11 16 10 17 9 18 8 19 7 20 6 21 5 22
REMARK SMILES IDX 4 23 3 24 2 25 1 26
REMARK H PARENT
REMARK Flexibility Score: inf
ROOT
ATOM      1  C   UNL     1      54.227  12.647  92.873  1.00  0.00     0.000 C 
ENDROOT
BRANCH   1   2
ATOM      2  C   UNL     1      55.005  12.048  91.686  1.00  0.00     0.000 C 
BRANCH   2   3
ATOM      3  C   UNL     1      56.149  11.094  92.074  1.00  0.00     0.000 C 
BRANCH   3   4
ATOM      4  C   UNL     1      56.099   9.761  91.312  1.00  0.00     0.000 C 
BRANCH   4   5
ATOM      5  C   UNL     1      57.099   9.754  90.147  1.00  0.00     0.000 C 
BRANCH   5   6
ATOM      6  C   UNL     1      58.423  10.453  90.498  1.00  0.00     0.000 C 
BRANCH   6   7
ATOM      7  C   UNL     1      58.808  11.544  89.485  1.00  0.00     0.000 C 
BRANCH   7   8
ATOM      8  C   UNL     1      58.650  12.964  90.070  1.00  0.00     0.000 C 
BRANCH   8   9
ATOM      9  C   UNL     1      57.404  13.710  89.558  1.00  0.00     0.000 C 
BRANCH   9  10
ATOM     10  C   UNL     1      57.628  15.201  89.240  1.00  0.00     0.006 C 
BRANCH  10  11
ATOM     11  C   UNL     1      59.054  15.699  89.524  1.00  0.00     0.053 C 
BRANCH  11  12
ATOM     12  C   UNL     1      59.059  16.919  90.392  1.00  0.00     0.041 C 
ATOM     13  O   UNL     1      58.186  17.063  91.289  1.00  0.00    -0.550 OA
ATOM     14  O   UNL     1      60.042  17.888  90.227  1.00  0.00    -0.550 OA
ENDBRANCH  11  12
ENDBRANCH  10  11
ENDBRANCH   9  10
ENDBRANCH   8   9
ENDBRANCH   7   8
ENDBRANCH   6   7
ENDBRANCH   5   6
ENDBRANCH   4   5
ENDBRANCH   3   4
ENDBRANCH   2   3
ENDBRANCH   1   2
BRANCH   1  15
ATOM     15  C   UNL     1      54.022  14.174  92.814  1.00  0.00     0.000 C 
BRANCH  15  16
ATOM     16  C   UNL     1      55.306  14.998  92.590  1.00  0.00     0.000 C 
BRANCH  16  17
ATOM     17  C   UNL     1      56.297  14.993  93.768  1.00  0.00     0.000 C 
BRANCH  17  18
ATOM     18  C   UNL     1      57.638  14.332  93.419  1.00  0.00    -0.000 C 
BRANCH  18  19
ATOM     19  C   UNL     1      57.945  13.173  94.379  1.00  0.00    -0.000 C 
BRANCH  19  20
ATOM     20  C   UNL     1      56.940  13.073  95.541  1.00  0.00    -0.000 C 
BRANCH  20  21
ATOM     21  C   UNL     1      56.821  11.676  96.179  1.00  0.00    -0.000 C 
BRANCH  21  22
ATOM     22  C   UNL     1      55.662  10.851  95.601  1.00  0.00    -0.000 C 
BRANCH  22  23
ATOM     23  C   UNL     1      55.701   9.407  96.124  1.00  0.00    -0.000 C 
BRANCH  23  24
ATOM     24  C   UNL     1      54.348   8.690  95.985  1.00  0.00    -0.000 C 
BRANCH  24  25
ATOM     25  C   UNL     1      54.392   7.530  94.979  1.00  0.00    -0.003 C 
ATOM     26  C   UNL     1      53.927   7.983  93.597  1.00  0.00     0.004 C 
ENDBRANCH  24  25
ENDBRANCH  23  24
ENDBRANCH  22  23
ENDBRANCH  21  22
ENDBRANCH  20  21
ENDBRANCH  19  20
ENDBRANCH  18  19
ENDBRANCH  17  18
ENDBRANCH  16  17
ENDBRANCH  15  16
ENDBRANCH   1  15
TORSDOF 22
ENDMDL
MODEL 7
REMARK VINA RESULT:    -4.713      2.978      5.834
REMARK INTER + INTRA:         -15.133
REMARK INTER:                 -11.273
REMARK INTRA:                  -3.860
REMARK UNBOUND:                -4.358
REMARK SMILES CCCCCCCCCCCCCCCCCCCCCCCC(=O)[O-]
REMARK SMILES IDX 13 1 14 2 15 3 16 4 17 5 18 6 19 7 20 8 21 9 22 10 23 11
REMARK SMILES IDX 24 12 25 13 26 14 12 15 11 16 10 17 9 18 8 19 7 20 6 21 5 22
REMARK SMILES IDX 4 23 3 24 2 25 1 26
REMARK H PARENT
REMARK Flexibility Score: inf
ROOT
ATOM      1  C   UNL     1      60.027  14.766  92.788  1.00  0.00     0.000 C 
ENDROOT
BRANCH   1   2
ATOM      2  C   UNL     1      60.085  16.137  93.489  1.00  0.00     0.000 C 
BRANCH   2   3
ATOM      3  C   UNL     1      60.008  17.352  92.546  1.00  0.00     0.000 C 
BRANCH   3   4
ATOM      4  C   UNL     1      58.843  17.260  91.550  1.00  0.00     0.000 C 
BRANCH   4   5
ATOM      5  C   UNL     1      59.356  17.014  90.124  1.00  0.00     0.000 C 
BRANCH   5   6
ATOM      6  C   UNL     1      58.826  15.702  89.522  1.00  0.00     0.000 C 
BRANCH   6   7
ATOM      7  C   UNL     1      57.403  15.361  89.993  1.00  0.00     0.000 C 
BRANCH   7   8
ATOM      8  C   UNL     1      56.757  14.248  89.139  1.00  0.00     0.000 C 
BRANCH   8   9
ATOM      9  C   UNL     1      56.532  12.931  89.905  1.00  0.00     0.000 C 
BRANCH   9  10
ATOM     10  C   UNL     1      57.434  11.763  89.461  1.00  0.00     0.006 C 
BRANCH  10  11
ATOM     11  C   UNL     1      58.921  11.950  89.800  1.00  0.00     0.053 C 
BRANCH  11  12
ATOM     12  C   UNL     1      59.567  10.666  90.218  1.00  0.00     0.041 C 
ATOM     13  O   UNL     1      58.870   9.629  90.381  1.00  0.00    -0.550 OA
ATOM     14  O   UNL     1      60.943  10.606  90.407  1.00  0.00    -0.550 OA
ENDBRANCH  11  12
ENDBRANCH  10  11
ENDBRANCH   9  10
ENDBRANCH   8   9
ENDBRANCH   7   8
ENDBRANCH   6   7
ENDBRANCH   5   6
ENDBRANCH   4   5
ENDBRANCH   3   4
ENDBRANCH   2   3
ENDBRANCH   1   2
BRANCH   1  15
ATOM     15  C   UNL     1      60.814  13.642  93.490  1.00  0.00     0.000 C 
BRANCH  15  16
ATOM     16  C   UNL     1      62.156  14.075  94.115  1.00  0.00     0.000 C 
BRANCH  16  17
ATOM     17  C   UNL     1      62.537  13.338  95.413  1.00  0.00     0.000 C 
BRANCH  17  18
ATOM     18  C   UNL     1      62.593  14.268  96.633  1.00  0.00    -0.000 C 
BRANCH  18  19
ATOM     19  C   UNL     1      62.371  15.731  96.219  1.00  0.00    -0.000 C 
BRANCH  19  20
ATOM     20  C   UNL     1      61.262  16.424  97.030  1.00  0.00    -0.000 C 
BRANCH  20  21
ATOM     21  C   UNL     1      60.202  15.477  97.623  1.00  0.00    -0.000 C 
BRANCH  21  22
ATOM     22  C   UNL     1      58.927  15.397  96.771  1.00  0.00    -0.000 C 
BRANCH  22  23
ATOM     23  C   UNL     1      58.663  13.954  96.312  1.00  0.00    -0.000 C 
BRANCH  23  24
ATOM     24  C   UNL     1      57.315  13.800  95.591  1.00  0.00    -0.000 C 
BRANCH  24  25
ATOM     25  C   UNL     1      56.819  15.116  94.972  1.00  0.00    -0.003 C 
ATOM     26  C   UNL     1      56.455  14.929  93.502  1.00  0.00     0.004 C 
ENDBRANCH  24  25
ENDBRANCH  23  24
ENDBRANCH  22  23
ENDBRANCH  21  22
ENDBRANCH  20  21
ENDBRANCH  19  20
ENDBRANCH  18  19
ENDBRANCH  17  18
ENDBRANCH  16  17
ENDBRANCH  15  16
ENDBRANCH   1  15
TORSDOF 22
ENDMDL
MODEL 8
REMARK VINA RESULT:    -4.695      1.525      4.939
REMARK INTER + INTRA:         -15.090
REMARK INTER:                 -11.470
REMARK INTRA:                  -3.621
REMARK UNBOUND:                -4.358
REMARK SMILES CCCCCCCCCCCCCCCCCCCCCCCC(=O)[O-]
REMARK SMILES IDX 13 1 14 2 15 3 16 4 17 5 18 6 19 7 20 8 21 9 22 10 23 11
REMARK SMILES IDX 24 12 25 13 26 14 12 15 11 16 10 17 9 18 8 19 7 20 6 21 5 22
REMARK SMILES IDX 4 23 3 24 2 25 1 26
REMARK H PARENT
REMARK Flexibility Score: inf
ROOT
ATOM      1  C   UNL     1      60.321  14.940  93.426  1.00  0.00     0.000 C 
ENDROOT
BRANCH   1   2
ATOM      2  C   UNL     1      60.531  15.282  94.914  1.00  0.00     0.000 C 
BRANCH   2   3
ATOM      3  C   UNL     1      59.937  14.263  95.904  1.00  0.00     0.000 C 
BRANCH   3   4
ATOM      4  C   UNL     1      58.518  13.816  95.521  1.00  0.00     0.000 C 
BRANCH   4   5
ATOM      5  C   UNL     1      57.499  14.935  95.779  1.00  0.00     0.000 C 
BRANCH   5   6
ATOM      6  C   UNL     1      56.363  14.953  94.744  1.00  0.00     0.000 C 
BRANCH   6   7
ATOM      7  C   UNL     1      56.780  14.354  93.390  1.00  0.00     0.000 C 
BRANCH   7   8
ATOM      8  C   UNL     1      55.927  13.124  93.009  1.00  0.00     0.000 C 
BRANCH   8   9
ATOM      9  C   UNL     1      54.615  13.008  93.808  1.00  0.00     0.000 C 
BRANCH   9  10
ATOM     10  C   UNL     1      54.591  11.874  94.851  1.00  0.00     0.006 C 
BRANCH  10  11
ATOM     11  C   UNL     1      55.778  10.903  94.754  1.00  0.00     0.053 C 
BRANCH  11  12
ATOM     12  C   UNL     1      56.063  10.234  96.063  1.00  0.00     0.041 C 
ATOM     13  O   UNL     1      56.733  10.831  96.947  1.00  0.00    -0.550 OA
ATOM     14  O   UNL     1      55.572   8.959  96.315  1.00  0.00    -0.550 OA
ENDBRANCH  11  12
ENDBRANCH  10  11
ENDBRANCH   9  10
ENDBRANCH   8   9
ENDBRANCH   7   8
ENDBRANCH   6   7
ENDBRANCH   5   6
ENDBRANCH   4   5
ENDBRANCH   3   4
ENDBRANCH   2   3
ENDBRANCH   1   2
BRANCH   1  15
ATOM     15  C   UNL     1      60.494  16.124  92.455  1.00  0.00     0.000 C 
BRANCH  15  16
ATOM     16  C   UNL     1      59.213  16.553  91.711  1.00  0.00     0.000 C 
BRANCH  16  17
ATOM     17  C   UNL     1      59.367  16.710  90.187  1.00  0.00     0.000 C 
BRANCH  17  18
ATOM     18  C   UNL     1      58.990  15.438  89.413  1.00  0.00    -0.000 C 
BRANCH  18  19
ATOM     19  C   UNL     1      57.806  14.722  90.080  1.00  0.00    -0.000 C 
BRANCH  19  20
ATOM     20  C   UNL     1      56.680  14.372  89.090  1.00  0.00    -0.000 C 
BRANCH  20  21
ATOM     21  C   UNL     1      56.063  12.974  89.275  1.00  0.00    -0.000 C 
BRANCH  21  22
ATOM     22  C   UNL     1      56.752  11.898  88.422  1.00  0.00    -0.000 C 
BRANCH  22  23
ATOM     23  C   UNL     1      57.577  10.945  89.299  1.00  0.00    -0.000 C 
BRANCH  23  24
ATOM     24  C   UNL     1      59.090  11.185  89.173  1.00  0.00    -0.000 C 
BRANCH  24  25
ATOM     25  C   UNL     1      59.836  10.979  90.500  1.00  0.00    -0.003 C 
ATOM     26  C   UNL     1      59.208  11.807  91.618  1.00  0.00     0.004 C 
ENDBRANCH  24  25
ENDBRANCH  23  24
ENDBRANCH  22  23
ENDBRANCH  21  22
ENDBRANCH  20  21
ENDBRANCH  19  20
ENDBRANCH  18  19
ENDBRANCH  17  18
ENDBRANCH  16  17
ENDBRANCH  15  16
ENDBRANCH   1  15
TORSDOF 22
ENDMDL
MODEL 9
REMARK VINA RESULT:    -4.639      1.811      2.592
REMARK INTER + INTRA:         -14.963
REMARK INTER:                 -10.449
REMARK INTRA:                  -4.514
REMARK UNBOUND:                -4.358
REMARK SMILES CCCCCCCCCCCCCCCCCCCCCCCC(=O)[O-]
REMARK SMILES IDX 13 1 14 2 15 3 16 4 17 5 18 6 19 7 20 8 21 9 22 10 23 11
REMARK SMILES IDX 24 12 25 13 26 14 12 15 11 16 10 17 9 18 8 19 7 20 6 21 5 22
REMARK SMILES IDX 4 23 3 24 2 25 1 26
REMARK H PARENT
REMARK Flexibility Score: inf
ROOT
ATOM      1  C   UNL     1      57.645  11.258  88.898  1.00  0.00     0.000 C 
ENDROOT
BRANCH   1   2
ATOM      2  C   UNL     1      57.732  10.807  90.369  1.00  0.00     0.000 C 
BRANCH   2   3
ATOM      3  C   UNL     1      59.140  10.882  90.988  1.00  0.00     0.000 C 
BRANCH   3   4
ATOM      4  C   UNL     1      59.398  12.206  91.723  1.00  0.00     0.000 C 
BRANCH   4   5
ATOM      5  C   UNL     1      58.144  12.673  92.476  1.00  0.00     0.000 C 
BRANCH   5   6
ATOM      6  C   UNL     1      58.478  13.501  93.727  1.00  0.00     0.000 C 
BRANCH   6   7
ATOM      7  C   UNL     1      57.382  14.522  94.077  1.00  0.00     0.000 C 
BRANCH   7   8
ATOM      8  C   UNL     1      56.332  14.659  92.953  1.00  0.00     0.000 C 
BRANCH   8   9
ATOM      9  C   UNL     1      54.877  14.588  93.451  1.00  0.00     0.000 C 
BRANCH   9  10
ATOM     10  C   UNL     1      54.257  13.177  93.437  1.00  0.00     0.006 C 
BRANCH  10  11
ATOM     11  C   UNL     1      54.440  12.394  94.746  1.00  0.00     0.053 C 
BRANCH  11  12
ATOM     12  C   UNL     1      55.464  11.310  94.613  1.00  0.00     0.041 C 
ATOM     13  O   UNL     1      55.496  10.593  93.578  1.00  0.00    -0.550 OA
ATOM     14  O   UNL     1      56.397  11.104  95.622  1.00  0.00    -0.550 OA
ENDBRANCH  11  12
ENDBRANCH  10  11
ENDBRANCH   9  10
ENDBRANCH   8   9
ENDBRANCH   7   8
ENDBRANCH   6   7
ENDBRANCH   5   6
ENDBRANCH   4   5
ENDBRANCH   3   4
ENDBRANCH   2   3
ENDBRANCH   1   2
BRANCH   1  15
ATOM     15  C   UNL     1      56.393  12.084  88.543  1.00  0.00     0.000 C 
BRANCH  15  16
ATOM     16  C   UNL     1      56.040  13.202  89.546  1.00  0.00     0.000 C 
BRANCH  16  17
ATOM     17  C   UNL     1      56.562  14.601  89.171  1.00  0.00     0.000 C 
BRANCH  17  18
ATOM     18  C   UNL     1      58.055  14.785  89.480  1.00  0.00    -0.000 C 
BRANCH  18  19
ATOM     19  C   UNL     1      58.296  16.082  90.266  1.00  0.00    -0.000 C 
BRANCH  19  20
ATOM     20  C   UNL     1      59.588  16.047  91.104  1.00  0.00    -0.000 C 
BRANCH  20  21
ATOM     21  C   UNL     1      59.554  16.898  92.387  1.00  0.00    -0.000 C 
BRANCH  21  22
ATOM     22  C   UNL     1      60.924  17.002  93.072  1.00  0.00    -0.000 C 
BRANCH  22  23
ATOM     23  C   UNL     1      61.494  15.607  93.376  1.00  0.00    -0.000 C 
BRANCH  23  24
ATOM     24  C   UNL     1      61.489  15.280  94.877  1.00  0.00    -0.000 C 
BRANCH  24  25
ATOM     25  C   UNL     1      61.901  13.829  95.169  1.00  0.00    -0.003 C 
ATOM     26  C   UNL     1      62.421  13.142  93.910  1.00  0.00     0.004 C 
ENDBRANCH  24  25
ENDBRANCH  23  24
ENDBRANCH  22  23
ENDBRANCH  21  22
ENDBRANCH  20  21
ENDBRANCH  19  20
ENDBRANCH  18  19
ENDBRANCH  17  18
ENDBRANCH  16  17
ENDBRANCH  15  16
ENDBRANCH   1  15
TORSDOF 22
ENDMDL
