MODEL 1
REMARK VINA RESULT:    -6.212      0.000      0.000
REMARK INTER + INTRA:         -10.259
REMARK INTER:                  -8.209
REMARK INTRA:                  -2.050
REMARK UNBOUND:                -2.050
REMARK SMILES CC[C@H](C=C[C@@H](C)[C@@H]1CC[C@H]2[C@@H]3CC=C4C[C@@H](O)CC[C@]4(C)[C@@H]3CC[C@]21C)C(C)C
REMARK SMILES IDX 6 1 7 2 5 3 4 4 3 5 2 6 1 7 28 8 29 9 30 10 8 11 9 12 26 13
REMARK SMILES IDX 10 14 11 15 25 16 27 17 12 18 24 19 23 20 13 21 21 22 14 23
REMARK SMILES IDX 15 24 20 25 22 26 16 27 19 28 17 29 18 30
REMARK H PARENT 18 31
REMARK Flexibility Score: inf
ROOT
ATOM      1  C   UNL     1     103.154 113.708 135.447  1.00  0.00     0.012 C 
ATOM      2  C   UNL     1     102.176 114.883 135.309  1.00  0.00     0.012 C 
ENDROOT
BRANCH   1   3
ATOM      3  C   UNL     1     102.385 112.403 135.511  1.00  0.00    -0.028 C 
ATOM      4  C   UNL     1     102.504 111.551 136.545  1.00  0.00    -0.027 C 
BRANCH   4   5
ATOM      5  C   UNL     1     101.808 110.201 136.575  1.00  0.00     0.014 C 
BRANCH   5   6
ATOM      6  C   UNL     1     101.772 109.569 135.159  1.00  0.00     0.004 C 
ATOM      7  C   UNL     1     100.476 108.803 134.884  1.00  0.00     0.004 C 
ENDBRANCH   5   6
BRANCH   5   8
ATOM      8  C   UNL     1     102.452 109.253 137.637  1.00  0.00    -0.011 C 
ATOM      9  C   UNL     1     102.787 109.991 138.947  1.00  0.00     0.008 C 
ATOM     10  C   UNL     1     103.734 108.592 137.098  1.00  0.00     0.008 C 
ENDBRANCH   5   8
ENDBRANCH   4   5
ENDBRANCH   1   3
BRANCH   1  11
ATOM     11  C   UNL     1     104.223 113.932 136.576  1.00  0.00     0.002 C 
ATOM     12  C   UNL     1     104.123 115.323 137.222  1.00  0.00     0.005 C 
ATOM     13  C   UNL     1     105.751 113.657 136.329  1.00  0.00    -0.026 C 
ATOM     14  C   UNL     1     105.537 115.802 137.518  1.00  0.00     0.005 C 
ATOM     15  C   UNL     1     106.498 114.623 137.302  1.00  0.00    -0.001 C 
ATOM     16  C   UNL     1     106.130 112.177 136.605  1.00  0.00     0.007 C 
ATOM     17  C   UNL     1     106.195 114.002 134.886  1.00  0.00     0.012 C 
ATOM     18  C   UNL     1     106.979 113.990 138.654  1.00  0.00     0.000 C 
ATOM     19  C   UNL     1     105.976 111.720 138.073  1.00  0.00     0.005 C 
ATOM     20  C   UNL     1     106.059 112.849 139.142  1.00  0.00     0.003 C 
ATOM     21  C   UNL     1     108.448 113.519 138.587  1.00  0.00     0.031 C 
ATOM     22  C   UNL     1     106.505 112.337 140.569  1.00  0.00    -0.008 C 
ATOM     23  C   UNL     1     108.868 112.664 139.758  1.00  0.00    -0.027 C 
ATOM     24  C   UNL     1     108.006 112.032 140.587  1.00  0.00    -0.065 C 
ATOM     25  C   UNL     1     105.689 111.063 140.980  1.00  0.00     0.014 C 
ATOM     26  C   UNL     1     106.228 113.444 141.626  1.00  0.00     0.016 C 
ATOM     27  C   UNL     1     108.568 111.214 141.733  1.00  0.00     0.063 C 
ATOM     28  C   UNL     1     106.254 110.328 142.206  1.00  0.00     0.033 C 
ATOM     29  C   UNL     1     107.725 109.957 141.986  1.00  0.00     0.118 C 
BRANCH  29  30
ATOM     30  O   UNL     1     108.201 109.282 143.121  1.00  0.00    -0.393 OA
ATOM     31  H   UNL     1     108.449 108.366 142.827  1.00  0.00     0.210 HD
ENDBRANCH  29  30
ENDBRANCH   1  11
TORSDOF 6
ENDMDL
MODEL 2
REMARK VINA RESULT:    -6.098      2.516      5.433
REMARK INTER + INTRA:         -10.109
REMARK INTER:                  -8.422
REMARK INTRA:                  -1.686
REMARK UNBOUND:                -2.050
REMARK SMILES CC[C@H](C=C[C@@H](C)[C@@H]1CC[C@H]2[C@@H]3CC=C4C[C@@H](O)CC[C@]4(C)[C@@H]3CC[C@]21C)C(C)C
REMARK SMILES IDX 6 1 7 2 5 3 4 4 3 5 2 6 1 7 28 8 29 9 30 10 8 11 9 12 26 13
REMARK SMILES IDX 10 14 11 15 25 16 27 17 12 18 24 19 23 20 13 21 21 22 14 23
REMARK SMILES IDX 15 24 20 25 22 26 16 27 19 28 17 29 18 30
REMARK H PARENT 18 31
REMARK Flexibility Score: inf
ROOT
ATOM      1  C   UNL     1     105.463 115.238 137.869  1.00  0.00     0.012 C 
ATOM      2  C   UNL     1     105.496 116.222 139.047  1.00  0.00     0.012 C 
ENDROOT
BRANCH   1   3
ATOM      3  C   UNL     1     104.293 115.561 136.960  1.00  0.00    -0.028 C 
ATOM      4  C   UNL     1     103.623 114.609 136.288  1.00  0.00    -0.027 C 
BRANCH   4   5
ATOM      5  C   UNL     1     102.510 114.933 135.307  1.00  0.00     0.014 C 
BRANCH   5   6
ATOM      6  C   UNL     1     102.108 116.428 135.403  1.00  0.00     0.004 C 
ATOM      7  C   UNL     1     100.612 116.625 135.658  1.00  0.00     0.004 C 
ENDBRANCH   5   6
BRANCH   5   8
ATOM      8  C   UNL     1     102.894 114.509 133.852  1.00  0.00    -0.011 C 
ATOM      9  C   UNL     1     104.317 113.926 133.774  1.00  0.00     0.008 C 
ATOM     10  C   UNL     1     102.788 115.694 132.874  1.00  0.00     0.008 C 
ENDBRANCH   5   8
ENDBRANCH   4   5
ENDBRANCH   1   3
BRANCH   1  11
ATOM     11  C   UNL     1     105.587 113.739 138.322  1.00  0.00     0.002 C 
ATOM     12  C   UNL     1     105.709 113.586 139.846  1.00  0.00     0.005 C 
ATOM     13  C   UNL     1     106.650 112.772 137.685  1.00  0.00    -0.026 C 
ATOM     14  C   UNL     1     106.680 112.448 140.125  1.00  0.00     0.005 C 
ATOM     15  C   UNL     1     106.964 111.724 138.800  1.00  0.00    -0.001 C 
ATOM     16  C   UNL     1     106.116 112.082 136.400  1.00  0.00     0.007 C 
ATOM     17  C   UNL     1     107.973 113.491 137.325  1.00  0.00     0.012 C 
ATOM     18  C   UNL     1     106.197 110.361 138.688  1.00  0.00     0.000 C 
ATOM     19  C   UNL     1     104.925 111.122 136.614  1.00  0.00     0.005 C 
ATOM     20  C   UNL     1     104.802 110.508 138.040  1.00  0.00     0.003 C 
ATOM     21  C   UNL     1     107.028 109.282 137.959  1.00  0.00     0.031 C 
ATOM     22  C   UNL     1     104.017 109.137 138.074  1.00  0.00    -0.008 C 
ATOM     23  C   UNL     1     106.238 108.052 137.587  1.00  0.00    -0.027 C 
ATOM     24  C   UNL     1     104.887 108.004 137.522  1.00  0.00    -0.065 C 
ATOM     25  C   UNL     1     102.683 109.243 137.257  1.00  0.00     0.014 C 
ATOM     26  C   UNL     1     103.650 108.787 139.544  1.00  0.00     0.016 C 
ATOM     27  C   UNL     1     104.223 106.695 137.146  1.00  0.00     0.063 C 
ATOM     28  C   UNL     1     102.008 107.889 136.987  1.00  0.00     0.033 C 
ATOM     29  C   UNL     1     102.975 106.930 136.285  1.00  0.00     0.118 C 
BRANCH  29  30
ATOM     30  O   UNL     1     102.320 105.711 136.049  1.00  0.00    -0.393 OA
ATOM     31  H   UNL     1     101.813 105.494 136.876  1.00  0.00     0.210 HD
ENDBRANCH  29  30
ENDBRANCH   1  11
TORSDOF 6
ENDMDL
MODEL 3
REMARK VINA RESULT:    -6.062      2.546      5.379
REMARK INTER + INTRA:         -10.061
REMARK INTER:                  -8.279
REMARK INTRA:                  -1.782
REMARK UNBOUND:                -2.050
REMARK SMILES CC[C@H](C=C[C@@H](C)[C@@H]1CC[C@H]2[C@@H]3CC=C4C[C@@H](O)CC[C@]4(C)[C@@H]3CC[C@]21C)C(C)C
REMARK SMILES IDX 6 1 7 2 5 3 4 4 3 5 2 6 1 7 28 8 29 9 30 10 8 11 9 12 26 13
REMARK SMILES IDX 10 14 11 15 25 16 27 17 12 18 24 19 23 20 13 21 21 22 14 23
REMARK SMILES IDX 15 24 20 25 22 26 16 27 19 28 17 29 18 30
REMARK H PARENT 18 31
REMARK Flexibility Score: inf
ROOT
ATOM      1  C   UNL     1     105.243 115.207 137.460  1.00  0.00     0.012 C 
ATOM      2  C   UNL     1     105.528 116.232 138.565  1.00  0.00     0.012 C 
ENDROOT
BRANCH   1   3
ATOM      3  C   UNL     1     103.912 115.514 136.802  1.00  0.00    -0.028 C 
ATOM      4  C   UNL     1     103.403 114.749 135.820  1.00  0.00    -0.027 C 
BRANCH   4   5
ATOM      5  C   UNL     1     102.116 115.101 135.094  1.00  0.00     0.014 C 
BRANCH   5   6
ATOM      6  C   UNL     1     101.002 114.072 135.419  1.00  0.00     0.004 C 
ATOM      7  C   UNL     1     101.554 112.746 135.946  1.00  0.00     0.004 C 
ENDBRANCH   5   6
BRANCH   5   8
ATOM      8  C   UNL     1     101.679 116.571 135.395  1.00  0.00    -0.011 C 
ATOM      9  C   UNL     1     100.243 116.650 135.946  1.00  0.00     0.008 C 
ATOM     10  C   UNL     1     101.778 117.456 134.138  1.00  0.00     0.008 C 
ENDBRANCH   5   8
ENDBRANCH   4   5
ENDBRANCH   1   3
BRANCH   1  11
ATOM     11  C   UNL     1     105.447 113.724 137.935  1.00  0.00     0.002 C 
ATOM     12  C   UNL     1     105.681 113.611 139.449  1.00  0.00     0.005 C 
ATOM     13  C   UNL     1     106.494 112.774 137.245  1.00  0.00    -0.026 C 
ATOM     14  C   UNL     1     106.706 112.511 139.684  1.00  0.00     0.005 C 
ATOM     15  C   UNL     1     106.919 111.764 138.358  1.00  0.00    -0.001 C 
ATOM     16  C   UNL     1     105.894 112.038 136.017  1.00  0.00     0.007 C 
ATOM     17  C   UNL     1     107.764 113.525 136.777  1.00  0.00     0.012 C 
ATOM     18  C   UNL     1     106.191 110.376 138.331  1.00  0.00     0.000 C 
ATOM     19  C   UNL     1     104.753 111.046 136.336  1.00  0.00     0.005 C 
ATOM     20  C   UNL     1     104.750 110.464 137.781  1.00  0.00     0.003 C 
ATOM     21  C   UNL     1     107.004 109.306 137.568  1.00  0.00     0.031 C 
ATOM     22  C   UNL     1     104.015 109.071 137.900  1.00  0.00    -0.008 C 
ATOM     23  C   UNL     1     106.230 108.043 137.281  1.00  0.00    -0.027 C 
ATOM     24  C   UNL     1     104.880 107.952 137.313  1.00  0.00    -0.065 C 
ATOM     25  C   UNL     1     102.624 109.115 137.178  1.00  0.00     0.014 C 
ATOM     26  C   UNL     1     103.764 108.745 139.400  1.00  0.00     0.016 C 
ATOM     27  C   UNL     1     104.235 106.614 137.014  1.00  0.00     0.063 C 
ATOM     28  C   UNL     1     101.976 107.735 136.986  1.00  0.00     0.033 C 
ATOM     29  C   UNL     1     102.922 106.789 136.239  1.00  0.00     0.118 C 
BRANCH  29  30
ATOM     30  O   UNL     1     102.292 105.545 136.077  1.00  0.00    -0.393 OA
ATOM     31  H   UNL     1     102.637 105.157 135.230  1.00  0.00     0.210 HD
ENDBRANCH  29  30
ENDBRANCH   1  11
TORSDOF 6
ENDMDL
MODEL 4
REMARK VINA RESULT:    -5.979      0.971      1.098
REMARK INTER + INTRA:          -9.952
REMARK INTER:                  -7.850
REMARK INTRA:                  -2.102
REMARK UNBOUND:                -2.050
REMARK SMILES CC[C@H](C=C[C@@H](C)[C@@H]1CC[C@H]2[C@@H]3CC=C4C[C@@H](O)CC[C@]4(C)[C@@H]3CC[C@]21C)C(C)C
REMARK SMILES IDX 6 1 7 2 5 3 4 4 3 5 2 6 1 7 28 8 29 9 30 10 8 11 9 12 26 13
REMARK SMILES IDX 10 14 11 15 25 16 27 17 12 18 24 19 23 20 13 21 21 22 14 23
REMARK SMILES IDX 15 24 20 25 22 26 16 27 19 28 17 29 18 30
REMARK H PARENT 18 31
REMARK Flexibility Score: inf
ROOT
ATOM      1  C   UNL     1     102.133 112.762 135.653  1.00  0.00     0.012 C 
ATOM      2  C   UNL     1     100.890 113.661 135.659  1.00  0.00     0.012 C 
ENDROOT
BRANCH   1   3
ATOM      3  C   UNL     1     101.728 111.320 135.889  1.00  0.00    -0.028 C 
ATOM      4  C   UNL     1     102.096 110.643 136.991  1.00  0.00    -0.027 C 
BRANCH   4   5
ATOM      5  C   UNL     1     101.771 109.172 137.191  1.00  0.00     0.014 C 
BRANCH   5   6
ATOM      6  C   UNL     1     101.457 108.488 135.835  1.00  0.00     0.004 C 
ATOM      7  C   UNL     1     100.502 107.301 135.977  1.00  0.00     0.004 C 
ENDBRANCH   5   6
BRANCH   5   8
ATOM      8  C   UNL     1     102.904 108.443 137.982  1.00  0.00    -0.011 C 
ATOM      9  C   UNL     1     103.226 109.143 139.316  1.00  0.00     0.008 C 
ATOM     10  C   UNL     1     104.196 108.343 137.150  1.00  0.00     0.008 C 
ENDBRANCH   5   8
ENDBRANCH   4   5
ENDBRANCH   1   3
BRANCH   1  11
ATOM     11  C   UNL     1     103.287 113.309 136.568  1.00  0.00     0.002 C 
ATOM     12  C   UNL     1     102.992 114.711 137.122  1.00  0.00     0.005 C 
ATOM     13  C   UNL     1     104.784 113.319 136.088  1.00  0.00    -0.026 C 
ATOM     14  C   UNL     1     104.300 115.490 137.142  1.00  0.00     0.005 C 
ATOM     15  C   UNL     1     105.446 114.509 136.852  1.00  0.00    -0.001 C 
ATOM     16  C   UNL     1     105.506 111.980 136.400  1.00  0.00     0.007 C 
ATOM     17  C   UNL     1     104.924 113.594 134.571  1.00  0.00     0.012 C 
ATOM     18  C   UNL     1     106.247 114.128 138.145  1.00  0.00     0.000 C 
ATOM     19  C   UNL     1     105.674 111.656 137.901  1.00  0.00     0.005 C 
ATOM     20  C   UNL     1     105.675 112.883 138.859  1.00  0.00     0.003 C 
ATOM     21  C   UNL     1     107.757 113.952 137.865  1.00  0.00     0.031 C 
ATOM     22  C   UNL     1     106.428 112.620 140.223  1.00  0.00    -0.008 C 
ATOM     23  C   UNL     1     108.519 113.324 139.006  1.00  0.00    -0.027 C 
ATOM     24  C   UNL     1     107.945 112.622 140.011  1.00  0.00    -0.065 C 
ATOM     25  C   UNL     1     105.972 111.259 140.854  1.00  0.00     0.014 C 
ATOM     26  C   UNL     1     106.084 113.753 141.232  1.00  0.00     0.016 C 
ATOM     27  C   UNL     1     108.833 112.055 141.100  1.00  0.00     0.063 C 
ATOM     28  C   UNL     1     106.858 110.782 142.016  1.00  0.00     0.033 C 
ATOM     29  C   UNL     1     108.324 110.689 141.579  1.00  0.00     0.118 C 
BRANCH  29  30
ATOM     30  O   UNL     1     109.097 110.243 142.662  1.00  0.00    -0.393 OA
ATOM     31  H   UNL     1     109.287 109.281 142.502  1.00  0.00     0.210 HD
ENDBRANCH  29  30
ENDBRANCH   1  11
TORSDOF 6
ENDMDL
MODEL 5
REMARK VINA RESULT:    -5.609      2.330      6.085
REMARK INTER + INTRA:          -9.463
REMARK INTER:                  -7.509
REMARK INTRA:                  -1.954
REMARK UNBOUND:                -2.050
REMARK SMILES CC[C@H](C=C[C@@H](C)[C@@H]1CC[C@H]2[C@@H]3CC=C4C[C@@H](O)CC[C@]4(C)[C@@H]3CC[C@]21C)C(C)C
REMARK SMILES IDX 6 1 7 2 5 3 4 4 3 5 2 6 1 7 28 8 29 9 30 10 8 11 9 12 26 13
REMARK SMILES IDX 10 14 11 15 25 16 27 17 12 18 24 19 23 20 13 21 21 22 14 23
REMARK SMILES IDX 15 24 20 25 22 26 16 27 19 28 17 29 18 30
REMARK H PARENT 18 31
REMARK Flexibility Score: inf
ROOT
ATOM      1  C   UNL     1     106.471 113.384 135.406  1.00  0.00     0.012 C 
ATOM      2  C   UNL     1     107.378 112.586 134.460  1.00  0.00     0.012 C 
ENDROOT
BRANCH   1   3
ATOM      3  C   UNL     1     107.287 113.939 136.558  1.00  0.00    -0.028 C 
ATOM      4  C   UNL     1     107.391 113.299 137.736  1.00  0.00    -0.027 C 
BRANCH   4   5
ATOM      5  C   UNL     1     108.131 113.892 138.923  1.00  0.00     0.014 C 
BRANCH   5   6
ATOM      6  C   UNL     1     107.828 115.406 139.062  1.00  0.00     0.004 C 
ATOM      7  C   UNL     1     106.499 115.682 139.768  1.00  0.00     0.004 C 
ENDBRANCH   5   6
BRANCH   5   8
ATOM      8  C   UNL     1     107.828 113.098 140.235  1.00  0.00    -0.011 C 
ATOM      9  C   UNL     1     109.050 112.301 140.727  1.00  0.00     0.008 C 
ATOM     10  C   UNL     1     106.646 112.129 140.046  1.00  0.00     0.008 C 
ENDBRANCH   5   8
ENDBRANCH   4   5
ENDBRANCH   1   3
BRANCH   1  11
ATOM     11  C   UNL     1     105.166 112.605 135.803  1.00  0.00     0.002 C 
ATOM     12  C   UNL     1     104.995 111.294 135.020  1.00  0.00     0.005 C 
ATOM     13  C   UNL     1     103.760 113.308 135.818  1.00  0.00    -0.026 C 
ATOM     14  C   UNL     1     103.513 111.118 134.721  1.00  0.00     0.005 C 
ATOM     15  C   UNL     1     102.733 112.167 135.529  1.00  0.00    -0.001 C 
ATOM     16  C   UNL     1     103.466 113.997 137.178  1.00  0.00     0.007 C 
ATOM     17  C   UNL     1     103.611 114.372 134.703  1.00  0.00     0.012 C 
ATOM     18  C   UNL     1     102.030 111.550 136.787  1.00  0.00     0.000 C 
ATOM     19  C   UNL     1     103.338 113.043 138.386  1.00  0.00     0.005 C 
ATOM     20  C   UNL     1     102.921 111.581 138.049  1.00  0.00     0.003 C 
ATOM     21  C   UNL     1     100.659 112.205 137.069  1.00  0.00     0.031 C 
ATOM     22  C   UNL     1     102.223 110.828 139.250  1.00  0.00    -0.008 C 
ATOM     23  C   UNL     1     100.074 111.841 138.411  1.00  0.00    -0.027 C 
ATOM     24  C   UNL     1     100.789 111.330 139.440  1.00  0.00    -0.065 C 
ATOM     25  C   UNL     1     103.043 111.018 140.573  1.00  0.00     0.014 C 
ATOM     26  C   UNL     1     102.161 109.305 138.941  1.00  0.00     0.016 C 
ATOM     27  C   UNL     1     100.068 110.999 140.732  1.00  0.00     0.063 C 
ATOM     28  C   UNL     1     102.293 110.578 141.841  1.00  0.00     0.033 C 
ATOM     29  C   UNL     1     100.947 111.300 141.953  1.00  0.00     0.118 C 
BRANCH  29  30
ATOM     30  O   UNL     1     100.298 110.878 143.125  1.00  0.00    -0.393 OA
ATOM     31  H   UNL     1     100.739 110.034 143.408  1.00  0.00     0.210 HD
ENDBRANCH  29  30
ENDBRANCH   1  11
TORSDOF 6
ENDMDL
MODEL 6
REMARK VINA RESULT:    -5.565      3.101      5.542
REMARK INTER + INTRA:          -9.404
REMARK INTER:                  -8.343
REMARK INTRA:                  -1.061
REMARK UNBOUND:                -2.050
REMARK SMILES CC[C@H](C=C[C@@H](C)[C@@H]1CC[C@H]2[C@@H]3CC=C4C[C@@H](O)CC[C@]4(C)[C@@H]3CC[C@]21C)C(C)C
REMARK SMILES IDX 6 1 7 2 5 3 4 4 3 5 2 6 1 7 28 8 29 9 30 10 8 11 9 12 26 13
REMARK SMILES IDX 10 14 11 15 25 16 27 17 12 18 24 19 23 20 13 21 21 22 14 23
REMARK SMILES IDX 15 24 20 25 22 26 16 27 19 28 17 29 18 30
REMARK H PARENT 18 31
REMARK Flexibility Score: inf
ROOT
ATOM      1  C   UNL     1     103.479 107.684 136.753  1.00  0.00     0.012 C 
ATOM      2  C   UNL     1     102.371 106.811 137.357  1.00  0.00     0.012 C 
ENDROOT
BRANCH   1   3
ATOM      3  C   UNL     1     104.794 106.928 136.763  1.00  0.00    -0.028 C 
ATOM      4  C   UNL     1     104.854 105.590 136.644  1.00  0.00    -0.027 C 
BRANCH   4   5
ATOM      5  C   UNL     1     106.159 104.819 136.744  1.00  0.00     0.014 C 
BRANCH   5   6
ATOM      6  C   UNL     1     106.002 103.589 137.676  1.00  0.00     0.004 C 
ATOM      7  C   UNL     1     104.819 103.721 138.638  1.00  0.00     0.004 C 
ENDBRANCH   5   6
BRANCH   5   8
ATOM      8  C   UNL     1     106.701 104.434 135.330  1.00  0.00    -0.011 C 
ATOM      9  C   UNL     1     107.564 103.159 135.366  1.00  0.00     0.008 C 
ATOM     10  C   UNL     1     107.529 105.577 134.714  1.00  0.00     0.008 C 
ENDBRANCH   5   8
ENDBRANCH   4   5
ENDBRANCH   1   3
BRANCH   1  11
ATOM     11  C   UNL     1     103.515 109.132 137.359  1.00  0.00     0.002 C 
ATOM     12  C   UNL     1     102.542 109.308 138.536  1.00  0.00     0.005 C 
ATOM     13  C   UNL     1     103.362 110.408 136.453  1.00  0.00    -0.026 C 
ATOM     14  C   UNL     1     101.950 110.707 138.447  1.00  0.00     0.005 C 
ATOM     15  C   UNL     1     102.734 111.493 137.384  1.00  0.00    -0.001 C 
ATOM     16  C   UNL     1     104.725 110.882 135.879  1.00  0.00     0.007 C 
ATOM     17  C   UNL     1     102.395 110.186 135.265  1.00  0.00     0.012 C 
ATOM     18  C   UNL     1     103.742 112.514 138.018  1.00  0.00     0.000 C 
ATOM     19  C   UNL     1     105.746 111.377 136.926  1.00  0.00     0.005 C 
ATOM     20  C   UNL     1     105.140 111.903 138.261  1.00  0.00     0.003 C 
ATOM     21  C   UNL     1     103.849 113.815 137.193  1.00  0.00     0.031 C 
ATOM     22  C   UNL     1     106.076 112.923 139.023  1.00  0.00    -0.008 C 
ATOM     23  C   UNL     1     104.996 114.705 137.605  1.00  0.00    -0.027 C 
ATOM     24  C   UNL     1     106.061 114.289 138.329  1.00  0.00    -0.065 C 
ATOM     25  C   UNL     1     107.542 112.375 139.106  1.00  0.00     0.014 C 
ATOM     26  C   UNL     1     105.556 113.119 140.475  1.00  0.00     0.016 C 
ATOM     27  C   UNL     1     107.137 115.296 138.682  1.00  0.00     0.063 C 
ATOM     28  C   UNL     1     108.575 113.418 139.559  1.00  0.00     0.033 C 
ATOM     29  C   UNL     1     108.531 114.654 138.655  1.00  0.00     0.118 C 
BRANCH  29  30
ATOM     30  O   UNL     1     109.492 115.578 139.096  1.00  0.00    -0.393 OA
ATOM     31  H   UNL     1     109.267 115.797 140.038  1.00  0.00     0.210 HD
ENDBRANCH  29  30
ENDBRANCH   1  11
TORSDOF 6
ENDMDL
MODEL 7
REMARK VINA RESULT:    -5.532      2.156      4.766
REMARK INTER + INTRA:          -9.361
REMARK INTER:                  -7.389
REMARK INTRA:                  -1.972
REMARK UNBOUND:                -2.050
REMARK SMILES CC[C@H](C=C[C@@H](C)[C@@H]1CC[C@H]2[C@@H]3CC=C4C[C@@H](O)CC[C@]4(C)[C@@H]3CC[C@]21C)C(C)C
REMARK SMILES IDX 6 1 7 2 5 3 4 4 3 5 2 6 1 7 28 8 29 9 30 10 8 11 9 12 26 13
REMARK SMILES IDX 10 14 11 15 25 16 27 17 12 18 24 19 23 20 13 21 21 22 14 23
REMARK SMILES IDX 15 24 20 25 22 26 16 27 19 28 17 29 18 30
REMARK H PARENT 18 31
REMARK Flexibility Score: inf
ROOT
ATOM      1  C   UNL     1     106.156 115.423 138.353  1.00  0.00     0.012 C 
ATOM      2  C   UNL     1     106.130 116.740 139.139  1.00  0.00     0.012 C 
ENDROOT
BRANCH   1   3
ATOM      3  C   UNL     1     105.215 115.511 137.167  1.00  0.00    -0.028 C 
ATOM      4  C   UNL     1     104.806 114.421 136.494  1.00  0.00    -0.027 C 
BRANCH   4   5
ATOM      5  C   UNL     1     103.937 114.508 135.251  1.00  0.00     0.014 C 
BRANCH   5   6
ATOM      6  C   UNL     1     104.596 113.758 134.064  1.00  0.00     0.004 C 
ATOM      7  C   UNL     1     105.950 113.145 134.429  1.00  0.00     0.004 C 
ENDBRANCH   5   6
BRANCH   5   8
ATOM      8  C   UNL     1     102.483 114.012 135.539  1.00  0.00    -0.011 C 
ATOM      9  C   UNL     1     101.556 115.159 135.984  1.00  0.00     0.008 C 
ATOM     10  C   UNL     1     102.466 112.913 136.617  1.00  0.00     0.008 C 
ENDBRANCH   5   8
ENDBRANCH   4   5
ENDBRANCH   1   3
BRANCH   1  11
ATOM     11  C   UNL     1     105.985 114.160 139.272  1.00  0.00     0.002 C 
ATOM     12  C   UNL     1     105.677 114.525 140.732  1.00  0.00     0.005 C 
ATOM     13  C   UNL     1     107.065 113.018 139.311  1.00  0.00    -0.026 C 
ATOM     14  C   UNL     1     106.404 113.531 141.626  1.00  0.00     0.005 C 
ATOM     15  C   UNL     1     106.949 112.400 140.740  1.00  0.00    -0.001 C 
ATOM     16  C   UNL     1     106.821 111.947 138.214  1.00  0.00     0.007 C 
ATOM     17  C   UNL     1     108.508 113.553 139.143  1.00  0.00     0.012 C 
ATOM     18  C   UNL     1     106.092 111.091 140.849  1.00  0.00     0.000 C 
ATOM     19  C   UNL     1     105.517 111.133 138.366  1.00  0.00     0.005 C 
ATOM     20  C   UNL     1     104.948 111.035 139.812  1.00  0.00     0.003 C 
ATOM     21  C   UNL     1     106.963 109.817 140.772  1.00  0.00     0.031 C 
ATOM     22  C   UNL     1     104.034 109.768 140.049  1.00  0.00    -0.008 C 
ATOM     23  C   UNL     1     106.168 108.546 140.597  1.00  0.00    -0.027 C 
ATOM     24  C   UNL     1     104.888 108.502 140.161  1.00  0.00    -0.065 C 
ATOM     25  C   UNL     1     102.989 109.615 138.891  1.00  0.00     0.014 C 
ATOM     26  C   UNL     1     103.250 109.937 141.381  1.00  0.00     0.016 C 
ATOM     27  C   UNL     1     104.207 107.153 140.044  1.00  0.00     0.063 C 
ATOM     28  C   UNL     1     102.263 108.260 138.879  1.00  0.00     0.033 C 
ATOM     29  C   UNL     1     103.269 107.106 138.830  1.00  0.00     0.118 C 
BRANCH  29  30
ATOM     30  O   UNL     1     102.569 105.889 138.812  1.00  0.00    -0.393 OA
ATOM     31  H   UNL     1     102.772 105.454 137.943  1.00  0.00     0.210 HD
ENDBRANCH  29  30
ENDBRANCH   1  11
TORSDOF 6
ENDMDL
MODEL 8
REMARK VINA RESULT:    -5.454      3.933      7.254
REMARK INTER + INTRA:          -9.258
REMARK INTER:                  -7.539
REMARK INTRA:                  -1.719
REMARK UNBOUND:                -2.050
REMARK SMILES CC[C@H](C=C[C@@H](C)[C@@H]1CC[C@H]2[C@@H]3CC=C4C[C@@H](O)CC[C@]4(C)[C@@H]3CC[C@]21C)C(C)C
REMARK SMILES IDX 6 1 7 2 5 3 4 4 3 5 2 6 1 7 28 8 29 9 30 10 8 11 9 12 26 13
REMARK SMILES IDX 10 14 11 15 25 16 27 17 12 18 24 19 23 20 13 21 21 22 14 23
REMARK SMILES IDX 15 24 20 25 22 26 16 27 19 28 17 29 18 30
REMARK H PARENT 18 31
REMARK Flexibility Score: inf
ROOT
ATOM      1  C   UNL     1     102.414 109.579 137.248  1.00  0.00     0.012 C 
ATOM      2  C   UNL     1     100.986 109.555 136.688  1.00  0.00     0.012 C 
ENDROOT
BRANCH   1   3
ATOM      3  C   UNL     1     103.139 110.819 136.759  1.00  0.00    -0.028 C 
ATOM      4  C   UNL     1     104.434 110.797 136.399  1.00  0.00    -0.027 C 
BRANCH   4   5
ATOM      5  C   UNL     1     105.190 112.052 135.996  1.00  0.00     0.014 C 
BRANCH   5   6
ATOM      6  C   UNL     1     106.520 112.171 136.785  1.00  0.00     0.004 C 
ATOM      7  C   UNL     1     106.640 111.136 137.905  1.00  0.00     0.004 C 
ENDBRANCH   5   6
BRANCH   5   8
ATOM      8  C   UNL     1     105.404 112.113 134.449  1.00  0.00    -0.011 C 
ATOM      9  C   UNL     1     106.896 112.129 134.069  1.00  0.00     0.008 C 
ATOM     10  C   UNL     1     104.722 113.350 133.835  1.00  0.00     0.008 C 
ENDBRANCH   5   8
ENDBRANCH   4   5
ENDBRANCH   1   3
BRANCH   1  11
ATOM     11  C   UNL     1     103.172 108.218 137.048  1.00  0.00     0.002 C 
ATOM     12  C   UNL     1     102.478 107.294 136.036  1.00  0.00     0.005 C 
ATOM     13  C   UNL     1     103.586 107.319 138.270  1.00  0.00    -0.026 C 
ATOM     14  C   UNL     1     102.617 105.864 136.537  1.00  0.00     0.005 C 
ATOM     15  C   UNL     1     103.609 105.861 137.710  1.00  0.00    -0.001 C 
ATOM     16  C   UNL     1     104.970 107.721 138.848  1.00  0.00     0.007 C 
ATOM     17  C   UNL     1     102.555 107.367 139.423  1.00  0.00     0.012 C 
ATOM     18  C   UNL     1     105.019 105.312 137.298  1.00  0.00     0.000 C 
ATOM     19  C   UNL     1     106.169 107.507 137.898  1.00  0.00     0.005 C 
ATOM     20  C   UNL     1     105.973 106.421 136.799  1.00  0.00     0.003 C 
ATOM     21  C   UNL     1     105.679 104.492 138.430  1.00  0.00     0.031 C 
ATOM     22  C   UNL     1     107.328 105.804 136.270  1.00  0.00    -0.008 C 
ATOM     23  C   UNL     1     107.134 104.179 138.186  1.00  0.00    -0.027 C 
ATOM     24  C   UNL     1     107.918 104.838 137.302  1.00  0.00    -0.065 C 
ATOM     25  C   UNL     1     108.359 106.936 135.937  1.00  0.00     0.014 C 
ATOM     26  C   UNL     1     107.057 105.003 134.964  1.00  0.00     0.016 C 
ATOM     27  C   UNL     1     109.364 104.408 137.151  1.00  0.00     0.063 C 
ATOM     28  C   UNL     1     109.790 106.428 135.702  1.00  0.00     0.033 C 
ATOM     29  C   UNL     1     110.281 105.613 136.904  1.00  0.00     0.118 C 
BRANCH  29  30
ATOM     30  O   UNL     1     111.591 105.175 136.656  1.00  0.00    -0.393 OA
ATOM     31  H   UNL     1     111.615 104.206 136.874  1.00  0.00     0.210 HD
ENDBRANCH  29  30
ENDBRANCH   1  11
TORSDOF 6
ENDMDL
