MODEL 1
REMARK VINA RESULT:    -4.179      0.000      0.000
REMARK INTER + INTRA:          -9.200
REMARK INTER:                  -7.599
REMARK INTRA:                  -1.601
REMARK UNBOUND:                -1.601
REMARK SMILES CCCCCCCCCCCCCCCC(=O)[O-]
REMARK SMILES IDX 9 1 10 2 11 3 12 4 13 5 14 6 15 7 16 8 17 9 18 10 8 11 7 12
REMARK SMILES IDX 6 13 5 14 4 15 3 16 2 17 1 18
REMARK H PARENT
REMARK Flexibility Score: inf
ROOT
ATOM      1  C   UNL     1      24.879   2.271   3.883  1.00  0.00     0.000 C 
ENDROOT
BRANCH   1   2
ATOM      2  C   UNL     1      24.223   0.892   3.694  1.00  0.00     0.000 C 
BRANCH   2   3
ATOM      3  C   UNL     1      23.047   0.924   2.705  1.00  0.00     0.000 C 
BRANCH   3   4
ATOM      4  C   UNL     1      23.064  -0.256   1.723  1.00  0.00     0.000 C 
BRANCH   4   5
ATOM      5  C   UNL     1      24.053  -1.338   2.182  1.00  0.00     0.000 C 
BRANCH   5   6
ATOM      6  C   UNL     1      23.352  -2.579   2.766  1.00  0.00     0.006 C 
BRANCH   6   7
ATOM      7  C   UNL     1      24.280  -3.517   3.555  1.00  0.00     0.053 C 
BRANCH   7   8
ATOM      8  C   UNL     1      24.989  -2.802   4.664  1.00  0.00     0.041 C 
ATOM      9  O   UNL     1      26.245  -2.716   4.662  1.00  0.00    -0.550 OA
ATOM     10  O   UNL     1      24.264  -2.259   5.717  1.00  0.00    -0.550 OA
ENDBRANCH   7   8
ENDBRANCH   6   7
ENDBRANCH   5   6
ENDBRANCH   4   5
ENDBRANCH   3   4
ENDBRANCH   2   3
ENDBRANCH   1   2
BRANCH   1  11
ATOM     11  C   UNL     1      26.143   2.204   4.766  1.00  0.00     0.000 C 
BRANCH  11  12
ATOM     12  C   UNL     1      27.206   3.259   4.406  1.00  0.00    -0.000 C 
BRANCH  12  13
ATOM     13  C   UNL     1      26.766   4.287   3.347  1.00  0.00    -0.000 C 
BRANCH  13  14
ATOM     14  C   UNL     1      27.331   4.046   1.935  1.00  0.00    -0.000 C 
BRANCH  14  15
ATOM     15  C   UNL     1      26.235   3.912   0.866  1.00  0.00    -0.000 C 
BRANCH  15  16
ATOM     16  C   UNL     1      26.447   2.647   0.020  1.00  0.00    -0.000 C 
BRANCH  16  17
ATOM     17  C   UNL     1      25.125   2.024  -0.452  1.00  0.00    -0.003 C 
ATOM     18  C   UNL     1      25.306   0.625  -1.040  1.00  0.00     0.004 C 
ENDBRANCH  16  17
ENDBRANCH  15  16
ENDBRANCH  14  15
ENDBRANCH  13  14
ENDBRANCH  12  13
ENDBRANCH  11  12
ENDBRANCH   1  11
TORSDOF 14
ENDMDL
MODEL 2
REMARK VINA RESULT:    -4.133      1.427      3.944
REMARK INTER + INTRA:          -9.118
REMARK INTER:                  -7.507
REMARK INTRA:                  -1.611
REMARK UNBOUND:                -1.601
REMARK SMILES CCCCCCCCCCCCCCCC(=O)[O-]
REMARK SMILES IDX 9 1 10 2 11 3 12 4 13 5 14 6 15 7 16 8 17 9 18 10 8 11 7 12
REMARK SMILES IDX 6 13 5 14 4 15 3 16 2 17 1 18
REMARK H PARENT
REMARK Flexibility Score: inf
ROOT
ATOM      1  C   UNL     1      27.256   5.237   1.470  1.00  0.00     0.000 C 
ENDROOT
BRANCH   1   2
ATOM      2  C   UNL     1      27.580   4.248   2.602  1.00  0.00     0.000 C 
BRANCH   2   3
ATOM      3  C   UNL     1      26.384   3.357   2.974  1.00  0.00     0.000 C 
BRANCH   3   4
ATOM      4  C   UNL     1      26.520   2.732   4.370  1.00  0.00     0.000 C 
BRANCH   4   5
ATOM      5  C   UNL     1      25.515   1.585   4.557  1.00  0.00     0.000 C 
BRANCH   5   6
ATOM      6  C   UNL     1      26.156   0.322   5.161  1.00  0.00     0.006 C 
BRANCH   6   7
ATOM      7  C   UNL     1      25.309  -0.952   5.008  1.00  0.00     0.053 C 
BRANCH   7   8
ATOM      8  C   UNL     1      26.158  -2.169   4.804  1.00  0.00     0.041 C 
ATOM      9  O   UNL     1      25.635  -3.252   4.430  1.00  0.00    -0.550 OA
ATOM     10  O   UNL     1      27.522  -2.116   5.058  1.00  0.00    -0.550 OA
ENDBRANCH   7   8
ENDBRANCH   6   7
ENDBRANCH   5   6
ENDBRANCH   4   5
ENDBRANCH   3   4
ENDBRANCH   2   3
ENDBRANCH   1   2
BRANCH   1  11
ATOM     11  C   UNL     1      25.805   5.094   0.962  1.00  0.00     0.000 C 
BRANCH  11  12
ATOM     12  C   UNL     1      25.684   5.090  -0.573  1.00  0.00    -0.000 C 
BRANCH  12  13
ATOM     13  C   UNL     1      25.176   3.769  -1.181  1.00  0.00    -0.000 C 
BRANCH  13  14
ATOM     14  C   UNL     1      26.065   2.543  -0.906  1.00  0.00    -0.000 C 
BRANCH  14  15
ATOM     15  C   UNL     1      25.256   1.271  -0.610  1.00  0.00    -0.000 C 
BRANCH  15  16
ATOM     16  C   UNL     1      24.605   1.347   0.780  1.00  0.00    -0.000 C 
BRANCH  16  17
ATOM     17  C   UNL     1      24.075  -0.013   1.259  1.00  0.00    -0.003 C 
ATOM     18  C   UNL     1      22.904   0.117   2.232  1.00  0.00     0.004 C 
ENDBRANCH  16  17
ENDBRANCH  15  16
ENDBRANCH  14  15
ENDBRANCH  13  14
ENDBRANCH  12  13
ENDBRANCH  11  12
ENDBRANCH   1  11
TORSDOF 14
ENDMDL
MODEL 3
REMARK VINA RESULT:    -4.100      6.105      7.393
REMARK INTER + INTRA:          -9.056
REMARK INTER:                  -6.995
REMARK INTRA:                  -2.061
REMARK UNBOUND:                -1.601
REMARK SMILES CCCCCCCCCCCCCCCC(=O)[O-]
REMARK SMILES IDX 9 1 10 2 11 3 12 4 13 5 14 6 15 7 16 8 17 9 18 10 8 11 7 12
REMARK SMILES IDX 6 13 5 14 4 15 3 16 2 17 1 18
REMARK H PARENT
REMARK Flexibility Score: inf
ROOT
ATOM      1  C   UNL     1      18.482   2.296   4.508  1.00  0.00     0.000 C 
ENDROOT
BRANCH   1   2
ATOM      2  C   UNL     1      19.928   2.672   4.140  1.00  0.00     0.000 C 
BRANCH   2   3
ATOM      3  C   UNL     1      20.416   1.972   2.862  1.00  0.00     0.000 C 
BRANCH   3   4
ATOM      4  C   UNL     1      19.430   0.911   2.352  1.00  0.00     0.000 C 
BRANCH   4   5
ATOM      5  C   UNL     1      20.134  -0.094   1.428  1.00  0.00     0.000 C 
BRANCH   5   6
ATOM      6  C   UNL     1      19.243  -1.295   1.061  1.00  0.00     0.006 C 
BRANCH   6   7
ATOM      7  C   UNL     1      18.600  -1.204  -0.332  1.00  0.00     0.053 C 
BRANCH   7   8
ATOM      8  C   UNL     1      17.647  -2.332  -0.585  1.00  0.00     0.041 C 
ATOM      9  O   UNL     1      16.431  -2.214  -0.280  1.00  0.00    -0.550 OA
ATOM     10  O   UNL     1      18.108  -3.524  -1.127  1.00  0.00    -0.550 OA
ENDBRANCH   7   8
ENDBRANCH   6   7
ENDBRANCH   5   6
ENDBRANCH   4   5
ENDBRANCH   3   4
ENDBRANCH   2   3
ENDBRANCH   1   2
BRANCH   1  11
ATOM     11  C   UNL     1      17.486   3.440   4.219  1.00  0.00     0.000 C 
BRANCH  11  12
ATOM     12  C   UNL     1      18.163   4.795   3.939  1.00  0.00    -0.000 C 
BRANCH  12  13
ATOM     13  C   UNL     1      17.877   5.388   2.546  1.00  0.00    -0.000 C 
BRANCH  13  14
ATOM     14  C   UNL     1      19.023   5.239   1.529  1.00  0.00    -0.000 C 
BRANCH  14  15
ATOM     15  C   UNL     1      18.529   4.872   0.121  1.00  0.00    -0.000 C 
BRANCH  15  16
ATOM     16  C   UNL     1      17.982   3.436   0.089  1.00  0.00    -0.000 C 
BRANCH  16  17
ATOM     17  C   UNL     1      18.762   2.528  -0.873  1.00  0.00    -0.003 C 
ATOM     18  C   UNL     1      20.261   2.828  -0.885  1.00  0.00     0.004 C 
ENDBRANCH  16  17
ENDBRANCH  15  16
ENDBRANCH  14  15
ENDBRANCH  13  14
ENDBRANCH  12  13
ENDBRANCH  11  12
ENDBRANCH   1  11
TORSDOF 14
ENDMDL
MODEL 4
REMARK VINA RESULT:    -4.098      1.409      2.795
REMARK INTER + INTRA:          -9.054
REMARK INTER:                  -7.311
REMARK INTRA:                  -1.743
REMARK UNBOUND:                -1.601
REMARK SMILES CCCCCCCCCCCCCCCC(=O)[O-]
REMARK SMILES IDX 9 1 10 2 11 3 12 4 13 5 14 6 15 7 16 8 17 9 18 10 8 11 7 12
REMARK SMILES IDX 6 13 5 14 4 15 3 16 2 17 1 18
REMARK H PARENT
REMARK Flexibility Score: inf
ROOT
ATOM      1  C   UNL     1      25.677   3.839   3.565  1.00  0.00     0.000 C 
ENDROOT
BRANCH   1   2
ATOM      2  C   UNL     1      25.312   2.481   4.188  1.00  0.00     0.000 C 
BRANCH   2   3
ATOM      3  C   UNL     1      26.472   1.863   4.984  1.00  0.00     0.000 C 
BRANCH   3   4
ATOM      4  C   UNL     1      26.204   0.406   5.392  1.00  0.00     0.000 C 
BRANCH   4   5
ATOM      5  C   UNL     1      25.085  -0.206   4.535  1.00  0.00     0.000 C 
BRANCH   5   6
ATOM      6  C   UNL     1      24.623  -1.582   5.050  1.00  0.00     0.006 C 
BRANCH   6   7
ATOM      7  C   UNL     1      25.242  -2.776   4.306  1.00  0.00     0.053 C 
BRANCH   7   8
ATOM      8  C   UNL     1      24.239  -3.482   3.445  1.00  0.00     0.041 C 
ATOM      9  O   UNL     1      24.249  -3.318   2.197  1.00  0.00    -0.550 OA
ATOM     10  O   UNL     1      23.274  -4.295   4.025  1.00  0.00    -0.550 OA
ENDBRANCH   7   8
ENDBRANCH   6   7
ENDBRANCH   5   6
ENDBRANCH   4   5
ENDBRANCH   3   4
ENDBRANCH   2   3
ENDBRANCH   1   2
BRANCH   1  11
ATOM     11  C   UNL     1      27.191   3.975   3.296  1.00  0.00     0.000 C 
BRANCH  11  12
ATOM     12  C   UNL     1      27.550   4.046   1.800  1.00  0.00    -0.000 C 
BRANCH  12  13
ATOM     13  C   UNL     1      26.364   3.843   0.837  1.00  0.00    -0.000 C 
BRANCH  13  14
ATOM     14  C   UNL     1      26.438   2.571  -0.026  1.00  0.00    -0.000 C 
BRANCH  14  15
ATOM     15  C   UNL     1      25.058   2.081  -0.490  1.00  0.00    -0.000 C 
BRANCH  15  16
ATOM     16  C   UNL     1      23.959   2.534   0.485  1.00  0.00    -0.000 C 
BRANCH  16  17
ATOM     17  C   UNL     1      23.313   1.358   1.232  1.00  0.00    -0.003 C 
ATOM     18  C   UNL     1      24.087   0.051   1.063  1.00  0.00     0.004 C 
ENDBRANCH  16  17
ENDBRANCH  15  16
ENDBRANCH  14  15
ENDBRANCH  13  14
ENDBRANCH  12  13
ENDBRANCH  11  12
ENDBRANCH   1  11
TORSDOF 14
ENDMDL
MODEL 5
REMARK VINA RESULT:    -4.088      1.161      3.367
REMARK INTER + INTRA:          -9.034
REMARK INTER:                  -7.289
REMARK INTRA:                  -1.745
REMARK UNBOUND:                -1.601
REMARK SMILES CCCCCCCCCCCCCCCC(=O)[O-]
REMARK SMILES IDX 9 1 10 2 11 3 12 4 13 5 14 6 15 7 16 8 17 9 18 10 8 11 7 12
REMARK SMILES IDX 6 13 5 14 4 15 3 16 2 17 1 18
REMARK H PARENT
REMARK Flexibility Score: inf
ROOT
ATOM      1  C   UNL     1      22.879   1.744   0.831  1.00  0.00     0.000 C 
ENDROOT
BRANCH   1   2
ATOM      2  C   UNL     1      23.576   1.752   2.202  1.00  0.00     0.000 C 
BRANCH   2   3
ATOM      3  C   UNL     1      23.629   0.359   2.849  1.00  0.00     0.000 C 
BRANCH   3   4
ATOM      4  C   UNL     1      23.638  -0.776   1.814  1.00  0.00     0.000 C 
BRANCH   4   5
ATOM      5  C   UNL     1      24.580  -1.909   2.251  1.00  0.00     0.000 C 
BRANCH   5   6
ATOM      6  C   UNL     1      24.291  -2.410   3.678  1.00  0.00     0.006 C 
BRANCH   6   7
ATOM      7  C   UNL     1      25.521  -2.964   4.415  1.00  0.00     0.053 C 
BRANCH   7   8
ATOM      8  C   UNL     1      26.342  -1.874   5.034  1.00  0.00     0.041 C 
ATOM      9  O   UNL     1      25.797  -0.800   5.400  1.00  0.00    -0.550 OA
ATOM     10  O   UNL     1      27.714  -2.033   5.176  1.00  0.00    -0.550 OA
ENDBRANCH   7   8
ENDBRANCH   6   7
ENDBRANCH   5   6
ENDBRANCH   4   5
ENDBRANCH   3   4
ENDBRANCH   2   3
ENDBRANCH   1   2
BRANCH   1  11
ATOM     11  C   UNL     1      23.671   2.532  -0.235  1.00  0.00     0.000 C 
BRANCH  11  12
ATOM     12  C   UNL     1      24.894   1.773  -0.783  1.00  0.00    -0.000 C 
BRANCH  12  13
ATOM     13  C   UNL     1      26.258   2.329  -0.331  1.00  0.00    -0.000 C 
BRANCH  13  14
ATOM     14  C   UNL     1      26.213   3.736   0.291  1.00  0.00    -0.000 C 
BRANCH  14  15
ATOM     15  C   UNL     1      27.046   3.850   1.577  1.00  0.00    -0.000 C 
BRANCH  15  16
ATOM     16  C   UNL     1      26.190   4.376   2.740  1.00  0.00    -0.000 C 
BRANCH  16  17
ATOM     17  C   UNL     1      26.743   3.964   4.113  1.00  0.00    -0.003 C 
ATOM     18  C   UNL     1      26.429   2.511   4.465  1.00  0.00     0.004 C 
ENDBRANCH  16  17
ENDBRANCH  15  16
ENDBRANCH  14  15
ENDBRANCH  13  14
ENDBRANCH  12  13
ENDBRANCH  11  12
ENDBRANCH   1  11
TORSDOF 14
ENDMDL
MODEL 6
REMARK VINA RESULT:    -4.044      3.600      6.439
REMARK INTER + INTRA:          -8.955
REMARK INTER:                  -7.592
REMARK INTRA:                  -1.362
REMARK UNBOUND:                -1.601
REMARK SMILES CCCCCCCCCCCCCCCC(=O)[O-]
REMARK SMILES IDX 9 1 10 2 11 3 12 4 13 5 14 6 15 7 16 8 17 9 18 10 8 11 7 12
REMARK SMILES IDX 6 13 5 14 4 15 3 16 2 17 1 18
REMARK H PARENT
REMARK Flexibility Score: inf
ROOT
ATOM      1  C   UNL     1      20.308   0.857   1.091  1.00  0.00     0.000 C 
ENDROOT
BRANCH   1   2
ATOM      2  C   UNL     1      21.678   1.465   1.440  1.00  0.00     0.000 C 
BRANCH   2   3
ATOM      3  C   UNL     1      22.504   0.569   2.375  1.00  0.00     0.000 C 
BRANCH   3   4
ATOM      4  C   UNL     1      23.373  -0.443   1.614  1.00  0.00     0.000 C 
BRANCH   4   5
ATOM      5  C   UNL     1      24.176  -1.319   2.588  1.00  0.00     0.000 C 
BRANCH   5   6
ATOM      6  C   UNL     1      23.934  -2.825   2.376  1.00  0.00     0.006 C 
BRANCH   6   7
ATOM      7  C   UNL     1      24.139  -3.682   3.635  1.00  0.00     0.053 C 
BRANCH   7   8
ATOM      8  C   UNL     1      24.889  -2.943   4.701  1.00  0.00     0.041 C 
ATOM      9  O   UNL     1      26.148  -2.939   4.705  1.00  0.00    -0.550 OA
ATOM     10  O   UNL     1      24.196  -2.285   5.709  1.00  0.00    -0.550 OA
ENDBRANCH   7   8
ENDBRANCH   6   7
ENDBRANCH   5   6
ENDBRANCH   4   5
ENDBRANCH   3   4
ENDBRANCH   2   3
ENDBRANCH   1   2
BRANCH   1  11
ATOM     11  C   UNL     1      19.513   0.441   2.348  1.00  0.00     0.000 C 
BRANCH  11  12
ATOM     12  C   UNL     1      19.054  -1.029   2.331  1.00  0.00    -0.000 C 
BRANCH  12  13
ATOM     13  C   UNL     1      19.923  -1.971   1.475  1.00  0.00    -0.000 C 
BRANCH  13  14
ATOM     14  C   UNL     1      19.275  -3.327   1.141  1.00  0.00    -0.000 C 
BRANCH  14  15
ATOM     15  C   UNL     1      18.468  -3.299  -0.166  1.00  0.00    -0.000 C 
BRANCH  15  16
ATOM     16  C   UNL     1      18.789  -2.036  -0.981  1.00  0.00    -0.000 C 
BRANCH  16  17
ATOM     17  C   UNL     1      17.555  -1.147  -1.201  1.00  0.00    -0.003 C 
ATOM     18  C   UNL     1      16.259  -1.807  -0.732  1.00  0.00     0.004 C 
ENDBRANCH  16  17
ENDBRANCH  15  16
ENDBRANCH  14  15
ENDBRANCH  13  14
ENDBRANCH  12  13
ENDBRANCH  11  12
ENDBRANCH   1  11
TORSDOF 14
ENDMDL
MODEL 7
REMARK VINA RESULT:    -3.978      2.597      5.014
REMARK INTER + INTRA:          -8.835
REMARK INTER:                  -6.716
REMARK INTRA:                  -2.119
REMARK UNBOUND:                -1.601
REMARK SMILES CCCCCCCCCCCCCCCC(=O)[O-]
REMARK SMILES IDX 9 1 10 2 11 3 12 4 13 5 14 6 15 7 16 8 17 9 18 10 8 11 7 12
REMARK SMILES IDX 6 13 5 14 4 15 3 16 2 17 1 18
REMARK H PARENT
REMARK Flexibility Score: inf
ROOT
ATOM      1  C   UNL     1      24.412   2.216  -0.997  1.00  0.00     0.000 C 
ENDROOT
BRANCH   1   2
ATOM      2  C   UNL     1      24.643   1.240   0.169  1.00  0.00     0.000 C 
BRANCH   2   3
ATOM      3  C   UNL     1      24.276   1.846   1.533  1.00  0.00     0.000 C 
BRANCH   3   4
ATOM      4  C   UNL     1      23.444   0.892   2.402  1.00  0.00     0.000 C 
BRANCH   4   5
ATOM      5  C   UNL     1      23.071  -0.377   1.622  1.00  0.00     0.000 C 
BRANCH   5   6
ATOM      6  C   UNL     1      23.212  -1.659   2.464  1.00  0.00     0.006 C 
BRANCH   6   7
ATOM      7  C   UNL     1      24.531  -1.761   3.245  1.00  0.00     0.053 C 
BRANCH   7   8
ATOM      8  C   UNL     1      24.640  -3.052   3.998  1.00  0.00     0.041 C 
ATOM      9  O   UNL     1      25.693  -3.331   4.629  1.00  0.00    -0.550 OA
ATOM     10  O   UNL     1      23.590  -3.961   3.974  1.00  0.00    -0.550 OA
ENDBRANCH   7   8
ENDBRANCH   6   7
ENDBRANCH   5   6
ENDBRANCH   4   5
ENDBRANCH   3   4
ENDBRANCH   2   3
ENDBRANCH   1   2
BRANCH   1  11
ATOM     11  C   UNL     1      23.459   3.370  -0.617  1.00  0.00     0.000 C 
BRANCH  11  12
ATOM     12  C   UNL     1      22.091   3.300  -1.321  1.00  0.00    -0.000 C 
BRANCH  12  13
ATOM     13  C   UNL     1      21.134   2.223  -0.776  1.00  0.00    -0.000 C 
BRANCH  13  14
ATOM     14  C   UNL     1      20.592   2.492   0.640  1.00  0.00    -0.000 C 
BRANCH  14  15
ATOM     15  C   UNL     1      19.806   1.305   1.216  1.00  0.00    -0.000 C 
BRANCH  15  16
ATOM     16  C   UNL     1      19.397   0.326   0.103  1.00  0.00    -0.000 C 
BRANCH  16  17
ATOM     17  C   UNL     1      19.187  -1.104   0.623  1.00  0.00    -0.003 C 
ATOM     18  C   UNL     1      19.477  -1.239   2.118  1.00  0.00     0.004 C 
ENDBRANCH  16  17
ENDBRANCH  15  16
ENDBRANCH  14  15
ENDBRANCH  13  14
ENDBRANCH  12  13
ENDBRANCH  11  12
ENDBRANCH   1  11
TORSDOF 14
ENDMDL
MODEL 8
REMARK VINA RESULT:    -3.973      3.811      5.879
REMARK INTER + INTRA:          -8.826
REMARK INTER:                  -6.498
REMARK INTRA:                  -2.328
REMARK UNBOUND:                -1.601
REMARK SMILES CCCCCCCCCCCCCCCC(=O)[O-]
REMARK SMILES IDX 9 1 10 2 11 3 12 4 13 5 14 6 15 7 16 8 17 9 18 10 8 11 7 12
REMARK SMILES IDX 6 13 5 14 4 15 3 16 2 17 1 18
REMARK H PARENT
REMARK Flexibility Score: inf
ROOT
ATOM      1  C   UNL     1      21.953   2.960  -1.162  1.00  0.00     0.000 C 
ENDROOT
BRANCH   1   2
ATOM      2  C   UNL     1      20.649   3.541  -0.589  1.00  0.00     0.000 C 
BRANCH   2   3
ATOM      3  C   UNL     1      19.480   2.544  -0.643  1.00  0.00     0.000 C 
BRANCH   3   4
ATOM      4  C   UNL     1      19.304   1.764   0.668  1.00  0.00     0.000 C 
BRANCH   4   5
ATOM      5  C   UNL     1      19.657   0.281   0.476  1.00  0.00     0.000 C 
BRANCH   5   6
ATOM      6  C   UNL     1      19.857  -0.464   1.809  1.00  0.00     0.006 C 
BRANCH   6   7
ATOM      7  C   UNL     1      19.522  -1.963   1.752  1.00  0.00     0.053 C 
BRANCH   7   8
ATOM      8  C   UNL     1      20.705  -2.815   2.094  1.00  0.00     0.041 C 
ATOM      9  O   UNL     1      20.931  -3.136   3.291  1.00  0.00    -0.550 OA
ATOM     10  O   UNL     1      21.577  -3.228   1.095  1.00  0.00    -0.550 OA
ENDBRANCH   7   8
ENDBRANCH   6   7
ENDBRANCH   5   6
ENDBRANCH   4   5
ENDBRANCH   3   4
ENDBRANCH   2   3
ENDBRANCH   1   2
BRANCH   1  11
ATOM     11  C   UNL     1      23.083   2.902  -0.112  1.00  0.00     0.000 C 
BRANCH  11  12
ATOM     12  C   UNL     1      23.207   1.536   0.589  1.00  0.00    -0.000 C 
BRANCH  12  13
ATOM     13  C   UNL     1      22.963   1.562   2.109  1.00  0.00    -0.000 C 
BRANCH  13  14
ATOM     14  C   UNL     1      22.305   2.849   2.640  1.00  0.00    -0.000 C 
BRANCH  14  15
ATOM     15  C   UNL     1      21.224   2.576   3.697  1.00  0.00    -0.000 C 
BRANCH  15  16
ATOM     16  C   UNL     1      20.200   3.722   3.742  1.00  0.00    -0.000 C 
BRANCH  16  17
ATOM     17  C   UNL     1      18.930   3.348   4.522  1.00  0.00    -0.003 C 
ATOM     18  C   UNL     1      18.604   1.857   4.442  1.00  0.00     0.004 C 
ENDBRANCH  16  17
ENDBRANCH  15  16
ENDBRANCH  14  15
ENDBRANCH  13  14
ENDBRANCH  12  13
ENDBRANCH  11  12
ENDBRANCH   1  11
TORSDOF 14
ENDMDL
MODEL 9
REMARK VINA RESULT:    -3.964      5.578      7.225
REMARK INTER + INTRA:          -8.809
REMARK INTER:                  -6.717
REMARK INTRA:                  -2.092
REMARK UNBOUND:                -1.601
REMARK SMILES CCCCCCCCCCCCCCCC(=O)[O-]
REMARK SMILES IDX 9 1 10 2 11 3 12 4 13 5 14 6 15 7 16 8 17 9 18 10 8 11 7 12
REMARK SMILES IDX 6 13 5 14 4 15 3 16 2 17 1 18
REMARK H PARENT
REMARK Flexibility Score: inf
ROOT
ATOM      1  C   UNL     1      19.105   2.318  -0.527  1.00  0.00     0.000 C 
ENDROOT
BRANCH   1   2
ATOM      2  C   UNL     1      19.270   0.814  -0.249  1.00  0.00     0.000 C 
BRANCH   2   3
ATOM      3  C   UNL     1      19.406   0.498   1.249  1.00  0.00     0.000 C 
BRANCH   3   4
ATOM      4  C   UNL     1      20.793  -0.049   1.617  1.00  0.00     0.000 C 
BRANCH   4   5
ATOM      5  C   UNL     1      20.766  -1.581   1.727  1.00  0.00     0.000 C 
BRANCH   5   6
ATOM      6  C   UNL     1      19.370  -2.132   2.070  1.00  0.00     0.006 C 
BRANCH   6   7
ATOM      7  C   UNL     1      18.905  -3.285   1.166  1.00  0.00     0.053 C 
BRANCH   7   8
ATOM      8  C   UNL     1      18.320  -2.788  -0.121  1.00  0.00     0.041 C 
ATOM      9  O   UNL     1      19.021  -2.763  -1.167  1.00  0.00    -0.550 OA
ATOM     10  O   UNL     1      17.012  -2.324  -0.157  1.00  0.00    -0.550 OA
ENDBRANCH   7   8
ENDBRANCH   6   7
ENDBRANCH   5   6
ENDBRANCH   4   5
ENDBRANCH   3   4
ENDBRANCH   2   3
ENDBRANCH   1   2
BRANCH   1  11
ATOM     11  C   UNL     1      18.510   3.077   0.678  1.00  0.00     0.000 C 
BRANCH  11  12
ATOM     12  C   UNL     1      18.965   4.545   0.770  1.00  0.00    -0.000 C 
BRANCH  12  13
ATOM     13  C   UNL     1      20.417   4.746   1.245  1.00  0.00    -0.000 C 
BRANCH  13  14
ATOM     14  C   UNL     1      20.886   3.764   2.334  1.00  0.00    -0.000 C 
BRANCH  14  15
ATOM     15  C   UNL     1      20.135   3.939   3.663  1.00  0.00    -0.000 C 
BRANCH  15  16
ATOM     16  C   UNL     1      19.761   2.575   4.265  1.00  0.00    -0.000 C 
BRANCH  16  17
ATOM     17  C   UNL     1      18.262   2.459   4.576  1.00  0.00    -0.003 C 
ATOM     18  C   UNL     1      17.466   3.681   4.120  1.00  0.00     0.004 C 
ENDBRANCH  16  17
ENDBRANCH  15  16
ENDBRANCH  14  15
ENDBRANCH  13  14
ENDBRANCH  12  13
ENDBRANCH  11  12
ENDBRANCH   1  11
TORSDOF 14
ENDMDL
