MODEL 1
REMARK VINA RESULT:    -5.687      0.000      0.000
REMARK INTER + INTRA:         -12.600
REMARK INTER:                 -10.673
REMARK INTRA:                  -1.927
REMARK UNBOUND:                -1.927
REMARK SMILES CCCCCCCCC=CCCCCCCCC(=O)[O-]
REMARK SMILES IDX 10 1 9 2 11 3 12 4 13 5 14 6 15 7 16 8 17 9 18 10 19 11
REMARK SMILES IDX 20 12 8 13 7 14 6 15 5 16 4 17 3 18 2 19 1 20
REMARK H PARENT
REMARK Flexibility Score: inf
ROOT
ATOM      1  C   UNL     1     -17.820 -32.306  -8.628  1.00  0.00    -0.031 C 
ATOM      2  C   UNL     1     -17.779 -30.974  -8.814  1.00  0.00    -0.031 C 
ENDROOT
BRANCH   1   3
ATOM      3  C   UNL     1     -16.957 -33.304  -9.359  1.00  0.00     0.027 C 
BRANCH   3   4
ATOM      4  C   UNL     1     -17.645 -33.836 -10.625  1.00  0.00     0.004 C 
BRANCH   4   5
ATOM      5  C   UNL     1     -18.407 -35.147 -10.362  1.00  0.00     0.000 C 
BRANCH   5   6
ATOM      6  C   UNL     1     -17.917 -35.874  -9.100  1.00  0.00     0.000 C 
BRANCH   6   7
ATOM      7  C   UNL     1     -18.973 -35.892  -7.982  1.00  0.00     0.000 C 
BRANCH   7   8
ATOM      8  C   UNL     1     -18.382 -36.270  -6.611  1.00  0.00     0.006 C 
BRANCH   8   9
ATOM      9  C   UNL     1     -17.461 -35.201  -6.000  1.00  0.00     0.053 C 
BRANCH   9  10
ATOM     10  C   UNL     1     -16.787 -35.684  -4.753  1.00  0.00     0.041 C 
ATOM     11  O   UNL     1     -16.561 -36.912  -4.589  1.00  0.00    -0.550 OA
ATOM     12  O   UNL     1     -16.377 -34.774  -3.786  1.00  0.00    -0.550 OA
ENDBRANCH   9  10
ENDBRANCH   8   9
ENDBRANCH   7   8
ENDBRANCH   6   7
ENDBRANCH   5   6
ENDBRANCH   4   5
ENDBRANCH   3   4
ENDBRANCH   1   3
BRANCH   2  13
ATOM     13  C   UNL     1     -16.935 -30.277  -9.855  1.00  0.00     0.027 C 
BRANCH  13  14
ATOM     14  C   UNL     1     -15.985 -29.244  -9.228  1.00  0.00     0.004 C 
BRANCH  14  15
ATOM     15  C   UNL     1     -14.981 -29.840  -8.222  1.00  0.00     0.000 C 
BRANCH  15  16
ATOM     16  C   UNL     1     -14.090 -30.950  -8.821  1.00  0.00     0.000 C 
BRANCH  16  17
ATOM     17  C   UNL     1     -13.433 -31.818  -7.733  1.00  0.00    -0.000 C 
BRANCH  17  18
ATOM     18  C   UNL     1     -12.541 -32.925  -8.319  1.00  0.00    -0.000 C 
BRANCH  18  19
ATOM     19  C   UNL     1     -12.650 -34.243  -7.538  1.00  0.00    -0.003 C 
ATOM     20  C   UNL     1     -13.808 -34.197  -6.545  1.00  0.00     0.004 C 
ENDBRANCH  18  19
ENDBRANCH  17  18
ENDBRANCH  16  17
ENDBRANCH  15  16
ENDBRANCH  14  15
ENDBRANCH  13  14
ENDBRANCH   2  13
TORSDOF 15
ENDMDL
MODEL 2
REMARK VINA RESULT:    -5.589      1.927      5.523
REMARK INTER + INTRA:         -12.417
REMARK INTER:                 -10.521
REMARK INTRA:                  -1.895
REMARK UNBOUND:                -1.927
REMARK SMILES CCCCCCCCC=CCCCCCCCC(=O)[O-]
REMARK SMILES IDX 10 1 9 2 11 3 12 4 13 5 14 6 15 7 16 8 17 9 18 10 19 11
REMARK SMILES IDX 20 12 8 13 7 14 6 15 5 16 4 17 3 18 2 19 1 20
REMARK H PARENT
REMARK Flexibility Score: inf
ROOT
ATOM      1  C   UNL     1     -17.707 -33.216 -10.169  1.00  0.00    -0.031 C 
ATOM      2  C   UNL     1     -18.060 -34.466 -10.523  1.00  0.00    -0.031 C 
ENDROOT
BRANCH   1   3
ATOM      3  C   UNL     1     -17.937 -32.610  -8.807  1.00  0.00     0.027 C 
BRANCH   3   4
ATOM      4  C   UNL     1     -18.014 -31.077  -8.870  1.00  0.00     0.004 C 
BRANCH   4   5
ATOM      5  C   UNL     1     -16.948 -30.482  -9.806  1.00  0.00     0.000 C 
BRANCH   5   6
ATOM      6  C   UNL     1     -15.860 -29.705  -9.049  1.00  0.00     0.000 C 
BRANCH   6   7
ATOM      7  C   UNL     1     -14.458 -30.306  -9.250  1.00  0.00     0.000 C 
BRANCH   7   8
ATOM      8  C   UNL     1     -13.956 -31.074  -8.013  1.00  0.00     0.006 C 
BRANCH   8   9
ATOM      9  C   UNL     1     -14.271 -32.579  -8.029  1.00  0.00     0.053 C 
BRANCH   9  10
ATOM     10  C   UNL     1     -13.079 -33.408  -7.663  1.00  0.00     0.041 C 
ATOM     11  O   UNL     1     -12.046 -33.387  -8.384  1.00  0.00    -0.550 OA
ATOM     12  O   UNL     1     -13.096 -34.180  -6.507  1.00  0.00    -0.550 OA
ENDBRANCH   9  10
ENDBRANCH   8   9
ENDBRANCH   7   8
ENDBRANCH   6   7
ENDBRANCH   5   6
ENDBRANCH   4   5
ENDBRANCH   3   4
ENDBRANCH   1   3
BRANCH   2  13
ATOM     13  C   UNL     1     -18.833 -35.421  -9.646  1.00  0.00     0.027 C 
BRANCH  13  14
ATOM     14  C   UNL     1     -17.910 -36.207  -8.699  1.00  0.00     0.004 C 
BRANCH  14  15
ATOM     15  C   UNL     1     -18.564 -36.593  -7.358  1.00  0.00     0.000 C 
BRANCH  15  16
ATOM     16  C   UNL     1     -18.659 -35.422  -6.356  1.00  0.00     0.000 C 
BRANCH  16  17
ATOM     17  C   UNL     1     -17.283 -34.804  -6.053  1.00  0.00    -0.000 C 
BRANCH  17  18
ATOM     18  C   UNL     1     -16.879 -34.955  -4.577  1.00  0.00    -0.000 C 
BRANCH  18  19
ATOM     19  C   UNL     1     -15.694 -35.914  -4.388  1.00  0.00    -0.003 C 
ATOM     20  C   UNL     1     -16.150 -37.236  -3.776  1.00  0.00     0.004 C 
ENDBRANCH  18  19
ENDBRANCH  17  18
ENDBRANCH  16  17
ENDBRANCH  15  16
ENDBRANCH  14  15
ENDBRANCH  13  14
ENDBRANCH   2  13
TORSDOF 15
ENDMDL
MODEL 3
REMARK VINA RESULT:    -5.558      2.772      5.238
REMARK INTER + INTRA:         -12.358
REMARK INTER:                 -10.514
REMARK INTRA:                  -1.844
REMARK UNBOUND:                -1.927
REMARK SMILES CCCCCCCCC=CCCCCCCCC(=O)[O-]
REMARK SMILES IDX 10 1 9 2 11 3 12 4 13 5 14 6 15 7 16 8 17 9 18 10 19 11
REMARK SMILES IDX 20 12 8 13 7 14 6 15 5 16 4 17 3 18 2 19 1 20
REMARK H PARENT
REMARK Flexibility Score: inf
ROOT
ATOM      1  C   UNL     1     -18.754 -36.619  -7.453  1.00  0.00    -0.031 C 
ATOM      2  C   UNL     1     -18.165 -36.430  -6.258  1.00  0.00    -0.031 C 
ENDROOT
BRANCH   1   3
ATOM      3  C   UNL     1     -18.981 -35.539  -8.481  1.00  0.00     0.027 C 
BRANCH   3   4
ATOM      4  C   UNL     1     -17.999 -35.654  -9.657  1.00  0.00     0.004 C 
BRANCH   4   5
ATOM      5  C   UNL     1     -18.373 -34.715 -10.817  1.00  0.00     0.000 C 
BRANCH   5   6
ATOM      6  C   UNL     1     -17.933 -33.264 -10.571  1.00  0.00     0.000 C 
BRANCH   6   7
ATOM      7  C   UNL     1     -16.617 -32.916 -11.287  1.00  0.00     0.000 C 
BRANCH   7   8
ATOM      8  C   UNL     1     -16.419 -31.400 -11.466  1.00  0.00     0.006 C 
BRANCH   8   9
ATOM      9  C   UNL     1     -16.582 -30.581 -10.175  1.00  0.00     0.053 C 
BRANCH   9  10
ATOM     10  C   UNL     1     -15.318 -29.876  -9.791  1.00  0.00     0.041 C 
ATOM     11  O   UNL     1     -14.484 -29.543 -10.675  1.00  0.00    -0.550 OA
ATOM     12  O   UNL     1     -15.074 -29.557  -8.461  1.00  0.00    -0.550 OA
ENDBRANCH   9  10
ENDBRANCH   8   9
ENDBRANCH   7   8
ENDBRANCH   6   7
ENDBRANCH   5   6
ENDBRANCH   4   5
ENDBRANCH   3   4
ENDBRANCH   1   3
BRANCH   2  13
ATOM     13  C   UNL     1     -17.730 -35.089  -5.717  1.00  0.00     0.027 C 
BRANCH  13  14
ATOM     14  C   UNL     1     -16.312 -35.141  -5.124  1.00  0.00     0.004 C 
BRANCH  14  15
ATOM     15  C   UNL     1     -15.262 -34.352  -5.931  1.00  0.00     0.000 C 
BRANCH  15  16
ATOM     16  C   UNL     1     -15.656 -34.130  -7.408  1.00  0.00     0.000 C 
BRANCH  16  17
ATOM     17  C   UNL     1     -14.777 -33.068  -8.091  1.00  0.00    -0.000 C 
BRANCH  17  18
ATOM     18  C   UNL     1     -13.401 -32.919  -7.419  1.00  0.00    -0.000 C 
BRANCH  18  19
ATOM     19  C   UNL     1     -12.283 -33.612  -8.211  1.00  0.00    -0.003 C 
ATOM     20  C   UNL     1     -12.362 -35.129  -8.062  1.00  0.00     0.004 C 
ENDBRANCH  18  19
ENDBRANCH  17  18
ENDBRANCH  16  17
ENDBRANCH  15  16
ENDBRANCH  14  15
ENDBRANCH  13  14
ENDBRANCH   2  13
TORSDOF 15
ENDMDL
MODEL 4
REMARK VINA RESULT:    -5.551      2.442      5.211
REMARK INTER + INTRA:         -12.345
REMARK INTER:                 -10.221
REMARK INTRA:                  -2.124
REMARK UNBOUND:                -1.927
REMARK SMILES CCCCCCCCC=CCCCCCCCC(=O)[O-]
REMARK SMILES IDX 10 1 9 2 11 3 12 4 13 5 14 6 15 7 16 8 17 9 18 10 19 11
REMARK SMILES IDX 20 12 8 13 7 14 6 15 5 16 4 17 3 18 2 19 1 20
REMARK H PARENT
REMARK Flexibility Score: inf
ROOT
ATOM      1  C   UNL     1     -17.980 -35.873 -10.083  1.00  0.00    -0.031 C 
ATOM      2  C   UNL     1     -18.151 -36.085  -8.765  1.00  0.00    -0.031 C 
ENDROOT
BRANCH   1   3
ATOM      3  C   UNL     1     -18.628 -34.758 -10.866  1.00  0.00     0.027 C 
BRANCH   3   4
ATOM      4  C   UNL     1     -17.652 -33.602 -11.130  1.00  0.00     0.004 C 
BRANCH   4   5
ATOM      5  C   UNL     1     -17.982 -32.361 -10.281  1.00  0.00     0.000 C 
BRANCH   5   6
ATOM      6  C   UNL     1     -17.254 -32.358  -8.928  1.00  0.00     0.000 C 
BRANCH   6   7
ATOM      7  C   UNL     1     -15.813 -32.885  -9.033  1.00  0.00     0.000 C 
BRANCH   7   8
ATOM      8  C   UNL     1     -15.398 -33.731  -7.815  1.00  0.00     0.006 C 
BRANCH   8   9
ATOM      9  C   UNL     1     -14.154 -33.213  -7.075  1.00  0.00     0.053 C 
BRANCH   9  10
ATOM     10  C   UNL     1     -12.909 -33.933  -7.491  1.00  0.00     0.041 C 
ATOM     11  O   UNL     1     -12.672 -35.092  -7.059  1.00  0.00    -0.550 OA
ATOM     12  O   UNL     1     -12.025 -33.337  -8.383  1.00  0.00    -0.550 OA
ENDBRANCH   9  10
ENDBRANCH   8   9
ENDBRANCH   7   8
ENDBRANCH   6   7
ENDBRANCH   5   6
ENDBRANCH   4   5
ENDBRANCH   3   4
ENDBRANCH   1   3
BRANCH   2  13
ATOM     13  C   UNL     1     -19.095 -35.303  -7.884  1.00  0.00     0.027 C 
BRANCH  13  14
ATOM     14  C   UNL     1     -19.070 -35.799  -6.429  1.00  0.00     0.004 C 
BRANCH  14  15
ATOM     15  C   UNL     1     -17.658 -36.116  -5.896  1.00  0.00     0.000 C 
BRANCH  15  16
ATOM     16  C   UNL     1     -17.108 -35.046  -4.929  1.00  0.00     0.000 C 
BRANCH  16  17
ATOM     17  C   UNL     1     -15.812 -35.502  -4.235  1.00  0.00    -0.000 C 
BRANCH  17  18
ATOM     18  C   UNL     1     -15.254 -34.442  -3.271  1.00  0.00    -0.000 C 
BRANCH  18  19
ATOM     19  C   UNL     1     -14.931 -35.021  -1.885  1.00  0.00    -0.003 C 
ATOM     20  C   UNL     1     -15.759 -34.340  -0.798  1.00  0.00     0.004 C 
ENDBRANCH  18  19
ENDBRANCH  17  18
ENDBRANCH  16  17
ENDBRANCH  15  16
ENDBRANCH  14  15
ENDBRANCH  13  14
ENDBRANCH   2  13
TORSDOF 15
ENDMDL
MODEL 5
REMARK VINA RESULT:    -5.535      2.027      3.886
REMARK INTER + INTRA:         -12.315
REMARK INTER:                  -9.865
REMARK INTRA:                  -2.450
REMARK UNBOUND:                -1.927
REMARK SMILES CCCCCCCCC=CCCCCCCCC(=O)[O-]
REMARK SMILES IDX 10 1 9 2 11 3 12 4 13 5 14 6 15 7 16 8 17 9 18 10 19 11
REMARK SMILES IDX 20 12 8 13 7 14 6 15 5 16 4 17 3 18 2 19 1 20
REMARK H PARENT
REMARK Flexibility Score: inf
ROOT
ATOM      1  C   UNL     1     -17.276 -33.598 -11.465  1.00  0.00    -0.031 C 
ATOM      2  C   UNL     1     -17.109 -32.295 -11.176  1.00  0.00    -0.031 C 
ENDROOT
BRANCH   1   3
ATOM      3  C   UNL     1     -18.500 -34.408 -11.115  1.00  0.00     0.027 C 
BRANCH   3   4
ATOM      4  C   UNL     1     -18.158 -35.598 -10.206  1.00  0.00     0.004 C 
BRANCH   4   5
ATOM      5  C   UNL     1     -19.113 -35.700  -9.004  1.00  0.00     0.000 C 
BRANCH   5   6
ATOM      6  C   UNL     1     -18.843 -34.626  -7.939  1.00  0.00     0.000 C 
BRANCH   6   7
ATOM      7  C   UNL     1     -18.265 -35.214  -6.641  1.00  0.00     0.000 C 
BRANCH   7   8
ATOM      8  C   UNL     1     -16.841 -34.712  -6.341  1.00  0.00     0.006 C 
BRANCH   8   9
ATOM      9  C   UNL     1     -16.056 -34.249  -7.580  1.00  0.00     0.053 C 
BRANCH   9  10
ATOM     10  C   UNL     1     -14.652 -33.855  -7.243  1.00  0.00     0.041 C 
ATOM     11  O   UNL     1     -14.014 -33.074  -7.998  1.00  0.00    -0.550 OA
ATOM     12  O   UNL     1     -14.057 -34.325  -6.078  1.00  0.00    -0.550 OA
ENDBRANCH   9  10
ENDBRANCH   8   9
ENDBRANCH   7   8
ENDBRANCH   6   7
ENDBRANCH   5   6
ENDBRANCH   4   5
ENDBRANCH   3   4
ENDBRANCH   1   3
BRANCH   2  13
ATOM     13  C   UNL     1     -18.077 -31.464 -10.367  1.00  0.00     0.027 C 
BRANCH  13  14
ATOM     14  C   UNL     1     -17.560 -31.203  -8.943  1.00  0.00     0.004 C 
BRANCH  14  15
ATOM     15  C   UNL     1     -16.943 -29.804  -8.743  1.00  0.00     0.000 C 
BRANCH  15  16
ATOM     16  C   UNL     1     -15.404 -29.818  -8.625  1.00  0.00     0.000 C 
BRANCH  16  17
ATOM     17  C   UNL     1     -14.716 -29.767 -10.000  1.00  0.00    -0.000 C 
BRANCH  17  18
ATOM     18  C   UNL     1     -15.208 -28.595 -10.865  1.00  0.00    -0.000 C 
BRANCH  18  19
ATOM     19  C   UNL     1     -15.768 -29.058 -12.218  1.00  0.00    -0.003 C 
ATOM     20  C   UNL     1     -17.178 -28.519 -12.443  1.00  0.00     0.004 C 
ENDBRANCH  18  19
ENDBRANCH  17  18
ENDBRANCH  16  17
ENDBRANCH  15  16
ENDBRANCH  14  15
ENDBRANCH  13  14
ENDBRANCH   2  13
TORSDOF 15
ENDMDL
MODEL 6
REMARK VINA RESULT:    -5.482      2.659      6.647
REMARK INTER + INTRA:         -12.217
REMARK INTER:                 -10.316
REMARK INTRA:                  -1.901
REMARK UNBOUND:                -1.927
REMARK SMILES CCCCCCCCC=CCCCCCCCC(=O)[O-]
REMARK SMILES IDX 10 1 9 2 11 3 12 4 13 5 14 6 15 7 16 8 17 9 18 10 19 11
REMARK SMILES IDX 20 12 8 13 7 14 6 15 5 16 4 17 3 18 2 19 1 20
REMARK H PARENT
REMARK Flexibility Score: inf
ROOT
ATOM      1  C   UNL     1     -15.095 -34.852  -5.069  1.00  0.00    -0.031 C 
ATOM      2  C   UNL     1     -16.365 -35.254  -4.886  1.00  0.00    -0.031 C 
ENDROOT
BRANCH   1   3
ATOM      3  C   UNL     1     -14.606 -34.056  -6.254  1.00  0.00     0.027 C 
BRANCH   3   4
ATOM      4  C   UNL     1     -13.177 -34.450  -6.658  1.00  0.00     0.004 C 
BRANCH   4   5
ATOM      5  C   UNL     1     -12.677 -33.649  -7.872  1.00  0.00     0.000 C 
BRANCH   5   6
ATOM      6  C   UNL     1     -13.648 -32.531  -8.285  1.00  0.00     0.000 C 
BRANCH   6   7
ATOM      7  C   UNL     1     -13.151 -31.136  -7.869  1.00  0.00     0.000 C 
BRANCH   7   8
ATOM      8  C   UNL     1     -14.197 -30.033  -8.117  1.00  0.00     0.006 C 
BRANCH   8   9
ATOM      9  C   UNL     1     -14.668 -29.921  -9.577  1.00  0.00     0.053 C 
BRANCH   9  10
ATOM     10  C   UNL     1     -16.134 -29.635  -9.676  1.00  0.00     0.041 C 
ATOM     11  O   UNL     1     -16.789 -29.317  -8.648  1.00  0.00    -0.550 OA
ATOM     12  O   UNL     1     -16.772 -29.687 -10.909  1.00  0.00    -0.550 OA
ENDBRANCH   9  10
ENDBRANCH   8   9
ENDBRANCH   7   8
ENDBRANCH   6   7
ENDBRANCH   5   6
ENDBRANCH   4   5
ENDBRANCH   3   4
ENDBRANCH   1   3
BRANCH   2  13
ATOM     13  C   UNL     1     -17.481 -35.060  -5.885  1.00  0.00     0.027 C 
BRANCH  13  14
ATOM     14  C   UNL     1     -18.073 -36.399  -6.354  1.00  0.00     0.004 C 
BRANCH  14  15
ATOM     15  C   UNL     1     -18.778 -36.332  -7.723  1.00  0.00     0.000 C 
BRANCH  15  16
ATOM     16  C   UNL     1     -17.824 -36.014  -8.895  1.00  0.00     0.000 C 
BRANCH  16  17
ATOM     17  C   UNL     1     -18.515 -35.198 -10.002  1.00  0.00    -0.000 C 
BRANCH  17  18
ATOM     18  C   UNL     1     -17.635 -34.053 -10.529  1.00  0.00    -0.000 C 
BRANCH  18  19
ATOM     19  C   UNL     1     -17.015 -33.220  -9.397  1.00  0.00    -0.003 C 
ATOM     20  C   UNL     1     -18.096 -32.565  -8.541  1.00  0.00     0.004 C 
ENDBRANCH  18  19
ENDBRANCH  17  18
ENDBRANCH  16  17
ENDBRANCH  15  16
ENDBRANCH  14  15
ENDBRANCH  13  14
ENDBRANCH   2  13
TORSDOF 15
ENDMDL
MODEL 7
REMARK VINA RESULT:    -5.422      1.228      2.061
REMARK INTER + INTRA:         -12.104
REMARK INTER:                 -10.119
REMARK INTRA:                  -1.985
REMARK UNBOUND:                -1.927
REMARK SMILES CCCCCCCCC=CCCCCCCCC(=O)[O-]
REMARK SMILES IDX 10 1 9 2 11 3 12 4 13 5 14 6 15 7 16 8 17 9 18 10 19 11
REMARK SMILES IDX 20 12 8 13 7 14 6 15 5 16 4 17 3 18 2 19 1 20
REMARK H PARENT
REMARK Flexibility Score: inf
ROOT
ATOM      1  C   UNL     1     -17.220 -33.541 -11.354  1.00  0.00    -0.031 C 
ATOM      2  C   UNL     1     -17.037 -32.262 -10.978  1.00  0.00    -0.031 C 
ENDROOT
BRANCH   1   3
ATOM      3  C   UNL     1     -18.431 -34.373 -11.012  1.00  0.00     0.027 C 
BRANCH   3   4
ATOM      4  C   UNL     1     -18.079 -35.536 -10.072  1.00  0.00     0.004 C 
BRANCH   4   5
ATOM      5  C   UNL     1     -18.993 -35.578  -8.836  1.00  0.00     0.000 C 
BRANCH   5   6
ATOM      6  C   UNL     1     -18.723 -34.423  -7.859  1.00  0.00     0.000 C 
BRANCH   6   7
ATOM      7  C   UNL     1     -18.463 -34.912  -6.424  1.00  0.00     0.000 C 
BRANCH   7   8
ATOM      8  C   UNL     1     -16.985 -35.258  -6.172  1.00  0.00     0.006 C 
BRANCH   8   9
ATOM      9  C   UNL     1     -16.446 -34.792  -4.809  1.00  0.00     0.053 C 
BRANCH   9  10
ATOM     10  C   UNL     1     -16.092 -35.942  -3.919  1.00  0.00     0.041 C 
ATOM     11  O   UNL     1     -15.525 -35.737  -2.813  1.00  0.00    -0.550 OA
ATOM     12  O   UNL     1     -16.416 -37.240  -4.296  1.00  0.00    -0.550 OA
ENDBRANCH   9  10
ENDBRANCH   8   9
ENDBRANCH   7   8
ENDBRANCH   6   7
ENDBRANCH   5   6
ENDBRANCH   4   5
ENDBRANCH   3   4
ENDBRANCH   1   3
BRANCH   2  13
ATOM     13  C   UNL     1     -17.967 -31.490 -10.073  1.00  0.00     0.027 C 
BRANCH  13  14
ATOM     14  C   UNL     1     -17.206 -30.757  -8.956  1.00  0.00     0.004 C 
BRANCH  14  15
ATOM     15  C   UNL     1     -16.405 -29.532  -9.439  1.00  0.00     0.000 C 
BRANCH  15  16
ATOM     16  C   UNL     1     -14.875 -29.733  -9.385  1.00  0.00     0.000 C 
BRANCH  16  17
ATOM     17  C   UNL     1     -14.381 -30.060  -7.965  1.00  0.00    -0.000 C 
BRANCH  17  18
ATOM     18  C   UNL     1     -13.228 -31.077  -7.961  1.00  0.00    -0.000 C 
BRANCH  18  19
ATOM     19  C   UNL     1     -13.639 -32.429  -7.357  1.00  0.00    -0.003 C 
ATOM     20  C   UNL     1     -14.580 -33.185  -8.292  1.00  0.00     0.004 C 
ENDBRANCH  18  19
ENDBRANCH  17  18
ENDBRANCH  16  17
ENDBRANCH  15  16
ENDBRANCH  14  15
ENDBRANCH  13  14
ENDBRANCH   2  13
TORSDOF 15
ENDMDL
MODEL 8
REMARK VINA RESULT:    -5.386      2.349      5.084
REMARK INTER + INTRA:         -12.036
REMARK INTER:                  -9.711
REMARK INTRA:                  -2.325
REMARK UNBOUND:                -1.927
REMARK SMILES CCCCCCCCC=CCCCCCCCC(=O)[O-]
REMARK SMILES IDX 10 1 9 2 11 3 12 4 13 5 14 6 15 7 16 8 17 9 18 10 19 11
REMARK SMILES IDX 20 12 8 13 7 14 6 15 5 16 4 17 3 18 2 19 1 20
REMARK H PARENT
REMARK Flexibility Score: inf
ROOT
ATOM      1  C   UNL     1     -18.711 -34.223  -7.358  1.00  0.00    -0.031 C 
ATOM      2  C   UNL     1     -18.317 -33.913  -8.607  1.00  0.00    -0.031 C 
ENDROOT
BRANCH   1   3
ATOM      3  C   UNL     1     -19.000 -35.620  -6.868  1.00  0.00     0.027 C 
BRANCH   3   4
ATOM      4  C   UNL     1     -17.824 -36.200  -6.068  1.00  0.00     0.004 C 
BRANCH   4   5
ATOM      5  C   UNL     1     -17.186 -35.154  -5.137  1.00  0.00     0.000 C 
BRANCH   5   6
ATOM      6  C   UNL     1     -15.657 -35.283  -5.059  1.00  0.00     0.000 C 
BRANCH   6   7
ATOM      7  C   UNL     1     -14.931 -34.103  -5.726  1.00  0.00     0.000 C 
BRANCH   7   8
ATOM      8  C   UNL     1     -14.858 -34.238  -7.258  1.00  0.00     0.006 C 
BRANCH   8   9
ATOM      9  C   UNL     1     -14.409 -32.961  -7.988  1.00  0.00     0.053 C 
BRANCH   9  10
ATOM     10  C   UNL     1     -12.921 -32.887  -8.131  1.00  0.00     0.041 C 
ATOM     11  O   UNL     1     -12.374 -31.819  -8.516  1.00  0.00    -0.550 OA
ATOM     12  O   UNL     1     -12.134 -33.986  -7.810  1.00  0.00    -0.550 OA
ENDBRANCH   9  10
ENDBRANCH   8   9
ENDBRANCH   7   8
ENDBRANCH   6   7
ENDBRANCH   5   6
ENDBRANCH   4   5
ENDBRANCH   3   4
ENDBRANCH   1   3
BRANCH   2  13
ATOM     13  C   UNL     1     -18.201 -34.904  -9.741  1.00  0.00     0.027 C 
BRANCH  13  14
ATOM     14  C   UNL     1     -17.993 -34.206 -11.095  1.00  0.00     0.004 C 
BRANCH  14  15
ATOM     15  C   UNL     1     -16.787 -33.246 -11.131  1.00  0.00     0.000 C 
BRANCH  15  16
ATOM     16  C   UNL     1     -16.980 -32.046 -12.083  1.00  0.00     0.000 C 
BRANCH  16  17
ATOM     17  C   UNL     1     -16.691 -30.702 -11.391  1.00  0.00    -0.000 C 
BRANCH  17  18
ATOM     18  C   UNL     1     -17.260 -30.639  -9.964  1.00  0.00    -0.000 C 
BRANCH  18  19
ATOM     19  C   UNL     1     -16.361 -29.840  -9.008  1.00  0.00    -0.003 C 
ATOM     20  C   UNL     1     -14.986 -29.593  -9.624  1.00  0.00     0.004 C 
ENDBRANCH  18  19
ENDBRANCH  17  18
ENDBRANCH  16  17
ENDBRANCH  15  16
ENDBRANCH  14  15
ENDBRANCH  13  14
ENDBRANCH   2  13
TORSDOF 15
ENDMDL
MODEL 9
REMARK VINA RESULT:    -5.383      2.367      5.801
REMARK INTER + INTRA:         -12.030
REMARK INTER:                 -10.140
REMARK INTRA:                  -1.890
REMARK UNBOUND:                -1.927
REMARK SMILES CCCCCCCCC=CCCCCCCCC(=O)[O-]
REMARK SMILES IDX 10 1 9 2 11 3 12 4 13 5 14 6 15 7 16 8 17 9 18 10 19 11
REMARK SMILES IDX 20 12 8 13 7 14 6 15 5 16 4 17 3 18 2 19 1 20
REMARK H PARENT
REMARK Flexibility Score: inf
ROOT
ATOM      1  C   UNL     1     -18.105 -36.223  -6.717  1.00  0.00    -0.031 C 
ATOM      2  C   UNL     1     -18.750 -36.147  -7.895  1.00  0.00    -0.031 C 
ENDROOT
BRANCH   1   3
ATOM      3  C   UNL     1     -17.397 -35.071  -6.048  1.00  0.00     0.027 C 
BRANCH   3   4
ATOM      4  C   UNL     1     -16.656 -35.515  -4.777  1.00  0.00     0.004 C 
BRANCH   4   5
ATOM      5  C   UNL     1     -15.209 -34.995  -4.740  1.00  0.00     0.000 C 
BRANCH   5   6
ATOM      6  C   UNL     1     -14.858 -34.129  -5.960  1.00  0.00     0.000 C 
BRANCH   6   7
ATOM      7  C   UNL     1     -13.503 -34.507  -6.581  1.00  0.00     0.000 C 
BRANCH   7   8
ATOM      8  C   UNL     1     -13.102 -33.582  -7.745  1.00  0.00     0.006 C 
BRANCH   8   9
ATOM      9  C   UNL     1     -14.256 -32.738  -8.312  1.00  0.00     0.053 C 
BRANCH   9  10
ATOM     10  C   UNL     1     -13.956 -31.271  -8.268  1.00  0.00     0.041 C 
ATOM     11  O   UNL     1     -13.469 -30.755  -7.228  1.00  0.00    -0.550 OA
ATOM     12  O   UNL     1     -14.186 -30.480  -9.387  1.00  0.00    -0.550 OA
ENDBRANCH   9  10
ENDBRANCH   8   9
ENDBRANCH   7   8
ENDBRANCH   6   7
ENDBRANCH   5   6
ENDBRANCH   4   5
ENDBRANCH   3   4
ENDBRANCH   1   3
BRANCH   2  13
ATOM     13  C   UNL     1     -18.781 -34.925  -8.781  1.00  0.00     0.027 C 
BRANCH  13  14
ATOM     14  C   UNL     1     -18.508 -35.273 -10.253  1.00  0.00     0.004 C 
BRANCH  14  15
ATOM     15  C   UNL     1     -18.359 -34.046 -11.174  1.00  0.00     0.000 C 
BRANCH  15  16
ATOM     16  C   UNL     1     -16.891 -33.646 -11.439  1.00  0.00     0.000 C 
BRANCH  16  17
ATOM     17  C   UNL     1     -16.726 -32.126 -11.612  1.00  0.00    -0.000 C 
BRANCH  17  18
ATOM     18  C   UNL     1     -17.945 -31.337 -11.106  1.00  0.00    -0.000 C 
BRANCH  18  19
ATOM     19  C   UNL     1     -17.650 -30.570  -9.808  1.00  0.00    -0.003 C 
ATOM     20  C   UNL     1     -17.988 -31.415  -8.582  1.00  0.00     0.004 C 
ENDBRANCH  18  19
ENDBRANCH  17  18
ENDBRANCH  16  17
ENDBRANCH  15  16
ENDBRANCH  14  15
ENDBRANCH  13  14
ENDBRANCH   2  13
TORSDOF 15
ENDMDL
