MODEL 1
REMARK VINA RESULT:    -3.778      0.000      0.000
REMARK INTER + INTRA:         -12.549
REMARK INTER:                  -9.963
REMARK INTRA:                  -2.586
REMARK UNBOUND:                -2.586
REMARK SMILES CCCCCCCCCCCCCCCCCCCCCCCCCCCCCC(=O)[O-]
REMARK SMILES IDX 16 1 17 2 18 3 19 4 20 5 21 6 22 7 23 8 24 9 25 10 26 11
REMARK SMILES IDX 27 12 28 13 29 14 30 15 31 16 32 17 15 18 14 19 13 20 12 21
REMARK SMILES IDX 11 22 10 23 9 24 8 25 7 26 6 27 5 28 4 29 3 30 2 31 1 32
REMARK H PARENT
REMARK Flexibility Score: inf
ROOT
ATOM      1  C   UNL     1      24.359  -9.158  33.498  1.00  0.00     0.000 C 
ENDROOT
BRANCH   1   2
ATOM      2  C   UNL     1      23.611 -10.037  32.476  1.00  0.00     0.000 C 
BRANCH   2   3
ATOM      3  C   UNL     1      22.230  -9.509  32.052  1.00  0.00     0.000 C 
BRANCH   3   4
ATOM      4  C   UNL     1      22.174  -9.102  30.569  1.00  0.00     0.000 C 
BRANCH   4   5
ATOM      5  C   UNL     1      23.164  -7.964  30.237  1.00  0.00     0.000 C 
BRANCH   5   6
ATOM      6  C   UNL     1      24.120  -8.281  29.069  1.00  0.00     0.000 C 
BRANCH   6   7
ATOM      7  C   UNL     1      24.231  -9.770  28.702  1.00  0.00     0.000 C 
BRANCH   7   8
ATOM      8  C   UNL     1      25.600 -10.373  29.050  1.00  0.00     0.000 C 
BRANCH   8   9
ATOM      9  C   UNL     1      26.590  -9.279  29.475  1.00  0.00     0.000 C 
BRANCH   9  10
ATOM     10  C   UNL     1      27.125  -9.481  30.905  1.00  0.00     0.000 C 
BRANCH  10  11
ATOM     11  C   UNL     1      27.718 -10.878  31.186  1.00  0.00     0.000 C 
BRANCH  11  12
ATOM     12  C   UNL     1      29.135 -11.107  30.631  1.00  0.00     0.000 C 
BRANCH  12  13
ATOM     13  C   UNL     1      30.235 -10.610  31.586  1.00  0.00     0.006 C 
BRANCH  13  14
ATOM     14  C   UNL     1      30.861  -9.292  31.114  1.00  0.00     0.053 C 
BRANCH  14  15
ATOM     15  C   UNL     1      30.826  -8.238  32.177  1.00  0.00     0.041 C 
ATOM     16  O   UNL     1      29.763  -7.603  32.406  1.00  0.00    -0.550 OA
ATOM     17  O   UNL     1      31.970  -7.950  32.911  1.00  0.00    -0.550 OA
ENDBRANCH  14  15
ENDBRANCH  13  14
ENDBRANCH  12  13
ENDBRANCH  11  12
ENDBRANCH  10  11
ENDBRANCH   9  10
ENDBRANCH   8   9
ENDBRANCH   7   8
ENDBRANCH   6   7
ENDBRANCH   5   6
ENDBRANCH   4   5
ENDBRANCH   3   4
ENDBRANCH   2   3
ENDBRANCH   1   2
BRANCH   1  18
ATOM     18  C   UNL     1      24.759  -9.868  34.808  1.00  0.00     0.000 C 
BRANCH  18  19
ATOM     19  C   UNL     1      23.866  -9.555  36.024  1.00  0.00     0.000 C 
BRANCH  19  20
ATOM     20  C   UNL     1      23.666  -8.057  36.329  1.00  0.00     0.000 C 
BRANCH  20  21
ATOM     21  C   UNL     1      24.748  -7.445  37.240  1.00  0.00     0.000 C 
BRANCH  21  22
ATOM     22  C   UNL     1      24.253  -6.200  37.996  1.00  0.00     0.000 C 
BRANCH  22  23
ATOM     23  C   UNL     1      25.405  -5.361  38.579  1.00  0.00     0.000 C 
BRANCH  23  24
ATOM     24  C   UNL     1      25.115  -3.852  38.687  1.00  0.00    -0.000 C 
BRANCH  24  25
ATOM     25  C   UNL     1      23.607  -3.540  38.735  1.00  0.00    -0.000 C 
BRANCH  25  26
ATOM     26  C   UNL     1      23.305  -2.231  39.485  1.00  0.00    -0.000 C 
BRANCH  26  27
ATOM     27  C   UNL     1      23.128  -2.451  40.998  1.00  0.00    -0.000 C 
BRANCH  27  28
ATOM     28  C   UNL     1      22.159  -1.443  41.643  1.00  0.00    -0.000 C 
BRANCH  28  29
ATOM     29  C   UNL     1      21.094  -2.057  42.570  1.00  0.00    -0.000 C 
BRANCH  29  30
ATOM     30  C   UNL     1      20.957  -1.307  43.906  1.00  0.00    -0.000 C 
BRANCH  30  31
ATOM     31  C   UNL     1      21.366  -2.174  45.106  1.00  0.00    -0.003 C 
ATOM     32  C   UNL     1      22.829  -2.615  45.051  1.00  0.00     0.004 C 
ENDBRANCH  30  31
ENDBRANCH  29  30
ENDBRANCH  28  29
ENDBRANCH  27  28
ENDBRANCH  26  27
ENDBRANCH  25  26
ENDBRANCH  24  25
ENDBRANCH  23  24
ENDBRANCH  22  23
ENDBRANCH  21  22
ENDBRANCH  20  21
ENDBRANCH  19  20
ENDBRANCH  18  19
ENDBRANCH   1  18
TORSDOF 28
ENDMDL
MODEL 2
REMARK VINA RESULT:    -3.717      4.079     12.100
REMARK INTER + INTRA:         -12.388
REMARK INTER:                 -10.450
REMARK INTRA:                  -1.938
REMARK UNBOUND:                -2.586
REMARK SMILES CCCCCCCCCCCCCCCCCCCCCCCCCCCCCC(=O)[O-]
REMARK SMILES IDX 16 1 17 2 18 3 19 4 20 5 21 6 22 7 23 8 24 9 25 10 26 11
REMARK SMILES IDX 27 12 28 13 29 14 30 15 31 16 32 17 15 18 14 19 13 20 12 21
REMARK SMILES IDX 11 22 10 23 9 24 8 25 7 26 6 27 5 28 4 29 3 30 2 31 1 32
REMARK H PARENT
REMARK Flexibility Score: inf
ROOT
ATOM      1  C   UNL     1      24.110 -10.220  33.673  1.00  0.00     0.000 C 
ENDROOT
BRANCH   1   2
ATOM      2  C   UNL     1      22.938 -10.307  34.672  1.00  0.00     0.000 C 
BRANCH   2   3
ATOM      3  C   UNL     1      22.803  -9.104  35.622  1.00  0.00     0.000 C 
BRANCH   3   4
ATOM      4  C   UNL     1      24.162  -8.524  36.050  1.00  0.00     0.000 C 
BRANCH   4   5
ATOM      5  C   UNL     1      24.010  -7.315  36.998  1.00  0.00     0.000 C 
BRANCH   5   6
ATOM      6  C   UNL     1      25.167  -7.153  38.004  1.00  0.00     0.000 C 
BRANCH   6   7
ATOM      7  C   UNL     1      25.494  -5.703  38.396  1.00  0.00     0.000 C 
BRANCH   7   8
ATOM      8  C   UNL     1      24.259  -4.790  38.401  1.00  0.00     0.000 C 
BRANCH   8   9
ATOM      9  C   UNL     1      24.532  -3.500  39.190  1.00  0.00     0.000 C 
BRANCH   9  10
ATOM     10  C   UNL     1      23.632  -2.331  38.752  1.00  0.00     0.000 C 
BRANCH  10  11
ATOM     11  C   UNL     1      22.910  -1.599  39.903  1.00  0.00     0.000 C 
BRANCH  11  12
ATOM     12  C   UNL     1      21.470  -2.069  40.172  1.00  0.00     0.000 C 
BRANCH  12  13
ATOM     13  C   UNL     1      21.177  -2.262  41.670  1.00  0.00     0.006 C 
BRANCH  13  14
ATOM     14  C   UNL     1      22.457  -2.259  42.516  1.00  0.00     0.053 C 
BRANCH  14  15
ATOM     15  C   UNL     1      22.162  -2.254  43.985  1.00  0.00     0.041 C 
ATOM     16  O   UNL     1      21.094  -1.744  44.416  1.00  0.00    -0.550 OA
ATOM     17  O   UNL     1      23.071  -2.806  44.880  1.00  0.00    -0.550 OA
ENDBRANCH  14  15
ENDBRANCH  13  14
ENDBRANCH  12  13
ENDBRANCH  11  12
ENDBRANCH  10  11
ENDBRANCH   9  10
ENDBRANCH   8   9
ENDBRANCH   7   8
ENDBRANCH   6   7
ENDBRANCH   5   6
ENDBRANCH   4   5
ENDBRANCH   3   4
ENDBRANCH   2   3
ENDBRANCH   1   2
BRANCH   1  18
ATOM     18  C   UNL     1      23.718  -9.830  32.232  1.00  0.00     0.000 C 
BRANCH  18  19
ATOM     19  C   UNL     1      24.749 -10.200  31.149  1.00  0.00     0.000 C 
BRANCH  19  20
ATOM     20  C   UNL     1      25.104  -9.070  30.162  1.00  0.00     0.000 C 
BRANCH  20  21
ATOM     21  C   UNL     1      26.242  -9.418  29.181  1.00  0.00     0.000 C 
BRANCH  21  22
ATOM     22  C   UNL     1      27.532  -9.849  29.898  1.00  0.00     0.000 C 
BRANCH  22  23
ATOM     23  C   UNL     1      28.437 -10.730  29.016  1.00  0.00     0.000 C 
BRANCH  23  24
ATOM     24  C   UNL     1      29.575 -11.445  29.769  1.00  0.00    -0.000 C 
BRANCH  24  25
ATOM     25  C   UNL     1      29.464 -11.289  31.297  1.00  0.00    -0.000 C 
BRANCH  25  26
ATOM     26  C   UNL     1      30.733 -10.680  31.917  1.00  0.00    -0.000 C 
BRANCH  26  27
ATOM     27  C   UNL     1      31.652 -10.044  30.860  1.00  0.00    -0.000 C 
BRANCH  27  28
ATOM     28  C   UNL     1      31.897  -8.543  31.101  1.00  0.00    -0.000 C 
BRANCH  28  29
ATOM     29  C   UNL     1      30.763  -7.802  31.833  1.00  0.00    -0.000 C 
BRANCH  29  30
ATOM     30  C   UNL     1      31.235  -7.101  33.118  1.00  0.00    -0.000 C 
BRANCH  30  31
ATOM     31  C   UNL     1      31.987  -8.054  34.060  1.00  0.00    -0.003 C 
ATOM     32  C   UNL     1      33.016  -7.336  34.934  1.00  0.00     0.004 C 
ENDBRANCH  30  31
ENDBRANCH  29  30
ENDBRANCH  28  29
ENDBRANCH  27  28
ENDBRANCH  26  27
ENDBRANCH  25  26
ENDBRANCH  24  25
ENDBRANCH  23  24
ENDBRANCH  22  23
ENDBRANCH  21  22
ENDBRANCH  20  21
ENDBRANCH  19  20
ENDBRANCH  18  19
ENDBRANCH   1  18
TORSDOF 28
ENDMDL
MODEL 3
REMARK VINA RESULT:    -3.629      4.044     12.439
REMARK INTER + INTRA:         -12.155
REMARK INTER:                 -10.040
REMARK INTRA:                  -2.115
REMARK UNBOUND:                -2.586
REMARK SMILES CCCCCCCCCCCCCCCCCCCCCCCCCCCCCC(=O)[O-]
REMARK SMILES IDX 16 1 17 2 18 3 19 4 20 5 21 6 22 7 23 8 24 9 25 10 26 11
REMARK SMILES IDX 27 12 28 13 29 14 30 15 31 16 32 17 15 18 14 19 13 20 12 21
REMARK SMILES IDX 11 22 10 23 9 24 8 25 7 26 6 27 5 28 4 29 3 30 2 31 1 32
REMARK H PARENT
REMARK Flexibility Score: inf
ROOT
ATOM      1  C   UNL     1      24.464  -9.707  34.596  1.00  0.00     0.000 C 
ENDROOT
BRANCH   1   2
ATOM      2  C   UNL     1      23.076  -9.638  35.265  1.00  0.00     0.000 C 
BRANCH   2   3
ATOM      3  C   UNL     1      23.000  -8.744  36.513  1.00  0.00     0.000 C 
BRANCH   3   4
ATOM      4  C   UNL     1      24.247  -7.862  36.696  1.00  0.00     0.000 C 
BRANCH   4   5
ATOM      5  C   UNL     1      23.966  -6.624  37.576  1.00  0.00     0.000 C 
BRANCH   5   6
ATOM      6  C   UNL     1      25.195  -6.114  38.356  1.00  0.00     0.000 C 
BRANCH   6   7
ATOM      7  C   UNL     1      25.161  -4.622  38.724  1.00  0.00     0.000 C 
BRANCH   7   8
ATOM      8  C   UNL     1      23.844  -3.936  38.331  1.00  0.00     0.000 C 
BRANCH   8   9
ATOM      9  C   UNL     1      23.847  -2.459  38.752  1.00  0.00     0.000 C 
BRANCH   9  10
ATOM     10  C   UNL     1      22.901  -2.173  39.933  1.00  0.00     0.000 C 
BRANCH  10  11
ATOM     11  C   UNL     1      22.430  -0.708  40.050  1.00  0.00     0.000 C 
BRANCH  11  12
ATOM     12  C   UNL     1      20.926  -0.487  39.808  1.00  0.00     0.000 C 
BRANCH  12  13
ATOM     13  C   UNL     1      20.074  -0.785  41.055  1.00  0.00     0.006 C 
BRANCH  13  14
ATOM     14  C   UNL     1      20.810  -0.442  42.356  1.00  0.00     0.053 C 
BRANCH  14  15
ATOM     15  C   UNL     1      20.930  -1.626  43.265  1.00  0.00     0.041 C 
ATOM     16  O   UNL     1      21.087  -2.780  42.786  1.00  0.00    -0.550 OA
ATOM     17  O   UNL     1      20.859  -1.458  44.642  1.00  0.00    -0.550 OA
ENDBRANCH  14  15
ENDBRANCH  13  14
ENDBRANCH  12  13
ENDBRANCH  11  12
ENDBRANCH  10  11
ENDBRANCH   9  10
ENDBRANCH   8   9
ENDBRANCH   7   8
ENDBRANCH   6   7
ENDBRANCH   5   6
ENDBRANCH   4   5
ENDBRANCH   3   4
ENDBRANCH   2   3
ENDBRANCH   1   2
BRANCH   1  18
ATOM     18  C   UNL     1      24.634 -10.827  33.548  1.00  0.00     0.000 C 
BRANCH  18  19
ATOM     19  C   UNL     1      24.468 -10.383  32.082  1.00  0.00     0.000 C 
BRANCH  19  20
ATOM     20  C   UNL     1      24.719  -8.886  31.812  1.00  0.00     0.000 C 
BRANCH  20  21
ATOM     21  C   UNL     1      24.253  -8.404  30.423  1.00  0.00     0.000 C 
BRANCH  21  22
ATOM     22  C   UNL     1      23.991  -9.566  29.449  1.00  0.00     0.000 C 
BRANCH  22  23
ATOM     23  C   UNL     1      24.926  -9.538  28.226  1.00  0.00     0.000 C 
BRANCH  23  24
ATOM     24  C   UNL     1      26.097 -10.538  28.285  1.00  0.00    -0.000 C 
BRANCH  24  25
ATOM     25  C   UNL     1      27.429  -9.869  28.671  1.00  0.00    -0.000 C 
BRANCH  25  26
ATOM     26  C   UNL     1      28.160 -10.626  29.793  1.00  0.00    -0.000 C 
BRANCH  26  27
ATOM     27  C   UNL     1      28.440  -9.734  31.015  1.00  0.00    -0.000 C 
BRANCH  27  28
ATOM     28  C   UNL     1      29.796  -9.009  30.932  1.00  0.00    -0.000 C 
BRANCH  28  29
ATOM     29  C   UNL     1      31.032  -9.903  31.143  1.00  0.00    -0.000 C 
BRANCH  29  30
ATOM     30  C   UNL     1      31.846  -9.516  32.389  1.00  0.00    -0.000 C 
BRANCH  30  31
ATOM     31  C   UNL     1      31.567  -8.075  32.844  1.00  0.00    -0.003 C 
ATOM     32  C   UNL     1      32.023  -7.806  34.279  1.00  0.00     0.004 C 
ENDBRANCH  30  31
ENDBRANCH  29  30
ENDBRANCH  28  29
ENDBRANCH  27  28
ENDBRANCH  26  27
ENDBRANCH  25  26
ENDBRANCH  24  25
ENDBRANCH  23  24
ENDBRANCH  22  23
ENDBRANCH  21  22
ENDBRANCH  20  21
ENDBRANCH  19  20
ENDBRANCH  18  19
ENDBRANCH   1  18
TORSDOF 28
ENDMDL
MODEL 4
REMARK VINA RESULT:    -3.584      1.237      2.377
REMARK INTER + INTRA:         -12.037
REMARK INTER:                  -9.381
REMARK INTRA:                  -2.656
REMARK UNBOUND:                -2.586
REMARK SMILES CCCCCCCCCCCCCCCCCCCCCCCCCCCCCC(=O)[O-]
REMARK SMILES IDX 16 1 17 2 18 3 19 4 20 5 21 6 22 7 23 8 24 9 25 10 26 11
REMARK SMILES IDX 27 12 28 13 29 14 30 15 31 16 32 17 15 18 14 19 13 20 12 21
REMARK SMILES IDX 11 22 10 23 9 24 8 25 7 26 6 27 5 28 4 29 3 30 2 31 1 32
REMARK H PARENT
REMARK Flexibility Score: inf
ROOT
ATOM      1  C   UNL     1      22.786  -9.488  36.394  1.00  0.00     0.000 C 
ENDROOT
BRANCH   1   2
ATOM      2  C   UNL     1      23.095 -10.956  36.034  1.00  0.00     0.000 C 
BRANCH   2   3
ATOM      3  C   UNL     1      24.218 -11.149  35.001  1.00  0.00     0.000 C 
BRANCH   3   4
ATOM      4  C   UNL     1      23.716 -11.751  33.677  1.00  0.00     0.000 C 
BRANCH   4   5
ATOM      5  C   UNL     1      22.682 -10.845  32.975  1.00  0.00     0.000 C 
BRANCH   5   6
ATOM      6  C   UNL     1      23.288  -9.584  32.325  1.00  0.00     0.000 C 
BRANCH   6   7
ATOM      7  C   UNL     1      23.607  -9.712  30.826  1.00  0.00     0.000 C 
BRANCH   7   8
ATOM      8  C   UNL     1      25.041  -9.287  30.479  1.00  0.00     0.000 C 
BRANCH   8   9
ATOM      9  C   UNL     1      25.976  -9.476  31.683  1.00  0.00     0.000 C 
BRANCH   9  10
ATOM     10  C   UNL     1      26.925 -10.678  31.519  1.00  0.00     0.000 C 
BRANCH  10  11
ATOM     11  C   UNL     1      27.552 -10.826  30.117  1.00  0.00     0.000 C 
BRANCH  11  12
ATOM     12  C   UNL     1      29.072 -10.597  30.057  1.00  0.00     0.000 C 
BRANCH  12  13
ATOM     13  C   UNL     1      29.653 -10.108  31.395  1.00  0.00     0.006 C 
BRANCH  13  14
ATOM     14  C   UNL     1      30.536  -8.866  31.225  1.00  0.00     0.053 C 
BRANCH  14  15
ATOM     15  C   UNL     1      30.698  -8.109  32.507  1.00  0.00     0.041 C 
ATOM     16  O   UNL     1      31.413  -8.575  33.433  1.00  0.00    -0.550 OA
ATOM     17  O   UNL     1      30.052  -6.891  32.684  1.00  0.00    -0.550 OA
ENDBRANCH  14  15
ENDBRANCH  13  14
ENDBRANCH  12  13
ENDBRANCH  11  12
ENDBRANCH  10  11
ENDBRANCH   9  10
ENDBRANCH   8   9
ENDBRANCH   7   8
ENDBRANCH   6   7
ENDBRANCH   5   6
ENDBRANCH   4   5
ENDBRANCH   3   4
ENDBRANCH   2   3
ENDBRANCH   1   2
BRANCH   1  18
ATOM     18  C   UNL     1      23.778  -8.450  35.829  1.00  0.00     0.000 C 
BRANCH  18  19
ATOM     19  C   UNL     1      24.748  -7.841  36.860  1.00  0.00     0.000 C 
BRANCH  19  20
ATOM     20  C   UNL     1      24.227  -6.594  37.601  1.00  0.00     0.000 C 
BRANCH  20  21
ATOM     21  C   UNL     1      25.208  -6.020  38.644  1.00  0.00     0.000 C 
BRANCH  21  22
ATOM     22  C   UNL     1      25.222  -4.482  38.662  1.00  0.00     0.000 C 
BRANCH  22  23
ATOM     23  C   UNL     1      23.808  -3.874  38.663  1.00  0.00     0.000 C 
BRANCH  23  24
ATOM     24  C   UNL     1      23.748  -2.379  39.032  1.00  0.00    -0.000 C 
BRANCH  24  25
ATOM     25  C   UNL     1      22.489  -2.019  39.842  1.00  0.00    -0.000 C 
BRANCH  25  26
ATOM     26  C   UNL     1      22.285  -0.499  39.959  1.00  0.00    -0.000 C 
BRANCH  26  27
ATOM     27  C   UNL     1      21.019  -0.138  40.756  1.00  0.00    -0.000 C 
BRANCH  27  28
ATOM     28  C   UNL     1      21.316   0.244  42.217  1.00  0.00    -0.000 C 
BRANCH  28  29
ATOM     29  C   UNL     1      20.607  -0.617  43.279  1.00  0.00    -0.000 C 
BRANCH  29  30
ATOM     30  C   UNL     1      21.000  -2.102  43.206  1.00  0.00    -0.000 C 
BRANCH  30  31
ATOM     31  C   UNL     1      22.429  -2.353  43.713  1.00  0.00    -0.003 C 
ATOM     32  C   UNL     1      23.055  -3.618  43.124  1.00  0.00     0.004 C 
ENDBRANCH  30  31
ENDBRANCH  29  30
ENDBRANCH  28  29
ENDBRANCH  27  28
ENDBRANCH  26  27
ENDBRANCH  25  26
ENDBRANCH  24  25
ENDBRANCH  23  24
ENDBRANCH  22  23
ENDBRANCH  21  22
ENDBRANCH  20  21
ENDBRANCH  19  20
ENDBRANCH  18  19
ENDBRANCH   1  18
TORSDOF 28
ENDMDL
MODEL 5
REMARK VINA RESULT:    -3.435      2.513      4.605
REMARK INTER + INTRA:         -11.644
REMARK INTER:                  -8.418
REMARK INTRA:                  -3.226
REMARK UNBOUND:                -2.586
REMARK SMILES CCCCCCCCCCCCCCCCCCCCCCCCCCCCCC(=O)[O-]
REMARK SMILES IDX 16 1 17 2 18 3 19 4 20 5 21 6 22 7 23 8 24 9 25 10 26 11
REMARK SMILES IDX 27 12 28 13 29 14 30 15 31 16 32 17 15 18 14 19 13 20 12 21
REMARK SMILES IDX 11 22 10 23 9 24 8 25 7 26 6 27 5 28 4 29 3 30 2 31 1 32
REMARK H PARENT
REMARK Flexibility Score: inf
ROOT
ATOM      1  C   UNL     1      24.643  -9.132  32.124  1.00  0.00     0.000 C 
ENDROOT
BRANCH   1   2
ATOM      2  C   UNL     1      23.355  -9.199  31.278  1.00  0.00     0.000 C 
BRANCH   2   3
ATOM      3  C   UNL     1      23.570  -9.097  29.759  1.00  0.00     0.000 C 
BRANCH   3   4
ATOM      4  C   UNL     1      25.015  -8.730  29.381  1.00  0.00     0.000 C 
BRANCH   4   5
ATOM      5  C   UNL     1      25.524  -9.530  28.162  1.00  0.00     0.000 C 
BRANCH   5   6
ATOM      6  C   UNL     1      27.027  -9.872  28.216  1.00  0.00     0.000 C 
BRANCH   6   7
ATOM      7  C   UNL     1      27.595 -10.098  29.627  1.00  0.00     0.000 C 
BRANCH   7   8
ATOM      8  C   UNL     1      27.551 -11.570  30.063  1.00  0.00     0.000 C 
BRANCH   8   9
ATOM      9  C   UNL     1      28.424 -11.801  31.305  1.00  0.00     0.000 C 
BRANCH   9  10
ATOM     10  C   UNL     1      29.931 -11.775  30.988  1.00  0.00     0.000 C 
BRANCH  10  11
ATOM     11  C   UNL     1      30.727 -10.662  31.701  1.00  0.00     0.000 C 
BRANCH  11  12
ATOM     12  C   UNL     1      31.915 -10.098  30.901  1.00  0.00     0.000 C 
BRANCH  12  13
ATOM     13  C   UNL     1      32.149  -8.599  31.162  1.00  0.00     0.006 C 
BRANCH  13  14
ATOM     14  C   UNL     1      30.833  -7.829  31.334  1.00  0.00     0.053 C 
BRANCH  14  15
ATOM     15  C   UNL     1      30.663  -7.310  32.729  1.00  0.00     0.041 C 
ATOM     16  O   UNL     1      29.872  -6.357  32.959  1.00  0.00    -0.550 OA
ATOM     17  O   UNL     1      31.384  -7.872  33.775  1.00  0.00    -0.550 OA
ENDBRANCH  14  15
ENDBRANCH  13  14
ENDBRANCH  12  13
ENDBRANCH  11  12
ENDBRANCH  10  11
ENDBRANCH   9  10
ENDBRANCH   8   9
ENDBRANCH   7   8
ENDBRANCH   6   7
ENDBRANCH   5   6
ENDBRANCH   4   5
ENDBRANCH   3   4
ENDBRANCH   2   3
ENDBRANCH   1   2
BRANCH   1  18
ATOM     18  C   UNL     1      25.128 -10.482  32.693  1.00  0.00     0.000 C 
BRANCH  18  19
ATOM     19  C   UNL     1      24.911 -10.673  34.206  1.00  0.00     0.000 C 
BRANCH  19  20
ATOM     20  C   UNL     1      24.130 -11.940  34.606  1.00  0.00     0.000 C 
BRANCH  20  21
ATOM     21  C   UNL     1      22.688 -11.995  34.062  1.00  0.00     0.000 C 
BRANCH  21  22
ATOM     22  C   UNL     1      21.890 -10.715  34.364  1.00  0.00     0.000 C 
BRANCH  22  23
ATOM     23  C   UNL     1      21.380 -10.660  35.816  1.00  0.00     0.000 C 
BRANCH  23  24
ATOM     24  C   UNL     1      22.125  -9.664  36.725  1.00  0.00    -0.000 C 
BRANCH  24  25
ATOM     25  C   UNL     1      22.582  -8.401  35.972  1.00  0.00    -0.000 C 
BRANCH  25  26
ATOM     26  C   UNL     1      24.005  -7.969  36.366  1.00  0.00    -0.000 C 
BRANCH  26  27
ATOM     27  C   UNL     1      24.041  -7.241  37.721  1.00  0.00    -0.000 C 
BRANCH  27  28
ATOM     28  C   UNL     1      25.396  -6.568  38.007  1.00  0.00    -0.000 C 
BRANCH  28  29
ATOM     29  C   UNL     1      25.313  -5.140  38.576  1.00  0.00    -0.000 C 
BRANCH  29  30
ATOM     30  C   UNL     1      23.947  -4.476  38.334  1.00  0.00    -0.000 C 
BRANCH  30  31
ATOM     31  C   UNL     1      23.910  -3.021  38.825  1.00  0.00    -0.003 C 
ATOM     32  C   UNL     1      24.626  -2.056  37.879  1.00  0.00     0.004 C 
ENDBRANCH  30  31
ENDBRANCH  29  30
ENDBRANCH  28  29
ENDBRANCH  27  28
ENDBRANCH  26  27
ENDBRANCH  25  26
ENDBRANCH  24  25
ENDBRANCH  23  24
ENDBRANCH  22  23
ENDBRANCH  21  22
ENDBRANCH  20  21
ENDBRANCH  19  20
ENDBRANCH  18  19
ENDBRANCH   1  18
TORSDOF 28
ENDMDL
MODEL 6
REMARK VINA RESULT:    -3.431      5.825     14.663
REMARK INTER + INTRA:         -11.633
REMARK INTER:                 -10.157
REMARK INTRA:                  -1.476
REMARK UNBOUND:                -2.586
REMARK SMILES CCCCCCCCCCCCCCCCCCCCCCCCCCCCCC(=O)[O-]
REMARK SMILES IDX 16 1 17 2 18 3 19 4 20 5 21 6 22 7 23 8 24 9 25 10 26 11
REMARK SMILES IDX 27 12 28 13 29 14 30 15 31 16 32 17 15 18 14 19 13 20 12 21
REMARK SMILES IDX 11 22 10 23 9 24 8 25 7 26 6 27 5 28 4 29 3 30 2 31 1 32
REMARK H PARENT
REMARK Flexibility Score: inf
ROOT
ATOM      1  C   UNL     1      24.329  -6.101  37.992  1.00  0.00     0.000 C 
ENDROOT
BRANCH   1   2
ATOM      2  C   UNL     1      25.391  -5.220  38.680  1.00  0.00     0.000 C 
BRANCH   2   3
ATOM      3  C   UNL     1      25.146  -3.705  38.579  1.00  0.00     0.000 C 
BRANCH   3   4
ATOM      4  C   UNL     1      23.659  -3.330  38.709  1.00  0.00     0.000 C 
BRANCH   4   5
ATOM      5  C   UNL     1      23.392  -2.406  39.916  1.00  0.00     0.000 C 
BRANCH   5   6
ATOM      6  C   UNL     1      21.989  -1.765  39.921  1.00  0.00     0.000 C 
BRANCH   6   7
ATOM      7  C   UNL     1      21.711  -0.810  41.093  1.00  0.00     0.000 C 
BRANCH   7   8
ATOM      8  C   UNL     1      22.155   0.633  40.809  1.00  0.00     0.000 C 
BRANCH   8   9
ATOM      9  C   UNL     1      22.152   1.471  42.097  1.00  0.00     0.000 C 
BRANCH   9  10
ATOM     10  C   UNL     1      22.914   2.801  41.944  1.00  0.00     0.000 C 
BRANCH  10  11
ATOM     11  C   UNL     1      22.756   3.780  43.126  1.00  0.00     0.000 C 
BRANCH  11  12
ATOM     12  C   UNL     1      21.452   4.596  43.126  1.00  0.00     0.000 C 
BRANCH  12  13
ATOM     13  C   UNL     1      20.360   3.972  44.012  1.00  0.00     0.006 C 
BRANCH  13  14
ATOM     14  C   UNL     1      20.927   3.406  45.320  1.00  0.00     0.053 C 
BRANCH  14  15
ATOM     15  C   UNL     1      21.099   4.465  46.365  1.00  0.00     0.041 C 
ATOM     16  O   UNL     1      20.320   5.453  46.401  1.00  0.00    -0.550 OA
ATOM     17  O   UNL     1      22.127   4.366  47.295  1.00  0.00    -0.550 OA
ENDBRANCH  14  15
ENDBRANCH  13  14
ENDBRANCH  12  13
ENDBRANCH  11  12
ENDBRANCH  10  11
ENDBRANCH   9  10
ENDBRANCH   8   9
ENDBRANCH   7   8
ENDBRANCH   6   7
ENDBRANCH   5   6
ENDBRANCH   4   5
ENDBRANCH   3   4
ENDBRANCH   2   3
ENDBRANCH   1   2
BRANCH   1  18
ATOM     18  C   UNL     1      24.861  -7.409  37.372  1.00  0.00     0.000 C 
BRANCH  18  19
ATOM     19  C   UNL     1      23.984  -8.013  36.259  1.00  0.00     0.000 C 
BRANCH  19  20
ATOM     20  C   UNL     1      23.955  -9.554  36.203  1.00  0.00     0.000 C 
BRANCH  20  21
ATOM     21  C   UNL     1      24.523 -10.152  34.900  1.00  0.00     0.000 C 
BRANCH  21  22
ATOM     22  C   UNL     1      23.831  -9.601  33.642  1.00  0.00     0.000 C 
BRANCH  22  23
ATOM     23  C   UNL     1      24.824  -8.998  32.633  1.00  0.00     0.000 C 
BRANCH  23  24
ATOM     24  C   UNL     1      25.659 -10.031  31.852  1.00  0.00    -0.000 C 
BRANCH  24  25
ATOM     25  C   UNL     1      26.946  -9.428  31.259  1.00  0.00    -0.000 C 
BRANCH  25  26
ATOM     26  C   UNL     1      27.373 -10.127  29.957  1.00  0.00    -0.000 C 
BRANCH  26  27
ATOM     27  C   UNL     1      28.902 -10.246  29.832  1.00  0.00    -0.000 C 
BRANCH  27  28
ATOM     28  C   UNL     1      29.619 -10.242  31.194  1.00  0.00    -0.000 C 
BRANCH  28  29
ATOM     29  C   UNL     1      31.156 -10.179  31.126  1.00  0.00    -0.000 C 
BRANCH  29  30
ATOM     30  C   UNL     1      31.770  -9.307  32.236  1.00  0.00    -0.000 C 
BRANCH  30  31
ATOM     31  C   UNL     1      30.795  -8.232  32.740  1.00  0.00    -0.003 C 
ATOM     32  C   UNL     1      31.016  -6.871  32.077  1.00  0.00     0.004 C 
ENDBRANCH  30  31
ENDBRANCH  29  30
ENDBRANCH  28  29
ENDBRANCH  27  28
ENDBRANCH  26  27
ENDBRANCH  25  26
ENDBRANCH  24  25
ENDBRANCH  23  24
ENDBRANCH  22  23
ENDBRANCH  21  22
ENDBRANCH  20  21
ENDBRANCH  19  20
ENDBRANCH  18  19
ENDBRANCH   1  18
TORSDOF 28
ENDMDL
MODEL 7
REMARK VINA RESULT:    -3.415      1.618      2.962
REMARK INTER + INTRA:         -11.592
REMARK INTER:                  -9.137
REMARK INTRA:                  -2.454
REMARK UNBOUND:                -2.586
REMARK SMILES CCCCCCCCCCCCCCCCCCCCCCCCCCCCCC(=O)[O-]
REMARK SMILES IDX 16 1 17 2 18 3 19 4 20 5 21 6 22 7 23 8 24 9 25 10 26 11
REMARK SMILES IDX 27 12 28 13 29 14 30 15 31 16 32 17 15 18 14 19 13 20 12 21
REMARK SMILES IDX 11 22 10 23 9 24 8 25 7 26 6 27 5 28 4 29 3 30 2 31 1 32
REMARK H PARENT
REMARK Flexibility Score: inf
ROOT
ATOM      1  C   UNL     1      22.539  -9.383  36.484  1.00  0.00     0.000 C 
ENDROOT
BRANCH   1   2
ATOM      2  C   UNL     1      22.785 -10.897  36.332  1.00  0.00     0.000 C 
BRANCH   2   3
ATOM      3  C   UNL     1      23.520 -11.310  35.045  1.00  0.00     0.000 C 
BRANCH   3   4
ATOM      4  C   UNL     1      22.617 -12.067  34.056  1.00  0.00     0.000 C 
BRANCH   4   5
ATOM      5  C   UNL     1      21.396 -11.230  33.618  1.00  0.00     0.000 C 
BRANCH   5   6
ATOM      6  C   UNL     1      21.758  -9.874  32.978  1.00  0.00     0.000 C 
BRANCH   6   7
ATOM      7  C   UNL     1      21.665  -9.831  31.444  1.00  0.00     0.000 C 
BRANCH   7   8
ATOM      8  C   UNL     1      22.961  -9.347  30.777  1.00  0.00     0.000 C 
BRANCH   8   9
ATOM      9  C   UNL     1      23.958  -8.830  31.826  1.00  0.00     0.000 C 
BRANCH   9  10
ATOM     10  C   UNL     1      25.263  -9.646  31.861  1.00  0.00     0.000 C 
BRANCH  10  11
ATOM     11  C   UNL     1      25.674 -10.275  30.513  1.00  0.00     0.000 C 
BRANCH  11  12
ATOM     12  C   UNL     1      26.612  -9.413  29.652  1.00  0.00     0.000 C 
BRANCH  12  13
ATOM     13  C   UNL     1      27.957 -10.104  29.363  1.00  0.00     0.006 C 
BRANCH  13  14
ATOM     14  C   UNL     1      29.024  -9.755  30.409  1.00  0.00     0.053 C 
BRANCH  14  15
ATOM     15  C   UNL     1      29.436 -10.949  31.214  1.00  0.00     0.041 C 
ATOM     16  O   UNL     1      28.581 -11.806  31.560  1.00  0.00    -0.550 OA
ATOM     17  O   UNL     1      30.763 -11.111  31.591  1.00  0.00    -0.550 OA
ENDBRANCH  14  15
ENDBRANCH  13  14
ENDBRANCH  12  13
ENDBRANCH  11  12
ENDBRANCH  10  11
ENDBRANCH   9  10
ENDBRANCH   8   9
ENDBRANCH   7   8
ENDBRANCH   6   7
ENDBRANCH   5   6
ENDBRANCH   4   5
ENDBRANCH   3   4
ENDBRANCH   2   3
ENDBRANCH   1   2
BRANCH   1  18
ATOM     18  C   UNL     1      23.607  -8.474  35.840  1.00  0.00     0.000 C 
BRANCH  18  19
ATOM     19  C   UNL     1      24.640  -7.881  36.816  1.00  0.00     0.000 C 
BRANCH  19  20
ATOM     20  C   UNL     1      24.194  -6.601  37.552  1.00  0.00     0.000 C 
BRANCH  20  21
ATOM     21  C   UNL     1      25.212  -6.075  38.584  1.00  0.00     0.000 C 
BRANCH  21  22
ATOM     22  C   UNL     1      25.252  -4.539  38.649  1.00  0.00     0.000 C 
BRANCH  22  23
ATOM     23  C   UNL     1      23.879  -3.896  38.375  1.00  0.00     0.000 C 
BRANCH  23  24
ATOM     24  C   UNL     1      23.787  -2.399  38.725  1.00  0.00    -0.000 C 
BRANCH  24  25
ATOM     25  C   UNL     1      22.927  -2.134  39.974  1.00  0.00    -0.000 C 
BRANCH  25  26
ATOM     26  C   UNL     1      22.391  -0.692  40.021  1.00  0.00    -0.000 C 
BRANCH  26  27
ATOM     27  C   UNL     1      21.779  -0.339  41.387  1.00  0.00    -0.000 C 
BRANCH  27  28
ATOM     28  C   UNL     1      20.876  -1.454  41.947  1.00  0.00    -0.000 C 
BRANCH  28  29
ATOM     29  C   UNL     1      21.159  -1.856  43.406  1.00  0.00    -0.000 C 
BRANCH  29  30
ATOM     30  C   UNL     1      22.629  -2.238  43.649  1.00  0.00    -0.000 C 
BRANCH  30  31
ATOM     31  C   UNL     1      22.849  -2.861  45.036  1.00  0.00    -0.003 C 
ATOM     32  C   UNL     1      21.851  -2.356  46.080  1.00  0.00     0.004 C 
ENDBRANCH  30  31
ENDBRANCH  29  30
ENDBRANCH  28  29
ENDBRANCH  27  28
ENDBRANCH  26  27
ENDBRANCH  25  26
ENDBRANCH  24  25
ENDBRANCH  23  24
ENDBRANCH  22  23
ENDBRANCH  21  22
ENDBRANCH  20  21
ENDBRANCH  19  20
ENDBRANCH  18  19
ENDBRANCH   1  18
TORSDOF 28
ENDMDL
MODEL 8
REMARK VINA RESULT:    -3.318      1.381      2.946
REMARK INTER + INTRA:         -11.335
REMARK INTER:                  -8.533
REMARK INTRA:                  -2.803
REMARK UNBOUND:                -2.586
REMARK SMILES CCCCCCCCCCCCCCCCCCCCCCCCCCCCCC(=O)[O-]
REMARK SMILES IDX 16 1 17 2 18 3 19 4 20 5 21 6 22 7 23 8 24 9 25 10 26 11
REMARK SMILES IDX 27 12 28 13 29 14 30 15 31 16 32 17 15 18 14 19 13 20 12 21
REMARK SMILES IDX 11 22 10 23 9 24 8 25 7 26 6 27 5 28 4 29 3 30 2 31 1 32
REMARK H PARENT
REMARK Flexibility Score: inf
ROOT
ATOM      1  C   UNL     1      25.604 -10.817  32.743  1.00  0.00     0.000 C 
ENDROOT
BRANCH   1   2
ATOM      2  C   UNL     1      25.095  -9.388  33.016  1.00  0.00     0.000 C 
BRANCH   2   3
ATOM      3  C   UNL     1      24.170  -8.809  31.932  1.00  0.00     0.000 C 
BRANCH   3   4
ATOM      4  C   UNL     1      23.762  -9.849  30.875  1.00  0.00     0.000 C 
BRANCH   4   5
ATOM      5  C   UNL     1      24.236  -9.460  29.457  1.00  0.00     0.000 C 
BRANCH   5   6
ATOM      6  C   UNL     1      25.669  -8.894  29.405  1.00  0.00     0.000 C 
BRANCH   6   7
ATOM      7  C   UNL     1      26.712  -9.816  28.752  1.00  0.00     0.000 C 
BRANCH   7   8
ATOM      8  C   UNL     1      26.420 -11.307  28.978  1.00  0.00     0.000 C 
BRANCH   8   9
ATOM      9  C   UNL     1      27.462 -11.935  29.915  1.00  0.00     0.000 C 
BRANCH   9  10
ATOM     10  C   UNL     1      28.874 -11.968  29.301  1.00  0.00     0.000 C 
BRANCH  10  11
ATOM     11  C   UNL     1      29.986 -11.376  30.191  1.00  0.00     0.000 C 
BRANCH  11  12
ATOM     12  C   UNL     1      29.539 -10.225  31.110  1.00  0.00     0.000 C 
BRANCH  12  13
ATOM     13  C   UNL     1      30.621  -9.143  31.276  1.00  0.00     0.006 C 
BRANCH  13  14
ATOM     14  C   UNL     1      31.304  -9.211  32.648  1.00  0.00     0.053 C 
BRANCH  14  15
ATOM     15  C   UNL     1      31.313  -7.882  33.340  1.00  0.00     0.041 C 
ATOM     16  O   UNL     1      30.418  -7.032  33.092  1.00  0.00    -0.550 OA
ATOM     17  O   UNL     1      32.316  -7.579  34.252  1.00  0.00    -0.550 OA
ENDBRANCH  14  15
ENDBRANCH  13  14
ENDBRANCH  12  13
ENDBRANCH  11  12
ENDBRANCH  10  11
ENDBRANCH   9  10
ENDBRANCH   8   9
ENDBRANCH   7   8
ENDBRANCH   6   7
ENDBRANCH   5   6
ENDBRANCH   4   5
ENDBRANCH   3   4
ENDBRANCH   2   3
ENDBRANCH   1   2
BRANCH   1  18
ATOM     18  C   UNL     1      24.837 -11.940  33.473  1.00  0.00     0.000 C 
BRANCH  18  19
ATOM     19  C   UNL     1      24.479 -11.642  34.941  1.00  0.00     0.000 C 
BRANCH  19  20
ATOM     20  C   UNL     1      22.971 -11.631  35.264  1.00  0.00     0.000 C 
BRANCH  20  21
ATOM     21  C   UNL     1      22.325 -10.231  35.231  1.00  0.00     0.000 C 
BRANCH  21  22
ATOM     22  C   UNL     1      22.387  -9.517  36.592  1.00  0.00     0.000 C 
BRANCH  22  23
ATOM     23  C   UNL     1      22.774  -8.032  36.467  1.00  0.00     0.000 C 
BRANCH  23  24
ATOM     24  C   UNL     1      24.063  -7.636  37.213  1.00  0.00    -0.000 C 
BRANCH  24  25
ATOM     25  C   UNL     1      24.064  -6.160  37.653  1.00  0.00    -0.000 C 
BRANCH  25  26
ATOM     26  C   UNL     1      25.341  -5.781  38.422  1.00  0.00    -0.000 C 
BRANCH  26  27
ATOM     27  C   UNL     1      25.287  -4.346  38.975  1.00  0.00    -0.000 C 
BRANCH  27  28
ATOM     28  C   UNL     1      24.174  -3.496  38.334  1.00  0.00    -0.000 C 
BRANCH  28  29
ATOM     29  C   UNL     1      23.423  -2.562  39.300  1.00  0.00    -0.000 C 
BRANCH  29  30
ATOM     30  C   UNL     1      23.739  -2.847  40.778  1.00  0.00    -0.000 C 
BRANCH  30  31
ATOM     31  C   UNL     1      22.962  -1.924  41.730  1.00  0.00    -0.003 C 
ATOM     32  C   UNL     1      22.092  -2.692  42.725  1.00  0.00     0.004 C 
ENDBRANCH  30  31
ENDBRANCH  29  30
ENDBRANCH  28  29
ENDBRANCH  27  28
ENDBRANCH  26  27
ENDBRANCH  25  26
ENDBRANCH  24  25
ENDBRANCH  23  24
ENDBRANCH  22  23
ENDBRANCH  21  22
ENDBRANCH  20  21
ENDBRANCH  19  20
ENDBRANCH  18  19
ENDBRANCH   1  18
TORSDOF 28
ENDMDL
