MODEL 1
REMARK VINA RESULT:    -5.413      0.000      0.000
REMARK INTER + INTRA:         -12.075
REMARK INTER:                  -8.893
REMARK INTRA:                  -3.182
REMARK UNBOUND:                -3.182
REMARK SMILES C[C@H]1O[C@H](OC[C@H]2O[C@H](Oc3c(-c4ccc(O)c(O)c4)oc4cc(O)cc(O)c4c3=O)[C@H](O)[C@H](O)[C@H]2O)[C@H](O)[C@H](O)[C@@H]1O
REMARK SMILES IDX 7 1 36 2 34 3 32 4 9 5 8 6 6 7 5 8 4 9 1 10 2 11 42 12 3 13
REMARK SMILES IDX 40 14 38 15 43 16 41 18 39 20 37 22 35 24 10 26 11 27 12 28
REMARK SMILES IDX 30 29 21 30 29 31 31 32 22 33 27 34 23 35 26 36 24 37 13 38
REMARK SMILES IDX 20 39 14 40 18 41 15 42 16 43 19 44 17 46 28 48 25 50 33 52
REMARK H PARENT 43 17 41 19 39 21 37 23 35 25 19 45 17 47 28 49 25 51 33 53
REMARK Flexibility Score: inf
ROOT
ATOM      1  C   UNL     1      13.897   2.050 -33.832  1.00  0.00     0.180 C 
ATOM      2  C   UNL     1      13.796   0.505 -33.771  1.00  0.00     0.177 C 
ATOM      3  C   UNL     1      12.315   0.081 -33.757  1.00  0.00     0.180 C 
ATOM      4  C   UNL     1      11.570   0.770 -34.919  1.00  0.00     0.214 C 
ATOM      5  C   UNL     1      11.841   2.291 -34.943  1.00  0.00     0.339 C 
ATOM      6  O   UNL     1      13.234   2.553 -34.984  1.00  0.00    -0.332 OA
ENDROOT
BRANCH   1   7
ATOM      7  C   UNL     1      15.353   2.532 -33.867  1.00  0.00     0.198 C 
BRANCH   7   8
ATOM      8  O   UNL     1      16.096   1.911 -32.838  1.00  0.00    -0.347 OA
BRANCH   8   9
ATOM      9  C   UNL     1      17.395   2.475 -32.755  1.00  0.00     0.281 C 
ATOM     10  C   UNL     1      17.423   3.434 -29.198  1.00  0.00     0.041 C 
ATOM     11  C   UNL     1      17.355   2.492 -30.402  1.00  0.00     0.150 C 
ATOM     12  C   UNL     1      18.444   1.392 -30.298  1.00  0.00     0.174 C 
ATOM     13  O   UNL     1      17.533   3.265 -31.580  1.00  0.00    -0.344 OA
ATOM     14  C   UNL     1      18.417   0.487 -31.543  1.00  0.00     0.179 C 
ATOM     15  C   UNL     1      18.469   1.363 -32.808  1.00  0.00     0.202 C 
BRANCH  12  16
ATOM     16  O   UNL     1      18.313   0.629 -29.123  1.00  0.00    -0.388 OA
ATOM     17  H   UNL     1      19.139   0.747 -28.587  1.00  0.00     0.211 HD
ENDBRANCH  12  16
BRANCH  14  18
ATOM     18  O   UNL     1      17.258  -0.310 -31.536  1.00  0.00    -0.387 OA
ATOM     19  H   UNL     1      17.462  -1.122 -32.073  1.00  0.00     0.211 HD
ENDBRANCH  14  18
BRANCH  15  20
ATOM     20  O   UNL     1      18.291   0.566 -33.952  1.00  0.00    -0.385 OA
ATOM     21  H   UNL     1      17.473   0.897 -34.408  1.00  0.00     0.211 HD
ENDBRANCH  15  20
ENDBRANCH   8   9
ENDBRANCH   7   8
ENDBRANCH   1   7
BRANCH   2  22
ATOM     22  O   UNL     1      14.431  -0.070 -34.886  1.00  0.00    -0.387 OA
ATOM     23  H   UNL     1      14.093   0.398 -35.694  1.00  0.00     0.211 HD
ENDBRANCH   2  22
BRANCH   3  24
ATOM     24  O   UNL     1      11.720   0.422 -32.531  1.00  0.00    -0.387 OA
ATOM     25  H   UNL     1      11.446   1.374 -32.599  1.00  0.00     0.211 HD
ENDBRANCH   3  24
BRANCH   5  26
ATOM     26  O   UNL     1      11.230   2.949 -33.826  1.00  0.00    -0.454 OA
BRANCH  26  27
ATOM     27  C   UNL     1      10.585   4.196 -33.896  1.00  0.00     0.214 A 
ATOM     28  C   UNL     1      11.250   5.417 -33.654  1.00  0.00     0.180 A 
ATOM     29  C   UNL     1       9.222   4.226 -34.219  1.00  0.00     0.239 A 
ATOM     30  O   UNL     1      10.607   6.564 -33.827  1.00  0.00    -0.452 OA
ATOM     31  C   UNL     1       8.564   5.466 -34.410  1.00  0.00     0.111 A 
ATOM     32  O   UNL     1       8.611   3.131 -34.323  1.00  0.00    -0.285 OA
ATOM     33  C   UNL     1       9.331   6.640 -34.182  1.00  0.00     0.146 A 
ATOM     34  C   UNL     1       7.196   5.613 -34.789  1.00  0.00     0.134 A 
ATOM     35  C   UNL     1       8.749   7.903 -34.301  1.00  0.00     0.094 A 
ATOM     36  C   UNL     1       6.631   6.894 -34.857  1.00  0.00     0.093 A 
ATOM     37  C   UNL     1       7.401   8.035 -34.623  1.00  0.00     0.123 A 
BRANCH  28  38
ATOM     38  C   UNL     1      12.630   5.484 -33.150  1.00  0.00     0.025 A 
ATOM     39  C   UNL     1      13.632   6.073 -33.934  1.00  0.00     0.062 A 
ATOM     40  C   UNL     1      12.931   5.054 -31.849  1.00  0.00     0.016 A 
ATOM     41  C   UNL     1      14.938   6.195 -33.438  1.00  0.00     0.158 A 
ATOM     42  C   UNL     1      14.229   5.182 -31.351  1.00  0.00     0.051 A 
ATOM     43  C   UNL     1      15.237   5.748 -32.140  1.00  0.00     0.157 A 
BRANCH  41  44
ATOM     44  O   UNL     1      15.937   6.764 -34.228  1.00  0.00    -0.504 OA
ATOM     45  H   UNL     1      16.397   7.628 -33.960  1.00  0.00     0.293 HD
ENDBRANCH  41  44
BRANCH  43  46
ATOM     46  O   UNL     1      16.523   5.866 -31.616  1.00  0.00    -0.504 OA
ATOM     47  H   UNL     1      17.146   6.617 -31.882  1.00  0.00     0.293 HD
ENDBRANCH  43  46
ENDBRANCH  28  38
BRANCH  34  48
ATOM     48  O   UNL     1       6.356   4.545 -35.125  1.00  0.00    -0.507 OA
ATOM     49  H   UNL     1       6.163   4.227 -36.062  1.00  0.00     0.293 HD
ENDBRANCH  34  48
BRANCH  37  50
ATOM     50  O   UNL     1       6.835   9.305 -34.714  1.00  0.00    -0.508 OA
ATOM     51  H   UNL     1       6.978   9.894 -35.526  1.00  0.00     0.293 HD
ENDBRANCH  37  50
ENDBRANCH  26  27
ENDBRANCH   5  26
BRANCH   4  52
ATOM     52  O   UNL     1      10.193   0.482 -34.896  1.00  0.00    -0.384 OA
ATOM     53  H   UNL     1       9.937   0.258 -33.965  1.00  0.00     0.211 HD
ENDBRANCH   4  52
TORSDOF 16
ENDMDL
MODEL 2
REMARK VINA RESULT:    -5.346      2.595      8.839
REMARK INTER + INTRA:         -11.966
REMARK INTER:                 -10.488
REMARK INTRA:                  -1.478
REMARK UNBOUND:                -3.182
REMARK SMILES C[C@H]1O[C@H](OC[C@H]2O[C@H](Oc3c(-c4ccc(O)c(O)c4)oc4cc(O)cc(O)c4c3=O)[C@H](O)[C@H](O)[C@H]2O)[C@H](O)[C@H](O)[C@@H]1O
REMARK SMILES IDX 7 1 36 2 34 3 32 4 9 5 8 6 6 7 5 8 4 9 1 10 2 11 42 12 3 13
REMARK SMILES IDX 40 14 38 15 43 16 41 18 39 20 37 22 35 24 10 26 11 27 12 28
REMARK SMILES IDX 30 29 21 30 29 31 31 32 22 33 27 34 23 35 26 36 24 37 13 38
REMARK SMILES IDX 20 39 14 40 18 41 15 42 16 43 19 44 17 46 28 48 25 50 33 52
REMARK H PARENT 43 17 41 19 39 21 37 23 35 25 19 45 17 47 28 49 25 51 33 53
REMARK Flexibility Score: inf
ROOT
ATOM      1  C   UNL     1       8.945   4.879 -34.045  1.00  0.00     0.180 C 
ATOM      2  C   UNL     1       8.799   6.409 -33.847  1.00  0.00     0.177 C 
ATOM      3  C   UNL     1      10.180   7.032 -33.572  1.00  0.00     0.180 C 
ATOM      4  C   UNL     1      11.179   6.575 -34.656  1.00  0.00     0.214 C 
ATOM      5  C   UNL     1      11.149   5.041 -34.841  1.00  0.00     0.339 C 
ATOM      6  O   UNL     1       9.833   4.592 -35.116  1.00  0.00    -0.332 OA
ENDROOT
BRANCH   1   7
ATOM      7  C   UNL     1       7.600   4.204 -34.341  1.00  0.00     0.198 C 
BRANCH   7   8
ATOM      8  O   UNL     1       6.840   4.093 -33.155  1.00  0.00    -0.347 OA
BRANCH   8   9
ATOM      9  C   UNL     1       5.825   5.084 -33.122  1.00  0.00     0.281 C 
ATOM     10  C   UNL     1       2.918   3.020 -34.051  1.00  0.00     0.041 C 
ATOM     11  C   UNL     1       4.105   3.479 -33.201  1.00  0.00     0.150 C 
ATOM     12  C   UNL     1       3.653   3.780 -31.747  1.00  0.00     0.174 C 
ATOM     13  O   UNL     1       4.658   4.640 -33.804  1.00  0.00    -0.344 OA
ATOM     14  C   UNL     1       4.835   4.307 -30.913  1.00  0.00     0.179 C 
ATOM     15  C   UNL     1       5.502   5.475 -31.661  1.00  0.00     0.202 C 
BRANCH  12  16
ATOM     16  O   UNL     1       3.071   2.656 -31.134  1.00  0.00    -0.388 OA
ATOM     17  H   UNL     1       3.794   2.137 -30.694  1.00  0.00     0.211 HD
ENDBRANCH  12  16
BRANCH  14  18
ATOM     18  O   UNL     1       5.759   3.273 -30.677  1.00  0.00    -0.387 OA
ATOM     19  H   UNL     1       5.254   2.418 -30.725  1.00  0.00     0.211 HD
ENDBRANCH  14  18
BRANCH  15  20
ATOM     20  O   UNL     1       6.672   5.869 -30.991  1.00  0.00    -0.385 OA
ATOM     21  H   UNL     1       7.293   6.222 -31.681  1.00  0.00     0.211 HD
ENDBRANCH  15  20
ENDBRANCH   8   9
ENDBRANCH   7   8
ENDBRANCH   1   7
BRANCH   2  22
ATOM     22  O   UNL     1       8.246   6.999 -34.998  1.00  0.00    -0.387 OA
ATOM     23  H   UNL     1       8.838   7.754 -35.257  1.00  0.00     0.211 HD
ENDBRANCH   2  22
BRANCH   3  24
ATOM     24  O   UNL     1      10.642   6.656 -32.299  1.00  0.00    -0.387 OA
ATOM     25  H   UNL     1      11.041   5.752 -32.394  1.00  0.00     0.211 HD
ENDBRANCH   3  24
BRANCH   5  26
ATOM     26  O   UNL     1      11.691   4.365 -33.698  1.00  0.00    -0.454 OA
BRANCH  26  27
ATOM     27  C   UNL     1      12.524   3.237 -33.766  1.00  0.00     0.214 A 
ATOM     28  C   UNL     1      13.933   3.324 -33.778  1.00  0.00     0.180 A 
ATOM     29  C   UNL     1      11.929   1.970 -33.824  1.00  0.00     0.239 A 
ATOM     30  O   UNL     1      14.663   2.216 -33.750  1.00  0.00    -0.452 OA
ATOM     31  C   UNL     1      12.734   0.804 -33.779  1.00  0.00     0.111 A 
ATOM     32  O   UNL     1      10.677   1.905 -33.925  1.00  0.00    -0.285 OA
ATOM     33  C   UNL     1      14.141   0.997 -33.753  1.00  0.00     0.146 A 
ATOM     34  C   UNL     1      12.233  -0.533 -33.782  1.00  0.00     0.134 A 
ATOM     35  C   UNL     1      15.009  -0.096 -33.756  1.00  0.00     0.094 A 
ATOM     36  C   UNL     1      13.132  -1.608 -33.829  1.00  0.00     0.093 A 
ATOM     37  C   UNL     1      14.511  -1.395 -33.809  1.00  0.00     0.123 A 
BRANCH  28  38
ATOM     38  C   UNL     1      14.649   4.604 -33.887  1.00  0.00     0.025 A 
ATOM     39  C   UNL     1      14.701   5.470 -32.785  1.00  0.00     0.062 A 
ATOM     40  C   UNL     1      15.364   4.920 -35.052  1.00  0.00     0.016 A 
ATOM     41  C   UNL     1      15.431   6.665 -32.859  1.00  0.00     0.158 A 
ATOM     42  C   UNL     1      16.097   6.106 -35.124  1.00  0.00     0.051 A 
ATOM     43  C   UNL     1      16.132   6.983 -34.035  1.00  0.00     0.157 A 
BRANCH  41  44
ATOM     44  O   UNL     1      15.465   7.533 -31.768  1.00  0.00    -0.504 OA
ATOM     45  H   UNL     1      15.723   7.210 -30.841  1.00  0.00     0.293 HD
ENDBRANCH  41  44
BRANCH  43  46
ATOM     46  O   UNL     1      16.874   8.159 -34.134  1.00  0.00    -0.504 OA
ATOM     47  H   UNL     1      17.331   8.578 -33.334  1.00  0.00     0.293 HD
ENDBRANCH  43  46
ENDBRANCH  28  38
BRANCH  34  48
ATOM     48  O   UNL     1      10.874  -0.861 -33.721  1.00  0.00    -0.507 OA
ATOM     49  H   UNL     1      10.151  -0.280 -33.327  1.00  0.00     0.293 HD
ENDBRANCH  34  48
BRANCH  37  50
ATOM     50  O   UNL     1      15.396  -2.472 -33.835  1.00  0.00    -0.508 OA
ATOM     51  H   UNL     1      15.516  -3.081 -33.034  1.00  0.00     0.293 HD
ENDBRANCH  37  50
ENDBRANCH  26  27
ENDBRANCH   5  26
BRANCH   4  52
ATOM     52  O   UNL     1      12.477   7.048 -34.398  1.00  0.00    -0.384 OA
ATOM     53  H   UNL     1      12.947   6.381 -33.834  1.00  0.00     0.211 HD
ENDBRANCH   4  52
TORSDOF 16
ENDMDL
MODEL 3
REMARK VINA RESULT:    -4.936      1.129      2.135
REMARK INTER + INTRA:         -11.291
REMARK INTER:                  -8.675
REMARK INTRA:                  -2.616
REMARK UNBOUND:                -3.182
REMARK SMILES C[C@H]1O[C@H](OC[C@H]2O[C@H](Oc3c(-c4ccc(O)c(O)c4)oc4cc(O)cc(O)c4c3=O)[C@H](O)[C@H](O)[C@H]2O)[C@H](O)[C@H](O)[C@@H]1O
REMARK SMILES IDX 7 1 36 2 34 3 32 4 9 5 8 6 6 7 5 8 4 9 1 10 2 11 42 12 3 13
REMARK SMILES IDX 40 14 38 15 43 16 41 18 39 20 37 22 35 24 10 26 11 27 12 28
REMARK SMILES IDX 30 29 21 30 29 31 31 32 22 33 27 34 23 35 26 36 24 37 13 38
REMARK SMILES IDX 20 39 14 40 18 41 15 42 16 43 19 44 17 46 28 48 25 50 33 52
REMARK H PARENT 43 17 41 19 39 21 37 23 35 25 19 45 17 47 28 49 25 51 33 53
REMARK Flexibility Score: inf
ROOT
ATOM      1  C   UNL     1      14.315   2.269 -33.771  1.00  0.00     0.180 C 
ATOM      2  C   UNL     1      13.916   0.773 -33.707  1.00  0.00     0.177 C 
ATOM      3  C   UNL     1      12.383   0.641 -33.773  1.00  0.00     0.180 C 
ATOM      4  C   UNL     1      11.846   1.442 -34.976  1.00  0.00     0.214 C 
ATOM      5  C   UNL     1      12.405   2.883 -34.993  1.00  0.00     0.339 C 
ATOM      6  O   UNL     1      13.822   2.873 -34.959  1.00  0.00    -0.332 OA
ENDROOT
BRANCH   1   7
ATOM      7  C   UNL     1      15.836   2.463 -33.728  1.00  0.00     0.198 C 
BRANCH   7   8
ATOM      8  O   UNL     1      16.237   2.889 -32.442  1.00  0.00    -0.347 OA
BRANCH   8   9
ATOM      9  C   UNL     1      15.795   1.970 -31.456  1.00  0.00     0.281 C 
ATOM     10  C   UNL     1      18.983   0.271 -30.730  1.00  0.00     0.041 C 
ATOM     11  C   UNL     1      17.997   1.438 -30.813  1.00  0.00     0.150 C 
ATOM     12  C   UNL     1      17.840   2.122 -29.429  1.00  0.00     0.174 C 
ATOM     13  O   UNL     1      16.749   0.931 -31.266  1.00  0.00    -0.344 OA
ATOM     14  C   UNL     1      16.796   3.251 -29.501  1.00  0.00     0.179 C 
ATOM     15  C   UNL     1      15.500   2.704 -30.128  1.00  0.00     0.202 C 
BRANCH  12  16
ATOM     16  O   UNL     1      19.066   2.606 -28.939  1.00  0.00    -0.388 OA
ATOM     17  H   UNL     1      19.015   2.624 -27.949  1.00  0.00     0.211 HD
ENDBRANCH  12  16
BRANCH  14  18
ATOM     18  O   UNL     1      17.299   4.327 -30.254  1.00  0.00    -0.387 OA
ATOM     19  H   UNL     1      17.817   4.901 -29.629  1.00  0.00     0.211 HD
ENDBRANCH  14  18
BRANCH  15  20
ATOM     20  O   UNL     1      14.590   3.754 -30.342  1.00  0.00    -0.385 OA
ATOM     21  H   UNL     1      14.297   3.690 -31.289  1.00  0.00     0.211 HD
ENDBRANCH  15  20
ENDBRANCH   8   9
ENDBRANCH   7   8
ENDBRANCH   1   7
BRANCH   2  22
ATOM     22  O   UNL     1      14.487   0.070 -34.784  1.00  0.00    -0.387 OA
ATOM     23  H   UNL     1      13.943   0.271 -35.590  1.00  0.00     0.211 HD
ENDBRANCH   2  22
BRANCH   3  24
ATOM     24  O   UNL     1      11.800   1.108 -32.582  1.00  0.00    -0.387 OA
ATOM     25  H   UNL     1      12.483   1.006 -31.869  1.00  0.00     0.211 HD
ENDBRANCH   3  24
BRANCH   5  26
ATOM     26  O   UNL     1      11.874   3.663 -33.914  1.00  0.00    -0.454 OA
BRANCH  26  27
ATOM     27  C   UNL     1      11.005   4.754 -34.078  1.00  0.00     0.214 A 
ATOM     28  C   UNL     1      11.462   6.073 -34.285  1.00  0.00     0.180 A 
ATOM     29  C   UNL     1       9.624   4.522 -34.032  1.00  0.00     0.239 A 
ATOM     30  O   UNL     1      10.590   7.044 -34.525  1.00  0.00    -0.452 OA
ATOM     31  C   UNL     1       8.716   5.576 -34.305  1.00  0.00     0.111 A 
ATOM     32  O   UNL     1       9.225   3.366 -33.736  1.00  0.00    -0.285 OA
ATOM     33  C   UNL     1       9.277   6.859 -34.542  1.00  0.00     0.146 A 
ATOM     34  C   UNL     1       7.295   5.440 -34.335  1.00  0.00     0.134 A 
ATOM     35  C   UNL     1       8.454   7.963 -34.772  1.00  0.00     0.094 A 
ATOM     36  C   UNL     1       6.497   6.576 -34.526  1.00  0.00     0.093 A 
ATOM     37  C   UNL     1       7.069   7.830 -34.751  1.00  0.00     0.123 A 
BRANCH  28  38
ATOM     38  C   UNL     1      12.881   6.447 -34.185  1.00  0.00     0.025 A 
ATOM     39  C   UNL     1      13.692   5.854 -33.207  1.00  0.00     0.062 A 
ATOM     40  C   UNL     1      13.452   7.319 -35.125  1.00  0.00     0.016 A 
ATOM     41  C   UNL     1      15.059   6.159 -33.142  1.00  0.00     0.158 A 
ATOM     42  C   UNL     1      14.815   7.618 -35.065  1.00  0.00     0.051 A 
ATOM     43  C   UNL     1      15.622   7.046 -34.076  1.00  0.00     0.157 A 
BRANCH  41  44
ATOM     44  O   UNL     1      15.859   5.583 -32.156  1.00  0.00    -0.504 OA
ATOM     45  H   UNL     1      16.649   4.990 -32.393  1.00  0.00     0.293 HD
ENDBRANCH  41  44
BRANCH  43  46
ATOM     46  O   UNL     1      16.980   7.361 -34.042  1.00  0.00    -0.504 OA
ATOM     47  H   UNL     1      17.699   6.651 -34.098  1.00  0.00     0.293 HD
ENDBRANCH  43  46
ENDBRANCH  28  38
BRANCH  34  48
ATOM     48  O   UNL     1       6.621   4.221 -34.203  1.00  0.00    -0.507 OA
ATOM     49  H   UNL     1       6.835   3.506 -33.524  1.00  0.00     0.293 HD
ENDBRANCH  34  48
BRANCH  37  50
ATOM     50  O   UNL     1       6.265   8.949 -34.960  1.00  0.00    -0.508 OA
ATOM     51  H   UNL     1       5.496   9.175 -34.340  1.00  0.00     0.293 HD
ENDBRANCH  37  50
ENDBRANCH  26  27
ENDBRANCH   5  26
BRANCH   4  52
ATOM     52  O   UNL     1      10.440   1.424 -35.027  1.00  0.00    -0.384 OA
ATOM     53  H   UNL     1      10.102   2.256 -34.607  1.00  0.00     0.211 HD
ENDBRANCH   4  52
TORSDOF 16
ENDMDL
MODEL 4
REMARK VINA RESULT:    -4.873      1.601      4.497
REMARK INTER + INTRA:         -11.189
REMARK INTER:                  -8.410
REMARK INTRA:                  -2.779
REMARK UNBOUND:                -3.182
REMARK SMILES C[C@H]1O[C@H](OC[C@H]2O[C@H](Oc3c(-c4ccc(O)c(O)c4)oc4cc(O)cc(O)c4c3=O)[C@H](O)[C@H](O)[C@H]2O)[C@H](O)[C@H](O)[C@@H]1O
REMARK SMILES IDX 7 1 36 2 34 3 32 4 9 5 8 6 6 7 5 8 4 9 1 10 2 11 42 12 3 13
REMARK SMILES IDX 40 14 38 15 43 16 41 18 39 20 37 22 35 24 10 26 11 27 12 28
REMARK SMILES IDX 30 29 21 30 29 31 31 32 22 33 27 34 23 35 26 36 24 37 13 38
REMARK SMILES IDX 20 39 14 40 18 41 15 42 16 43 19 44 17 46 28 48 25 50 33 52
REMARK H PARENT 43 17 41 19 39 21 37 23 35 25 19 45 17 47 28 49 25 51 33 53
REMARK Flexibility Score: inf
ROOT
ATOM      1  C   UNL     1      15.686   3.116 -31.779  1.00  0.00     0.180 C 
ATOM      2  C   UNL     1      16.940   4.026 -31.826  1.00  0.00     0.177 C 
ATOM      3  C   UNL     1      16.626   5.303 -32.628  1.00  0.00     0.180 C 
ATOM      4  C   UNL     1      15.332   5.948 -32.090  1.00  0.00     0.214 C 
ATOM      5  C   UNL     1      14.188   4.915 -31.981  1.00  0.00     0.339 C 
ATOM      6  O   UNL     1      14.587   3.803 -31.197  1.00  0.00    -0.332 OA
ENDROOT
BRANCH   1   7
ATOM      7  C   UNL     1      15.933   1.834 -30.974  1.00  0.00     0.198 C 
BRANCH   7   8
ATOM      8  O   UNL     1      16.668   0.908 -31.748  1.00  0.00    -0.347 OA
BRANCH   8   9
ATOM      9  C   UNL     1      18.049   0.983 -31.431  1.00  0.00     0.281 C 
ATOM     10  C   UNL     1      18.330  -1.945 -29.213  1.00  0.00     0.041 C 
ATOM     11  C   UNL     1      18.066  -1.185 -30.514  1.00  0.00     0.150 C 
ATOM     12  C   UNL     1      18.944  -1.747 -31.664  1.00  0.00     0.174 C 
ATOM     13  O   UNL     1      18.353   0.188 -30.291  1.00  0.00    -0.344 OA
ATOM     14  C   UNL     1      18.726  -0.937 -32.954  1.00  0.00     0.179 C 
ATOM     15  C   UNL     1      18.905   0.561 -32.648  1.00  0.00     0.202 C 
BRANCH  12  16
ATOM     16  O   UNL     1      18.705  -3.116 -31.887  1.00  0.00    -0.388 OA
ATOM     17  H   UNL     1      19.135  -3.366 -32.745  1.00  0.00     0.211 HD
ENDBRANCH  12  16
BRANCH  14  18
ATOM     18  O   UNL     1      17.444  -1.190 -33.474  1.00  0.00    -0.387 OA
ATOM     19  H   UNL     1      16.791  -0.783 -32.843  1.00  0.00     0.211 HD
ENDBRANCH  14  18
BRANCH  15  20
ATOM     20  O   UNL     1      18.561   1.327 -33.775  1.00  0.00    -0.385 OA
ATOM     21  H   UNL     1      19.010   0.906 -34.555  1.00  0.00     0.211 HD
ENDBRANCH  15  20
ENDBRANCH   8   9
ENDBRANCH   7   8
ENDBRANCH   1   7
BRANCH   2  22
ATOM     22  O   UNL     1      17.331   4.384 -30.523  1.00  0.00    -0.387 OA
ATOM     23  H   UNL     1      18.184   4.887 -30.598  1.00  0.00     0.211 HD
ENDBRANCH   2  22
BRANCH   3  24
ATOM     24  O   UNL     1      16.484   5.000 -33.993  1.00  0.00    -0.387 OA
ATOM     25  H   UNL     1      15.671   4.436 -34.079  1.00  0.00     0.211 HD
ENDBRANCH   3  24
BRANCH   5  26
ATOM     26  O   UNL     1      13.739   4.493 -33.276  1.00  0.00    -0.454 OA
BRANCH  26  27
ATOM     27  C   UNL     1      12.390   4.349 -33.639  1.00  0.00     0.214 A 
ATOM     28  C   UNL     1      11.755   3.094 -33.747  1.00  0.00     0.180 A 
ATOM     29  C   UNL     1      11.643   5.504 -33.905  1.00  0.00     0.239 A 
ATOM     30  O   UNL     1      10.455   3.032 -34.004  1.00  0.00    -0.452 OA
ATOM     31  C   UNL     1      10.253   5.408 -34.163  1.00  0.00     0.111 A 
ATOM     32  O   UNL     1      12.242   6.611 -33.915  1.00  0.00    -0.285 OA
ATOM     33  C   UNL     1       9.699   4.101 -34.212  1.00  0.00     0.146 A 
ATOM     34  C   UNL     1       9.389   6.521 -34.397  1.00  0.00     0.134 A 
ATOM     35  C   UNL     1       8.348   3.913 -34.508  1.00  0.00     0.094 A 
ATOM     36  C   UNL     1       8.047   6.294 -34.734  1.00  0.00     0.093 A 
ATOM     37  C   UNL     1       7.525   5.001 -34.782  1.00  0.00     0.123 A 
BRANCH  28  38
ATOM     38  C   UNL     1      12.487   1.821 -33.651  1.00  0.00     0.025 A 
ATOM     39  C   UNL     1      13.723   1.677 -34.298  1.00  0.00     0.062 A 
ATOM     40  C   UNL     1      12.006   0.786 -32.836  1.00  0.00     0.016 A 
ATOM     41  C   UNL     1      14.457   0.490 -34.163  1.00  0.00     0.158 A 
ATOM     42  C   UNL     1      12.740  -0.394 -32.696  1.00  0.00     0.051 A 
ATOM     43  C   UNL     1      13.962  -0.550 -33.358  1.00  0.00     0.157 A 
BRANCH  41  44
ATOM     44  O   UNL     1      15.677   0.342 -34.823  1.00  0.00    -0.504 OA
ATOM     45  H   UNL     1      16.410   1.040 -34.744  1.00  0.00     0.293 HD
ENDBRANCH  41  44
BRANCH  43  46
ATOM     46  O   UNL     1      14.674  -1.738 -33.197  1.00  0.00    -0.504 OA
ATOM     47  H   UNL     1      15.600  -1.867 -33.583  1.00  0.00     0.293 HD
ENDBRANCH  43  46
ENDBRANCH  28  38
BRANCH  34  48
ATOM     48  O   UNL     1       9.787   7.858 -34.294  1.00  0.00    -0.507 OA
ATOM     49  H   UNL     1      10.741   8.181 -34.253  1.00  0.00     0.293 HD
ENDBRANCH  34  48
BRANCH  37  50
ATOM     50  O   UNL     1       6.183   4.788 -35.098  1.00  0.00    -0.508 OA
ATOM     51  H   UNL     1       5.777   5.141 -35.957  1.00  0.00     0.293 HD
ENDBRANCH  37  50
ENDBRANCH  26  27
ENDBRANCH   5  26
BRANCH   4  52
ATOM     52  O   UNL     1      14.956   7.070 -32.849  1.00  0.00    -0.384 OA
ATOM     53  H   UNL     1      15.463   7.054 -33.701  1.00  0.00     0.211 HD
ENDBRANCH   4  52
TORSDOF 16
ENDMDL
MODEL 5
REMARK VINA RESULT:    -4.334      3.083      9.940
REMARK INTER + INTRA:         -10.303
REMARK INTER:                  -9.616
REMARK INTRA:                  -0.686
REMARK UNBOUND:                -3.182
REMARK SMILES C[C@H]1O[C@H](OC[C@H]2O[C@H](Oc3c(-c4ccc(O)c(O)c4)oc4cc(O)cc(O)c4c3=O)[C@H](O)[C@H](O)[C@H]2O)[C@H](O)[C@H](O)[C@@H]1O
REMARK SMILES IDX 7 1 36 2 34 3 32 4 9 5 8 6 6 7 5 8 4 9 1 10 2 11 42 12 3 13
REMARK SMILES IDX 40 14 38 15 43 16 41 18 39 20 37 22 35 24 10 26 11 27 12 28
REMARK SMILES IDX 30 29 21 30 29 31 31 32 22 33 27 34 23 35 26 36 24 37 13 38
REMARK SMILES IDX 20 39 14 40 18 41 15 42 16 43 19 44 17 46 28 48 25 50 33 52
REMARK H PARENT 43 17 41 19 39 21 37 23 35 25 19 45 17 47 28 49 25 51 33 53
REMARK Flexibility Score: inf
ROOT
ATOM      1  C   UNL     1       7.597   4.616 -33.052  1.00  0.00     0.180 C 
ATOM      2  C   UNL     1       7.194   6.055 -32.640  1.00  0.00     0.177 C 
ATOM      3  C   UNL     1       8.455   6.931 -32.512  1.00  0.00     0.180 C 
ATOM      4  C   UNL     1       9.308   6.799 -33.791  1.00  0.00     0.214 C 
ATOM      5  C   UNL     1       9.544   5.318 -34.163  1.00  0.00     0.339 C 
ATOM      6  O   UNL     1       8.313   4.625 -34.279  1.00  0.00    -0.332 OA
ENDROOT
BRANCH   1   7
ATOM      7  C   UNL     1       6.378   3.699 -33.214  1.00  0.00     0.198 C 
BRANCH   7   8
ATOM      8  O   UNL     1       5.243   4.289 -32.614  1.00  0.00    -0.347 OA
BRANCH   8   9
ATOM      9  C   UNL     1       4.422   3.295 -32.022  1.00  0.00     0.281 C 
ATOM     10  C   UNL     1       3.166   5.184 -29.119  1.00  0.00     0.041 C 
ATOM     11  C   UNL     1       3.379   4.852 -30.597  1.00  0.00     0.150 C 
ATOM     12  C   UNL     1       2.018   4.729 -31.332  1.00  0.00     0.174 C 
ATOM     13  O   UNL     1       4.104   3.633 -30.677  1.00  0.00    -0.344 OA
ATOM     14  C   UNL     1       2.234   4.328 -32.802  1.00  0.00     0.179 C 
ATOM     15  C   UNL     1       3.140   3.085 -32.862  1.00  0.00     0.202 C 
BRANCH  12  16
ATOM     16  O   UNL     1       1.263   5.912 -31.243  1.00  0.00    -0.388 OA
ATOM     17  H   UNL     1       0.430   5.708 -30.744  1.00  0.00     0.211 HD
ENDBRANCH  12  16
BRANCH  14  18
ATOM     18  O   UNL     1       2.805   5.397 -33.516  1.00  0.00    -0.387 OA
ATOM     19  H   UNL     1       3.557   5.020 -34.048  1.00  0.00     0.211 HD
ENDBRANCH  14  18
BRANCH  15  20
ATOM     20  O   UNL     1       3.472   2.796 -34.196  1.00  0.00    -0.385 OA
ATOM     21  H   UNL     1       3.679   1.825 -34.236  1.00  0.00     0.211 HD
ENDBRANCH  15  20
ENDBRANCH   8   9
ENDBRANCH   7   8
ENDBRANCH   1   7
BRANCH   2  22
ATOM     22  O   UNL     1       6.337   6.616 -33.603  1.00  0.00    -0.387 OA
ATOM     23  H   UNL     1       6.412   7.604 -33.527  1.00  0.00     0.211 HD
ENDBRANCH   2  22
BRANCH   3  24
ATOM     24  O   UNL     1       9.206   6.547 -31.388  1.00  0.00    -0.387 OA
ATOM     25  H   UNL     1      10.152   6.776 -31.583  1.00  0.00     0.211 HD
ENDBRANCH   3  24
BRANCH   5  26
ATOM     26  O   UNL     1      10.407   4.672 -33.217  1.00  0.00    -0.454 OA
BRANCH  26  27
ATOM     27  C   UNL     1      11.749   4.340 -33.465  1.00  0.00     0.214 A 
ATOM     28  C   UNL     1      12.137   3.140 -34.099  1.00  0.00     0.180 A 
ATOM     29  C   UNL     1      12.744   5.241 -33.065  1.00  0.00     0.239 A 
ATOM     30  O   UNL     1      13.415   2.930 -34.387  1.00  0.00    -0.452 OA
ATOM     31  C   UNL     1      14.100   4.996 -33.399  1.00  0.00     0.111 A 
ATOM     32  O   UNL     1      12.399   6.254 -32.403  1.00  0.00    -0.285 OA
ATOM     33  C   UNL     1      14.384   3.778 -34.073  1.00  0.00     0.146 A 
ATOM     34  C   UNL     1      15.186   5.868 -33.086  1.00  0.00     0.134 A 
ATOM     35  C   UNL     1      15.698   3.435 -34.396  1.00  0.00     0.094 A 
ATOM     36  C   UNL     1      16.498   5.474 -33.386  1.00  0.00     0.093 A 
ATOM     37  C   UNL     1      16.755   4.269 -34.044  1.00  0.00     0.123 A 
BRANCH  28  38
ATOM     38  C   UNL     1      11.187   2.060 -34.406  1.00  0.00     0.025 A 
ATOM     39  C   UNL     1      11.524   0.731 -34.113  1.00  0.00     0.062 A 
ATOM     40  C   UNL     1       9.908   2.360 -34.898  1.00  0.00     0.016 A 
ATOM     41  C   UNL     1      10.602  -0.300 -34.347  1.00  0.00     0.158 A 
ATOM     42  C   UNL     1       8.987   1.335 -35.125  1.00  0.00     0.051 A 
ATOM     43  C   UNL     1       9.328   0.005 -34.855  1.00  0.00     0.157 A 
BRANCH  41  44
ATOM     44  O   UNL     1      10.946  -1.623 -34.073  1.00  0.00    -0.504 OA
ATOM     45  H   UNL     1      10.371  -2.397 -34.391  1.00  0.00     0.293 HD
ENDBRANCH  41  44
BRANCH  43  46
ATOM     46  O   UNL     1       8.387  -0.997 -35.089  1.00  0.00    -0.504 OA
ATOM     47  H   UNL     1       8.033  -1.197 -36.015  1.00  0.00     0.293 HD
ENDBRANCH  43  46
ENDBRANCH  28  38
BRANCH  34  48
ATOM     48  O   UNL     1      15.035   7.131 -32.503  1.00  0.00    -0.507 OA
ATOM     49  H   UNL     1      15.025   8.007 -33.003  1.00  0.00     0.293 HD
ENDBRANCH  34  48
BRANCH  37  50
ATOM     50  O   UNL     1      18.062   3.897 -34.356  1.00  0.00    -0.508 OA
ATOM     51  H   UNL     1      18.611   3.314 -33.735  1.00  0.00     0.293 HD
ENDBRANCH  37  50
ENDBRANCH  26  27
ENDBRANCH   5  26
BRANCH   4  52
ATOM     52  O   UNL     1      10.515   7.513 -33.685  1.00  0.00    -0.384 OA
ATOM     53  H   UNL     1      10.349   8.330 -33.149  1.00  0.00     0.211 HD
ENDBRANCH   4  52
TORSDOF 16
ENDMDL
MODEL 6
REMARK VINA RESULT:    -4.229      1.461      4.271
REMARK INTER + INTRA:         -10.130
REMARK INTER:                  -9.183
REMARK INTRA:                  -0.948
REMARK UNBOUND:                -3.182
REMARK SMILES C[C@H]1O[C@H](OC[C@H]2O[C@H](Oc3c(-c4ccc(O)c(O)c4)oc4cc(O)cc(O)c4c3=O)[C@H](O)[C@H](O)[C@H]2O)[C@H](O)[C@H](O)[C@@H]1O
REMARK SMILES IDX 7 1 36 2 34 3 32 4 9 5 8 6 6 7 5 8 4 9 1 10 2 11 42 12 3 13
REMARK SMILES IDX 40 14 38 15 43 16 41 18 39 20 37 22 35 24 10 26 11 27 12 28
REMARK SMILES IDX 30 29 21 30 29 31 31 32 22 33 27 34 23 35 26 36 24 37 13 38
REMARK SMILES IDX 20 39 14 40 18 41 15 42 16 43 19 44 17 46 28 48 25 50 33 52
REMARK H PARENT 43 17 41 19 39 21 37 23 35 25 19 45 17 47 28 49 25 51 33 53
REMARK Flexibility Score: inf
ROOT
ATOM      1  C   UNL     1      15.058   4.023 -31.831  1.00  0.00     0.180 C 
ATOM      2  C   UNL     1      16.208   4.906 -32.377  1.00  0.00     0.177 C 
ATOM      3  C   UNL     1      15.708   5.724 -33.583  1.00  0.00     0.180 C 
ATOM      4  C   UNL     1      14.404   6.456 -33.206  1.00  0.00     0.214 C 
ATOM      5  C   UNL     1      13.379   5.493 -32.566  1.00  0.00     0.339 C 
ATOM      6  O   UNL     1      13.946   4.822 -31.453  1.00  0.00    -0.332 OA
ENDROOT
BRANCH   1   7
ATOM      7  C   UNL     1      15.492   3.196 -30.614  1.00  0.00     0.198 C 
BRANCH   7   8
ATOM      8  O   UNL     1      16.260   2.086 -31.030  1.00  0.00    -0.347 OA
BRANCH   8   9
ATOM      9  C   UNL     1      17.607   2.471 -31.255  1.00  0.00     0.281 C 
ATOM     10  C   UNL     1      18.642   3.146 -27.784  1.00  0.00     0.041 C 
ATOM     11  C   UNL     1      18.147   2.314 -28.969  1.00  0.00     0.150 C 
ATOM     12  C   UNL     1      19.061   1.080 -29.191  1.00  0.00     0.174 C 
ATOM     13  O   UNL     1      18.139   3.146 -30.121  1.00  0.00    -0.344 OA
ATOM     14  C   UNL     1      18.601   0.283 -30.425  1.00  0.00     0.179 C 
ATOM     15  C   UNL     1      18.465   1.239 -31.624  1.00  0.00     0.202 C 
BRANCH  12  16
ATOM     16  O   UNL     1      19.114   0.253 -28.054  1.00  0.00    -0.388 OA
ATOM     17  H   UNL     1      18.346   0.487 -27.469  1.00  0.00     0.211 HD
ENDBRANCH  12  16
BRANCH  14  18
ATOM     18  O   UNL     1      17.378  -0.358 -30.158  1.00  0.00    -0.387 OA
ATOM     19  H   UNL     1      17.361  -1.189 -30.704  1.00  0.00     0.211 HD
ENDBRANCH  14  18
BRANCH  15  20
ATOM     20  O   UNL     1      17.901   0.561 -32.718  1.00  0.00    -0.385 OA
ATOM     21  H   UNL     1      17.176   1.140 -33.072  1.00  0.00     0.211 HD
ENDBRANCH  15  20
ENDBRANCH   8   9
ENDBRANCH   7   8
ENDBRANCH   1   7
BRANCH   2  22
ATOM     22  O   UNL     1      16.664   5.785 -31.379  1.00  0.00    -0.387 OA
ATOM     23  H   UNL     1      16.027   6.547 -31.342  1.00  0.00     0.211 HD
ENDBRANCH   2  22
BRANCH   3  24
ATOM     24  O   UNL     1      15.489   4.883 -34.688  1.00  0.00    -0.387 OA
ATOM     25  H   UNL     1      15.426   3.957 -34.336  1.00  0.00     0.211 HD
ENDBRANCH   3  24
BRANCH   5  26
ATOM     26  O   UNL     1      12.873   4.555 -33.525  1.00  0.00    -0.454 OA
BRANCH  26  27
ATOM     27  C   UNL     1      11.509   4.359 -33.800  1.00  0.00     0.214 A 
ATOM     28  C   UNL     1      10.954   3.088 -34.057  1.00  0.00     0.180 A 
ATOM     29  C   UNL     1      10.665   5.477 -33.819  1.00  0.00     0.239 A 
ATOM     30  O   UNL     1       9.643   2.961 -34.218  1.00  0.00    -0.452 OA
ATOM     31  C   UNL     1       9.267   5.309 -33.979  1.00  0.00     0.111 A 
ATOM     32  O   UNL     1      11.184   6.617 -33.698  1.00  0.00    -0.285 OA
ATOM     33  C   UNL     1       8.801   3.984 -34.193  1.00  0.00     0.146 A 
ATOM     34  C   UNL     1       8.312   6.370 -33.964  1.00  0.00     0.134 A 
ATOM     35  C   UNL     1       7.445   3.734 -34.408  1.00  0.00     0.094 A 
ATOM     36  C   UNL     1       6.964   6.090 -34.226  1.00  0.00     0.093 A 
ATOM     37  C   UNL     1       6.528   4.781 -34.440  1.00  0.00     0.123 A 
BRANCH  28  38
ATOM     38  C   UNL     1      11.777   1.880 -34.224  1.00  0.00     0.025 A 
ATOM     39  C   UNL     1      13.011   1.780 -33.565  1.00  0.00     0.062 A 
ATOM     40  C   UNL     1      11.291   0.786 -34.956  1.00  0.00     0.016 A 
ATOM     41  C   UNL     1      13.775   0.609 -33.669  1.00  0.00     0.158 A 
ATOM     42  C   UNL     1      12.048  -0.383 -35.054  1.00  0.00     0.051 A 
ATOM     43  C   UNL     1      13.290  -0.477 -34.417  1.00  0.00     0.157 A 
BRANCH  41  44
ATOM     44  O   UNL     1      15.011   0.520 -33.028  1.00  0.00    -0.504 OA
ATOM     45  H   UNL     1      15.161   0.921 -32.108  1.00  0.00     0.293 HD
ENDBRANCH  41  44
BRANCH  43  46
ATOM     46  O   UNL     1      14.023  -1.658 -34.531  1.00  0.00    -0.504 OA
ATOM     47  H   UNL     1      13.803  -2.482 -33.987  1.00  0.00     0.293 HD
ENDBRANCH  43  46
ENDBRANCH  28  38
BRANCH  34  48
ATOM     48  O   UNL     1       8.625   7.704 -33.680  1.00  0.00    -0.507 OA
ATOM     49  H   UNL     1       8.228   8.508 -34.142  1.00  0.00     0.293 HD
ENDBRANCH  34  48
BRANCH  37  50
ATOM     50  O   UNL     1       5.181   4.511 -34.679  1.00  0.00    -0.508 OA
ATOM     51  H   UNL     1       4.498   5.254 -34.771  1.00  0.00     0.293 HD
ENDBRANCH  37  50
ENDBRANCH  26  27
ENDBRANCH   5  26
BRANCH   4  52
ATOM     52  O   UNL     1      13.861   7.148 -34.303  1.00  0.00    -0.384 OA
ATOM     53  H   UNL     1      13.036   6.679 -34.591  1.00  0.00     0.211 HD
ENDBRANCH   4  52
TORSDOF 16
ENDMDL
MODEL 7
REMARK VINA RESULT:    -4.196      1.857      9.473
REMARK INTER + INTRA:         -10.075
REMARK INTER:                  -8.731
REMARK INTRA:                  -1.345
REMARK UNBOUND:                -3.182
REMARK SMILES C[C@H]1O[C@H](OC[C@H]2O[C@H](Oc3c(-c4ccc(O)c(O)c4)oc4cc(O)cc(O)c4c3=O)[C@H](O)[C@H](O)[C@H]2O)[C@H](O)[C@H](O)[C@@H]1O
REMARK SMILES IDX 7 1 36 2 34 3 32 4 9 5 8 6 6 7 5 8 4 9 1 10 2 11 42 12 3 13
REMARK SMILES IDX 40 14 38 15 43 16 41 18 39 20 37 22 35 24 10 26 11 27 12 28
REMARK SMILES IDX 30 29 21 30 29 31 31 32 22 33 27 34 23 35 26 36 24 37 13 38
REMARK SMILES IDX 20 39 14 40 18 41 15 42 16 43 19 44 17 46 28 48 25 50 33 52
REMARK H PARENT 43 17 41 19 39 21 37 23 35 25 19 45 17 47 28 49 25 51 33 53
REMARK Flexibility Score: inf
ROOT
ATOM      1  C   UNL     1      12.265   4.790 -33.827  1.00  0.00     0.180 C 
ATOM      2  C   UNL     1      12.679   6.267 -33.605  1.00  0.00     0.177 C 
ATOM      3  C   UNL     1      14.002   6.324 -32.819  1.00  0.00     0.180 C 
ATOM      4  C   UNL     1      15.047   5.415 -33.499  1.00  0.00     0.214 C 
ATOM      5  C   UNL     1      14.479   4.005 -33.772  1.00  0.00     0.339 C 
ATOM      6  O   UNL     1      13.280   4.082 -34.525  1.00  0.00    -0.332 OA
ENDROOT
BRANCH   1   7
ATOM      7  C   UNL     1      10.960   4.670 -34.624  1.00  0.00     0.198 C 
BRANCH   7   8
ATOM      8  O   UNL     1       9.854   4.944 -33.789  1.00  0.00    -0.347 OA
BRANCH   8   9
ATOM      9  C   UNL     1       8.825   5.587 -34.525  1.00  0.00     0.281 C 
ATOM     10  C   UNL     1       5.892   3.862 -33.112  1.00  0.00     0.041 C 
ATOM     11  C   UNL     1       7.141   4.745 -33.111  1.00  0.00     0.150 C 
ATOM     12  C   UNL     1       6.819   6.148 -32.531  1.00  0.00     0.174 C 
ATOM     13  O   UNL     1       7.610   4.850 -34.448  1.00  0.00    -0.344 OA
ATOM     14  C   UNL     1       8.061   7.055 -32.595  1.00  0.00     0.179 C 
ATOM     15  C   UNL     1       8.630   7.037 -34.025  1.00  0.00     0.202 C 
BRANCH  12  16
ATOM     16  O   UNL     1       6.322   6.072 -31.217  1.00  0.00    -0.388 OA
ATOM     17  H   UNL     1       6.290   6.993 -30.849  1.00  0.00     0.211 HD
ENDBRANCH  12  16
BRANCH  14  18
ATOM     18  O   UNL     1       9.026   6.619 -31.669  1.00  0.00    -0.387 OA
ATOM     19  H   UNL     1       8.585   5.943 -31.088  1.00  0.00     0.211 HD
ENDBRANCH  14  18
BRANCH  15  20
ATOM     20  O   UNL     1       9.848   7.736 -34.067  1.00  0.00    -0.385 OA
ATOM     21  H   UNL     1      10.122   7.778 -35.021  1.00  0.00     0.211 HD
ENDBRANCH  15  20
ENDBRANCH   8   9
ENDBRANCH   7   8
ENDBRANCH   1   7
BRANCH   2  22
ATOM     22  O   UNL     1      12.847   6.917 -34.841  1.00  0.00    -0.387 OA
ATOM     23  H   UNL     1      12.087   7.548 -34.950  1.00  0.00     0.211 HD
ENDBRANCH   2  22
BRANCH   3  24
ATOM     24  O   UNL     1      13.799   5.916 -31.490  1.00  0.00    -0.387 OA
ATOM     25  H   UNL     1      14.644   5.490 -31.188  1.00  0.00     0.211 HD
ENDBRANCH   3  24
BRANCH   5  26
ATOM     26  O   UNL     1      14.270   3.280 -32.553  1.00  0.00    -0.454 OA
BRANCH  26  27
ATOM     27  C   UNL     1      15.001   2.142 -32.172  1.00  0.00     0.214 A 
ATOM     28  C   UNL     1      14.624   0.832 -32.536  1.00  0.00     0.180 A 
ATOM     29  C   UNL     1      16.155   2.319 -31.397  1.00  0.00     0.239 A 
ATOM     30  O   UNL     1      15.409  -0.191 -32.222  1.00  0.00    -0.452 OA
ATOM     31  C   UNL     1      16.980   1.208 -31.089  1.00  0.00     0.111 A 
ATOM     32  O   UNL     1      16.423   3.476 -30.984  1.00  0.00    -0.285 OA
ATOM     33  C   UNL     1      16.535  -0.065 -31.534  1.00  0.00     0.146 A 
ATOM     34  C   UNL     1      18.201   1.281 -30.351  1.00  0.00     0.134 A 
ATOM     35  C   UNL     1      17.263  -1.217 -31.233  1.00  0.00     0.094 A 
ATOM     36  C   UNL     1      18.884   0.100 -30.028  1.00  0.00     0.093 A 
ATOM     37  C   UNL     1      18.425  -1.142 -30.471  1.00  0.00     0.123 A 
BRANCH  28  38
ATOM     38  C   UNL     1      13.349   0.528 -33.203  1.00  0.00     0.025 A 
ATOM     39  C   UNL     1      13.177  -0.703 -33.852  1.00  0.00     0.062 A 
ATOM     40  C   UNL     1      12.270   1.419 -33.109  1.00  0.00     0.016 A 
ATOM     41  C   UNL     1      11.947  -1.027 -34.439  1.00  0.00     0.158 A 
ATOM     42  C   UNL     1      11.041   1.094 -33.688  1.00  0.00     0.051 A 
ATOM     43  C   UNL     1      10.874  -0.123 -34.356  1.00  0.00     0.157 A 
BRANCH  41  44
ATOM     44  O   UNL     1      11.784  -2.244 -35.101  1.00  0.00    -0.504 OA
ATOM     45  H   UNL     1      12.474  -2.583 -35.765  1.00  0.00     0.293 HD
ENDBRANCH  41  44
BRANCH  43  46
ATOM     46  O   UNL     1       9.635  -0.422 -34.922  1.00  0.00    -0.504 OA
ATOM     47  H   UNL     1       9.396  -1.354 -35.234  1.00  0.00     0.293 HD
ENDBRANCH  43  46
ENDBRANCH  28  38
BRANCH  34  48
ATOM     48  O   UNL     1      18.793   2.476 -29.929  1.00  0.00    -0.507 OA
ATOM     49  H   UNL     1      18.926   2.754 -28.969  1.00  0.00     0.293 HD
ENDBRANCH  34  48
BRANCH  37  50
ATOM     50  O   UNL     1      19.124  -2.308 -30.162  1.00  0.00    -0.508 OA
ATOM     51  H   UNL     1      19.632  -2.827 -30.869  1.00  0.00     0.293 HD
ENDBRANCH  37  50
ENDBRANCH  26  27
ENDBRANCH   5  26
BRANCH   4  52
ATOM     52  O   UNL     1      16.247   5.366 -32.768  1.00  0.00    -0.384 OA
ATOM     53  H   UNL     1      16.270   4.512 -32.263  1.00  0.00     0.211 HD
ENDBRANCH   4  52
TORSDOF 16
ENDMDL
MODEL 8
REMARK VINA RESULT:    -4.158      2.935      8.557
REMARK INTER + INTRA:         -10.014
REMARK INTER:                  -8.581
REMARK INTRA:                  -1.432
REMARK UNBOUND:                -3.182
REMARK SMILES C[C@H]1O[C@H](OC[C@H]2O[C@H](Oc3c(-c4ccc(O)c(O)c4)oc4cc(O)cc(O)c4c3=O)[C@H](O)[C@H](O)[C@H]2O)[C@H](O)[C@H](O)[C@@H]1O
REMARK SMILES IDX 7 1 36 2 34 3 32 4 9 5 8 6 6 7 5 8 4 9 1 10 2 11 42 12 3 13
REMARK SMILES IDX 40 14 38 15 43 16 41 18 39 20 37 22 35 24 10 26 11 27 12 28
REMARK SMILES IDX 30 29 21 30 29 31 31 32 22 33 27 34 23 35 26 36 24 37 13 38
REMARK SMILES IDX 20 39 14 40 18 41 15 42 16 43 19 44 17 46 28 48 25 50 33 52
REMARK H PARENT 43 17 41 19 39 21 37 23 35 25 19 45 17 47 28 49 25 51 33 53
REMARK Flexibility Score: inf
ROOT
ATOM      1  C   UNL     1       7.972   5.603 -34.076  1.00  0.00     0.180 C 
ATOM      2  C   UNL     1       8.123   7.092 -33.673  1.00  0.00     0.177 C 
ATOM      3  C   UNL     1       9.574   7.367 -33.235  1.00  0.00     0.180 C 
ATOM      4  C   UNL     1      10.547   6.848 -34.314  1.00  0.00     0.214 C 
ATOM      5  C   UNL     1      10.223   5.391 -34.715  1.00  0.00     0.339 C 
ATOM      6  O   UNL     1       8.871   5.271 -35.125  1.00  0.00    -0.332 OA
ENDROOT
BRANCH   1   7
ATOM      7  C   UNL     1       6.548   5.273 -34.540  1.00  0.00     0.198 C 
BRANCH   7   8
ATOM      8  O   UNL     1       5.658   5.307 -33.443  1.00  0.00    -0.347 OA
BRANCH   8   9
ATOM      9  C   UNL     1       6.305   4.848 -32.266  1.00  0.00     0.281 C 
ATOM     10  C   UNL     1       4.142   6.414 -29.728  1.00  0.00     0.041 C 
ATOM     11  C   UNL     1       4.503   5.494 -30.896  1.00  0.00     0.150 C 
ATOM     12  C   UNL     1       4.121   4.025 -30.574  1.00  0.00     0.174 C 
ATOM     13  O   UNL     1       5.899   5.608 -31.134  1.00  0.00    -0.344 OA
ATOM     14  C   UNL     1       4.547   3.094 -31.723  1.00  0.00     0.179 C 
ATOM     15  C   UNL     1       6.030   3.342 -32.053  1.00  0.00     0.202 C 
BRANCH  12  16
ATOM     16  O   UNL     1       2.747   3.886 -30.302  1.00  0.00    -0.388 OA
ATOM     17  H   UNL     1       2.603   2.988 -29.906  1.00  0.00     0.211 HD
ENDBRANCH  12  16
BRANCH  14  18
ATOM     18  O   UNL     1       3.740   3.318 -32.853  1.00  0.00    -0.387 OA
ATOM     19  H   UNL     1       3.963   2.609 -33.513  1.00  0.00     0.211 HD
ENDBRANCH  14  18
BRANCH  15  20
ATOM     20  O   UNL     1       6.397   2.612 -33.197  1.00  0.00    -0.385 OA
ATOM     21  H   UNL     1       6.248   1.653 -32.985  1.00  0.00     0.211 HD
ENDBRANCH  15  20
ENDBRANCH   8   9
ENDBRANCH   7   8
ENDBRANCH   1   7
BRANCH   2  22
ATOM     22  O   UNL     1       7.802   7.926 -34.758  1.00  0.00    -0.387 OA
ATOM     23  H   UNL     1       7.081   7.477 -35.273  1.00  0.00     0.211 HD
ENDBRANCH   2  22
BRANCH   3  24
ATOM     24  O   UNL     1       9.841   6.744 -32.004  1.00  0.00    -0.387 OA
ATOM     25  H   UNL     1       9.333   7.244 -31.313  1.00  0.00     0.211 HD
ENDBRANCH   3  24
BRANCH   5  26
ATOM     26  O   UNL     1      10.517   4.477 -33.650  1.00  0.00    -0.454 OA
BRANCH  26  27
ATOM     27  C   UNL     1      11.165   3.243 -33.822  1.00  0.00     0.214 A 
ATOM     28  C   UNL     1      12.530   3.046 -33.524  1.00  0.00     0.180 A 
ATOM     29  C   UNL     1      10.421   2.161 -34.310  1.00  0.00     0.239 A 
ATOM     30  O   UNL     1      13.058   1.833 -33.620  1.00  0.00    -0.452 OA
ATOM     31  C   UNL     1      11.009   0.873 -34.390  1.00  0.00     0.111 A 
ATOM     32  O   UNL     1       9.236   2.370 -34.678  1.00  0.00    -0.285 OA
ATOM     33  C   UNL     1      12.379   0.770 -34.029  1.00  0.00     0.146 A 
ATOM     34  C   UNL     1      10.331  -0.306 -34.824  1.00  0.00     0.134 A 
ATOM     35  C   UNL     1      13.049  -0.451 -34.124  1.00  0.00     0.094 A 
ATOM     36  C   UNL     1      11.044  -1.507 -34.949  1.00  0.00     0.093 A 
ATOM     37  C   UNL     1      12.392  -1.584 -34.595  1.00  0.00     0.123 A 
BRANCH  28  38
ATOM     38  C   UNL     1      13.433   4.151 -33.165  1.00  0.00     0.025 A 
ATOM     39  C   UNL     1      14.259   4.723 -34.144  1.00  0.00     0.062 A 
ATOM     40  C   UNL     1      13.400   4.703 -31.876  1.00  0.00     0.016 A 
ATOM     41  C   UNL     1      15.079   5.815 -33.827  1.00  0.00     0.158 A 
ATOM     42  C   UNL     1      14.212   5.795 -31.561  1.00  0.00     0.051 A 
ATOM     43  C   UNL     1      15.054   6.353 -32.529  1.00  0.00     0.157 A 
BRANCH  41  44
ATOM     44  O   UNL     1      15.913   6.369 -34.797  1.00  0.00    -0.504 OA
ATOM     45  H   UNL     1      15.955   7.372 -34.951  1.00  0.00     0.293 HD
ENDBRANCH  41  44
BRANCH  43  46
ATOM     46  O   UNL     1      15.851   7.444 -32.186  1.00  0.00    -0.504 OA
ATOM     47  H   UNL     1      15.761   8.341 -32.645  1.00  0.00     0.293 HD
ENDBRANCH  43  46
ENDBRANCH  28  38
BRANCH  34  48
ATOM     48  O   UNL     1       8.965  -0.360 -35.125  1.00  0.00    -0.507 OA
ATOM     49  H   UNL     1       8.456  -1.194 -35.374  1.00  0.00     0.293 HD
ENDBRANCH  34  48
BRANCH  37  50
ATOM     50  O   UNL     1      13.087  -2.788 -34.704  1.00  0.00    -0.508 OA
ATOM     51  H   UNL     1      13.451  -3.113 -35.591  1.00  0.00     0.293 HD
ENDBRANCH  37  50
ENDBRANCH  26  27
ENDBRANCH   5  26
BRANCH   4  52
ATOM     52  O   UNL     1      11.888   6.998 -33.919  1.00  0.00    -0.384 OA
ATOM     53  H   UNL     1      12.360   6.141 -34.083  1.00  0.00     0.211 HD
ENDBRANCH   4  52
TORSDOF 16
ENDMDL
MODEL 9
REMARK VINA RESULT:    -3.982      1.566      4.712
REMARK INTER + INTRA:          -9.725
REMARK INTER:                  -8.748
REMARK INTRA:                  -0.976
REMARK UNBOUND:                -3.182
REMARK SMILES C[C@H]1O[C@H](OC[C@H]2O[C@H](Oc3c(-c4ccc(O)c(O)c4)oc4cc(O)cc(O)c4c3=O)[C@H](O)[C@H](O)[C@H]2O)[C@H](O)[C@H](O)[C@@H]1O
REMARK SMILES IDX 7 1 36 2 34 3 32 4 9 5 8 6 6 7 5 8 4 9 1 10 2 11 42 12 3 13
REMARK SMILES IDX 40 14 38 15 43 16 41 18 39 20 37 22 35 24 10 26 11 27 12 28
REMARK SMILES IDX 30 29 21 30 29 31 31 32 22 33 27 34 23 35 26 36 24 37 13 38
REMARK SMILES IDX 20 39 14 40 18 41 15 42 16 43 19 44 17 46 28 48 25 50 33 52
REMARK H PARENT 43 17 41 19 39 21 37 23 35 25 19 45 17 47 28 49 25 51 33 53
REMARK Flexibility Score: inf
ROOT
ATOM      1  C   UNL     1      14.573   4.560 -31.917  1.00  0.00     0.180 C 
ATOM      2  C   UNL     1      15.735   5.255 -32.672  1.00  0.00     0.177 C 
ATOM      3  C   UNL     1      15.244   5.736 -34.051  1.00  0.00     0.180 C 
ATOM      4  C   UNL     1      13.949   6.557 -33.882  1.00  0.00     0.214 C 
ATOM      5  C   UNL     1      12.913   5.807 -33.016  1.00  0.00     0.339 C 
ATOM      6  O   UNL     1      13.472   5.444 -31.764  1.00  0.00    -0.332 OA
ENDROOT
BRANCH   1   7
ATOM      7  C   UNL     1      14.998   4.075 -30.526  1.00  0.00     0.198 C 
BRANCH   7   8
ATOM      8  O   UNL     1      16.405   3.962 -30.458  1.00  0.00    -0.347 OA
BRANCH   8   9
ATOM      9  C   UNL     1      16.775   2.825 -29.695  1.00  0.00     0.281 C 
ATOM     10  C   UNL     1      16.272   0.196 -32.227  1.00  0.00     0.041 C 
ATOM     11  C   UNL     1      16.889   1.449 -31.601  1.00  0.00     0.150 C 
ATOM     12  C   UNL     1      18.431   1.309 -31.502  1.00  0.00     0.174 C 
ATOM     13  O   UNL     1      16.318   1.628 -30.313  1.00  0.00    -0.344 OA
ATOM     14  C   UNL     1      19.041   2.542 -30.811  1.00  0.00     0.179 C 
ATOM     15  C   UNL     1      18.306   2.794 -29.482  1.00  0.00     0.202 C 
BRANCH  12  16
ATOM     16  O   UNL     1      19.023   1.099 -32.762  1.00  0.00    -0.388 OA
ATOM     17  H   UNL     1      18.522   0.374 -33.218  1.00  0.00     0.211 HD
ENDBRANCH  12  16
BRANCH  14  18
ATOM     18  O   UNL     1      18.947   3.664 -31.653  1.00  0.00    -0.387 OA
ATOM     19  H   UNL     1      19.283   4.444 -31.135  1.00  0.00     0.211 HD
ENDBRANCH  14  18
BRANCH  15  20
ATOM     20  O   UNL     1      18.745   4.000 -28.911  1.00  0.00    -0.385 OA
ATOM     21  H   UNL     1      19.732   4.026 -29.018  1.00  0.00     0.211 HD
ENDBRANCH  15  20
ENDBRANCH   8   9
ENDBRANCH   7   8
ENDBRANCH   1   7
BRANCH   2  22
ATOM     22  O   UNL     1      16.202   6.360 -31.937  1.00  0.00    -0.387 OA
ATOM     23  H   UNL     1      17.188   6.395 -32.050  1.00  0.00     0.211 HD
ENDBRANCH   2  22
BRANCH   3  24
ATOM     24  O   UNL     1      15.014   4.639 -34.898  1.00  0.00    -0.387 OA
ATOM     25  H   UNL     1      14.101   4.751 -35.272  1.00  0.00     0.211 HD
ENDBRANCH   3  24
BRANCH   5  26
ATOM     26  O   UNL     1      12.395   4.657 -33.697  1.00  0.00    -0.454 OA
BRANCH  26  27
ATOM     27  C   UNL     1      11.032   4.439 -33.960  1.00  0.00     0.214 A 
ATOM     28  C   UNL     1      10.496   3.159 -34.214  1.00  0.00     0.180 A 
ATOM     29  C   UNL     1      10.169   5.543 -33.972  1.00  0.00     0.239 A 
ATOM     30  O   UNL     1       9.187   3.009 -34.364  1.00  0.00    -0.452 OA
ATOM     31  C   UNL     1       8.773   5.351 -34.121  1.00  0.00     0.111 A 
ATOM     32  O   UNL     1      10.670   6.691 -33.856  1.00  0.00    -0.285 OA
ATOM     33  C   UNL     1       8.327   4.018 -34.331  1.00  0.00     0.146 A 
ATOM     34  C   UNL     1       7.800   6.396 -34.097  1.00  0.00     0.134 A 
ATOM     35  C   UNL     1       6.974   3.746 -34.535  1.00  0.00     0.094 A 
ATOM     36  C   UNL     1       6.454   6.093 -34.349  1.00  0.00     0.093 A 
ATOM     37  C   UNL     1       6.039   4.777 -34.559  1.00  0.00     0.123 A 
BRANCH  28  38
ATOM     38  C   UNL     1      11.338   1.965 -34.387  1.00  0.00     0.025 A 
ATOM     39  C   UNL     1      10.743   0.698 -34.472  1.00  0.00     0.062 A 
ATOM     40  C   UNL     1      12.723   2.094 -34.568  1.00  0.00     0.016 A 
ATOM     41  C   UNL     1      11.531  -0.440 -34.697  1.00  0.00     0.158 A 
ATOM     42  C   UNL     1      13.508   0.962 -34.798  1.00  0.00     0.051 A 
ATOM     43  C   UNL     1      12.920  -0.306 -34.861  1.00  0.00     0.157 A 
BRANCH  41  44
ATOM     44  O   UNL     1      10.938  -1.701 -34.762  1.00  0.00    -0.504 OA
ATOM     45  H   UNL     1      10.601  -2.172 -33.929  1.00  0.00     0.293 HD
ENDBRANCH  41  44
BRANCH  43  46
ATOM     46  O   UNL     1      13.728  -1.417 -35.096  1.00  0.00    -0.504 OA
ATOM     47  H   UNL     1      14.492  -1.397 -35.759  1.00  0.00     0.293 HD
ENDBRANCH  43  46
ENDBRANCH  28  38
BRANCH  34  48
ATOM     48  O   UNL     1       8.093   7.735 -33.816  1.00  0.00    -0.507 OA
ATOM     49  H   UNL     1       7.443   8.408 -33.441  1.00  0.00     0.293 HD
ENDBRANCH  34  48
BRANCH  37  50
ATOM     50  O   UNL     1       4.695   4.485 -34.788  1.00  0.00    -0.508 OA
ATOM     51  H   UNL     1       4.397   3.570 -35.106  1.00  0.00     0.293 HD
ENDBRANCH  37  50
ENDBRANCH  26  27
ENDBRANCH   5  26
BRANCH   4  52
ATOM     52  O   UNL     1      13.414   6.945 -35.123  1.00  0.00    -0.384 OA
ATOM     53  H   UNL     1      12.452   7.151 -34.998  1.00  0.00     0.211 HD
ENDBRANCH   4  52
TORSDOF 16
ENDMDL
