MODEL 1
REMARK VINA RESULT:    -4.037      0.000      0.000
REMARK INTER + INTRA:         -16.894
REMARK INTER:                 -10.645
REMARK INTRA:                  -6.249
REMARK UNBOUND:                -6.249
REMARK SMILES CCCCCCCCCCCCCCCCCCCCCCCCCCCCCC(=O)[O-]
REMARK SMILES IDX 16 1 17 2 18 3 19 4 20 5 21 6 22 7 23 8 24 9 25 10 26 11
REMARK SMILES IDX 27 12 28 13 29 14 30 15 31 16 32 17 15 18 14 19 13 20 12 21
REMARK SMILES IDX 11 22 10 23 9 24 8 25 7 26 6 27 5 28 4 29 3 30 2 31 1 32
REMARK H PARENT
REMARK Flexibility Score: inf
ROOT
ATOM      1  C   UNL     1      13.160  13.867  14.857  1.00  0.00     0.000 C 
ENDROOT
BRANCH   1   2
ATOM      2  C   UNL     1      12.508  14.149  16.222  1.00  0.00     0.000 C 
BRANCH   2   3
ATOM      3  C   UNL     1      11.353  13.187  16.540  1.00  0.00     0.000 C 
BRANCH   3   4
ATOM      4  C   UNL     1      10.386  13.012  15.360  1.00  0.00     0.000 C 
BRANCH   4   5
ATOM      5  C   UNL     1       9.474  14.236  15.216  1.00  0.00     0.000 C 
BRANCH   5   6
ATOM      6  C   UNL     1       9.857  15.071  13.985  1.00  0.00     0.000 C 
BRANCH   6   7
ATOM      7  C   UNL     1       9.832  16.582  14.269  1.00  0.00     0.000 C 
BRANCH   7   8
ATOM      8  C   UNL     1       8.400  17.138  14.362  1.00  0.00     0.000 C 
BRANCH   8   9
ATOM      9  C   UNL     1       8.361  18.673  14.418  1.00  0.00     0.000 C 
BRANCH   9  10
ATOM     10  C   UNL     1       8.357  19.313  13.018  1.00  0.00     0.000 C 
BRANCH  10  11
ATOM     11  C   UNL     1       7.751  18.388  11.949  1.00  0.00     0.000 C 
BRANCH  11  12
ATOM     12  C   UNL     1       8.680  18.212  10.735  1.00  0.00     0.000 C 
BRANCH  12  13
ATOM     13  C   UNL     1       9.347  16.825  10.692  1.00  0.00     0.006 C 
BRANCH  13  14
ATOM     14  C   UNL     1       8.365  15.653  10.525  1.00  0.00     0.053 C 
BRANCH  14  15
ATOM     15  C   UNL     1       8.970  14.517   9.758  1.00  0.00     0.041 C 
ATOM     16  O   UNL     1       9.853  13.792  10.288  1.00  0.00    -0.550 OA
ATOM     17  O   UNL     1       8.530  14.234   8.472  1.00  0.00    -0.550 OA
ENDBRANCH  14  15
ENDBRANCH  13  14
ENDBRANCH  12  13
ENDBRANCH  11  12
ENDBRANCH  10  11
ENDBRANCH   9  10
ENDBRANCH   8   9
ENDBRANCH   7   8
ENDBRANCH   6   7
ENDBRANCH   5   6
ENDBRANCH   4   5
ENDBRANCH   3   4
ENDBRANCH   2   3
ENDBRANCH   1   2
BRANCH   1  18
ATOM     18  C   UNL     1      14.008  15.049  14.360  1.00  0.00     0.000 C 
BRANCH  18  19
ATOM     19  C   UNL     1      14.387  14.921  12.875  1.00  0.00     0.000 C 
BRANCH  19  20
ATOM     20  C   UNL     1      13.209  14.443  12.011  1.00  0.00     0.000 C 
BRANCH  20  21
ATOM     21  C   UNL     1      12.785  15.496  10.971  1.00  0.00     0.000 C 
BRANCH  21  22
ATOM     22  C   UNL     1      13.858  16.571  10.744  1.00  0.00     0.000 C 
BRANCH  22  23
ATOM     23  C   UNL     1      13.352  17.987  11.055  1.00  0.00     0.000 C 
BRANCH  23  24
ATOM     24  C   UNL     1      12.443  18.041  12.294  1.00  0.00    -0.000 C 
BRANCH  24  25
ATOM     25  C   UNL     1      12.132  19.475  12.773  1.00  0.00    -0.000 C 
BRANCH  25  26
ATOM     26  C   UNL     1      12.034  19.565  14.307  1.00  0.00    -0.000 C 
BRANCH  26  27
ATOM     27  C   UNL     1      12.794  18.435  15.016  1.00  0.00    -0.000 C 
BRANCH  27  28
ATOM     28  C   UNL     1      13.659  18.945  16.184  1.00  0.00    -0.000 C 
BRANCH  28  29
ATOM     29  C   UNL     1      15.151  19.050  15.798  1.00  0.00    -0.000 C 
BRANCH  29  30
ATOM     30  C   UNL     1      15.556  18.111  14.645  1.00  0.00    -0.000 C 
BRANCH  30  31
ATOM     31  C   UNL     1      16.181  18.822  13.432  1.00  0.00    -0.003 C 
ATOM     32  C   UNL     1      16.922  17.864  12.501  1.00  0.00     0.004 C 
ENDBRANCH  30  31
ENDBRANCH  29  30
ENDBRANCH  28  29
ENDBRANCH  27  28
ENDBRANCH  26  27
ENDBRANCH  25  26
ENDBRANCH  24  25
ENDBRANCH  23  24
ENDBRANCH  22  23
ENDBRANCH  21  22
ENDBRANCH  20  21
ENDBRANCH  19  20
ENDBRANCH  18  19
ENDBRANCH   1  18
TORSDOF 28
ENDMDL
MODEL 2
REMARK VINA RESULT:    -3.975      2.167      6.340
REMARK INTER + INTRA:         -16.730
REMARK INTER:                 -10.871
REMARK INTRA:                  -5.858
REMARK UNBOUND:                -6.249
REMARK SMILES CCCCCCCCCCCCCCCCCCCCCCCCCCCCCC(=O)[O-]
REMARK SMILES IDX 16 1 17 2 18 3 19 4 20 5 21 6 22 7 23 8 24 9 25 10 26 11
REMARK SMILES IDX 27 12 28 13 29 14 30 15 31 16 32 17 15 18 14 19 13 20 12 21
REMARK SMILES IDX 11 22 10 23 9 24 8 25 7 26 6 27 5 28 4 29 3 30 2 31 1 32
REMARK H PARENT
REMARK Flexibility Score: inf
ROOT
ATOM      1  C   UNL     1       9.505  15.549  14.213  1.00  0.00     0.000 C 
ENDROOT
BRANCH   1   2
ATOM      2  C   UNL     1       9.309  14.581  15.394  1.00  0.00     0.000 C 
BRANCH   2   3
ATOM      3  C   UNL     1      10.245  13.365  15.329  1.00  0.00     0.000 C 
BRANCH   3   4
ATOM      4  C   UNL     1      11.199  13.286  16.530  1.00  0.00     0.000 C 
BRANCH   4   5
ATOM      5  C   UNL     1      12.478  14.089  16.264  1.00  0.00     0.000 C 
BRANCH   5   6
ATOM      6  C   UNL     1      13.065  13.753  14.885  1.00  0.00     0.000 C 
BRANCH   6   7
ATOM      7  C   UNL     1      13.644  14.989  14.176  1.00  0.00     0.000 C 
BRANCH   7   8
ATOM      8  C   UNL     1      13.081  16.307  14.740  1.00  0.00     0.000 C 
BRANCH   8   9
ATOM      9  C   UNL     1      14.000  17.508  14.469  1.00  0.00     0.000 C 
BRANCH   9  10
ATOM     10  C   UNL     1      15.210  17.139  13.594  1.00  0.00     0.000 C 
BRANCH  10  11
ATOM     11  C   UNL     1      16.290  18.234  13.588  1.00  0.00     0.000 C 
BRANCH  11  12
ATOM     12  C   UNL     1      17.312  18.041  12.454  1.00  0.00     0.000 C 
BRANCH  12  13
ATOM     13  C   UNL     1      16.655  17.626  11.125  1.00  0.00     0.006 C 
BRANCH  13  14
ATOM     14  C   UNL     1      17.370  16.476  10.395  1.00  0.00     0.053 C 
BRANCH  14  15
ATOM     15  C   UNL     1      16.486  15.276  10.234  1.00  0.00     0.041 C 
ATOM     16  O   UNL     1      16.320  14.758   9.097  1.00  0.00    -0.550 OA
ATOM     17  O   UNL     1      15.877  14.707  11.344  1.00  0.00    -0.550 OA
ENDBRANCH  14  15
ENDBRANCH  13  14
ENDBRANCH  12  13
ENDBRANCH  11  12
ENDBRANCH  10  11
ENDBRANCH   9  10
ENDBRANCH   8   9
ENDBRANCH   7   8
ENDBRANCH   6   7
ENDBRANCH   5   6
ENDBRANCH   4   5
ENDBRANCH   3   4
ENDBRANCH   2   3
ENDBRANCH   1   2
BRANCH   1  18
ATOM     18  C   UNL     1       8.914  16.939  14.494  1.00  0.00     0.000 C 
BRANCH  18  19
ATOM     19  C   UNL     1       9.943  18.067  14.304  1.00  0.00     0.000 C 
BRANCH  19  20
ATOM     20  C   UNL     1       9.899  18.665  12.888  1.00  0.00     0.000 C 
BRANCH  20  21
ATOM     21  C   UNL     1      11.150  18.307  12.067  1.00  0.00     0.000 C 
BRANCH  21  22
ATOM     22  C   UNL     1      11.017  18.688  10.585  1.00  0.00     0.000 C 
BRANCH  22  23
ATOM     23  C   UNL     1      11.969  17.889   9.681  1.00  0.00     0.000 C 
BRANCH  23  24
ATOM     24  C   UNL     1      12.839  16.890  10.461  1.00  0.00    -0.000 C 
BRANCH  24  25
ATOM     25  C   UNL     1      12.740  15.441   9.938  1.00  0.00    -0.000 C 
BRANCH  25  26
ATOM     26  C   UNL     1      12.230  14.469  11.016  1.00  0.00    -0.000 C 
BRANCH  26  27
ATOM     27  C   UNL     1      10.719  14.596  11.263  1.00  0.00    -0.000 C 
BRANCH  27  28
ATOM     28  C   UNL     1       9.885  14.266  10.012  1.00  0.00    -0.000 C 
BRANCH  28  29
ATOM     29  C   UNL     1       8.949  15.428   9.614  1.00  0.00    -0.000 C 
BRANCH  29  30
ATOM     30  C   UNL     1       8.232  16.078  10.813  1.00  0.00    -0.000 C 
BRANCH  30  31
ATOM     31  C   UNL     1       7.256  17.206  10.437  1.00  0.00    -0.003 C 
ATOM     32  C   UNL     1       6.631  17.879  11.658  1.00  0.00     0.004 C 
ENDBRANCH  30  31
ENDBRANCH  29  30
ENDBRANCH  28  29
ENDBRANCH  27  28
ENDBRANCH  26  27
ENDBRANCH  25  26
ENDBRANCH  24  25
ENDBRANCH  23  24
ENDBRANCH  22  23
ENDBRANCH  21  22
ENDBRANCH  20  21
ENDBRANCH  19  20
ENDBRANCH  18  19
ENDBRANCH   1  18
TORSDOF 28
ENDMDL
MODEL 3
REMARK VINA RESULT:    -3.974      2.268      6.426
REMARK INTER + INTRA:         -16.727
REMARK INTER:                 -11.884
REMARK INTRA:                  -4.843
REMARK UNBOUND:                -6.249
REMARK SMILES CCCCCCCCCCCCCCCCCCCCCCCCCCCCCC(=O)[O-]
REMARK SMILES IDX 16 1 17 2 18 3 19 4 20 5 21 6 22 7 23 8 24 9 25 10 26 11
REMARK SMILES IDX 27 12 28 13 29 14 30 15 31 16 32 17 15 18 14 19 13 20 12 21
REMARK SMILES IDX 11 22 10 23 9 24 8 25 7 26 6 27 5 28 4 29 3 30 2 31 1 32
REMARK H PARENT
REMARK Flexibility Score: inf
ROOT
ATOM      1  C   UNL     1      10.231  13.214  15.498  1.00  0.00     0.000 C 
ENDROOT
BRANCH   1   2
ATOM      2  C   UNL     1      11.328  13.307  16.574  1.00  0.00     0.000 C 
BRANCH   2   3
ATOM      3  C   UNL     1      12.576  14.059  16.088  1.00  0.00     0.000 C 
BRANCH   3   4
ATOM      4  C   UNL     1      12.954  13.708  14.641  1.00  0.00     0.000 C 
BRANCH   4   5
ATOM      5  C   UNL     1      13.313  14.972  13.850  1.00  0.00     0.000 C 
BRANCH   5   6
ATOM      6  C   UNL     1      13.175  16.228  14.722  1.00  0.00     0.000 C 
BRANCH   6   7
ATOM      7  C   UNL     1      12.438  17.368  13.999  1.00  0.00     0.000 C 
BRANCH   7   8
ATOM      8  C   UNL     1      12.826  18.756  14.541  1.00  0.00     0.000 C 
BRANCH   8   9
ATOM      9  C   UNL     1      13.507  18.686  15.917  1.00  0.00     0.000 C 
BRANCH   9  10
ATOM     10  C   UNL     1      14.980  19.127  15.868  1.00  0.00     0.000 C 
BRANCH  10  11
ATOM     11  C   UNL     1      15.357  19.775  14.525  1.00  0.00     0.000 C 
BRANCH  11  12
ATOM     12  C   UNL     1      16.535  19.058  13.842  1.00  0.00     0.000 C 
BRANCH  12  13
ATOM     13  C   UNL     1      16.208  17.602  13.463  1.00  0.00     0.006 C 
BRANCH  13  14
ATOM     14  C   UNL     1      15.671  17.424  12.032  1.00  0.00     0.053 C 
BRANCH  14  15
ATOM     15  C   UNL     1      16.661  16.738  11.141  1.00  0.00     0.041 C 
ATOM     16  O   UNL     1      16.299  15.777  10.411  1.00  0.00    -0.550 OA
ATOM     17  O   UNL     1      17.975  17.185  11.088  1.00  0.00    -0.550 OA
ENDBRANCH  14  15
ENDBRANCH  13  14
ENDBRANCH  12  13
ENDBRANCH  11  12
ENDBRANCH  10  11
ENDBRANCH   9  10
ENDBRANCH   8   9
ENDBRANCH   7   8
ENDBRANCH   6   7
ENDBRANCH   5   6
ENDBRANCH   4   5
ENDBRANCH   3   4
ENDBRANCH   2   3
ENDBRANCH   1   2
BRANCH   1  18
ATOM     18  C   UNL     1       9.375  14.489  15.427  1.00  0.00     0.000 C 
BRANCH  18  19
ATOM     19  C   UNL     1       9.523  15.225  14.084  1.00  0.00     0.000 C 
BRANCH  19  20
ATOM     20  C   UNL     1       9.365  16.747  14.233  1.00  0.00     0.000 C 
BRANCH  20  21
ATOM     21  C   UNL     1       7.927  17.149  14.606  1.00  0.00     0.000 C 
BRANCH  21  22
ATOM     22  C   UNL     1       7.259  18.027  13.537  1.00  0.00     0.000 C 
BRANCH  22  23
ATOM     23  C   UNL     1       7.187  17.338  12.166  1.00  0.00     0.000 C 
BRANCH  23  24
ATOM     24  C   UNL     1       7.821  18.173  11.041  1.00  0.00    -0.000 C 
BRANCH  24  25
ATOM     25  C   UNL     1       9.056  18.982  11.491  1.00  0.00    -0.000 C 
BRANCH  25  26
ATOM     26  C   UNL     1      10.375  18.296  11.094  1.00  0.00    -0.000 C 
BRANCH  26  27
ATOM     27  C   UNL     1      10.155  16.933  10.422  1.00  0.00    -0.000 C 
BRANCH  27  28
ATOM     28  C   UNL     1      11.224  15.898  10.817  1.00  0.00    -0.000 C 
BRANCH  28  29
ATOM     29  C   UNL     1      10.701  14.450  10.701  1.00  0.00    -0.000 C 
BRANCH  29  30
ATOM     30  C   UNL     1      10.091  14.124   9.324  1.00  0.00    -0.000 C 
BRANCH  30  31
ATOM     31  C   UNL     1       8.633  13.638   9.370  1.00  0.00    -0.003 C 
ATOM     32  C   UNL     1       8.266  12.751   8.181  1.00  0.00     0.004 C 
ENDBRANCH  30  31
ENDBRANCH  29  30
ENDBRANCH  28  29
ENDBRANCH  27  28
ENDBRANCH  26  27
ENDBRANCH  25  26
ENDBRANCH  24  25
ENDBRANCH  23  24
ENDBRANCH  22  23
ENDBRANCH  21  22
ENDBRANCH  20  21
ENDBRANCH  19  20
ENDBRANCH  18  19
ENDBRANCH   1  18
TORSDOF 28
ENDMDL
MODEL 4
REMARK VINA RESULT:    -3.941      1.881      5.906
REMARK INTER + INTRA:         -16.640
REMARK INTER:                 -10.376
REMARK INTRA:                  -6.264
REMARK UNBOUND:                -6.249
REMARK SMILES CCCCCCCCCCCCCCCCCCCCCCCCCCCCCC(=O)[O-]
REMARK SMILES IDX 16 1 17 2 18 3 19 4 20 5 21 6 22 7 23 8 24 9 25 10 26 11
REMARK SMILES IDX 27 12 28 13 29 14 30 15 31 16 32 17 15 18 14 19 13 20 12 21
REMARK SMILES IDX 11 22 10 23 9 24 8 25 7 26 6 27 5 28 4 29 3 30 2 31 1 32
REMARK H PARENT
REMARK Flexibility Score: inf
ROOT
ATOM      1  C   UNL     1      11.712  19.516  14.188  1.00  0.00     0.000 C 
ENDROOT
BRANCH   1   2
ATOM      2  C   UNL     1      12.490  19.395  12.866  1.00  0.00     0.000 C 
BRANCH   2   3
ATOM      3  C   UNL     1      12.486  17.967  12.301  1.00  0.00     0.000 C 
BRANCH   3   4
ATOM      4  C   UNL     1      11.917  16.940  13.291  1.00  0.00     0.000 C 
BRANCH   4   5
ATOM      5  C   UNL     1      12.783  15.674  13.320  1.00  0.00     0.000 C 
BRANCH   5   6
ATOM      6  C   UNL     1      13.468  15.504  14.684  1.00  0.00     0.000 C 
BRANCH   6   7
ATOM      7  C   UNL     1      13.212  14.119  15.301  1.00  0.00     0.000 C 
BRANCH   7   8
ATOM      8  C   UNL     1      12.567  14.210  16.697  1.00  0.00     0.000 C 
BRANCH   8   9
ATOM      9  C   UNL     1      11.260  13.408  16.799  1.00  0.00     0.000 C 
BRANCH   9  10
ATOM     10  C   UNL     1      10.939  12.636  15.508  1.00  0.00     0.000 C 
BRANCH  10  11
ATOM     11  C   UNL     1       9.838  13.313  14.675  1.00  0.00     0.000 C 
BRANCH  11  12
ATOM     12  C   UNL     1       9.287  14.579  15.355  1.00  0.00     0.000 C 
BRANCH  12  13
ATOM     13  C   UNL     1       9.012  15.719  14.357  1.00  0.00     0.006 C 
BRANCH  13  14
ATOM     14  C   UNL     1       8.579  17.043  15.010  1.00  0.00     0.053 C 
BRANCH  14  15
ATOM     15  C   UNL     1       8.069  18.027  14.001  1.00  0.00     0.041 C 
ATOM     16  O   UNL     1       7.152  18.835  14.309  1.00  0.00    -0.550 OA
ATOM     17  O   UNL     1       8.633  18.079  12.733  1.00  0.00    -0.550 OA
ENDBRANCH  14  15
ENDBRANCH  13  14
ENDBRANCH  12  13
ENDBRANCH  11  12
ENDBRANCH  10  11
ENDBRANCH   9  10
ENDBRANCH   8   9
ENDBRANCH   7   8
ENDBRANCH   6   7
ENDBRANCH   5   6
ENDBRANCH   4   5
ENDBRANCH   3   4
ENDBRANCH   2   3
ENDBRANCH   1   2
BRANCH   1  18
ATOM     18  C   UNL     1      12.576  20.087  15.323  1.00  0.00     0.000 C 
BRANCH  18  19
ATOM     19  C   UNL     1      13.282  18.989  16.138  1.00  0.00     0.000 C 
BRANCH  19  20
ATOM     20  C   UNL     1      14.811  19.145  16.127  1.00  0.00     0.000 C 
BRANCH  20  21
ATOM     21  C   UNL     1      15.466  18.379  14.964  1.00  0.00     0.000 C 
BRANCH  21  22
ATOM     22  C   UNL     1      16.061  19.311  13.898  1.00  0.00     0.000 C 
BRANCH  22  23
ATOM     23  C   UNL     1      16.385  18.580  12.587  1.00  0.00     0.000 C 
BRANCH  23  24
ATOM     24  C   UNL     1      16.125  17.065  12.664  1.00  0.00    -0.000 C 
BRANCH  24  25
ATOM     25  C   UNL     1      16.253  16.344  11.305  1.00  0.00    -0.000 C 
BRANCH  25  26
ATOM     26  C   UNL     1      15.236  16.865  10.274  1.00  0.00    -0.000 C 
BRANCH  26  27
ATOM     27  C   UNL     1      14.175  15.817   9.906  1.00  0.00    -0.000 C 
BRANCH  27  28
ATOM     28  C   UNL     1      13.113  16.365   8.936  1.00  0.00    -0.000 C 
BRANCH  28  29
ATOM     29  C   UNL     1      11.688  15.909   9.318  1.00  0.00    -0.000 C 
BRANCH  29  30
ATOM     30  C   UNL     1      11.654  14.573  10.085  1.00  0.00    -0.000 C 
BRANCH  30  31
ATOM     31  C   UNL     1      10.368  14.333  10.894  1.00  0.00    -0.003 C 
ATOM     32  C   UNL     1       9.281  15.365  10.598  1.00  0.00     0.004 C 
ENDBRANCH  30  31
ENDBRANCH  29  30
ENDBRANCH  28  29
ENDBRANCH  27  28
ENDBRANCH  26  27
ENDBRANCH  25  26
ENDBRANCH  24  25
ENDBRANCH  23  24
ENDBRANCH  22  23
ENDBRANCH  21  22
ENDBRANCH  20  21
ENDBRANCH  19  20
ENDBRANCH  18  19
ENDBRANCH   1  18
TORSDOF 28
ENDMDL
MODEL 5
REMARK VINA RESULT:    -3.924      2.158      5.616
REMARK INTER + INTRA:         -16.596
REMARK INTER:                 -10.235
REMARK INTRA:                  -6.361
REMARK UNBOUND:                -6.249
REMARK SMILES CCCCCCCCCCCCCCCCCCCCCCCCCCCCCC(=O)[O-]
REMARK SMILES IDX 16 1 17 2 18 3 19 4 20 5 21 6 22 7 23 8 24 9 25 10 26 11
REMARK SMILES IDX 27 12 28 13 29 14 30 15 31 16 32 17 15 18 14 19 13 20 12 21
REMARK SMILES IDX 11 22 10 23 9 24 8 25 7 26 6 27 5 28 4 29 3 30 2 31 1 32
REMARK H PARENT
REMARK Flexibility Score: inf
ROOT
ATOM      1  C   UNL     1      11.453  15.419  11.914  1.00  0.00     0.000 C 
ENDROOT
BRANCH   1   2
ATOM      2  C   UNL     1      10.594  14.551  12.852  1.00  0.00     0.000 C 
BRANCH   2   3
ATOM      3  C   UNL     1       9.861  15.376  13.921  1.00  0.00     0.000 C 
BRANCH   3   4
ATOM      4  C   UNL     1       9.464  14.539  15.146  1.00  0.00     0.000 C 
BRANCH   4   5
ATOM      5  C   UNL     1      10.324  13.273  15.242  1.00  0.00     0.000 C 
BRANCH   5   6
ATOM      6  C   UNL     1      11.185  13.285  16.514  1.00  0.00     0.000 C 
BRANCH   6   7
ATOM      7  C   UNL     1      12.449  14.147  16.360  1.00  0.00     0.000 C 
BRANCH   7   8
ATOM      8  C   UNL     1      13.270  13.767  15.115  1.00  0.00     0.000 C 
BRANCH   8   9
ATOM      9  C   UNL     1      13.802  14.994  14.358  1.00  0.00     0.000 C 
BRANCH   9  10
ATOM     10  C   UNL     1      13.229  16.315  14.901  1.00  0.00     0.000 C 
BRANCH  10  11
ATOM     11  C   UNL     1      14.092  17.531  14.523  1.00  0.00     0.000 C 
BRANCH  11  12
ATOM     12  C   UNL     1      13.831  18.006  13.083  1.00  0.00     0.000 C 
BRANCH  12  13
ATOM     13  C   UNL     1      15.129  18.207  12.278  1.00  0.00     0.006 C 
BRANCH  13  14
ATOM     14  C   UNL     1      16.126  17.041  12.381  1.00  0.00     0.053 C 
BRANCH  14  15
ATOM     15  C   UNL     1      16.030  16.113  11.209  1.00  0.00     0.041 C 
ATOM     16  O   UNL     1      16.427  16.483  10.072  1.00  0.00    -0.550 OA
ATOM     17  O   UNL     1      15.539  14.826  11.380  1.00  0.00    -0.550 OA
ENDBRANCH  14  15
ENDBRANCH  13  14
ENDBRANCH  12  13
ENDBRANCH  11  12
ENDBRANCH  10  11
ENDBRANCH   9  10
ENDBRANCH   8   9
ENDBRANCH   7   8
ENDBRANCH   6   7
ENDBRANCH   5   6
ENDBRANCH   4   5
ENDBRANCH   3   4
ENDBRANCH   2   3
ENDBRANCH   1   2
BRANCH   1  18
ATOM     18  C   UNL     1      12.012  14.618  10.728  1.00  0.00     0.000 C 
BRANCH  18  19
ATOM     19  C   UNL     1      12.281  15.499   9.495  1.00  0.00     0.000 C 
BRANCH  19  20
ATOM     20  C   UNL     1      11.471  15.049   8.268  1.00  0.00     0.000 C 
BRANCH  20  21
ATOM     21  C   UNL     1      10.299  14.127   8.651  1.00  0.00     0.000 C 
BRANCH  21  22
ATOM     22  C   UNL     1       8.950  14.860   8.674  1.00  0.00     0.000 C 
BRANCH  22  23
ATOM     23  C   UNL     1       8.296  14.854  10.064  1.00  0.00     0.000 C 
BRANCH  23  24
ATOM     24  C   UNL     1       8.098  16.266  10.641  1.00  0.00    -0.000 C 
BRANCH  24  25
ATOM     25  C   UNL     1       8.916  17.353   9.913  1.00  0.00    -0.000 C 
BRANCH  25  26
ATOM     26  C   UNL     1       9.079  18.625  10.765  1.00  0.00    -0.000 C 
BRANCH  26  27
ATOM     27  C   UNL     1      10.383  18.633  11.575  1.00  0.00    -0.000 C 
BRANCH  27  28
ATOM     28  C   UNL     1      10.341  19.619  12.756  1.00  0.00    -0.000 C 
BRANCH  28  29
ATOM     29  C   UNL     1      10.523  18.906  14.114  1.00  0.00    -0.000 C 
BRANCH  29  30
ATOM     30  C   UNL     1       9.277  18.978  15.019  1.00  0.00    -0.000 C 
BRANCH  30  31
ATOM     31  C   UNL     1       7.950  19.170  14.264  1.00  0.00    -0.003 C 
ATOM     32  C   UNL     1       7.252  17.848  13.949  1.00  0.00     0.004 C 
ENDBRANCH  30  31
ENDBRANCH  29  30
ENDBRANCH  28  29
ENDBRANCH  27  28
ENDBRANCH  26  27
ENDBRANCH  25  26
ENDBRANCH  24  25
ENDBRANCH  23  24
ENDBRANCH  22  23
ENDBRANCH  21  22
ENDBRANCH  20  21
ENDBRANCH  19  20
ENDBRANCH  18  19
ENDBRANCH   1  18
TORSDOF 28
ENDMDL
MODEL 6
REMARK VINA RESULT:    -3.915      2.132      6.194
REMARK INTER + INTRA:         -16.574
REMARK INTER:                 -10.474
REMARK INTRA:                  -6.100
REMARK UNBOUND:                -6.249
REMARK SMILES CCCCCCCCCCCCCCCCCCCCCCCCCCCCCC(=O)[O-]
REMARK SMILES IDX 16 1 17 2 18 3 19 4 20 5 21 6 22 7 23 8 24 9 25 10 26 11
REMARK SMILES IDX 27 12 28 13 29 14 30 15 31 16 32 17 15 18 14 19 13 20 12 21
REMARK SMILES IDX 11 22 10 23 9 24 8 25 7 26 6 27 5 28 4 29 3 30 2 31 1 32
REMARK H PARENT
REMARK Flexibility Score: inf
ROOT
ATOM      1  C   UNL     1      13.299  14.054  15.058  1.00  0.00     0.000 C 
ENDROOT
BRANCH   1   2
ATOM      2  C   UNL     1      13.633  15.328  14.261  1.00  0.00     0.000 C 
BRANCH   2   3
ATOM      3  C   UNL     1      12.637  16.469  14.517  1.00  0.00     0.000 C 
BRANCH   3   4
ATOM      4  C   UNL     1      12.373  17.318  13.265  1.00  0.00     0.000 C 
BRANCH   4   5
ATOM      5  C   UNL     1      12.066  18.771  13.647  1.00  0.00     0.000 C 
BRANCH   5   6
ATOM      6  C   UNL     1      12.192  18.983  15.163  1.00  0.00     0.000 C 
BRANCH   6   7
ATOM      7  C   UNL     1      13.343  19.934  15.530  1.00  0.00     0.000 C 
BRANCH   7   8
ATOM      8  C   UNL     1      14.489  19.212  16.264  1.00  0.00     0.000 C 
BRANCH   8   9
ATOM      9  C   UNL     1      15.491  18.557  15.301  1.00  0.00     0.000 C 
BRANCH   9  10
ATOM     10  C   UNL     1      15.867  19.477  14.126  1.00  0.00     0.000 C 
BRANCH  10  11
ATOM     11  C   UNL     1      15.741  18.774  12.764  1.00  0.00     0.000 C 
BRANCH  11  12
ATOM     12  C   UNL     1      16.396  17.381  12.764  1.00  0.00     0.000 C 
BRANCH  12  13
ATOM     13  C   UNL     1      15.860  16.471  11.643  1.00  0.00     0.006 C 
BRANCH  13  14
ATOM     14  C   UNL     1      14.933  17.179  10.640  1.00  0.00     0.053 C 
BRANCH  14  15
ATOM     15  C   UNL     1      15.458  17.102   9.238  1.00  0.00     0.041 C 
ATOM     16  O   UNL     1      16.693  16.959   9.029  1.00  0.00    -0.550 OA
ATOM     17  O   UNL     1      14.580  17.148   8.164  1.00  0.00    -0.550 OA
ENDBRANCH  14  15
ENDBRANCH  13  14
ENDBRANCH  12  13
ENDBRANCH  11  12
ENDBRANCH  10  11
ENDBRANCH   9  10
ENDBRANCH   8   9
ENDBRANCH   7   8
ENDBRANCH   6   7
ENDBRANCH   5   6
ENDBRANCH   4   5
ENDBRANCH   3   4
ENDBRANCH   2   3
ENDBRANCH   1   2
BRANCH   1  18
ATOM     18  C   UNL     1      12.256  13.178  14.345  1.00  0.00     0.000 C 
BRANCH  18  19
ATOM     19  C   UNL     1      11.183  12.638  15.306  1.00  0.00     0.000 C 
BRANCH  19  20
ATOM     20  C   UNL     1      10.280  13.753  15.858  1.00  0.00     0.000 C 
BRANCH  20  21
ATOM     21  C   UNL     1       9.595  14.556  14.737  1.00  0.00     0.000 C 
BRANCH  21  22
ATOM     22  C   UNL     1       8.795  15.754  15.269  1.00  0.00     0.000 C 
BRANCH  22  23
ATOM     23  C   UNL     1       8.736  16.917  14.267  1.00  0.00     0.000 C 
BRANCH  23  24
ATOM     24  C   UNL     1       8.990  16.473  12.816  1.00  0.00    -0.000 C 
BRANCH  24  25
ATOM     25  C   UNL     1       7.807  16.753  11.866  1.00  0.00    -0.000 C 
BRANCH  25  26
ATOM     26  C   UNL     1       7.906  15.942  10.562  1.00  0.00    -0.000 C 
BRANCH  26  27
ATOM     27  C   UNL     1       8.940  14.809  10.646  1.00  0.00    -0.000 C 
BRANCH  27  28
ATOM     28  C   UNL     1       9.459  14.377   9.263  1.00  0.00    -0.000 C 
BRANCH  28  29
ATOM     29  C   UNL     1      10.835  15.000   8.938  1.00  0.00    -0.000 C 
BRANCH  29  30
ATOM     30  C   UNL     1      11.604  15.477  10.186  1.00  0.00    -0.000 C 
BRANCH  30  31
ATOM     31  C   UNL     1      12.531  14.419  10.807  1.00  0.00    -0.003 C 
ATOM     32  C   UNL     1      13.487  13.799   9.789  1.00  0.00     0.004 C 
ENDBRANCH  30  31
ENDBRANCH  29  30
ENDBRANCH  28  29
ENDBRANCH  27  28
ENDBRANCH  26  27
ENDBRANCH  25  26
ENDBRANCH  24  25
ENDBRANCH  23  24
ENDBRANCH  22  23
ENDBRANCH  21  22
ENDBRANCH  20  21
ENDBRANCH  19  20
ENDBRANCH  18  19
ENDBRANCH   1  18
TORSDOF 28
ENDMDL
MODEL 7
REMARK VINA RESULT:    -3.887      2.153      6.117
REMARK INTER + INTRA:         -16.500
REMARK INTER:                 -11.161
REMARK INTRA:                  -5.338
REMARK UNBOUND:                -6.249
REMARK SMILES CCCCCCCCCCCCCCCCCCCCCCCCCCCCCC(=O)[O-]
REMARK SMILES IDX 16 1 17 2 18 3 19 4 20 5 21 6 22 7 23 8 24 9 25 10 26 11
REMARK SMILES IDX 27 12 28 13 29 14 30 15 31 16 32 17 15 18 14 19 13 20 12 21
REMARK SMILES IDX 11 22 10 23 9 24 8 25 7 26 6 27 5 28 4 29 3 30 2 31 1 32
REMARK H PARENT
REMARK Flexibility Score: inf
ROOT
ATOM      1  C   UNL     1       9.899  13.510  14.529  1.00  0.00     0.000 C 
ENDROOT
BRANCH   1   2
ATOM      2  C   UNL     1      10.802  12.623  15.404  1.00  0.00     0.000 C 
BRANCH   2   3
ATOM      3  C   UNL     1      11.357  13.365  16.630  1.00  0.00     0.000 C 
BRANCH   3   4
ATOM      4  C   UNL     1      12.608  14.194  16.305  1.00  0.00     0.000 C 
BRANCH   4   5
ATOM      5  C   UNL     1      13.232  13.740  14.980  1.00  0.00     0.000 C 
BRANCH   5   6
ATOM      6  C   UNL     1      13.771  14.937  14.183  1.00  0.00     0.000 C 
BRANCH   6   7
ATOM      7  C   UNL     1      12.724  15.521  13.220  1.00  0.00     0.000 C 
BRANCH   7   8
ATOM      8  C   UNL     1      12.436  17.008  13.498  1.00  0.00     0.000 C 
BRANCH   8   9
ATOM      9  C   UNL     1      12.752  17.414  14.945  1.00  0.00     0.000 C 
BRANCH   9  10
ATOM     10  C   UNL     1      12.979  18.928  15.096  1.00  0.00     0.000 C 
BRANCH  10  11
ATOM     11  C   UNL     1      14.424  19.271  15.497  1.00  0.00     0.000 C 
BRANCH  11  12
ATOM     12  C   UNL     1      15.436  18.241  14.966  1.00  0.00     0.000 C 
BRANCH  12  13
ATOM     13  C   UNL     1      15.943  18.578  13.551  1.00  0.00     0.006 C 
BRANCH  13  14
ATOM     14  C   UNL     1      16.692  17.429  12.854  1.00  0.00     0.053 C 
BRANCH  14  15
ATOM     15  C   UNL     1      16.117  17.120  11.505  1.00  0.00     0.041 C 
ATOM     16  O   UNL     1      16.746  16.382  10.701  1.00  0.00    -0.550 OA
ATOM     17  O   UNL     1      14.870  17.617  11.151  1.00  0.00    -0.550 OA
ENDBRANCH  14  15
ENDBRANCH  13  14
ENDBRANCH  12  13
ENDBRANCH  11  12
ENDBRANCH  10  11
ENDBRANCH   9  10
ENDBRANCH   8   9
ENDBRANCH   7   8
ENDBRANCH   6   7
ENDBRANCH   5   6
ENDBRANCH   4   5
ENDBRANCH   3   4
ENDBRANCH   2   3
ENDBRANCH   1   2
BRANCH   1  18
ATOM     18  C   UNL     1       9.384  14.744  15.286  1.00  0.00     0.000 C 
BRANCH  18  19
ATOM     19  C   UNL     1       9.072  15.924  14.349  1.00  0.00     0.000 C 
BRANCH  19  20
ATOM     20  C   UNL     1       8.308  17.051  15.064  1.00  0.00     0.000 C 
BRANCH  20  21
ATOM     21  C   UNL     1       8.906  18.437  14.766  1.00  0.00     0.000 C 
BRANCH  21  22
ATOM     22  C   UNL     1       9.264  18.624  13.284  1.00  0.00     0.000 C 
BRANCH  22  23
ATOM     23  C   UNL     1       8.482  19.770  12.626  1.00  0.00     0.000 C 
BRANCH  23  24
ATOM     24  C   UNL     1       7.575  19.296  11.477  1.00  0.00    -0.000 C 
BRANCH  24  25
ATOM     25  C   UNL     1       6.736  18.049  11.824  1.00  0.00    -0.000 C 
BRANCH  25  26
ATOM     26  C   UNL     1       7.142  16.825  10.983  1.00  0.00    -0.000 C 
BRANCH  26  27
ATOM     27  C   UNL     1       7.923  17.209   9.717  1.00  0.00    -0.000 C 
BRANCH  27  28
ATOM     28  C   UNL     1       9.295  16.517   9.636  1.00  0.00    -0.000 C 
BRANCH  28  29
ATOM     29  C   UNL     1       9.616  15.710  10.914  1.00  0.00    -0.000 C 
BRANCH  29  30
ATOM     30  C   UNL     1      10.227  14.324  10.629  1.00  0.00    -0.000 C 
BRANCH  30  31
ATOM     31  C   UNL     1      11.139  14.271   9.392  1.00  0.00    -0.003 C 
ATOM     32  C   UNL     1      12.624  14.256   9.751  1.00  0.00     0.004 C 
ENDBRANCH  30  31
ENDBRANCH  29  30
ENDBRANCH  28  29
ENDBRANCH  27  28
ENDBRANCH  26  27
ENDBRANCH  25  26
ENDBRANCH  24  25
ENDBRANCH  23  24
ENDBRANCH  22  23
ENDBRANCH  21  22
ENDBRANCH  20  21
ENDBRANCH  19  20
ENDBRANCH  18  19
ENDBRANCH   1  18
TORSDOF 28
ENDMDL
MODEL 8
REMARK VINA RESULT:    -3.878      2.184      5.838
REMARK INTER + INTRA:         -16.475
REMARK INTER:                 -10.707
REMARK INTRA:                  -5.768
REMARK UNBOUND:                -6.249
REMARK SMILES CCCCCCCCCCCCCCCCCCCCCCCCCCCCCC(=O)[O-]
REMARK SMILES IDX 16 1 17 2 18 3 19 4 20 5 21 6 22 7 23 8 24 9 25 10 26 11
REMARK SMILES IDX 27 12 28 13 29 14 30 15 31 16 32 17 15 18 14 19 13 20 12 21
REMARK SMILES IDX 11 22 10 23 9 24 8 25 7 26 6 27 5 28 4 29 3 30 2 31 1 32
REMARK H PARENT
REMARK Flexibility Score: inf
ROOT
ATOM      1  C   UNL     1      10.259  13.235  15.295  1.00  0.00     0.000 C 
ENDROOT
BRANCH   1   2
ATOM      2  C   UNL     1      11.210  13.200  16.505  1.00  0.00     0.000 C 
BRANCH   2   3
ATOM      3  C   UNL     1      12.443  14.098  16.318  1.00  0.00     0.000 C 
BRANCH   3   4
ATOM      4  C   UNL     1      13.174  13.834  14.993  1.00  0.00     0.000 C 
BRANCH   4   5
ATOM      5  C   UNL     1      13.588  15.152  14.328  1.00  0.00     0.000 C 
BRANCH   5   6
ATOM      6  C   UNL     1      12.888  16.349  14.988  1.00  0.00     0.000 C 
BRANCH   6   7
ATOM      7  C   UNL     1      13.622  17.675  14.728  1.00  0.00     0.000 C 
BRANCH   7   8
ATOM      8  C   UNL     1      12.832  18.893  15.242  1.00  0.00     0.000 C 
BRANCH   8   9
ATOM      9  C   UNL     1      11.927  19.511  14.165  1.00  0.00     0.000 C 
BRANCH   9  10
ATOM     10  C   UNL     1      12.391  19.168  12.739  1.00  0.00     0.000 C 
BRANCH  10  11
ATOM     11  C   UNL     1      11.303  18.449  11.923  1.00  0.00     0.000 C 
BRANCH  11  12
ATOM     12  C   UNL     1      11.897  17.486  10.880  1.00  0.00     0.000 C 
BRANCH  12  13
ATOM     13  C   UNL     1      13.417  17.296  11.042  1.00  0.00     0.006 C 
BRANCH  13  14
ATOM     14  C   UNL     1      13.899  15.847  10.856  1.00  0.00     0.053 C 
BRANCH  14  15
ATOM     15  C   UNL     1      15.372  15.710  11.090  1.00  0.00     0.041 C 
ATOM     16  O   UNL     1      16.050  14.895  10.409  1.00  0.00    -0.550 OA
ATOM     17  O   UNL     1      16.004  16.509  12.034  1.00  0.00    -0.550 OA
ENDBRANCH  14  15
ENDBRANCH  13  14
ENDBRANCH  12  13
ENDBRANCH  11  12
ENDBRANCH  10  11
ENDBRANCH   9  10
ENDBRANCH   8   9
ENDBRANCH   7   8
ENDBRANCH   6   7
ENDBRANCH   5   6
ENDBRANCH   4   5
ENDBRANCH   3   4
ENDBRANCH   2   3
ENDBRANCH   1   2
BRANCH   1  18
ATOM     18  C   UNL     1       9.551  14.592  15.150  1.00  0.00     0.000 C 
BRANCH  18  19
ATOM     19  C   UNL     1       9.843  15.269  13.801  1.00  0.00     0.000 C 
BRANCH  19  20
ATOM     20  C   UNL     1       8.876  16.428  13.507  1.00  0.00     0.000 C 
BRANCH  20  21
ATOM     21  C   UNL     1       8.321  17.062  14.795  1.00  0.00     0.000 C 
BRANCH  21  22
ATOM     22  C   UNL     1       8.484  18.589  14.823  1.00  0.00     0.000 C 
BRANCH  22  23
ATOM     23  C   UNL     1       7.984  19.261  13.536  1.00  0.00     0.000 C 
BRANCH  23  24
ATOM     24  C   UNL     1       6.450  19.340  13.456  1.00  0.00    -0.000 C 
BRANCH  24  25
ATOM     25  C   UNL     1       5.858  18.657  12.205  1.00  0.00    -0.000 C 
BRANCH  25  26
ATOM     26  C   UNL     1       6.754  18.840  10.966  1.00  0.00    -0.000 C 
BRANCH  26  27
ATOM     27  C   UNL     1       7.191  17.503  10.349  1.00  0.00    -0.000 C 
BRANCH  27  28
ATOM     28  C   UNL     1       8.369  17.660   9.371  1.00  0.00    -0.000 C 
BRANCH  28  29
ATOM     29  C   UNL     1       8.918  16.295   8.900  1.00  0.00    -0.000 C 
BRANCH  29  30
ATOM     30  C   UNL     1       8.638  15.145   9.887  1.00  0.00    -0.000 C 
BRANCH  30  31
ATOM     31  C   UNL     1       9.897  14.443  10.423  1.00  0.00    -0.003 C 
ATOM     32  C   UNL     1      10.926  14.158   9.330  1.00  0.00     0.004 C 
ENDBRANCH  30  31
ENDBRANCH  29  30
ENDBRANCH  28  29
ENDBRANCH  27  28
ENDBRANCH  26  27
ENDBRANCH  25  26
ENDBRANCH  24  25
ENDBRANCH  23  24
ENDBRANCH  22  23
ENDBRANCH  21  22
ENDBRANCH  20  21
ENDBRANCH  19  20
ENDBRANCH  18  19
ENDBRANCH   1  18
TORSDOF 28
ENDMDL
MODEL 9
REMARK VINA RESULT:    -3.874      2.880      6.402
REMARK INTER + INTRA:         -16.465
REMARK INTER:                 -10.198
REMARK INTRA:                  -6.266
REMARK UNBOUND:                -6.249
REMARK SMILES CCCCCCCCCCCCCCCCCCCCCCCCCCCCCC(=O)[O-]
REMARK SMILES IDX 16 1 17 2 18 3 19 4 20 5 21 6 22 7 23 8 24 9 25 10 26 11
REMARK SMILES IDX 27 12 28 13 29 14 30 15 31 16 32 17 15 18 14 19 13 20 12 21
REMARK SMILES IDX 11 22 10 23 9 24 8 25 7 26 6 27 5 28 4 29 3 30 2 31 1 32
REMARK H PARENT
REMARK Flexibility Score: inf
ROOT
ATOM      1  C   UNL     1      10.247  13.313  15.344  1.00  0.00     0.000 C 
ENDROOT
BRANCH   1   2
ATOM      2  C   UNL     1      11.233  13.338  16.525  1.00  0.00     0.000 C 
BRANCH   2   3
ATOM      3  C   UNL     1      12.516  14.123  16.212  1.00  0.00     0.000 C 
BRANCH   3   4
ATOM      4  C   UNL     1      13.065  13.827  14.809  1.00  0.00     0.000 C 
BRANCH   4   5
ATOM      5  C   UNL     1      13.605  15.105  14.155  1.00  0.00     0.000 C 
BRANCH   5   6
ATOM      6  C   UNL     1      13.242  16.346  14.983  1.00  0.00     0.000 C 
BRANCH   6   7
ATOM      7  C   UNL     1      14.106  17.566  14.623  1.00  0.00     0.000 C 
BRANCH   7   8
ATOM      8  C   UNL     1      15.109  17.263  13.495  1.00  0.00     0.000 C 
BRANCH   8   9
ATOM      9  C   UNL     1      15.185  18.387  12.451  1.00  0.00     0.000 C 
BRANCH   9  10
ATOM     10  C   UNL     1      15.097  17.858  11.009  1.00  0.00     0.000 C 
BRANCH  10  11
ATOM     11  C   UNL     1      14.284  16.556  10.907  1.00  0.00     0.000 C 
BRANCH  11  12
ATOM     12  C   UNL     1      15.001  15.484  10.068  1.00  0.00     0.000 C 
BRANCH  12  13
ATOM     13  C   UNL     1      16.240  14.904  10.775  1.00  0.00     0.006 C 
BRANCH  13  14
ATOM     14  C   UNL     1      17.448  14.674   9.851  1.00  0.00     0.053 C 
BRANCH  14  15
ATOM     15  C   UNL     1      18.523  15.696  10.065  1.00  0.00     0.041 C 
ATOM     16  O   UNL     1      19.655  15.347  10.492  1.00  0.00    -0.550 OA
ATOM     17  O   UNL     1      18.286  17.029   9.756  1.00  0.00    -0.550 OA
ENDBRANCH  14  15
ENDBRANCH  13  14
ENDBRANCH  12  13
ENDBRANCH  11  12
ENDBRANCH  10  11
ENDBRANCH   9  10
ENDBRANCH   8   9
ENDBRANCH   7   8
ENDBRANCH   6   7
ENDBRANCH   5   6
ENDBRANCH   4   5
ENDBRANCH   3   4
ENDBRANCH   2   3
ENDBRANCH   1   2
BRANCH   1  18
ATOM     18  C   UNL     1       9.414  14.601  15.252  1.00  0.00     0.000 C 
BRANCH  18  19
ATOM     19  C   UNL     1       9.776  15.453  14.024  1.00  0.00     0.000 C 
BRANCH  19  20
ATOM     20  C   UNL     1       9.224  16.884  14.122  1.00  0.00     0.000 C 
BRANCH  20  21
ATOM     21  C   UNL     1      10.197  17.924  13.539  1.00  0.00     0.000 C 
BRANCH  21  22
ATOM     22  C   UNL     1      11.034  17.369  12.378  1.00  0.00     0.000 C 
BRANCH  22  23
ATOM     23  C   UNL     1      11.130  18.347  11.197  1.00  0.00     0.000 C 
BRANCH  23  24
ATOM     24  C   UNL     1       9.771  18.954  10.809  1.00  0.00    -0.000 C 
BRANCH  24  25
ATOM     25  C   UNL     1       9.377  18.702   9.338  1.00  0.00    -0.000 C 
BRANCH  25  26
ATOM     26  C   UNL     1       8.284  17.626   9.207  1.00  0.00    -0.000 C 
BRANCH  26  27
ATOM     27  C   UNL     1       7.677  17.231  10.561  1.00  0.00    -0.000 C 
BRANCH  27  28
ATOM     28  C   UNL     1       7.899  15.746  10.899  1.00  0.00    -0.000 C 
BRANCH  28  29
ATOM     29  C   UNL     1       8.718  15.019   9.810  1.00  0.00    -0.000 C 
BRANCH  29  30
ATOM     30  C   UNL     1       9.845  14.133  10.376  1.00  0.00    -0.000 C 
BRANCH  30  31
ATOM     31  C   UNL     1      11.266  14.637  10.072  1.00  0.00    -0.003 C 
ATOM     32  C   UNL     1      11.340  15.461   8.788  1.00  0.00     0.004 C 
ENDBRANCH  30  31
ENDBRANCH  29  30
ENDBRANCH  28  29
ENDBRANCH  27  28
ENDBRANCH  26  27
ENDBRANCH  25  26
ENDBRANCH  24  25
ENDBRANCH  23  24
ENDBRANCH  22  23
ENDBRANCH  21  22
ENDBRANCH  20  21
ENDBRANCH  19  20
ENDBRANCH  18  19
ENDBRANCH   1  18
TORSDOF 28
ENDMDL
