MODEL 1
REMARK VINA RESULT:    -1.975      0.000      0.000
REMARK INTER + INTRA:          -4.051
REMARK INTER:                  -3.823
REMARK INTRA:                  -0.228
REMARK UNBOUND:                -0.228
REMARK SMILES CCCCCCCCCCCCCCCCCC(=O)[O-]
REMARK SMILES IDX 10 1 11 2 12 3 13 4 14 5 15 6 16 7 17 8 18 9 19 10 20 11
REMARK SMILES IDX 9 12 8 13 7 14 6 15 5 16 4 17 3 18 2 19 1 20
REMARK H PARENT
REMARK Flexibility Score: inf
ROOT
ATOM      1  C   UNL     1     -17.112  -1.739  -2.100  1.00  0.00     0.000 C 
ENDROOT
BRANCH   1   2
ATOM      2  C   UNL     1     -16.857  -3.038  -2.884  1.00  0.00     0.000 C 
BRANCH   2   3
ATOM      3  C   UNL     1     -16.488  -4.218  -1.968  1.00  0.00     0.000 C 
BRANCH   3   4
ATOM      4  C   UNL     1     -15.336  -5.071  -2.530  1.00  0.00     0.000 C 
BRANCH   4   5
ATOM      5  C   UNL     1     -13.966  -4.365  -2.589  1.00  0.00     0.000 C 
BRANCH   5   6
ATOM      6  C   UNL     1     -12.988  -4.917  -3.645  1.00  0.00     0.000 C 
BRANCH   6   7
ATOM      7  C   UNL     1     -13.580  -5.077  -5.057  1.00  0.00     0.006 C 
BRANCH   7   8
ATOM      8  C   UNL     1     -14.082  -3.751  -5.645  1.00  0.00     0.053 C 
BRANCH   8   9
ATOM      9  C   UNL     1     -15.335  -3.971  -6.432  1.00  0.00     0.041 C 
ATOM     10  O   UNL     1     -16.023  -5.009  -6.251  1.00  0.00    -0.550 OA
ATOM     11  O   UNL     1     -15.716  -3.051  -7.401  1.00  0.00    -0.550 OA
ENDBRANCH   8   9
ENDBRANCH   7   8
ENDBRANCH   6   7
ENDBRANCH   5   6
ENDBRANCH   4   5
ENDBRANCH   3   4
ENDBRANCH   2   3
ENDBRANCH   1   2
BRANCH   1  12
ATOM     12  C   UNL     1     -16.769  -0.480  -2.916  1.00  0.00     0.000 C 
BRANCH  12  13
ATOM     13  C   UNL     1     -17.077   0.819  -2.151  1.00  0.00    -0.000 C 
BRANCH  13  14
ATOM     14  C   UNL     1     -17.057   0.623  -0.625  1.00  0.00    -0.000 C 
BRANCH  14  15
ATOM     15  C   UNL     1     -15.906  -0.285  -0.153  1.00  0.00    -0.000 C 
BRANCH  15  16
ATOM     16  C   UNL     1     -16.266  -1.252   0.990  1.00  0.00    -0.000 C 
BRANCH  16  17
ATOM     17  C   UNL     1     -15.740  -0.781   2.358  1.00  0.00    -0.000 C 
BRANCH  17  18
ATOM     18  C   UNL     1     -16.866  -0.566   3.380  1.00  0.00    -0.000 C 
BRANCH  18  19
ATOM     19  C   UNL     1     -17.103   0.919   3.693  1.00  0.00    -0.003 C 
ATOM     20  C   UNL     1     -16.592   1.276   5.086  1.00  0.00     0.004 C 
ENDBRANCH  18  19
ENDBRANCH  17  18
ENDBRANCH  16  17
ENDBRANCH  15  16
ENDBRANCH  14  15
ENDBRANCH  13  14
ENDBRANCH  12  13
ENDBRANCH   1  12
TORSDOF 16
ENDMDL
MODEL 2
REMARK VINA RESULT:    -1.051      3.770      8.487
REMARK INTER + INTRA:          -2.262
REMARK INTER:                  -1.976
REMARK INTRA:                  -0.287
REMARK UNBOUND:                -0.228
REMARK SMILES CCCCCCCCCCCCCCCCCC(=O)[O-]
REMARK SMILES IDX 10 1 11 2 12 3 13 4 14 5 15 6 16 7 17 8 18 9 19 10 20 11
REMARK SMILES IDX 9 12 8 13 7 14 6 15 5 16 4 17 3 18 2 19 1 20
REMARK H PARENT
REMARK Flexibility Score: inf
ROOT
ATOM      1  C   UNL     1     -16.183  -1.620  -3.678  1.00  0.00     0.000 C 
ENDROOT
BRANCH   1   2
ATOM      2  C   UNL     1     -17.125  -1.621  -2.462  1.00  0.00     0.000 C 
BRANCH   2   3
ATOM      3  C   UNL     1     -16.957  -0.368  -1.584  1.00  0.00     0.000 C 
BRANCH   3   4
ATOM      4  C   UNL     1     -15.521   0.185  -1.604  1.00  0.00     0.000 C 
BRANCH   4   5
ATOM      5  C   UNL     1     -15.185   1.175  -0.470  1.00  0.00     0.000 C 
BRANCH   5   6
ATOM      6  C   UNL     1     -16.392   1.658   0.359  1.00  0.00     0.000 C 
BRANCH   6   7
ATOM      7  C   UNL     1     -17.124   0.554   1.142  1.00  0.00     0.006 C 
BRANCH   7   8
ATOM      8  C   UNL     1     -16.165  -0.387   1.882  1.00  0.00     0.053 C 
BRANCH   8   9
ATOM      9  C   UNL     1     -16.624  -0.597   3.290  1.00  0.00     0.041 C 
ATOM     10  O   UNL     1     -16.653  -1.756   3.781  1.00  0.00    -0.550 OA
ATOM     11  O   UNL     1     -17.066   0.482   4.045  1.00  0.00    -0.550 OA
ENDBRANCH   8   9
ENDBRANCH   7   8
ENDBRANCH   6   7
ENDBRANCH   5   6
ENDBRANCH   4   5
ENDBRANCH   3   4
ENDBRANCH   2   3
ENDBRANCH   1   2
BRANCH   1  12
ATOM     12  C   UNL     1     -16.303  -2.904  -4.519  1.00  0.00     0.000 C 
BRANCH  12  13
ATOM     13  C   UNL     1     -16.323  -4.175  -3.652  1.00  0.00    -0.000 C 
BRANCH  13  14
ATOM     14  C   UNL     1     -14.927  -4.801  -3.491  1.00  0.00    -0.000 C 
BRANCH  14  15
ATOM     15  C   UNL     1     -13.787  -3.796  -3.744  1.00  0.00    -0.000 C 
BRANCH  15  16
ATOM     16  C   UNL     1     -13.019  -4.001  -5.062  1.00  0.00    -0.000 C 
BRANCH  16  17
ATOM     17  C   UNL     1     -13.614  -5.123  -5.932  1.00  0.00    -0.000 C 
BRANCH  17  18
ATOM     18  C   UNL     1     -14.057  -4.624  -7.316  1.00  0.00    -0.000 C 
BRANCH  18  19
ATOM     19  C   UNL     1     -15.532  -4.196  -7.344  1.00  0.00    -0.003 C 
ATOM     20  C   UNL     1     -16.335  -5.052  -8.320  1.00  0.00     0.004 C 
ENDBRANCH  18  19
ENDBRANCH  17  18
ENDBRANCH  16  17
ENDBRANCH  15  16
ENDBRANCH  14  15
ENDBRANCH  13  14
ENDBRANCH  12  13
ENDBRANCH   1  12
TORSDOF 16
ENDMDL
MODEL 3
REMARK VINA RESULT:     0.013      1.479      2.300
REMARK INTER + INTRA:          -0.204
REMARK INTER:                   0.099
REMARK INTRA:                  -0.302
REMARK UNBOUND:                -0.228
REMARK SMILES CCCCCCCCCCCCCCCCCC(=O)[O-]
REMARK SMILES IDX 10 1 11 2 12 3 13 4 14 5 15 6 16 7 17 8 18 9 19 10 20 11
REMARK SMILES IDX 9 12 8 13 7 14 6 15 5 16 4 17 3 18 2 19 1 20
REMARK H PARENT
REMARK Flexibility Score: inf
ROOT
ATOM      1  C   UNL     1     -16.759  -0.161  -2.400  1.00  0.00     0.000 C 
ENDROOT
BRANCH   1   2
ATOM      2  C   UNL     1     -16.862  -1.669  -2.684  1.00  0.00     0.000 C 
BRANCH   2   3
ATOM      3  C   UNL     1     -16.172  -2.071  -3.999  1.00  0.00     0.000 C 
BRANCH   3   4
ATOM      4  C   UNL     1     -15.576  -3.489  -3.950  1.00  0.00     0.000 C 
BRANCH   4   5
ATOM      5  C   UNL     1     -14.040  -3.559  -4.070  1.00  0.00     0.000 C 
BRANCH   5   6
ATOM      6  C   UNL     1     -13.485  -4.885  -4.627  1.00  0.00     0.000 C 
BRANCH   6   7
ATOM      7  C   UNL     1     -13.755  -5.124  -6.124  1.00  0.00     0.006 C 
BRANCH   7   8
ATOM      8  C   UNL     1     -14.420  -3.922  -6.807  1.00  0.00     0.053 C 
BRANCH   8   9
ATOM      9  C   UNL     1     -14.969  -4.319  -8.141  1.00  0.00     0.041 C 
ATOM     10  O   UNL     1     -14.193  -4.519  -9.112  1.00  0.00    -0.550 OA
ATOM     11  O   UNL     1     -16.342  -4.420  -8.324  1.00  0.00    -0.550 OA
ENDBRANCH   8   9
ENDBRANCH   7   8
ENDBRANCH   6   7
ENDBRANCH   5   6
ENDBRANCH   4   5
ENDBRANCH   3   4
ENDBRANCH   2   3
ENDBRANCH   1   2
BRANCH   1  12
ATOM     12  C   UNL     1     -17.111   0.192  -0.944  1.00  0.00     0.000 C 
BRANCH  12  13
ATOM     13  C   UNL     1     -15.948   0.875  -0.205  1.00  0.00    -0.000 C 
BRANCH  13  14
ATOM     14  C   UNL     1     -15.696   0.270   1.187  1.00  0.00    -0.000 C 
BRANCH  14  15
ATOM     15  C   UNL     1     -16.998  -0.042   1.948  1.00  0.00    -0.000 C 
BRANCH  15  16
ATOM     16  C   UNL     1     -16.858  -0.101   3.480  1.00  0.00    -0.000 C 
BRANCH  16  17
ATOM     17  C   UNL     1     -17.034   1.273   4.150  1.00  0.00    -0.000 C 
BRANCH  17  18
ATOM     18  C   UNL     1     -16.429   1.324   5.560  1.00  0.00    -0.000 C 
BRANCH  18  19
ATOM     19  C   UNL     1     -17.103   0.340   6.528  1.00  0.00    -0.003 C 
ATOM     20  C   UNL     1     -17.085   0.874   7.957  1.00  0.00     0.004 C 
ENDBRANCH  18  19
ENDBRANCH  17  18
ENDBRANCH  16  17
ENDBRANCH  15  16
ENDBRANCH  14  15
ENDBRANCH  13  14
ENDBRANCH  12  13
ENDBRANCH   1  12
TORSDOF 16
ENDMDL
MODEL 4
REMARK VINA RESULT:     0.380      4.137      8.323
REMARK INTER + INTRA:           0.508
REMARK INTER:                  -0.839
REMARK INTRA:                   1.347
REMARK UNBOUND:                -0.228
REMARK SMILES CCCCCCCCCCCCCCCCCC(=O)[O-]
REMARK SMILES IDX 10 1 11 2 12 3 13 4 14 5 15 6 16 7 17 8 18 9 19 10 20 11
REMARK SMILES IDX 9 12 8 13 7 14 6 15 5 16 4 17 3 18 2 19 1 20
REMARK H PARENT
REMARK Flexibility Score: inf
ROOT
ATOM      1  C   UNL     1     -16.887  -0.366  -2.652  1.00  0.00     0.000 C 
ENDROOT
BRANCH   1   2
ATOM      2  C   UNL     1     -17.085   0.035  -1.180  1.00  0.00     0.000 C 
BRANCH   2   3
ATOM      3  C   UNL     1     -17.005   1.557  -0.966  1.00  0.00     0.000 C 
BRANCH   3   4
ATOM      4  C   UNL     1     -16.107   1.945   0.221  1.00  0.00     0.000 C 
BRANCH   4   5
ATOM      5  C   UNL     1     -15.747   0.789   1.176  1.00  0.00     0.000 C 
BRANCH   5   6
ATOM      6  C   UNL     1     -16.937   0.172   1.938  1.00  0.00     0.000 C 
BRANCH   6   7
ATOM      7  C   UNL     1     -16.642  -1.173   2.624  1.00  0.00     0.006 C 
BRANCH   7   8
ATOM      8  C   UNL     1     -16.709  -1.089   4.154  1.00  0.00     0.053 C 
BRANCH   8   9
ATOM      9  C   UNL     1     -16.995   0.314   4.587  1.00  0.00     0.041 C 
ATOM     10  O   UNL     1     -17.075   1.237   3.734  1.00  0.00    -0.550 OA
ATOM     11  O   UNL     1     -17.125   0.612   5.937  1.00  0.00    -0.550 OA
ENDBRANCH   8   9
ENDBRANCH   7   8
ENDBRANCH   6   7
ENDBRANCH   5   6
ENDBRANCH   4   5
ENDBRANCH   3   4
ENDBRANCH   2   3
ENDBRANCH   1   2
BRANCH   1  12
ATOM     12  C   UNL     1     -17.115  -1.869  -2.890  1.00  0.00     0.000 C 
BRANCH  12  13
ATOM     13  C   UNL     1     -17.048  -2.688  -1.590  1.00  0.00    -0.000 C 
BRANCH  13  14
ATOM     14  C   UNL     1     -15.609  -3.072  -1.208  1.00  0.00    -0.000 C 
BRANCH  14  15
ATOM     15  C   UNL     1     -15.171  -4.423  -1.803  1.00  0.00    -0.000 C 
BRANCH  15  16
ATOM     16  C   UNL     1     -13.651  -4.604  -1.960  1.00  0.00    -0.000 C 
BRANCH  16  17
ATOM     17  C   UNL     1     -13.232  -4.905  -3.410  1.00  0.00    -0.000 C 
BRANCH  17  18
ATOM     18  C   UNL     1     -14.394  -4.755  -4.403  1.00  0.00    -0.000 C 
BRANCH  18  19
ATOM     19  C   UNL     1     -14.097  -3.732  -5.509  1.00  0.00    -0.003 C 
ATOM     20  C   UNL     1     -15.278  -3.599  -6.467  1.00  0.00     0.004 C 
ENDBRANCH  18  19
ENDBRANCH  17  18
ENDBRANCH  16  17
ENDBRANCH  15  16
ENDBRANCH  14  15
ENDBRANCH  13  14
ENDBRANCH  12  13
ENDBRANCH   1  12
TORSDOF 16
ENDMDL
MODEL 5
REMARK VINA RESULT:     0.668     15.382     16.889
REMARK INTER + INTRA:           1.065
REMARK INTER:                   1.889
REMARK INTRA:                  -0.824
REMARK UNBOUND:                -0.228
REMARK SMILES CCCCCCCCCCCCCCCCCC(=O)[O-]
REMARK SMILES IDX 10 1 11 2 12 3 13 4 14 5 15 6 16 7 17 8 18 9 19 10 20 11
REMARK SMILES IDX 9 12 8 13 7 14 6 15 5 16 4 17 3 18 2 19 1 20
REMARK H PARENT
REMARK Flexibility Score: inf
ROOT
ATOM      1  C   UNL     1      -1.610  -0.166   4.193  1.00  0.00     0.000 C 
ENDROOT
BRANCH   1   2
ATOM      2  C   UNL     1      -2.646   0.710   4.917  1.00  0.00     0.000 C 
BRANCH   2   3
ATOM      3  C   UNL     1      -2.816   2.090   4.259  1.00  0.00     0.000 C 
BRANCH   3   4
ATOM      4  C   UNL     1      -3.682   2.041   2.987  1.00  0.00     0.000 C 
BRANCH   4   5
ATOM      5  C   UNL     1      -3.247   3.001   1.861  1.00  0.00     0.000 C 
BRANCH   5   6
ATOM      6  C   UNL     1      -4.349   3.945   1.342  1.00  0.00     0.000 C 
BRANCH   6   7
ATOM      7  C   UNL     1      -5.559   3.241   0.703  1.00  0.00     0.006 C 
BRANCH   7   8
ATOM      8  C   UNL     1      -6.897   3.702   1.296  1.00  0.00     0.053 C 
BRANCH   8   9
ATOM      9  C   UNL     1      -8.037   3.059   0.573  1.00  0.00     0.041 C 
ATOM     10  O   UNL     1      -9.173   3.603   0.569  1.00  0.00    -0.550 OA
ATOM     11  O   UNL     1      -7.858   1.834  -0.057  1.00  0.00    -0.550 OA
ENDBRANCH   8   9
ENDBRANCH   7   8
ENDBRANCH   6   7
ENDBRANCH   5   6
ENDBRANCH   4   5
ENDBRANCH   3   4
ENDBRANCH   2   3
ENDBRANCH   1   2
BRANCH   1  12
ATOM     12  C   UNL     1      -0.328  -0.371   5.020  1.00  0.00     0.000 C 
BRANCH  12  13
ATOM     13  C   UNL     1       0.732   0.709   4.740  1.00  0.00    -0.000 C 
BRANCH  13  14
ATOM     14  C   UNL     1       2.161   0.141   4.724  1.00  0.00    -0.000 C 
BRANCH  14  15
ATOM     15  C   UNL     1       2.539  -0.569   6.037  1.00  0.00    -0.000 C 
BRANCH  15  16
ATOM     16  C   UNL     1       2.846  -2.071   5.900  1.00  0.00    -0.000 C 
BRANCH  16  17
ATOM     17  C   UNL     1       2.975  -2.780   7.261  1.00  0.00    -0.000 C 
BRANCH  17  18
ATOM     18  C   UNL     1       3.125  -1.794   8.428  1.00  0.00    -0.000 C 
BRANCH  18  19
ATOM     19  C   UNL     1       3.124  -2.493   9.796  1.00  0.00    -0.003 C 
ATOM     20  C   UNL     1       1.905  -3.398   9.950  1.00  0.00     0.004 C 
ENDBRANCH  18  19
ENDBRANCH  17  18
ENDBRANCH  16  17
ENDBRANCH  15  16
ENDBRANCH  14  15
ENDBRANCH  13  14
ENDBRANCH  12  13
ENDBRANCH   1  12
TORSDOF 16
ENDMDL
MODEL 6
REMARK VINA RESULT:     0.739      1.995      4.038
REMARK INTER + INTRA:           1.202
REMARK INTER:                   0.873
REMARK INTRA:                   0.329
REMARK UNBOUND:                -0.228
REMARK SMILES CCCCCCCCCCCCCCCCCC(=O)[O-]
REMARK SMILES IDX 10 1 11 2 12 3 13 4 14 5 15 6 16 7 17 8 18 9 19 10 20 11
REMARK SMILES IDX 9 12 8 13 7 14 6 15 5 16 4 17 3 18 2 19 1 20
REMARK H PARENT
REMARK Flexibility Score: inf
ROOT
ATOM      1  C   UNL     1     -17.020  -0.766  -2.211  1.00  0.00     0.000 C 
ENDROOT
BRANCH   1   2
ATOM      2  C   UNL     1     -16.352  -1.195  -3.529  1.00  0.00     0.000 C 
BRANCH   2   3
ATOM      3  C   UNL     1     -16.995  -2.455  -4.134  1.00  0.00     0.000 C 
BRANCH   3   4
ATOM      4  C   UNL     1     -16.902  -3.678  -3.204  1.00  0.00     0.000 C 
BRANCH   4   5
ATOM      5  C   UNL     1     -17.125  -5.041  -3.889  1.00  0.00     0.000 C 
BRANCH   5   6
ATOM      6  C   UNL     1     -16.758  -5.091  -5.386  1.00  0.00     0.000 C 
BRANCH   6   7
ATOM      7  C   UNL     1     -15.308  -4.691  -5.712  1.00  0.00     0.006 C 
BRANCH   7   8
ATOM      8  C   UNL     1     -15.219  -3.622  -6.809  1.00  0.00     0.053 C 
BRANCH   8   9
ATOM      9  C   UNL     1     -15.542  -4.214  -8.143  1.00  0.00     0.041 C 
ATOM     10  O   UNL     1     -16.731  -4.235  -8.557  1.00  0.00    -0.550 OA
ATOM     11  O   UNL     1     -14.536  -4.789  -8.910  1.00  0.00    -0.550 OA
ENDBRANCH   8   9
ENDBRANCH   7   8
ENDBRANCH   6   7
ENDBRANCH   5   6
ENDBRANCH   4   5
ENDBRANCH   3   4
ENDBRANCH   2   3
ENDBRANCH   1   2
BRANCH   1  12
ATOM     12  C   UNL     1     -16.384   0.501  -1.613  1.00  0.00     0.000 C 
BRANCH  12  13
ATOM     13  C   UNL     1     -16.411   0.503  -0.075  1.00  0.00    -0.000 C 
BRANCH  13  14
ATOM     14  C   UNL     1     -16.366  -0.915   0.517  1.00  0.00    -0.000 C 
BRANCH  14  15
ATOM     15  C   UNL     1     -14.952  -1.335   0.960  1.00  0.00    -0.000 C 
BRANCH  15  16
ATOM     16  C   UNL     1     -14.258  -2.357   0.041  1.00  0.00    -0.000 C 
BRANCH  16  17
ATOM     17  C   UNL     1     -15.212  -2.966  -1.002  1.00  0.00    -0.000 C 
BRANCH  17  18
ATOM     18  C   UNL     1     -14.955  -4.463  -1.232  1.00  0.00    -0.000 C 
BRANCH  18  19
ATOM     19  C   UNL     1     -13.467  -4.828  -1.130  1.00  0.00    -0.003 C 
ATOM     20  C   UNL     1     -12.807  -4.835  -2.506  1.00  0.00     0.004 C 
ENDBRANCH  18  19
ENDBRANCH  17  18
ENDBRANCH  16  17
ENDBRANCH  15  16
ENDBRANCH  14  15
ENDBRANCH  13  14
ENDBRANCH  12  13
ENDBRANCH   1  12
TORSDOF 16
ENDMDL
MODEL 7
REMARK VINA RESULT:     0.816     15.609     16.969
REMARK INTER + INTRA:           1.352
REMARK INTER:                   1.812
REMARK INTRA:                  -0.461
REMARK UNBOUND:                -0.228
REMARK SMILES CCCCCCCCCCCCCCCCCC(=O)[O-]
REMARK SMILES IDX 10 1 11 2 12 3 13 4 14 5 15 6 16 7 17 8 18 9 19 10 20 11
REMARK SMILES IDX 9 12 8 13 7 14 6 15 5 16 4 17 3 18 2 19 1 20
REMARK H PARENT
REMARK Flexibility Score: inf
ROOT
ATOM      1  C   UNL     1      -2.650   0.895   4.774  1.00  0.00     0.000 C 
ENDROOT
BRANCH   1   2
ATOM      2  C   UNL     1      -1.573  -0.084   4.277  1.00  0.00     0.000 C 
BRANCH   2   3
ATOM      3  C   UNL     1      -0.212   0.141   4.958  1.00  0.00     0.000 C 
BRANCH   3   4
ATOM      4  C   UNL     1       0.599   1.276   4.308  1.00  0.00     0.000 C 
BRANCH   4   5
ATOM      5  C   UNL     1       2.124   1.051   4.265  1.00  0.00     0.000 C 
BRANCH   5   6
ATOM      6  C   UNL     1       2.836   1.120   5.631  1.00  0.00     0.000 C 
BRANCH   6   7
ATOM      7  C   UNL     1       2.867  -0.204   6.415  1.00  0.00     0.006 C 
BRANCH   7   8
ATOM      8  C   UNL     1       3.125  -1.421   5.517  1.00  0.00     0.053 C 
BRANCH   8   9
ATOM      9  C   UNL     1       3.125  -2.677   6.329  1.00  0.00     0.041 C 
ATOM     10  O   UNL     1       3.123  -3.800   5.761  1.00  0.00    -0.550 OA
ATOM     11  O   UNL     1       3.077  -2.607   7.716  1.00  0.00    -0.550 OA
ENDBRANCH   8   9
ENDBRANCH   7   8
ENDBRANCH   6   7
ENDBRANCH   5   6
ENDBRANCH   4   5
ENDBRANCH   3   4
ENDBRANCH   2   3
ENDBRANCH   1   2
BRANCH   1  12
ATOM     12  C   UNL     1      -2.640   2.227   4.003  1.00  0.00     0.000 C 
BRANCH  12  13
ATOM     13  C   UNL     1      -3.746   2.298   2.937  1.00  0.00    -0.000 C 
BRANCH  13  14
ATOM     14  C   UNL     1      -3.314   3.090   1.691  1.00  0.00    -0.000 C 
BRANCH  14  15
ATOM     15  C   UNL     1      -4.502   3.499   0.799  1.00  0.00    -0.000 C 
BRANCH  15  16
ATOM     16  C   UNL     1      -5.477   4.506   1.434  1.00  0.00    -0.000 C 
BRANCH  16  17
ATOM     17  C   UNL     1      -6.777   3.847   1.931  1.00  0.00    -0.000 C 
BRANCH  17  18
ATOM     18  C   UNL     1      -7.920   3.959   0.912  1.00  0.00    -0.000 C 
BRANCH  18  19
ATOM     19  C   UNL     1      -8.349   2.593   0.354  1.00  0.00    -0.003 C 
ATOM     20  C   UNL     1      -7.140   1.694   0.111  1.00  0.00     0.004 C 
ENDBRANCH  18  19
ENDBRANCH  17  18
ENDBRANCH  16  17
ENDBRANCH  15  16
ENDBRANCH  14  15
ENDBRANCH  13  14
ENDBRANCH  12  13
ENDBRANCH   1  12
TORSDOF 16
ENDMDL
MODEL 8
REMARK VINA RESULT:     0.915     14.832     16.330
REMARK INTER + INTRA:           1.543
REMARK INTER:                   2.484
REMARK INTRA:                  -0.941
REMARK UNBOUND:                -0.228
REMARK SMILES CCCCCCCCCCCCCCCCCC(=O)[O-]
REMARK SMILES IDX 10 1 11 2 12 3 13 4 14 5 15 6 16 7 17 8 18 9 19 10 20 11
REMARK SMILES IDX 9 12 8 13 7 14 6 15 5 16 4 17 3 18 2 19 1 20
REMARK H PARENT
REMARK Flexibility Score: inf
ROOT
ATOM      1  C   UNL     1      -2.825   0.901   4.895  1.00  0.00     0.000 C 
ENDROOT
BRANCH   1   2
ATOM      2  C   UNL     1      -3.112   2.273   4.259  1.00  0.00     0.000 C 
BRANCH   2   3
ATOM      3  C   UNL     1      -3.262   2.194   2.730  1.00  0.00     0.000 C 
BRANCH   3   4
ATOM      4  C   UNL     1      -4.240   3.244   2.172  1.00  0.00     0.000 C 
BRANCH   4   5
ATOM      5  C   UNL     1      -4.133   3.498   0.655  1.00  0.00     0.000 C 
BRANCH   5   6
ATOM      6  C   UNL     1      -5.390   3.135  -0.161  1.00  0.00     0.000 C 
BRANCH   6   7
ATOM      7  C   UNL     1      -6.245   2.001   0.434  1.00  0.00     0.006 C 
BRANCH   7   8
ATOM      8  C   UNL     1      -7.748   2.211   0.212  1.00  0.00     0.053 C 
BRANCH   8   9
ATOM      9  C   UNL     1      -8.192   3.498   0.831  1.00  0.00     0.041 C 
ATOM     10  O   UNL     1      -9.141   4.152   0.324  1.00  0.00    -0.550 OA
ATOM     11  O   UNL     1      -7.524   4.002   1.940  1.00  0.00    -0.550 OA
ENDBRANCH   8   9
ENDBRANCH   7   8
ENDBRANCH   6   7
ENDBRANCH   5   6
ENDBRANCH   4   5
ENDBRANCH   3   4
ENDBRANCH   2   3
ENDBRANCH   1   2
BRANCH   1  12
ATOM     12  C   UNL     1      -1.725   0.123   4.151  1.00  0.00     0.000 C 
BRANCH  12  13
ATOM     13  C   UNL     1      -0.385   0.133   4.906  1.00  0.00    -0.000 C 
BRANCH  13  14
ATOM     14  C   UNL     1       0.526   1.296   4.477  1.00  0.00    -0.000 C 
BRANCH  14  15
ATOM     15  C   UNL     1       1.991   0.867   4.276  1.00  0.00    -0.000 C 
BRANCH  15  16
ATOM     16  C   UNL     1       2.909   1.099   5.490  1.00  0.00    -0.000 C 
BRANCH  16  17
ATOM     17  C   UNL     1       3.093  -0.165   6.350  1.00  0.00    -0.000 C 
BRANCH  17  18
ATOM     18  C   UNL     1       3.125  -1.450   5.510  1.00  0.00    -0.000 C 
BRANCH  18  19
ATOM     19  C   UNL     1       2.673  -2.685   6.304  1.00  0.00    -0.003 C 
ATOM     20  C   UNL     1       2.955  -2.514   7.794  1.00  0.00     0.004 C 
ENDBRANCH  18  19
ENDBRANCH  17  18
ENDBRANCH  16  17
ENDBRANCH  15  16
ENDBRANCH  14  15
ENDBRANCH  13  14
ENDBRANCH  12  13
ENDBRANCH   1  12
TORSDOF 16
ENDMDL
