MODEL 1
REMARK VINA RESULT:    -4.784      0.000      0.000
REMARK INTER + INTRA:         -11.200
REMARK INTER:                  -8.700
REMARK INTRA:                  -2.500
REMARK UNBOUND:                -2.500
REMARK SMILES CCCCCCCCCCCCCCCC(=O)[O-]
REMARK SMILES IDX 9 1 10 2 11 3 12 4 13 5 14 6 15 7 16 8 17 9 18 10 8 11 7 12
REMARK SMILES IDX 6 13 5 14 4 15 3 16 2 17 1 18
REMARK H PARENT
REMARK Flexibility Score: inf
ROOT
ATOM      1  C   UNL     1     121.678 176.373 129.365  1.00  0.00     0.000 C 
ENDROOT
BRANCH   1   2
ATOM      2  C   UNL     1     120.208 176.774 129.151  1.00  0.00     0.000 C 
BRANCH   2   3
ATOM      3  C   UNL     1     119.654 176.319 127.788  1.00  0.00     0.000 C 
BRANCH   3   4
ATOM      4  C   UNL     1     119.670 177.390 126.682  1.00  0.00     0.000 C 
BRANCH   4   5
ATOM      5  C   UNL     1     119.691 178.822 127.234  1.00  0.00     0.000 C 
BRANCH   5   6
ATOM      6  C   UNL     1     119.291 179.834 126.153  1.00  0.00     0.006 C 
BRANCH   6   7
ATOM      7  C   UNL     1     120.420 180.030 125.137  1.00  0.00     0.053 C 
BRANCH   7   8
ATOM      8  C   UNL     1     120.027 179.481 123.803  1.00  0.00     0.041 C 
ATOM      9  O   UNL     1     120.855 179.465 122.855  1.00  0.00    -0.550 OA
ATOM     10  O   UNL     1     118.728 179.033 123.591  1.00  0.00    -0.550 OA
ENDBRANCH   7   8
ENDBRANCH   6   7
ENDBRANCH   5   6
ENDBRANCH   4   5
ENDBRANCH   3   4
ENDBRANCH   2   3
ENDBRANCH   1   2
BRANCH   1  11
ATOM     11  C   UNL     1     122.468 177.414 130.179  1.00  0.00     0.000 C 
BRANCH  11  12
ATOM     12  C   UNL     1     122.451 178.845 129.607  1.00  0.00    -0.000 C 
BRANCH  12  13
ATOM     13  C   UNL     1     123.655 179.213 128.716  1.00  0.00    -0.000 C 
BRANCH  13  14
ATOM     14  C   UNL     1     123.369 179.233 127.204  1.00  0.00    -0.000 C 
BRANCH  14  15
ATOM     15  C   UNL     1     123.699 177.897 126.517  1.00  0.00    -0.000 C 
BRANCH  15  16
ATOM     16  C   UNL     1     123.240 177.849 125.048  1.00  0.00    -0.000 C 
BRANCH  16  17
ATOM     17  C   UNL     1     122.714 176.481 124.573  1.00  0.00    -0.003 C 
ATOM     18  C   UNL     1     122.637 175.447 125.695  1.00  0.00     0.004 C 
ENDBRANCH  16  17
ENDBRANCH  15  16
ENDBRANCH  14  15
ENDBRANCH  13  14
ENDBRANCH  12  13
ENDBRANCH  11  12
ENDBRANCH   1  11
TORSDOF 14
ENDMDL
MODEL 2
REMARK VINA RESULT:    -4.771      1.103      1.557
REMARK INTER + INTRA:         -11.175
REMARK INTER:                  -8.962
REMARK INTRA:                  -2.213
REMARK UNBOUND:                -2.500
REMARK SMILES CCCCCCCCCCCCCCCC(=O)[O-]
REMARK SMILES IDX 9 1 10 2 11 3 12 4 13 5 14 6 15 7 16 8 17 9 18 10 8 11 7 12
REMARK SMILES IDX 6 13 5 14 4 15 3 16 2 17 1 18
REMARK H PARENT
REMARK Flexibility Score: inf
ROOT
ATOM      1  C   UNL     1     121.513 176.392 129.958  1.00  0.00     0.000 C 
ENDROOT
BRANCH   1   2
ATOM      2  C   UNL     1     120.029 176.335 130.357  1.00  0.00     0.000 C 
BRANCH   2   3
ATOM      3  C   UNL     1     119.079 176.613 129.178  1.00  0.00     0.000 C 
BRANCH   3   4
ATOM      4  C   UNL     1     119.549 176.071 127.815  1.00  0.00     0.000 C 
BRANCH   4   5
ATOM      5  C   UNL     1     119.624 177.155 126.732  1.00  0.00     0.000 C 
BRANCH   5   6
ATOM      6  C   UNL     1     119.500 178.555 127.346  1.00  0.00     0.006 C 
BRANCH   6   7
ATOM      7  C   UNL     1     119.771 179.641 126.300  1.00  0.00     0.053 C 
BRANCH   7   8
ATOM      8  C   UNL     1     118.773 179.560 125.189  1.00  0.00     0.041 C 
ATOM      9  O   UNL     1     119.149 179.299 124.017  1.00  0.00    -0.550 OA
ATOM     10  O   UNL     1     117.431 179.824 125.440  1.00  0.00    -0.550 OA
ENDBRANCH   7   8
ENDBRANCH   6   7
ENDBRANCH   5   6
ENDBRANCH   4   5
ENDBRANCH   3   4
ENDBRANCH   2   3
ENDBRANCH   1   2
BRANCH   1  11
ATOM     11  C   UNL     1     122.247 177.605 130.560  1.00  0.00     0.000 C 
BRANCH  11  12
ATOM     12  C   UNL     1     122.216 178.884 129.702  1.00  0.00    -0.000 C 
BRANCH  12  13
ATOM     13  C   UNL     1     123.522 179.201 128.944  1.00  0.00    -0.000 C 
BRANCH  13  14
ATOM     14  C   UNL     1     123.397 179.241 127.410  1.00  0.00    -0.000 C 
BRANCH  14  15
ATOM     15  C   UNL     1     123.253 177.842 126.787  1.00  0.00    -0.000 C 
BRANCH  15  16
ATOM     16  C   UNL     1     123.601 177.816 125.288  1.00  0.00    -0.000 C 
BRANCH  16  17
ATOM     17  C   UNL     1     122.389 177.817 124.337  1.00  0.00    -0.003 C 
ATOM     18  C   UNL     1     122.754 177.440 122.902  1.00  0.00     0.004 C 
ENDBRANCH  16  17
ENDBRANCH  15  16
ENDBRANCH  14  15
ENDBRANCH  13  14
ENDBRANCH  12  13
ENDBRANCH  11  12
ENDBRANCH   1  11
TORSDOF 14
ENDMDL
MODEL 3
REMARK VINA RESULT:    -4.743      1.115      2.643
REMARK INTER + INTRA:         -11.125
REMARK INTER:                  -8.659
REMARK INTRA:                  -2.467
REMARK UNBOUND:                -2.500
REMARK SMILES CCCCCCCCCCCCCCCC(=O)[O-]
REMARK SMILES IDX 9 1 10 2 11 3 12 4 13 5 14 6 15 7 16 8 17 9 18 10 8 11 7 12
REMARK SMILES IDX 6 13 5 14 4 15 3 16 2 17 1 18
REMARK H PARENT
REMARK Flexibility Score: inf
ROOT
ATOM      1  C   UNL     1     120.992 175.596 126.583  1.00  0.00     0.000 C 
ENDROOT
BRANCH   1   2
ATOM      2  C   UNL     1     119.725 175.650 127.453  1.00  0.00     0.000 C 
BRANCH   2   3
ATOM      3  C   UNL     1     118.945 176.968 127.296  1.00  0.00     0.000 C 
BRANCH   3   4
ATOM      4  C   UNL     1     119.709 178.102 126.587  1.00  0.00     0.000 C 
BRANCH   4   5
ATOM      5  C   UNL     1     118.939 179.429 126.577  1.00  0.00     0.000 C 
BRANCH   5   6
ATOM      6  C   UNL     1     119.060 180.125 125.216  1.00  0.00     0.006 C 
BRANCH   6   7
ATOM      7  C   UNL     1     120.376 179.755 124.524  1.00  0.00     0.053 C 
BRANCH   7   8
ATOM      8  C   UNL     1     120.119 179.275 123.131  1.00  0.00     0.041 C 
ATOM      9  O   UNL     1     118.948 179.000 122.761  1.00  0.00    -0.550 OA
ATOM     10  O   UNL     1     121.181 179.083 122.255  1.00  0.00    -0.550 OA
ENDBRANCH   7   8
ENDBRANCH   6   7
ENDBRANCH   5   6
ENDBRANCH   4   5
ENDBRANCH   3   4
ENDBRANCH   2   3
ENDBRANCH   1   2
BRANCH   1  11
ATOM     11  C   UNL     1     122.249 175.201 127.381  1.00  0.00     0.000 C 
BRANCH  11  12
ATOM     12  C   UNL     1     122.092 175.243 128.914  1.00  0.00    -0.000 C 
BRANCH  12  13
ATOM     13  C   UNL     1     122.801 176.419 129.617  1.00  0.00    -0.000 C 
BRANCH  13  14
ATOM     14  C   UNL     1     121.874 177.552 130.093  1.00  0.00    -0.000 C 
BRANCH  14  15
ATOM     15  C   UNL     1     122.006 178.828 129.243  1.00  0.00    -0.000 C 
BRANCH  15  16
ATOM     16  C   UNL     1     123.320 178.880 128.442  1.00  0.00    -0.000 C 
BRANCH  16  17
ATOM     17  C   UNL     1     123.168 179.292 126.966  1.00  0.00    -0.003 C 
ATOM     18  C   UNL     1     123.719 178.250 125.994  1.00  0.00     0.004 C 
ENDBRANCH  16  17
ENDBRANCH  15  16
ENDBRANCH  14  15
ENDBRANCH  13  14
ENDBRANCH  12  13
ENDBRANCH  11  12
ENDBRANCH   1  11
TORSDOF 14
ENDMDL
MODEL 4
REMARK VINA RESULT:    -4.699      1.633      3.671
REMARK INTER + INTRA:         -11.045
REMARK INTER:                  -9.307
REMARK INTRA:                  -1.738
REMARK UNBOUND:                -2.500
REMARK SMILES CCCCCCCCCCCCCCCC(=O)[O-]
REMARK SMILES IDX 9 1 10 2 11 3 12 4 13 5 14 6 15 7 16 8 17 9 18 10 8 11 7 12
REMARK SMILES IDX 6 13 5 14 4 15 3 16 2 17 1 18
REMARK H PARENT
REMARK Flexibility Score: inf
ROOT
ATOM      1  C   UNL     1     123.335 179.056 126.599  1.00  0.00     0.000 C 
ENDROOT
BRANCH   1   2
ATOM      2  C   UNL     1     122.744 177.923 125.743  1.00  0.00     0.000 C 
BRANCH   2   3
ATOM      3  C   UNL     1     121.218 178.032 125.572  1.00  0.00     0.000 C 
BRANCH   3   4
ATOM      4  C   UNL     1     120.414 178.093 126.885  1.00  0.00     0.000 C 
BRANCH   4   5
ATOM      5  C   UNL     1     119.687 179.430 127.082  1.00  0.00     0.000 C 
BRANCH   5   6
ATOM      6  C   UNL     1     119.349 180.076 125.733  1.00  0.00     0.006 C 
BRANCH   6   7
ATOM      7  C   UNL     1     117.835 180.125 125.509  1.00  0.00     0.053 C 
BRANCH   7   8
ATOM      8  C   UNL     1     117.401 179.013 124.607  1.00  0.00     0.041 C 
ATOM      9  O   UNL     1     117.495 177.817 124.986  1.00  0.00    -0.550 OA
ATOM     10  O   UNL     1     116.940 179.297 123.327  1.00  0.00    -0.550 OA
ENDBRANCH   7   8
ENDBRANCH   6   7
ENDBRANCH   5   6
ENDBRANCH   4   5
ENDBRANCH   3   4
ENDBRANCH   2   3
ENDBRANCH   1   2
BRANCH   1  11
ATOM     11  C   UNL     1     123.993 178.546 127.894  1.00  0.00     0.000 C 
BRANCH  11  12
ATOM     12  C   UNL     1     123.703 179.387 129.152  1.00  0.00    -0.000 C 
BRANCH  12  13
ATOM     13  C   UNL     1     123.185 178.594 130.370  1.00  0.00    -0.000 C 
BRANCH  13  14
ATOM     14  C   UNL     1     121.874 177.821 130.139  1.00  0.00    -0.000 C 
BRANCH  14  15
ATOM     15  C   UNL     1     122.104 176.322 129.881  1.00  0.00    -0.000 C 
BRANCH  15  16
ATOM     16  C   UNL     1     120.808 175.495 129.965  1.00  0.00    -0.000 C 
BRANCH  16  17
ATOM     17  C   UNL     1     119.555 176.286 130.384  1.00  0.00    -0.003 C 
ATOM     18  C   UNL     1     118.303 175.877 129.610  1.00  0.00     0.004 C 
ENDBRANCH  16  17
ENDBRANCH  15  16
ENDBRANCH  14  15
ENDBRANCH  13  14
ENDBRANCH  12  13
ENDBRANCH  11  12
ENDBRANCH   1  11
TORSDOF 14
ENDMDL
MODEL 5
REMARK VINA RESULT:    -4.682      2.902      4.267
REMARK INTER + INTRA:         -11.014
REMARK INTER:                  -8.718
REMARK INTRA:                  -2.296
REMARK UNBOUND:                -2.500
REMARK SMILES CCCCCCCCCCCCCCCC(=O)[O-]
REMARK SMILES IDX 9 1 10 2 11 3 12 4 13 5 14 6 15 7 16 8 17 9 18 10 8 11 7 12
REMARK SMILES IDX 6 13 5 14 4 15 3 16 2 17 1 18
REMARK H PARENT
REMARK Flexibility Score: inf
ROOT
ATOM      1  C   UNL     1     121.127 176.834 131.057  1.00  0.00     0.000 C 
ENDROOT
BRANCH   1   2
ATOM      2  C   UNL     1     120.093 175.698 130.980  1.00  0.00     0.000 C 
BRANCH   2   3
ATOM      3  C   UNL     1     118.807 176.106 130.238  1.00  0.00     0.000 C 
BRANCH   3   4
ATOM      4  C   UNL     1     118.957 176.290 128.716  1.00  0.00     0.000 C 
BRANCH   4   5
ATOM      5  C   UNL     1     119.726 175.143 128.046  1.00  0.00     0.000 C 
BRANCH   5   6
ATOM      6  C   UNL     1     120.328 175.592 126.709  1.00  0.00     0.006 C 
BRANCH   6   7
ATOM      7  C   UNL     1     121.828 175.290 126.651  1.00  0.00     0.053 C 
BRANCH   7   8
ATOM      8  C   UNL     1     122.088 173.855 126.986  1.00  0.00     0.041 C 
ATOM      9  O   UNL     1     121.672 172.942 126.226  1.00  0.00    -0.550 OA
ATOM     10  O   UNL     1     122.745 173.525 128.165  1.00  0.00    -0.550 OA
ENDBRANCH   7   8
ENDBRANCH   6   7
ENDBRANCH   5   6
ENDBRANCH   4   5
ENDBRANCH   3   4
ENDBRANCH   2   3
ENDBRANCH   1   2
BRANCH   1  11
ATOM     11  C   UNL     1     122.409 176.530 130.261  1.00  0.00     0.000 C 
BRANCH  11  12
ATOM     12  C   UNL     1     122.843 177.628 129.271  1.00  0.00    -0.000 C 
BRANCH  12  13
ATOM     13  C   UNL     1     121.775 178.696 128.962  1.00  0.00    -0.000 C 
BRANCH  13  14
ATOM     14  C   UNL     1     121.625 179.062 127.474  1.00  0.00    -0.000 C 
BRANCH  14  15
ATOM     15  C   UNL     1     120.177 179.411 127.088  1.00  0.00    -0.000 C 
BRANCH  15  16
ATOM     16  C   UNL     1     119.819 178.978 125.655  1.00  0.00    -0.000 C 
BRANCH  16  17
ATOM     17  C   UNL     1     120.330 179.914 124.544  1.00  0.00    -0.003 C 
ATOM     18  C   UNL     1     120.718 179.171 123.266  1.00  0.00     0.004 C 
ENDBRANCH  16  17
ENDBRANCH  15  16
ENDBRANCH  14  15
ENDBRANCH  13  14
ENDBRANCH  12  13
ENDBRANCH  11  12
ENDBRANCH   1  11
TORSDOF 14
ENDMDL
MODEL 6
REMARK VINA RESULT:    -4.679      1.310      1.949
REMARK INTER + INTRA:         -11.009
REMARK INTER:                  -8.515
REMARK INTRA:                  -2.494
REMARK UNBOUND:                -2.500
REMARK SMILES CCCCCCCCCCCCCCCC(=O)[O-]
REMARK SMILES IDX 9 1 10 2 11 3 12 4 13 5 14 6 15 7 16 8 17 9 18 10 8 11 7 12
REMARK SMILES IDX 6 13 5 14 4 15 3 16 2 17 1 18
REMARK H PARENT
REMARK Flexibility Score: inf
ROOT
ATOM      1  C   UNL     1     122.364 176.387 129.670  1.00  0.00     0.000 C 
ENDROOT
BRANCH   1   2
ATOM      2  C   UNL     1     121.132 175.467 129.623  1.00  0.00     0.000 C 
BRANCH   2   3
ATOM      3  C   UNL     1     119.934 176.028 130.411  1.00  0.00     0.000 C 
BRANCH   3   4
ATOM      4  C   UNL     1     118.706 176.402 129.559  1.00  0.00     0.000 C 
BRANCH   4   5
ATOM      5  C   UNL     1     119.006 176.432 128.054  1.00  0.00     0.000 C 
BRANCH   5   6
ATOM      6  C   UNL     1     118.890 177.857 127.500  1.00  0.00     0.006 C 
BRANCH   6   7
ATOM      7  C   UNL     1     118.622 177.841 125.992  1.00  0.00     0.053 C 
BRANCH   7   8
ATOM      8  C   UNL     1     118.732 179.221 125.424  1.00  0.00     0.041 C 
ATOM      9  O   UNL     1     119.784 179.582 124.837  1.00  0.00    -0.550 OA
ATOM     10  O   UNL     1     117.689 180.125 125.589  1.00  0.00    -0.550 OA
ENDBRANCH   7   8
ENDBRANCH   6   7
ENDBRANCH   5   6
ENDBRANCH   4   5
ENDBRANCH   3   4
ENDBRANCH   2   3
ENDBRANCH   1   2
BRANCH   1  11
ATOM     11  C   UNL     1     122.097 177.706 130.419  1.00  0.00     0.000 C 
BRANCH  11  12
ATOM     12  C   UNL     1     122.398 178.987 129.617  1.00  0.00    -0.000 C 
BRANCH  12  13
ATOM     13  C   UNL     1     122.088 178.909 128.108  1.00  0.00    -0.000 C 
BRANCH  13  14
ATOM     14  C   UNL     1     123.276 179.214 127.179  1.00  0.00    -0.000 C 
BRANCH  14  15
ATOM     15  C   UNL     1     123.385 178.225 126.005  1.00  0.00    -0.000 C 
BRANCH  15  16
ATOM     16  C   UNL     1     122.233 177.204 125.974  1.00  0.00    -0.000 C 
BRANCH  16  17
ATOM     17  C   UNL     1     122.666 175.729 126.055  1.00  0.00    -0.003 C 
ATOM     18  C   UNL     1     121.502 174.753 125.893  1.00  0.00     0.004 C 
ENDBRANCH  16  17
ENDBRANCH  15  16
ENDBRANCH  14  15
ENDBRANCH  13  14
ENDBRANCH  12  13
ENDBRANCH  11  12
ENDBRANCH   1  11
TORSDOF 14
ENDMDL
MODEL 7
REMARK VINA RESULT:    -4.635      1.556      3.640
REMARK INTER + INTRA:         -10.929
REMARK INTER:                  -8.714
REMARK INTRA:                  -2.214
REMARK UNBOUND:                -2.500
REMARK SMILES CCCCCCCCCCCCCCCC(=O)[O-]
REMARK SMILES IDX 9 1 10 2 11 3 12 4 13 5 14 6 15 7 16 8 17 9 18 10 8 11 7 12
REMARK SMILES IDX 6 13 5 14 4 15 3 16 2 17 1 18
REMARK H PARENT
REMARK Flexibility Score: inf
ROOT
ATOM      1  C   UNL     1     123.372 179.022 126.609  1.00  0.00     0.000 C 
ENDROOT
BRANCH   1   2
ATOM      2  C   UNL     1     124.094 177.922 125.813  1.00  0.00     0.000 C 
BRANCH   2   3
ATOM      3  C   UNL     1     123.312 177.473 124.565  1.00  0.00     0.000 C 
BRANCH   3   4
ATOM      4  C   UNL     1     122.011 178.252 124.291  1.00  0.00     0.000 C 
BRANCH   4   5
ATOM      5  C   UNL     1     121.694 178.382 122.795  1.00  0.00     0.000 C 
BRANCH   5   6
ATOM      6  C   UNL     1     120.704 179.526 122.541  1.00  0.00     0.006 C 
BRANCH   6   7
ATOM      7  C   UNL     1     119.340 178.985 122.099  1.00  0.00     0.053 C 
BRANCH   7   8
ATOM      8  C   UNL     1     118.397 178.930 123.258  1.00  0.00     0.041 C 
ATOM      9  O   UNL     1     117.270 178.385 123.132  1.00  0.00    -0.550 OA
ATOM     10  O   UNL     1     118.744 179.524 124.465  1.00  0.00    -0.550 OA
ENDBRANCH   7   8
ENDBRANCH   6   7
ENDBRANCH   5   6
ENDBRANCH   4   5
ENDBRANCH   3   4
ENDBRANCH   2   3
ENDBRANCH   1   2
BRANCH   1  11
ATOM     11  C   UNL     1     123.265 178.700 128.111  1.00  0.00     0.000 C 
BRANCH  11  12
ATOM     12  C   UNL     1     121.864 178.888 128.725  1.00  0.00    -0.000 C 
BRANCH  12  13
ATOM     13  C   UNL     1     120.697 178.881 127.716  1.00  0.00    -0.000 C 
BRANCH  13  14
ATOM     14  C   UNL     1     119.731 177.688 127.841  1.00  0.00    -0.000 C 
BRANCH  14  15
ATOM     15  C   UNL     1     119.743 176.779 126.600  1.00  0.00    -0.000 C 
BRANCH  15  16
ATOM     16  C   UNL     1     120.312 175.378 126.890  1.00  0.00    -0.000 C 
BRANCH  16  17
ATOM     17  C   UNL     1     121.805 175.345 127.266  1.00  0.00    -0.003 C 
ATOM     18  C   UNL     1     122.060 174.771 128.659  1.00  0.00     0.004 C 
ENDBRANCH  16  17
ENDBRANCH  15  16
ENDBRANCH  14  15
ENDBRANCH  13  14
ENDBRANCH  12  13
ENDBRANCH  11  12
ENDBRANCH   1  11
TORSDOF 14
ENDMDL
MODEL 8
REMARK VINA RESULT:    -4.600      1.601      4.055
REMARK INTER + INTRA:         -10.865
REMARK INTER:                  -8.468
REMARK INTRA:                  -2.397
REMARK UNBOUND:                -2.500
REMARK SMILES CCCCCCCCCCCCCCCC(=O)[O-]
REMARK SMILES IDX 9 1 10 2 11 3 12 4 13 5 14 6 15 7 16 8 17 9 18 10 8 11 7 12
REMARK SMILES IDX 6 13 5 14 4 15 3 16 2 17 1 18
REMARK H PARENT
REMARK Flexibility Score: inf
ROOT
ATOM      1  C   UNL     1     122.550 176.431 129.872  1.00  0.00     0.000 C 
ENDROOT
BRANCH   1   2
ATOM      2  C   UNL     1     123.592 177.542 130.086  1.00  0.00     0.000 C 
BRANCH   2   3
ATOM      3  C   UNL     1     123.124 178.912 129.560  1.00  0.00     0.000 C 
BRANCH   3   4
ATOM      4  C   UNL     1     123.752 179.351 128.224  1.00  0.00     0.000 C 
BRANCH   4   5
ATOM      5  C   UNL     1     124.005 178.178 127.266  1.00  0.00     0.000 C 
BRANCH   5   6
ATOM      6  C   UNL     1     123.499 178.502 125.855  1.00  0.00     0.006 C 
BRANCH   6   7
ATOM      7  C   UNL     1     123.115 177.225 125.101  1.00  0.00     0.053 C 
BRANCH   7   8
ATOM      8  C   UNL     1     123.751 177.202 123.748  1.00  0.00     0.041 C 
ATOM      9  O   UNL     1     124.994 177.363 123.630  1.00  0.00    -0.550 OA
ATOM     10  O   UNL     1     122.965 177.054 122.612  1.00  0.00    -0.550 OA
ENDBRANCH   7   8
ENDBRANCH   6   7
ENDBRANCH   5   6
ENDBRANCH   4   5
ENDBRANCH   3   4
ENDBRANCH   2   3
ENDBRANCH   1   2
BRANCH   1  11
ATOM     11  C   UNL     1     121.141 176.834 130.344  1.00  0.00     0.000 C 
BRANCH  11  12
ATOM     12  C   UNL     1     120.020 176.641 129.303  1.00  0.00    -0.000 C 
BRANCH  12  13
ATOM     13  C   UNL     1     120.488 176.584 127.835  1.00  0.00    -0.000 C 
BRANCH  13  14
ATOM     14  C   UNL     1     119.824 177.608 126.896  1.00  0.00    -0.000 C 
BRANCH  14  15
ATOM     15  C   UNL     1     120.193 179.061 127.241  1.00  0.00    -0.000 C 
BRANCH  15  16
ATOM     16  C   UNL     1     120.019 180.022 126.051  1.00  0.00    -0.000 C 
BRANCH  16  17
ATOM     17  C   UNL     1     119.491 179.371 124.759  1.00  0.00    -0.003 C 
ATOM     18  C   UNL     1     120.507 179.397 123.617  1.00  0.00     0.004 C 
ENDBRANCH  16  17
ENDBRANCH  15  16
ENDBRANCH  14  15
ENDBRANCH  13  14
ENDBRANCH  12  13
ENDBRANCH  11  12
ENDBRANCH   1  11
TORSDOF 14
ENDMDL
MODEL 9
REMARK VINA RESULT:    -4.559      1.220      3.117
REMARK INTER + INTRA:         -10.790
REMARK INTER:                  -8.672
REMARK INTRA:                  -2.118
REMARK UNBOUND:                -2.500
REMARK SMILES CCCCCCCCCCCCCCCC(=O)[O-]
REMARK SMILES IDX 9 1 10 2 11 3 12 4 13 5 14 6 15 7 16 8 17 9 18 10 8 11 7 12
REMARK SMILES IDX 6 13 5 14 4 15 3 16 2 17 1 18
REMARK H PARENT
REMARK Flexibility Score: inf
ROOT
ATOM      1  C   UNL     1     122.526 177.241 130.212  1.00  0.00     0.000 C 
ENDROOT
BRANCH   1   2
ATOM      2  C   UNL     1     122.660 178.708 129.768  1.00  0.00     0.000 C 
BRANCH   2   3
ATOM      3  C   UNL     1     123.612 178.889 128.572  1.00  0.00     0.000 C 
BRANCH   3   4
ATOM      4  C   UNL     1     122.929 178.944 127.192  1.00  0.00     0.000 C 
BRANCH   4   5
ATOM      5  C   UNL     1     121.451 179.354 127.270  1.00  0.00     0.000 C 
BRANCH   5   6
ATOM      6  C   UNL     1     120.916 179.744 125.887  1.00  0.00     0.006 C 
BRANCH   6   7
ATOM      7  C   UNL     1     120.131 178.590 125.255  1.00  0.00     0.053 C 
BRANCH   7   8
ATOM      8  C   UNL     1     119.089 179.114 124.319  1.00  0.00     0.041 C 
ATOM      9  O   UNL     1     119.293 179.113 123.078  1.00  0.00    -0.550 OA
ATOM     10  O   UNL     1     117.910 179.652 124.823  1.00  0.00    -0.550 OA
ENDBRANCH   7   8
ENDBRANCH   6   7
ENDBRANCH   5   6
ENDBRANCH   4   5
ENDBRANCH   3   4
ENDBRANCH   2   3
ENDBRANCH   1   2
BRANCH   1  11
ATOM     11  C   UNL     1     121.258 176.982 131.045  1.00  0.00     0.000 C 
BRANCH  11  12
ATOM     12  C   UNL     1     120.405 175.783 130.587  1.00  0.00    -0.000 C 
BRANCH  12  13
ATOM     13  C   UNL     1     119.135 176.144 129.790  1.00  0.00    -0.000 C 
BRANCH  13  14
ATOM     14  C   UNL     1     119.373 176.525 128.317  1.00  0.00    -0.000 C 
BRANCH  14  15
ATOM     15  C   UNL     1     119.984 175.378 127.494  1.00  0.00    -0.000 C 
BRANCH  15  16
ATOM     16  C   UNL     1     121.474 175.596 127.178  1.00  0.00    -0.000 C 
BRANCH  16  17
ATOM     17  C   UNL     1     121.962 174.958 125.864  1.00  0.00    -0.003 C 
ATOM     18  C   UNL     1     122.701 175.942 124.958  1.00  0.00     0.004 C 
ENDBRANCH  16  17
ENDBRANCH  15  16
ENDBRANCH  14  15
ENDBRANCH  13  14
ENDBRANCH  12  13
ENDBRANCH  11  12
ENDBRANCH   1  11
TORSDOF 14
ENDMDL
