MODEL 1
REMARK VINA RESULT:    -3.542      0.000      0.000
REMARK INTER + INTRA:         -10.983
REMARK INTER:                  -7.682
REMARK INTRA:                  -3.300
REMARK UNBOUND:                -3.300
REMARK SMILES CCCCCCCCCCCCCCCCCCCCCC(=O)[O-]
REMARK SMILES IDX 12 1 11 2 10 3 9 4 8 5 7 6 6 7 5 8 4 9 3 10 2 11 1 12 13 13
REMARK SMILES IDX 14 14 15 15 16 16 17 17 18 18 19 19 20 20 21 21 22 22 23 23
REMARK SMILES IDX 24 24
REMARK H PARENT
REMARK Flexibility Score: inf
ROOT
ATOM      1  C   UNL     1       2.563   8.467  -9.567  1.00  0.00     0.000 C 
ENDROOT
BRANCH   1   2
ATOM      2  C   UNL     1       2.316   8.064 -11.037  1.00  0.00     0.000 C 
BRANCH   2   3
ATOM      3  C   UNL     1       1.776   9.208 -11.912  1.00  0.00     0.000 C 
BRANCH   3   4
ATOM      4  C   UNL     1       0.780  10.112 -11.167  1.00  0.00    -0.000 C 
BRANCH   4   5
ATOM      5  C   UNL     1      -0.049  10.986 -12.123  1.00  0.00    -0.000 C 
BRANCH   5   6
ATOM      6  C   UNL     1      -0.696  12.184 -11.407  1.00  0.00    -0.000 C 
BRANCH   6   7
ATOM      7  C   UNL     1       0.340  13.191 -10.886  1.00  0.00    -0.000 C 
BRANCH   7   8
ATOM      8  C   UNL     1       1.451  13.485 -11.911  1.00  0.00    -0.000 C 
BRANCH   8   9
ATOM      9  C   UNL     1       2.805  13.780 -11.246  1.00  0.00    -0.000 C 
BRANCH   9  10
ATOM     10  C   UNL     1       3.468  12.519 -10.670  1.00  0.00    -0.000 C 
BRANCH  10  11
ATOM     11  C   UNL     1       3.636  12.636  -9.151  1.00  0.00    -0.003 C 
ATOM     12  C   UNL     1       2.506  11.920  -8.416  1.00  0.00     0.004 C 
ENDBRANCH  10  11
ENDBRANCH   9  10
ENDBRANCH   8   9
ENDBRANCH   7   8
ENDBRANCH   6   7
ENDBRANCH   5   6
ENDBRANCH   4   5
ENDBRANCH   3   4
ENDBRANCH   2   3
ENDBRANCH   1   2
BRANCH   1  13
ATOM     13  C   UNL     1       1.872   7.515  -8.578  1.00  0.00     0.000 C 
BRANCH  13  14
ATOM     14  C   UNL     1       0.756   8.235  -7.808  1.00  0.00     0.000 C 
BRANCH  14  15
ATOM     15  C   UNL     1      -0.644   7.973  -8.395  1.00  0.00     0.000 C 
BRANCH  15  16
ATOM     16  C   UNL     1      -0.792   6.644  -9.160  1.00  0.00     0.000 C 
BRANCH  16  17
ATOM     17  C   UNL     1      -0.952   6.789 -10.685  1.00  0.00     0.000 C 
BRANCH  17  18
ATOM     18  C   UNL     1      -1.895   7.938 -11.102  1.00  0.00     0.000 C 
BRANCH  18  19
ATOM     19  C   UNL     1      -3.372   7.617 -10.816  1.00  0.00     0.000 C 
BRANCH  19  20
ATOM     20  C   UNL     1      -4.333   8.638 -11.443  1.00  0.00     0.006 C 
BRANCH  20  21
ATOM     21  C   UNL     1      -3.853  10.086 -11.274  1.00  0.00     0.053 C 
BRANCH  21  22
ATOM     22  C   UNL     1      -4.949  10.939 -10.717  1.00  0.00     0.041 C 
ATOM     23  O   UNL     1      -4.697  12.101 -10.300  1.00  0.00    -0.550 OA
ATOM     24  O   UNL     1      -6.256  10.470 -10.704  1.00  0.00    -0.550 OA
ENDBRANCH  21  22
ENDBRANCH  20  21
ENDBRANCH  19  20
ENDBRANCH  18  19
ENDBRANCH  17  18
ENDBRANCH  16  17
ENDBRANCH  15  16
ENDBRANCH  14  15
ENDBRANCH  13  14
ENDBRANCH   1  13
TORSDOF 20
ENDMDL
MODEL 2
REMARK VINA RESULT:    -3.352      2.616      6.147
REMARK INTER + INTRA:         -10.570
REMARK INTER:                  -7.725
REMARK INTRA:                  -2.846
REMARK UNBOUND:                -3.300
REMARK SMILES CCCCCCCCCCCCCCCCCCCCCC(=O)[O-]
REMARK SMILES IDX 12 1 11 2 10 3 9 4 8 5 7 6 6 7 5 8 4 9 3 10 2 11 1 12 13 13
REMARK SMILES IDX 14 14 15 15 16 16 17 17 18 18 19 19 20 20 21 21 22 22 23 23
REMARK SMILES IDX 24 24
REMARK H PARENT
REMARK Flexibility Score: inf
ROOT
ATOM      1  C   UNL     1       0.990   7.907  -7.796  1.00  0.00     0.000 C 
ENDROOT
BRANCH   1   2
ATOM      2  C   UNL     1      -0.496   7.922  -8.214  1.00  0.00     0.000 C 
BRANCH   2   3
ATOM      3  C   UNL     1      -0.860   6.844  -9.249  1.00  0.00     0.000 C 
BRANCH   3   4
ATOM      4  C   UNL     1      -2.294   6.988  -9.784  1.00  0.00    -0.000 C 
BRANCH   4   5
ATOM      5  C   UNL     1      -2.333   7.260 -11.297  1.00  0.00    -0.000 C 
BRANCH   5   6
ATOM      6  C   UNL     1      -3.740   7.649 -11.785  1.00  0.00    -0.000 C 
BRANCH   6   7
ATOM      7  C   UNL     1      -4.144   9.066 -11.353  1.00  0.00    -0.000 C 
BRANCH   7   8
ATOM      8  C   UNL     1      -2.976  10.066 -11.427  1.00  0.00    -0.000 C 
BRANCH   8   9
ATOM      9  C   UNL     1      -3.447  11.529 -11.391  1.00  0.00    -0.000 C 
BRANCH   9  10
ATOM     10  C   UNL     1      -4.946  11.676 -11.694  1.00  0.00    -0.000 C 
BRANCH  10  11
ATOM     11  C   UNL     1      -5.633  12.552 -10.641  1.00  0.00    -0.003 C 
ATOM     12  C   UNL     1      -4.625  13.088  -9.627  1.00  0.00     0.004 C 
ENDBRANCH  10  11
ENDBRANCH   9  10
ENDBRANCH   8   9
ENDBRANCH   7   8
ENDBRANCH   6   7
ENDBRANCH   5   6
ENDBRANCH   4   5
ENDBRANCH   3   4
ENDBRANCH   2   3
ENDBRANCH   1   2
BRANCH   1  13
ATOM     13  C   UNL     1       1.902   7.370  -8.910  1.00  0.00     0.000 C 
BRANCH  13  14
ATOM     14  C   UNL     1       2.640   8.516  -9.618  1.00  0.00     0.000 C 
BRANCH  14  15
ATOM     15  C   UNL     1       2.700   8.338 -11.146  1.00  0.00     0.000 C 
BRANCH  15  16
ATOM     16  C   UNL     1       1.345   8.452 -11.869  1.00  0.00     0.000 C 
BRANCH  16  17
ATOM     17  C   UNL     1       0.478   9.650 -11.436  1.00  0.00     0.000 C 
BRANCH  17  18
ATOM     18  C   UNL     1       0.863  10.976 -12.125  1.00  0.00     0.000 C 
BRANCH  18  19
ATOM     19  C   UNL     1       0.648  12.195 -11.211  1.00  0.00     0.000 C 
BRANCH  19  20
ATOM     20  C   UNL     1       1.941  12.987 -10.965  1.00  0.00     0.006 C 
BRANCH  20  21
ATOM     21  C   UNL     1       3.095  12.102 -10.474  1.00  0.00     0.053 C 
BRANCH  21  22
ATOM     22  C   UNL     1       3.234  12.201  -8.988  1.00  0.00     0.041 C 
ATOM     23  O   UNL     1       2.282  11.853  -8.238  1.00  0.00    -0.550 OA
ATOM     24  O   UNL     1       4.430  12.629  -8.428  1.00  0.00    -0.550 OA
ENDBRANCH  21  22
ENDBRANCH  20  21
ENDBRANCH  19  20
ENDBRANCH  18  19
ENDBRANCH  17  18
ENDBRANCH  16  17
ENDBRANCH  15  16
ENDBRANCH  14  15
ENDBRANCH  13  14
ENDBRANCH   1  13
TORSDOF 20
ENDMDL
MODEL 3
REMARK VINA RESULT:    -3.281      1.181      2.311
REMARK INTER + INTRA:         -10.416
REMARK INTER:                  -7.507
REMARK INTRA:                  -2.909
REMARK UNBOUND:                -3.300
REMARK SMILES CCCCCCCCCCCCCCCCCCCCCC(=O)[O-]
REMARK SMILES IDX 12 1 11 2 10 3 9 4 8 5 7 6 6 7 5 8 4 9 3 10 2 11 1 12 13 13
REMARK SMILES IDX 14 14 15 15 16 16 17 17 18 18 19 19 20 20 21 21 22 22 23 23
REMARK SMILES IDX 24 24
REMARK H PARENT
REMARK Flexibility Score: inf
ROOT
ATOM      1  C   UNL     1       0.937   8.184  -7.772  1.00  0.00     0.000 C 
ENDROOT
BRANCH   1   2
ATOM      2  C   UNL     1       1.821   7.389  -8.757  1.00  0.00     0.000 C 
BRANCH   2   3
ATOM      3  C   UNL     1       2.494   8.263  -9.830  1.00  0.00     0.000 C 
BRANCH   3   4
ATOM      4  C   UNL     1       1.741   9.577 -10.090  1.00  0.00    -0.000 C 
BRANCH   4   5
ATOM      5  C   UNL     1       0.755   9.467 -11.266  1.00  0.00    -0.000 C 
BRANCH   5   6
ATOM      6  C   UNL     1       0.586  10.800 -12.014  1.00  0.00    -0.000 C 
BRANCH   6   7
ATOM      7  C   UNL     1      -0.702  11.539 -11.621  1.00  0.00    -0.000 C 
BRANCH   7   8
ATOM      8  C   UNL     1      -0.502  13.061 -11.505  1.00  0.00    -0.000 C 
BRANCH   8   9
ATOM      9  C   UNL     1       0.957  13.445 -11.205  1.00  0.00    -0.000 C 
BRANCH   9  10
ATOM     10  C   UNL     1       1.151  13.954  -9.769  1.00  0.00    -0.000 C 
BRANCH  10  11
ATOM     11  C   UNL     1       1.929  12.935  -8.929  1.00  0.00    -0.003 C 
ATOM     12  C   UNL     1       3.435  13.138  -9.073  1.00  0.00     0.004 C 
ENDBRANCH  10  11
ENDBRANCH   9  10
ENDBRANCH   8   9
ENDBRANCH   7   8
ENDBRANCH   6   7
ENDBRANCH   5   6
ENDBRANCH   4   5
ENDBRANCH   3   4
ENDBRANCH   2   3
ENDBRANCH   1   2
BRANCH   1  13
ATOM     13  C   UNL     1      -0.562   7.990  -8.050  1.00  0.00     0.000 C 
BRANCH  13  14
ATOM     14  C   UNL     1      -0.789   6.911  -9.119  1.00  0.00     0.000 C 
BRANCH  14  15
ATOM     15  C   UNL     1      -2.220   6.922  -9.689  1.00  0.00     0.000 C 
BRANCH  15  16
ATOM     16  C   UNL     1      -2.323   7.284 -11.183  1.00  0.00     0.000 C 
BRANCH  16  17
ATOM     17  C   UNL     1      -2.968   8.652 -11.475  1.00  0.00     0.000 C 
BRANCH  17  18
ATOM     18  C   UNL     1      -3.646   9.293 -10.245  1.00  0.00     0.000 C 
BRANCH  18  19
ATOM     19  C   UNL     1      -4.917  10.074 -10.620  1.00  0.00     0.000 C 
BRANCH  19  20
ATOM     20  C   UNL     1      -4.649  11.191 -11.640  1.00  0.00     0.006 C 
BRANCH  20  21
ATOM     21  C   UNL     1      -4.252  12.517 -10.977  1.00  0.00     0.053 C 
BRANCH  21  22
ATOM     22  C   UNL     1      -5.207  12.857  -9.877  1.00  0.00     0.041 C 
ATOM     23  O   UNL     1      -4.790  13.000  -8.697  1.00  0.00    -0.550 OA
ATOM     24  O   UNL     1      -6.551  13.066 -10.162  1.00  0.00    -0.550 OA
ENDBRANCH  21  22
ENDBRANCH  20  21
ENDBRANCH  19  20
ENDBRANCH  18  19
ENDBRANCH  17  18
ENDBRANCH  16  17
ENDBRANCH  15  16
ENDBRANCH  14  15
ENDBRANCH  13  14
ENDBRANCH   1  13
TORSDOF 20
ENDMDL
MODEL 4
REMARK VINA RESULT:    -3.278      6.150     10.105
REMARK INTER + INTRA:         -10.411
REMARK INTER:                  -8.878
REMARK INTRA:                  -1.533
REMARK UNBOUND:                -3.300
REMARK SMILES CCCCCCCCCCCCCCCCCCCCCC(=O)[O-]
REMARK SMILES IDX 12 1 11 2 10 3 9 4 8 5 7 6 6 7 5 8 4 9 3 10 2 11 1 12 13 13
REMARK SMILES IDX 14 14 15 15 16 16 17 17 18 18 19 19 20 20 21 21 22 22 23 23
REMARK SMILES IDX 24 24
REMARK H PARENT
REMARK Flexibility Score: inf
ROOT
ATOM      1  C   UNL     1       2.316  10.794  -9.613  1.00  0.00     0.000 C 
ENDROOT
BRANCH   1   2
ATOM      2  C   UNL     1       2.030   9.930 -10.859  1.00  0.00     0.000 C 
BRANCH   2   3
ATOM      3  C   UNL     1       2.188   8.419 -10.616  1.00  0.00     0.000 C 
BRANCH   3   4
ATOM      4  C   UNL     1       2.584   8.084  -9.169  1.00  0.00    -0.000 C 
BRANCH   4   5
ATOM      5  C   UNL     1       1.468   7.349  -8.408  1.00  0.00    -0.000 C 
BRANCH   5   6
ATOM      6  C   UNL     1       0.303   8.282  -8.033  1.00  0.00    -0.000 C 
BRANCH   6   7
ATOM      7  C   UNL     1      -1.067   7.697  -8.407  1.00  0.00    -0.000 C 
BRANCH   7   8
ATOM      8  C   UNL     1      -1.056   6.986  -9.772  1.00  0.00    -0.000 C 
BRANCH   8   9
ATOM      9  C   UNL     1      -2.039   7.613 -10.774  1.00  0.00    -0.000 C 
BRANCH   9  10
ATOM     10  C   UNL     1      -1.964   9.148 -10.794  1.00  0.00    -0.000 C 
BRANCH  10  11
ATOM     11  C   UNL     1      -3.333   9.766 -10.489  1.00  0.00    -0.003 C 
ATOM     12  C   UNL     1      -4.465   8.854 -10.954  1.00  0.00     0.004 C 
ENDBRANCH  10  11
ENDBRANCH   9  10
ENDBRANCH   8   9
ENDBRANCH   7   8
ENDBRANCH   6   7
ENDBRANCH   5   6
ENDBRANCH   4   5
ENDBRANCH   3   4
ENDBRANCH   2   3
ENDBRANCH   1   2
BRANCH   1  13
ATOM     13  C   UNL     1       3.335  11.909  -9.899  1.00  0.00     0.000 C 
BRANCH  13  14
ATOM     14  C   UNL     1       3.759  12.614  -8.602  1.00  0.00     0.000 C 
BRANCH  14  15
ATOM     15  C   UNL     1       5.052  13.436  -8.761  1.00  0.00     0.000 C 
BRANCH  15  16
ATOM     16  C   UNL     1       5.957  13.474  -7.514  1.00  0.00     0.000 C 
BRANCH  16  17
ATOM     17  C   UNL     1       7.256  12.655  -7.631  1.00  0.00     0.000 C 
BRANCH  17  18
ATOM     18  C   UNL     1       7.856  12.246  -6.269  1.00  0.00     0.000 C 
BRANCH  18  19
ATOM     19  C   UNL     1       9.242  11.594  -6.413  1.00  0.00     0.000 C 
BRANCH  19  20
ATOM     20  C   UNL     1       9.318  10.210  -5.751  1.00  0.00     0.006 C 
BRANCH  20  21
ATOM     21  C   UNL     1      10.685   9.931  -5.113  1.00  0.00     0.053 C 
BRANCH  21  22
ATOM     22  C   UNL     1      11.091   8.510  -5.345  1.00  0.00     0.041 C 
ATOM     23  O   UNL     1      10.946   7.653  -4.433  1.00  0.00    -0.550 OA
ATOM     24  O   UNL     1      11.582   8.121  -6.584  1.00  0.00    -0.550 OA
ENDBRANCH  21  22
ENDBRANCH  20  21
ENDBRANCH  19  20
ENDBRANCH  18  19
ENDBRANCH  17  18
ENDBRANCH  16  17
ENDBRANCH  15  16
ENDBRANCH  14  15
ENDBRANCH  13  14
ENDBRANCH   1  13
TORSDOF 20
ENDMDL
MODEL 5
REMARK VINA RESULT:    -3.273      2.638      6.135
REMARK INTER + INTRA:         -10.400
REMARK INTER:                  -7.471
REMARK INTRA:                  -2.929
REMARK UNBOUND:                -3.300
REMARK SMILES CCCCCCCCCCCCCCCCCCCCCC(=O)[O-]
REMARK SMILES IDX 12 1 11 2 10 3 9 4 8 5 7 6 6 7 5 8 4 9 3 10 2 11 1 12 13 13
REMARK SMILES IDX 14 14 15 15 16 16 17 17 18 18 19 19 20 20 21 21 22 22 23 23
REMARK SMILES IDX 24 24
REMARK H PARENT
REMARK Flexibility Score: inf
ROOT
ATOM      1  C   UNL     1       1.862   7.384  -8.630  1.00  0.00     0.000 C 
ENDROOT
BRANCH   1   2
ATOM      2  C   UNL     1       0.783   8.091  -7.783  1.00  0.00     0.000 C 
BRANCH   2   3
ATOM      3  C   UNL     1      -0.625   8.034  -8.399  1.00  0.00     0.000 C 
BRANCH   3   4
ATOM      4  C   UNL     1      -0.888   6.730  -9.170  1.00  0.00    -0.000 C 
BRANCH   4   5
ATOM      5  C   UNL     1      -2.256   6.727  -9.872  1.00  0.00    -0.000 C 
BRANCH   5   6
ATOM      6  C   UNL     1      -2.410   7.899 -10.858  1.00  0.00    -0.000 C 
BRANCH   6   7
ATOM      7  C   UNL     1      -3.880   8.234 -11.152  1.00  0.00    -0.000 C 
BRANCH   7   8
ATOM      8  C   UNL     1      -4.037   9.419 -12.121  1.00  0.00    -0.000 C 
BRANCH   8   9
ATOM      9  C   UNL     1      -3.160  10.621 -11.732  1.00  0.00    -0.000 C 
BRANCH   9  10
ATOM     10  C   UNL     1      -3.694  11.368 -10.500  1.00  0.00    -0.000 C 
BRANCH  10  11
ATOM     11  C   UNL     1      -3.841  12.866 -10.791  1.00  0.00    -0.003 C 
ATOM     12  C   UNL     1      -2.555  13.443 -11.377  1.00  0.00     0.004 C 
ENDBRANCH  10  11
ENDBRANCH   9  10
ENDBRANCH   8   9
ENDBRANCH   7   8
ENDBRANCH   6   7
ENDBRANCH   5   6
ENDBRANCH   4   5
ENDBRANCH   3   4
ENDBRANCH   2   3
ENDBRANCH   1   2
BRANCH   1  13
ATOM     13  C   UNL     1       2.496   8.324  -9.668  1.00  0.00     0.000 C 
BRANCH  13  14
ATOM     14  C   UNL     1       2.171   7.865 -11.097  1.00  0.00     0.000 C 
BRANCH  14  15
ATOM     15  C   UNL     1       1.008   8.651 -11.731  1.00  0.00     0.000 C 
BRANCH  15  16
ATOM     16  C   UNL     1       0.710  10.014 -11.077  1.00  0.00     0.000 C 
BRANCH  16  17
ATOM     17  C   UNL     1       0.595  11.193 -12.061  1.00  0.00     0.000 C 
BRANCH  17  18
ATOM     18  C   UNL     1       1.725  12.234 -11.916  1.00  0.00     0.000 C 
BRANCH  18  19
ATOM     19  C   UNL     1       1.220  13.570 -11.343  1.00  0.00     0.000 C 
BRANCH  19  20
ATOM     20  C   UNL     1       1.167  13.574  -9.808  1.00  0.00     0.006 C 
BRANCH  20  21
ATOM     21  C   UNL     1       2.529  13.881  -9.169  1.00  0.00     0.053 C 
BRANCH  21  22
ATOM     22  C   UNL     1       3.181  12.620  -8.698  1.00  0.00     0.041 C 
ATOM     23  O   UNL     1       4.434  12.559  -8.584  1.00  0.00    -0.550 OA
ATOM     24  O   UNL     1       2.404  11.527  -8.339  1.00  0.00    -0.550 OA
ENDBRANCH  21  22
ENDBRANCH  20  21
ENDBRANCH  19  20
ENDBRANCH  18  19
ENDBRANCH  17  18
ENDBRANCH  16  17
ENDBRANCH  15  16
ENDBRANCH  14  15
ENDBRANCH  13  14
ENDBRANCH   1  13
TORSDOF 20
ENDMDL
MODEL 6
REMARK VINA RESULT:    -3.264      1.700      2.403
REMARK INTER + INTRA:         -10.381
REMARK INTER:                  -8.237
REMARK INTRA:                  -2.143
REMARK UNBOUND:                -3.300
REMARK SMILES CCCCCCCCCCCCCCCCCCCCCC(=O)[O-]
REMARK SMILES IDX 12 1 11 2 10 3 9 4 8 5 7 6 6 7 5 8 4 9 3 10 2 11 1 12 13 13
REMARK SMILES IDX 14 14 15 15 16 16 17 17 18 18 19 19 20 20 21 21 22 22 23 23
REMARK SMILES IDX 24 24
REMARK H PARENT
REMARK Flexibility Score: inf
ROOT
ATOM      1  C   UNL     1       2.698   8.164  -9.774  1.00  0.00     0.000 C 
ENDROOT
BRANCH   1   2
ATOM      2  C   UNL     1       2.029   8.085 -11.163  1.00  0.00     0.000 C 
BRANCH   2   3
ATOM      3  C   UNL     1       1.773   9.459 -11.808  1.00  0.00     0.000 C 
BRANCH   3   4
ATOM      4  C   UNL     1       3.000  10.383 -11.752  1.00  0.00    -0.000 C 
BRANCH   4   5
ATOM      5  C   UNL     1       2.669  11.766 -11.167  1.00  0.00    -0.000 C 
BRANCH   5   6
ATOM      6  C   UNL     1       2.097  11.675  -9.741  1.00  0.00    -0.000 C 
BRANCH   6   7
ATOM      7  C   UNL     1       3.040  12.276  -8.687  1.00  0.00    -0.000 C 
BRANCH   7   8
ATOM      8  C   UNL     1       4.168  13.118  -9.310  1.00  0.00    -0.000 C 
BRANCH   8   9
ATOM      9  C   UNL     1       4.952  13.924  -8.262  1.00  0.00    -0.000 C 
BRANCH   9  10
ATOM     10  C   UNL     1       6.133  13.138  -7.673  1.00  0.00    -0.000 C 
BRANCH  10  11
ATOM     11  C   UNL     1       6.592  13.753  -6.346  1.00  0.00    -0.003 C 
ATOM     12  C   UNL     1       6.794  12.678  -5.282  1.00  0.00     0.004 C 
ENDBRANCH  10  11
ENDBRANCH   9  10
ENDBRANCH   8   9
ENDBRANCH   7   8
ENDBRANCH   6   7
ENDBRANCH   5   6
ENDBRANCH   4   5
ENDBRANCH   3   4
ENDBRANCH   2   3
ENDBRANCH   1   2
BRANCH   1  13
ATOM     13  C   UNL     1       1.830   7.532  -8.674  1.00  0.00     0.000 C 
BRANCH  13  14
ATOM     14  C   UNL     1       0.693   8.477  -8.258  1.00  0.00     0.000 C 
BRANCH  14  15
ATOM     15  C   UNL     1      -0.705   7.871  -8.487  1.00  0.00     0.000 C 
BRANCH  15  16
ATOM     16  C   UNL     1      -0.749   6.688  -9.473  1.00  0.00     0.000 C 
BRANCH  16  17
ATOM     17  C   UNL     1      -1.426   6.995 -10.822  1.00  0.00     0.000 C 
BRANCH  17  18
ATOM     18  C   UNL     1      -2.969   7.005 -10.753  1.00  0.00     0.000 C 
BRANCH  18  19
ATOM     19  C   UNL     1      -3.584   8.144 -11.583  1.00  0.00     0.000 C 
BRANCH  19  20
ATOM     20  C   UNL     1      -3.041   9.526 -11.188  1.00  0.00     0.006 C 
BRANCH  20  21
ATOM     21  C   UNL     1      -3.931  10.241 -10.161  1.00  0.00     0.053 C 
BRANCH  21  22
ATOM     22  C   UNL     1      -5.074  10.922 -10.845  1.00  0.00     0.041 C 
ATOM     23  O   UNL     1      -4.867  11.930 -11.573  1.00  0.00    -0.550 OA
ATOM     24  O   UNL     1      -6.361  10.416 -10.719  1.00  0.00    -0.550 OA
ENDBRANCH  21  22
ENDBRANCH  20  21
ENDBRANCH  19  20
ENDBRANCH  18  19
ENDBRANCH  17  18
ENDBRANCH  16  17
ENDBRANCH  15  16
ENDBRANCH  14  15
ENDBRANCH  13  14
ENDBRANCH   1  13
TORSDOF 20
ENDMDL
MODEL 7
REMARK VINA RESULT:    -3.264      4.136      8.074
REMARK INTER + INTRA:         -10.379
REMARK INTER:                  -7.798
REMARK INTRA:                  -2.581
REMARK UNBOUND:                -3.300
REMARK SMILES CCCCCCCCCCCCCCCCCCCCCC(=O)[O-]
REMARK SMILES IDX 12 1 11 2 10 3 9 4 8 5 7 6 6 7 5 8 4 9 3 10 2 11 1 12 13 13
REMARK SMILES IDX 14 14 15 15 16 16 17 17 18 18 19 19 20 20 21 21 22 22 23 23
REMARK SMILES IDX 24 24
REMARK H PARENT
REMARK Flexibility Score: inf
ROOT
ATOM      1  C   UNL     1       2.157   7.767 -11.213  1.00  0.00     0.000 C 
ENDROOT
BRANCH   1   2
ATOM      2  C   UNL     1       2.518   8.202  -9.776  1.00  0.00     0.000 C 
BRANCH   2   3
ATOM      3  C   UNL     1       1.692   7.494  -8.688  1.00  0.00     0.000 C 
BRANCH   3   4
ATOM      4  C   UNL     1       0.711   8.438  -7.974  1.00  0.00    -0.000 C 
BRANCH   4   5
ATOM      5  C   UNL     1      -0.758   8.102  -8.283  1.00  0.00    -0.000 C 
BRANCH   5   6
ATOM      6  C   UNL     1      -0.900   6.829  -9.135  1.00  0.00    -0.000 C 
BRANCH   6   7
ATOM      7  C   UNL     1      -2.246   6.758  -9.871  1.00  0.00    -0.000 C 
BRANCH   7   8
ATOM      8  C   UNL     1      -2.256   7.580 -11.172  1.00  0.00    -0.000 C 
BRANCH   8   9
ATOM      9  C   UNL     1      -3.575   8.340 -11.383  1.00  0.00    -0.000 C 
BRANCH   9  10
ATOM     10  C   UNL     1      -3.880   9.323 -10.242  1.00  0.00    -0.000 C 
BRANCH  10  11
ATOM     11  C   UNL     1      -3.437  10.743 -10.611  1.00  0.00    -0.003 C 
ATOM     12  C   UNL     1      -3.422  10.940 -12.125  1.00  0.00     0.004 C 
ENDBRANCH  10  11
ENDBRANCH   9  10
ENDBRANCH   8   9
ENDBRANCH   7   8
ENDBRANCH   6   7
ENDBRANCH   5   6
ENDBRANCH   4   5
ENDBRANCH   3   4
ENDBRANCH   2   3
ENDBRANCH   1   2
BRANCH   1  13
ATOM     13  C   UNL     1       1.643   8.939 -12.063  1.00  0.00     0.000 C 
BRANCH  13  14
ATOM     14  C   UNL     1       0.495   9.673 -11.354  1.00  0.00     0.000 C 
BRANCH  14  15
ATOM     15  C   UNL     1       0.714  11.196 -11.275  1.00  0.00     0.000 C 
BRANCH  15  16
ATOM     16  C   UNL     1       2.187  11.646 -11.319  1.00  0.00     0.000 C 
BRANCH  16  17
ATOM     17  C   UNL     1       2.843  11.852  -9.941  1.00  0.00     0.000 C 
BRANCH  17  18
ATOM     18  C   UNL     1       4.116  12.723  -9.984  1.00  0.00     0.000 C 
BRANCH  18  19
ATOM     19  C   UNL     1       4.461  13.323  -8.610  1.00  0.00     0.000 C 
BRANCH  19  20
ATOM     20  C   UNL     1       5.962  13.608  -8.447  1.00  0.00     0.006 C 
BRANCH  20  21
ATOM     21  C   UNL     1       6.425  13.528  -6.986  1.00  0.00     0.053 C 
BRANCH  21  22
ATOM     22  C   UNL     1       7.590  12.598  -6.857  1.00  0.00     0.041 C 
ATOM     23  O   UNL     1       8.165  12.454  -5.745  1.00  0.00    -0.550 OA
ATOM     24  O   UNL     1       8.009  11.853  -7.951  1.00  0.00    -0.550 OA
ENDBRANCH  21  22
ENDBRANCH  20  21
ENDBRANCH  19  20
ENDBRANCH  18  19
ENDBRANCH  17  18
ENDBRANCH  16  17
ENDBRANCH  15  16
ENDBRANCH  14  15
ENDBRANCH  13  14
ENDBRANCH   1  13
TORSDOF 20
ENDMDL
MODEL 8
REMARK VINA RESULT:    -3.190      3.948      5.874
REMARK INTER + INTRA:         -10.219
REMARK INTER:                  -8.809
REMARK INTRA:                  -1.410
REMARK UNBOUND:                -3.300
REMARK SMILES CCCCCCCCCCCCCCCCCCCCCC(=O)[O-]
REMARK SMILES IDX 12 1 11 2 10 3 9 4 8 5 7 6 6 7 5 8 4 9 3 10 2 11 1 12 13 13
REMARK SMILES IDX 14 14 15 15 16 16 17 17 18 18 19 19 20 20 21 21 22 22 23 23
REMARK SMILES IDX 24 24
REMARK H PARENT
REMARK Flexibility Score: inf
ROOT
ATOM      1  C   UNL     1       2.168  11.580  -9.321  1.00  0.00     0.000 C 
ENDROOT
BRANCH   1   2
ATOM      2  C   UNL     1       3.293  12.459  -8.733  1.00  0.00     0.000 C 
BRANCH   2   3
ATOM      3  C   UNL     1       4.306  12.952  -9.781  1.00  0.00     0.000 C 
BRANCH   3   4
ATOM      4  C   UNL     1       5.637  13.403  -9.158  1.00  0.00    -0.000 C 
BRANCH   4   5
ATOM      5  C   UNL     1       5.541  13.587  -7.634  1.00  0.00    -0.000 C 
BRANCH   5   6
ATOM      6  C   UNL     1       6.920  13.548  -6.952  1.00  0.00    -0.000 C 
BRANCH   6   7
ATOM      7  C   UNL     1       6.944  12.630  -5.721  1.00  0.00    -0.000 C 
BRANCH   7   8
ATOM      8  C   UNL     1       8.334  12.023  -5.460  1.00  0.00    -0.000 C 
BRANCH   8   9
ATOM      9  C   UNL     1       8.285  10.500  -5.255  1.00  0.00    -0.000 C 
BRANCH   9  10
ATOM     10  C   UNL     1       9.382   9.762  -6.039  1.00  0.00    -0.000 C 
BRANCH  10  11
ATOM     11  C   UNL     1      10.718   9.815  -5.290  1.00  0.00    -0.003 C 
ATOM     12  C   UNL     1      11.128   8.430  -4.797  1.00  0.00     0.004 C 
ENDBRANCH  10  11
ENDBRANCH   9  10
ENDBRANCH   8   9
ENDBRANCH   7   8
ENDBRANCH   6   7
ENDBRANCH   5   6
ENDBRANCH   4   5
ENDBRANCH   3   4
ENDBRANCH   2   3
ENDBRANCH   1   2
BRANCH   1  13
ATOM     13  C   UNL     1       2.704  10.537 -10.315  1.00  0.00     0.000 C 
BRANCH  13  14
ATOM     14  C   UNL     1       1.877   9.244 -10.256  1.00  0.00     0.000 C 
BRANCH  14  15
ATOM     15  C   UNL     1       2.550   8.138  -9.422  1.00  0.00     0.000 C 
BRANCH  15  16
ATOM     16  C   UNL     1       1.627   7.431  -8.412  1.00  0.00     0.000 C 
BRANCH  16  17
ATOM     17  C   UNL     1       0.447   8.282  -7.906  1.00  0.00     0.000 C 
BRANCH  17  18
ATOM     18  C   UNL     1      -0.920   7.846  -8.476  1.00  0.00     0.000 C 
BRANCH  18  19
ATOM     19  C   UNL     1      -0.785   6.747  -9.544  1.00  0.00     0.000 C 
BRANCH  19  20
ATOM     20  C   UNL     1      -1.447   7.132 -10.877  1.00  0.00     0.006 C 
BRANCH  20  21
ATOM     21  C   UNL     1      -2.979   7.150 -10.794  1.00  0.00     0.053 C 
BRANCH  21  22
ATOM     22  C   UNL     1      -3.515   8.450 -11.305  1.00  0.00     0.041 C 
ATOM     23  O   UNL     1      -2.772   9.467 -11.352  1.00  0.00    -0.550 OA
ATOM     24  O   UNL     1      -4.818   8.528 -11.777  1.00  0.00    -0.550 OA
ENDBRANCH  21  22
ENDBRANCH  20  21
ENDBRANCH  19  20
ENDBRANCH  18  19
ENDBRANCH  17  18
ENDBRANCH  16  17
ENDBRANCH  15  16
ENDBRANCH  14  15
ENDBRANCH  13  14
ENDBRANCH   1  13
TORSDOF 20
ENDMDL
MODEL 9
REMARK VINA RESULT:    -3.177      3.302      7.113
REMARK INTER + INTRA:         -10.192
REMARK INTER:                  -7.060
REMARK INTRA:                  -3.131
REMARK UNBOUND:                -3.300
REMARK SMILES CCCCCCCCCCCCCCCCCCCCCC(=O)[O-]
REMARK SMILES IDX 12 1 11 2 10 3 9 4 8 5 7 6 6 7 5 8 4 9 3 10 2 11 1 12 13 13
REMARK SMILES IDX 14 14 15 15 16 16 17 17 18 18 19 19 20 20 21 21 22 22 23 23
REMARK SMILES IDX 24 24
REMARK H PARENT
REMARK Flexibility Score: inf
ROOT
ATOM      1  C   UNL     1       1.956   8.172 -10.306  1.00  0.00     0.000 C 
ENDROOT
BRANCH   1   2
ATOM      2  C   UNL     1       1.378   8.670  -8.964  1.00  0.00     0.000 C 
BRANCH   2   3
ATOM      3  C   UNL     1       0.670   7.574  -8.148  1.00  0.00     0.000 C 
BRANCH   3   4
ATOM      4  C   UNL     1      -0.171   6.628  -9.021  1.00  0.00    -0.000 C 
BRANCH   4   5
ATOM      5  C   UNL     1      -1.588   7.168  -9.278  1.00  0.00    -0.000 C 
BRANCH   5   6
ATOM      6  C   UNL     1      -1.937   7.206 -10.776  1.00  0.00    -0.000 C 
BRANCH   6   7
ATOM      7  C   UNL     1      -3.444   7.358 -11.028  1.00  0.00    -0.000 C 
BRANCH   7   8
ATOM      8  C   UNL     1      -3.768   8.460 -12.053  1.00  0.00    -0.000 C 
BRANCH   8   9
ATOM      9  C   UNL     1      -3.306   9.852 -11.591  1.00  0.00    -0.000 C 
BRANCH   9  10
ATOM     10  C   UNL     1      -3.960  10.284 -10.270  1.00  0.00    -0.000 C 
BRANCH  10  11
ATOM     11  C   UNL     1      -4.834  11.526 -10.473  1.00  0.00    -0.003 C 
ATOM     12  C   UNL     1      -5.831  11.318 -11.610  1.00  0.00     0.004 C 
ENDBRANCH  10  11
ENDBRANCH   9  10
ENDBRANCH   8   9
ENDBRANCH   7   8
ENDBRANCH   6   7
ENDBRANCH   5   6
ENDBRANCH   4   5
ENDBRANCH   3   4
ENDBRANCH   2   3
ENDBRANCH   1   2
BRANCH   1  13
ATOM     13  C   UNL     1       1.491   9.030 -11.493  1.00  0.00     0.000 C 
BRANCH  13  14
ATOM     14  C   UNL     1       0.262   9.871 -11.118  1.00  0.00     0.000 C 
BRANCH  14  15
ATOM     15  C   UNL     1       0.081  11.106 -12.020  1.00  0.00     0.000 C 
BRANCH  15  16
ATOM     16  C   UNL     1      -0.112  12.438 -11.270  1.00  0.00     0.000 C 
BRANCH  16  17
ATOM     17  C   UNL     1       1.190  13.197 -10.952  1.00  0.00     0.000 C 
BRANCH  17  18
ATOM     18  C   UNL     1       1.845  12.773  -9.620  1.00  0.00     0.000 C 
BRANCH  18  19
ATOM     19  C   UNL     1       3.089  11.894  -9.834  1.00  0.00     0.000 C 
BRANCH  19  20
ATOM     20  C   UNL     1       4.015  12.435 -10.934  1.00  0.00     0.006 C 
BRANCH  20  21
ATOM     21  C   UNL     1       4.266  11.415 -12.053  1.00  0.00     0.053 C 
BRANCH  21  22
ATOM     22  C   UNL     1       5.342  10.455 -11.654  1.00  0.00     0.041 C 
ATOM     23  O   UNL     1       6.497  10.877 -11.378  1.00  0.00    -0.550 OA
ATOM     24  O   UNL     1       5.058   9.101 -11.537  1.00  0.00    -0.550 OA
ENDBRANCH  21  22
ENDBRANCH  20  21
ENDBRANCH  19  20
ENDBRANCH  18  19
ENDBRANCH  17  18
ENDBRANCH  16  17
ENDBRANCH  15  16
ENDBRANCH  14  15
ENDBRANCH  13  14
ENDBRANCH   1  13
TORSDOF 20
ENDMDL
