MODEL 1
REMARK VINA RESULT:    -4.032      0.000      0.000
REMARK INTER + INTRA:          -8.074
REMARK INTER:                  -6.860
REMARK INTRA:                  -1.214
REMARK UNBOUND:                -1.214
REMARK SMILES CCCCCCCCCCCCCC(=O)[O-]
REMARK SMILES IDX 8 1 9 2 10 3 11 4 12 5 13 6 14 7 15 8 16 9 7 10 6 11 5 12
REMARK SMILES IDX 4 13 3 14 2 15 1 16
REMARK H PARENT
REMARK Flexibility Score: inf
ROOT
ATOM      1  C   UNL     1      -4.368  35.170  -0.342  1.00  0.00     0.000 C 
ENDROOT
BRANCH   1   2
ATOM      2  C   UNL     1      -4.033  34.569   1.035  1.00  0.00     0.000 C 
BRANCH   2   3
ATOM      3  C   UNL     1      -5.195  33.841   1.737  1.00  0.00     0.000 C 
BRANCH   3   4
ATOM      4  C   UNL     1      -6.536  34.000   1.001  1.00  0.00     0.000 C 
BRANCH   4   5
ATOM      5  C   UNL     1      -7.354  32.699   0.980  1.00  0.00     0.006 C 
BRANCH   5   6
ATOM      6  C   UNL     1      -6.566  31.498   1.521  1.00  0.00     0.053 C 
BRANCH   6   7
ATOM      7  C   UNL     1      -7.447  30.291   1.601  1.00  0.00     0.041 C 
ATOM      8  O   UNL     1      -7.834  29.719   0.549  1.00  0.00    -0.550 OA
ATOM      9  O   UNL     1      -7.799  29.769   2.839  1.00  0.00    -0.550 OA
ENDBRANCH   6   7
ENDBRANCH   5   6
ENDBRANCH   4   5
ENDBRANCH   3   4
ENDBRANCH   2   3
ENDBRANCH   1   2
BRANCH   1  10
ATOM     10  C   UNL     1      -4.112  36.685  -0.414  1.00  0.00     0.000 C 
BRANCH  10  11
ATOM     11  C   UNL     1      -4.447  37.415   0.900  1.00  0.00    -0.000 C 
BRANCH  11  12
ATOM     12  C   UNL     1      -5.937  37.740   1.115  1.00  0.00    -0.000 C 
BRANCH  12  13
ATOM     13  C   UNL     1      -6.678  38.054  -0.195  1.00  0.00    -0.000 C 
BRANCH  13  14
ATOM     14  C   UNL     1      -7.828  37.070  -0.470  1.00  0.00    -0.000 C 
BRANCH  14  15
ATOM     15  C   UNL     1      -8.961  37.699  -1.294  1.00  0.00    -0.003 C 
ATOM     16  C   UNL     1     -10.178  36.779  -1.345  1.00  0.00     0.004 C 
ENDBRANCH  14  15
ENDBRANCH  13  14
ENDBRANCH  12  13
ENDBRANCH  11  12
ENDBRANCH  10  11
ENDBRANCH   1  10
TORSDOF 12
ENDMDL
MODEL 2
REMARK VINA RESULT:    -3.440     12.665     16.185
REMARK INTER + INTRA:          -7.067
REMARK INTER:                  -6.681
REMARK INTRA:                  -0.386
REMARK UNBOUND:                -1.214
REMARK SMILES CCCCCCCCCCCCCC(=O)[O-]
REMARK SMILES IDX 8 1 9 2 10 3 11 4 12 5 13 6 14 7 15 8 16 9 7 10 6 11 5 12
REMARK SMILES IDX 4 13 3 14 2 15 1 16
REMARK H PARENT
REMARK Flexibility Score: inf
ROOT
ATOM      1  C   UNL     1     -18.479  34.044 -11.278  1.00  0.00     0.000 C 
ENDROOT
BRANCH   1   2
ATOM      2  C   UNL     1     -17.746  33.269 -12.389  1.00  0.00     0.000 C 
BRANCH   2   3
ATOM      3  C   UNL     1     -16.231  33.533 -12.486  1.00  0.00     0.000 C 
BRANCH   3   4
ATOM      4  C   UNL     1     -15.489  33.279 -11.163  1.00  0.00     0.000 C 
BRANCH   4   5
ATOM      5  C   UNL     1     -14.529  34.421 -10.796  1.00  0.00     0.006 C 
BRANCH   5   6
ATOM      6  C   UNL     1     -14.366  34.590  -9.280  1.00  0.00     0.053 C 
BRANCH   6   7
ATOM      7  C   UNL     1     -13.315  35.613  -8.981  1.00  0.00     0.041 C 
ATOM      8  O   UNL     1     -13.245  36.133  -7.837  1.00  0.00    -0.550 OA
ATOM      9  O   UNL     1     -12.383  35.955  -9.952  1.00  0.00    -0.550 OA
ENDBRANCH   6   7
ENDBRANCH   5   6
ENDBRANCH   4   5
ENDBRANCH   3   4
ENDBRANCH   2   3
ENDBRANCH   1   2
BRANCH   1  10
ATOM     10  C   UNL     1     -18.500  33.292  -9.937  1.00  0.00     0.000 C 
BRANCH  10  11
ATOM     11  C   UNL     1     -19.201  34.081  -8.815  1.00  0.00    -0.000 C 
BRANCH  11  12
ATOM     12  C   UNL     1     -20.318  33.326  -8.073  1.00  0.00    -0.000 C 
BRANCH  12  13
ATOM     13  C   UNL     1     -21.448  34.250  -7.588  1.00  0.00    -0.000 C 
BRANCH  13  14
ATOM     14  C   UNL     1     -22.727  33.476  -7.227  1.00  0.00    -0.000 C 
BRANCH  14  15
ATOM     15  C   UNL     1     -23.968  34.011  -7.956  1.00  0.00    -0.003 C 
ATOM     16  C   UNL     1     -23.937  35.534  -8.045  1.00  0.00     0.004 C 
ENDBRANCH  14  15
ENDBRANCH  13  14
ENDBRANCH  12  13
ENDBRANCH  11  12
ENDBRANCH  10  11
ENDBRANCH   1  10
TORSDOF 12
ENDMDL
MODEL 3
REMARK VINA RESULT:    -3.146      1.565      2.827
REMARK INTER + INTRA:          -6.567
REMARK INTER:                  -5.714
REMARK INTRA:                  -0.854
REMARK UNBOUND:                -1.214
REMARK SMILES CCCCCCCCCCCCCC(=O)[O-]
REMARK SMILES IDX 8 1 9 2 10 3 11 4 12 5 13 6 14 7 15 8 16 9 7 10 6 11 5 12
REMARK SMILES IDX 4 13 3 14 2 15 1 16
REMARK H PARENT
REMARK Flexibility Score: inf
ROOT
ATOM      1  C   UNL     1      -6.447  37.225   1.158  1.00  0.00     0.000 C 
ENDROOT
BRANCH   1   2
ATOM      2  C   UNL     1      -5.180  36.913   1.976  1.00  0.00     0.000 C 
BRANCH   2   3
ATOM      3  C   UNL     1      -4.294  35.785   1.414  1.00  0.00     0.000 C 
BRANCH   3   4
ATOM      4  C   UNL     1      -4.231  34.554   2.332  1.00  0.00     0.000 C 
BRANCH   4   5
ATOM      5  C   UNL     1      -4.878  33.312   1.698  1.00  0.00     0.006 C 
BRANCH   5   6
ATOM      6  C   UNL     1      -5.932  33.671   0.643  1.00  0.00     0.053 C 
BRANCH   6   7
ATOM      7  C   UNL     1      -7.244  33.036   0.983  1.00  0.00     0.041 C 
ATOM      8  O   UNL     1      -8.300  33.722   0.978  1.00  0.00    -0.550 OA
ATOM      9  O   UNL     1      -7.308  31.676   1.255  1.00  0.00    -0.550 OA
ENDBRANCH   6   7
ENDBRANCH   5   6
ENDBRANCH   4   5
ENDBRANCH   3   4
ENDBRANCH   2   3
ENDBRANCH   1   2
BRANCH   1  10
ATOM     10  C   UNL     1      -6.272  36.951  -0.345  1.00  0.00     0.000 C 
BRANCH  10  11
ATOM     11  C   UNL     1      -6.736  38.123  -1.229  1.00  0.00    -0.000 C 
BRANCH  11  12
ATOM     12  C   UNL     1      -8.024  37.874  -2.036  1.00  0.00    -0.000 C 
BRANCH  12  13
ATOM     13  C   UNL     1      -9.272  37.737  -1.148  1.00  0.00    -0.000 C 
BRANCH  13  14
ATOM     14  C   UNL     1      -9.744  36.279  -1.017  1.00  0.00    -0.000 C 
BRANCH  14  15
ATOM     15  C   UNL     1     -11.272  36.145  -1.073  1.00  0.00    -0.003 C 
ATOM     16  C   UNL     1     -11.782  36.270  -2.506  1.00  0.00     0.004 C 
ENDBRANCH  14  15
ENDBRANCH  13  14
ENDBRANCH  12  13
ENDBRANCH  11  12
ENDBRANCH  10  11
ENDBRANCH   1  10
TORSDOF 12
ENDMDL
MODEL 4
REMARK VINA RESULT:    -3.056      2.774      5.491
REMARK INTER + INTRA:          -6.413
REMARK INTER:                  -5.324
REMARK INTRA:                  -1.089
REMARK UNBOUND:                -1.214
REMARK SMILES CCCCCCCCCCCCCC(=O)[O-]
REMARK SMILES IDX 8 1 9 2 10 3 11 4 12 5 13 6 14 7 15 8 16 9 7 10 6 11 5 12
REMARK SMILES IDX 4 13 3 14 2 15 1 16
REMARK H PARENT
REMARK Flexibility Score: inf
ROOT
ATOM      1  C   UNL     1      -4.738  37.856   1.093  1.00  0.00     0.000 C 
ENDROOT
BRANCH   1   2
ATOM      2  C   UNL     1      -6.247  37.733   1.374  1.00  0.00     0.000 C 
BRANCH   2   3
ATOM      3  C   UNL     1      -7.087  37.151   0.221  1.00  0.00     0.000 C 
BRANCH   3   4
ATOM      4  C   UNL     1      -7.148  38.075  -1.006  1.00  0.00     0.000 C 
BRANCH   4   5
ATOM      5  C   UNL     1      -8.317  37.734  -1.944  1.00  0.00     0.006 C 
BRANCH   5   6
ATOM      6  C   UNL     1      -9.676  37.780  -1.233  1.00  0.00     0.053 C 
BRANCH   6   7
ATOM      7  C   UNL     1     -10.477  36.560  -1.563  1.00  0.00     0.041 C 
ATOM      8  O   UNL     1     -10.726  35.706  -0.673  1.00  0.00    -0.550 OA
ATOM      9  O   UNL     1     -10.991  36.392  -2.842  1.00  0.00    -0.550 OA
ENDBRANCH   6   7
ENDBRANCH   5   6
ENDBRANCH   4   5
ENDBRANCH   3   4
ENDBRANCH   2   3
ENDBRANCH   1   2
BRANCH   1  10
ATOM     10  C   UNL     1      -3.875  37.086   2.106  1.00  0.00     0.000 C 
BRANCH  10  11
ATOM     11  C   UNL     1      -4.075  35.561   2.031  1.00  0.00    -0.000 C 
BRANCH  11  12
ATOM     12  C   UNL     1      -3.989  34.951   0.620  1.00  0.00    -0.000 C 
BRANCH  12  13
ATOM     13  C   UNL     1      -5.265  34.193   0.215  1.00  0.00    -0.000 C 
BRANCH  13  14
ATOM     14  C   UNL     1      -5.948  33.511   1.412  1.00  0.00    -0.000 C 
BRANCH  14  15
ATOM     15  C   UNL     1      -7.260  32.814   1.025  1.00  0.00    -0.003 C 
ATOM     16  C   UNL     1      -7.228  31.335   1.405  1.00  0.00     0.004 C 
ENDBRANCH  14  15
ENDBRANCH  13  14
ENDBRANCH  12  13
ENDBRANCH  11  12
ENDBRANCH  10  11
ENDBRANCH   1  10
TORSDOF 12
ENDMDL
MODEL 5
REMARK VINA RESULT:    -3.036      2.556      5.635
REMARK INTER + INTRA:          -6.380
REMARK INTER:                  -5.305
REMARK INTRA:                  -1.075
REMARK UNBOUND:                -1.214
REMARK SMILES CCCCCCCCCCCCCC(=O)[O-]
REMARK SMILES IDX 8 1 9 2 10 3 11 4 12 5 13 6 14 7 15 8 16 9 7 10 6 11 5 12
REMARK SMILES IDX 4 13 3 14 2 15 1 16
REMARK H PARENT
REMARK Flexibility Score: inf
ROOT
ATOM      1  C   UNL     1      -4.671  35.384  -0.603  1.00  0.00     0.000 C 
ENDROOT
BRANCH   1   2
ATOM      2  C   UNL     1      -4.310  36.823  -0.191  1.00  0.00     0.000 C 
BRANCH   2   3
ATOM      3  C   UNL     1      -5.485  37.674   0.327  1.00  0.00     0.000 C 
BRANCH   3   4
ATOM      4  C   UNL     1      -6.538  37.968  -0.754  1.00  0.00     0.000 C 
BRANCH   4   5
ATOM      5  C   UNL     1      -7.972  37.702  -0.268  1.00  0.00     0.006 C 
BRANCH   5   6
ATOM      6  C   UNL     1      -8.989  37.680  -1.416  1.00  0.00     0.053 C 
BRANCH   6   7
ATOM      7  C   UNL     1      -9.948  36.545  -1.240  1.00  0.00     0.041 C 
ATOM      8  O   UNL     1     -11.050  36.546  -1.847  1.00  0.00    -0.550 OA
ATOM      9  O   UNL     1      -9.601  35.461  -0.444  1.00  0.00    -0.550 OA
ENDBRANCH   6   7
ENDBRANCH   5   6
ENDBRANCH   4   5
ENDBRANCH   3   4
ENDBRANCH   2   3
ENDBRANCH   1   2
BRANCH   1  10
ATOM     10  C   UNL     1      -4.209  34.334   0.421  1.00  0.00     0.000 C 
BRANCH  10  11
ATOM     11  C   UNL     1      -5.245  34.080   1.532  1.00  0.00    -0.000 C 
BRANCH  11  12
ATOM     12  C   UNL     1      -6.716  34.275   1.123  1.00  0.00    -0.000 C 
BRANCH  12  13
ATOM     13  C   UNL     1      -7.470  32.947   0.940  1.00  0.00    -0.000 C 
BRANCH  13  14
ATOM     14  C   UNL     1      -6.682  31.744   1.485  1.00  0.00    -0.000 C 
BRANCH  14  15
ATOM     15  C   UNL     1      -7.482  30.435   1.422  1.00  0.00    -0.003 C 
ATOM     16  C   UNL     1      -7.913  29.988   2.817  1.00  0.00     0.004 C 
ENDBRANCH  14  15
ENDBRANCH  13  14
ENDBRANCH  12  13
ENDBRANCH  11  12
ENDBRANCH  10  11
ENDBRANCH   1  10
TORSDOF 12
ENDMDL
MODEL 6
REMARK VINA RESULT:    -2.981      1.201      2.048
REMARK INTER + INTRA:          -6.286
REMARK INTER:                  -5.385
REMARK INTRA:                  -0.902
REMARK UNBOUND:                -1.214
REMARK SMILES CCCCCCCCCCCCCC(=O)[O-]
REMARK SMILES IDX 8 1 9 2 10 3 11 4 12 5 13 6 14 7 15 8 16 9 7 10 6 11 5 12
REMARK SMILES IDX 4 13 3 14 2 15 1 16
REMARK H PARENT
REMARK Flexibility Score: inf
ROOT
ATOM      1  C   UNL     1      -6.928  35.606   0.666  1.00  0.00     0.000 C 
ENDROOT
BRANCH   1   2
ATOM      2  C   UNL     1      -5.688  34.874   0.120  1.00  0.00     0.000 C 
BRANCH   2   3
ATOM      3  C   UNL     1      -4.758  34.267   1.187  1.00  0.00     0.000 C 
BRANCH   3   4
ATOM      4  C   UNL     1      -5.384  33.069   1.920  1.00  0.00     0.000 C 
BRANCH   4   5
ATOM      5  C   UNL     1      -6.336  32.261   1.024  1.00  0.00     0.006 C 
BRANCH   5   6
ATOM      6  C   UNL     1      -7.575  31.762   1.779  1.00  0.00     0.053 C 
BRANCH   6   7
ATOM      7  C   UNL     1      -7.578  30.267   1.842  1.00  0.00     0.041 C 
ATOM      8  O   UNL     1      -7.647  29.680   2.953  1.00  0.00    -0.550 OA
ATOM      9  O   UNL     1      -7.556  29.522   0.669  1.00  0.00    -0.550 OA
ENDBRANCH   6   7
ENDBRANCH   5   6
ENDBRANCH   4   5
ENDBRANCH   3   4
ENDBRANCH   2   3
ENDBRANCH   1   2
BRANCH   1  10
ATOM     10  C   UNL     1      -6.614  37.026   1.165  1.00  0.00     0.000 C 
BRANCH  10  11
ATOM     11  C   UNL     1      -7.255  38.125   0.297  1.00  0.00    -0.000 C 
BRANCH  11  12
ATOM     12  C   UNL     1      -6.925  38.057  -1.205  1.00  0.00    -0.000 C 
BRANCH  12  13
ATOM     13  C   UNL     1      -8.159  37.771  -2.078  1.00  0.00    -0.000 C 
BRANCH  13  14
ATOM     14  C   UNL     1      -9.458  37.706  -1.257  1.00  0.00    -0.000 C 
BRANCH  14  15
ATOM     15  C   UNL     1     -10.036  36.286  -1.176  1.00  0.00    -0.003 C 
ATOM     16  C   UNL     1     -11.552  36.300  -1.362  1.00  0.00     0.004 C 
ENDBRANCH  14  15
ENDBRANCH  13  14
ENDBRANCH  12  13
ENDBRANCH  11  12
ENDBRANCH  10  11
ENDBRANCH   1  10
TORSDOF 12
ENDMDL
MODEL 7
REMARK VINA RESULT:    -2.895     12.712     16.024
REMARK INTER + INTRA:          -6.139
REMARK INTER:                  -5.309
REMARK INTRA:                  -0.830
REMARK UNBOUND:                -1.214
REMARK SMILES CCCCCCCCCCCCCC(=O)[O-]
REMARK SMILES IDX 8 1 9 2 10 3 11 4 12 5 13 6 14 7 15 8 16 9 7 10 6 11 5 12
REMARK SMILES IDX 4 13 3 14 2 15 1 16
REMARK H PARENT
REMARK Flexibility Score: inf
ROOT
ATOM      1  C   UNL     1     -17.749  33.741 -12.528  1.00  0.00     0.000 C 
ENDROOT
BRANCH   1   2
ATOM      2  C   UNL     1     -18.530  34.228 -11.293  1.00  0.00     0.000 C 
BRANCH   2   3
ATOM      3  C   UNL     1     -18.515  33.272 -10.085  1.00  0.00     0.000 C 
BRANCH   3   4
ATOM      4  C   UNL     1     -18.976  33.943  -8.781  1.00  0.00     0.000 C 
BRANCH   4   5
ATOM      5  C   UNL     1     -20.273  33.330  -8.228  1.00  0.00     0.006 C 
BRANCH   5   6
ATOM      6  C   UNL     1     -21.223  34.385  -7.646  1.00  0.00     0.053 C 
BRANCH   6   7
ATOM      7  C   UNL     1     -22.572  33.788  -7.397  1.00  0.00     0.041 C 
ATOM      8  O   UNL     1     -22.708  32.853  -6.566  1.00  0.00    -0.550 OA
ATOM      9  O   UNL     1     -23.688  34.300  -8.046  1.00  0.00    -0.550 OA
ENDBRANCH   6   7
ENDBRANCH   5   6
ENDBRANCH   4   5
ENDBRANCH   3   4
ENDBRANCH   2   3
ENDBRANCH   1   2
BRANCH   1  10
ATOM     10  C   UNL     1     -16.516  32.897 -12.163  1.00  0.00     0.000 C 
BRANCH  10  11
ATOM     11  C   UNL     1     -15.187  33.616 -12.459  1.00  0.00    -0.000 C 
BRANCH  11  12
ATOM     12  C   UNL     1     -14.523  34.303 -11.251  1.00  0.00    -0.000 C 
BRANCH  12  13
ATOM     13  C   UNL     1     -15.139  33.878  -9.906  1.00  0.00    -0.000 C 
BRANCH  13  14
ATOM     14  C   UNL     1     -14.508  34.615  -8.712  1.00  0.00    -0.000 C 
BRANCH  14  15
ATOM     15  C   UNL     1     -13.323  35.501  -9.123  1.00  0.00    -0.003 C 
ATOM     16  C   UNL     1     -13.078  36.601  -8.093  1.00  0.00     0.004 C 
ENDBRANCH  14  15
ENDBRANCH  13  14
ENDBRANCH  12  13
ENDBRANCH  11  12
ENDBRANCH  10  11
ENDBRANCH   1  10
TORSDOF 12
ENDMDL
MODEL 8
REMARK VINA RESULT:    -2.595      1.248      3.606
REMARK INTER + INTRA:          -5.629
REMARK INTER:                  -4.175
REMARK INTRA:                  -1.454
REMARK UNBOUND:                -1.214
REMARK SMILES CCCCCCCCCCCCCC(=O)[O-]
REMARK SMILES IDX 8 1 9 2 10 3 11 4 12 5 13 6 14 7 15 8 16 9 7 10 6 11 5 12
REMARK SMILES IDX 4 13 3 14 2 15 1 16
REMARK H PARENT
REMARK Flexibility Score: inf
ROOT
ATOM      1  C   UNL     1      -8.465  37.680  -1.250  1.00  0.00     0.000 C 
ENDROOT
BRANCH   1   2
ATOM      2  C   UNL     1      -8.868  36.420  -0.462  1.00  0.00     0.000 C 
BRANCH   2   3
ATOM      3  C   UNL     1      -7.721  35.722   0.295  1.00  0.00     0.000 C 
BRANCH   3   4
ATOM      4  C   UNL     1      -8.103  34.325   0.810  1.00  0.00     0.000 C 
BRANCH   4   5
ATOM      5  C   UNL     1      -7.032  33.268   0.498  1.00  0.00     0.006 C 
BRANCH   5   6
ATOM      6  C   UNL     1      -6.674  32.412   1.720  1.00  0.00     0.053 C 
BRANCH   6   7
ATOM      7  C   UNL     1      -7.382  31.095   1.657  1.00  0.00     0.041 C 
ATOM      8  O   UNL     1      -7.563  30.525   0.549  1.00  0.00    -0.550 OA
ATOM      9  O   UNL     1      -7.796  30.473   2.828  1.00  0.00    -0.550 OA
ENDBRANCH   6   7
ENDBRANCH   5   6
ENDBRANCH   4   5
ENDBRANCH   3   4
ENDBRANCH   2   3
ENDBRANCH   1   2
BRANCH   1  10
ATOM     10  C   UNL     1      -6.996  38.080  -1.032  1.00  0.00     0.000 C 
BRANCH  10  11
ATOM     11  C   UNL     1      -6.182  38.118  -2.338  1.00  0.00    -0.000 C 
BRANCH  11  12
ATOM     12  C   UNL     1      -4.670  37.873  -2.182  1.00  0.00    -0.000 C 
BRANCH  12  13
ATOM     13  C   UNL     1      -4.298  37.257  -0.823  1.00  0.00    -0.000 C 
BRANCH  13  14
ATOM     14  C   UNL     1      -4.128  35.730  -0.896  1.00  0.00    -0.000 C 
BRANCH  14  15
ATOM     15  C   UNL     1      -3.884  35.096   0.481  1.00  0.00    -0.003 C 
ATOM     16  C   UNL     1      -4.469  35.961   1.595  1.00  0.00     0.004 C 
ENDBRANCH  14  15
ENDBRANCH  13  14
ENDBRANCH  12  13
ENDBRANCH  11  12
ENDBRANCH  10  11
ENDBRANCH   1  10
TORSDOF 12
ENDMDL
MODEL 9
REMARK VINA RESULT:    -2.530      3.175      6.185
REMARK INTER + INTRA:          -5.519
REMARK INTER:                  -4.904
REMARK INTRA:                  -0.615
REMARK UNBOUND:                -1.214
REMARK SMILES CCCCCCCCCCCCCC(=O)[O-]
REMARK SMILES IDX 8 1 9 2 10 3 11 4 12 5 13 6 14 7 15 8 16 9 7 10 6 11 5 12
REMARK SMILES IDX 4 13 3 14 2 15 1 16
REMARK H PARENT
REMARK Flexibility Score: inf
ROOT
ATOM      1  C   UNL     1      -4.639  35.202   0.950  1.00  0.00     0.000 C 
ENDROOT
BRANCH   1   2
ATOM      2  C   UNL     1      -4.528  35.537  -0.550  1.00  0.00     0.000 C 
BRANCH   2   3
ATOM      3  C   UNL     1      -3.877  36.895  -0.875  1.00  0.00     0.000 C 
BRANCH   3   4
ATOM      4  C   UNL     1      -4.809  38.089  -0.609  1.00  0.00     0.000 C 
BRANCH   4   5
ATOM      5  C   UNL     1      -6.039  38.093  -1.531  1.00  0.00     0.006 C 
BRANCH   5   6
ATOM      6  C   UNL     1      -7.360  38.047  -0.753  1.00  0.00     0.053 C 
BRANCH   6   7
ATOM      7  C   UNL     1      -8.500  37.763  -1.680  1.00  0.00     0.041 C 
ATOM      8  O   UNL     1      -8.389  37.999  -2.911  1.00  0.00    -0.550 OA
ATOM      9  O   UNL     1      -9.667  37.191  -1.191  1.00  0.00    -0.550 OA
ENDBRANCH   6   7
ENDBRANCH   5   6
ENDBRANCH   4   5
ENDBRANCH   3   4
ENDBRANCH   2   3
ENDBRANCH   1   2
BRANCH   1  10
ATOM     10  C   UNL     1      -5.858  35.854   1.621  1.00  0.00     0.000 C 
BRANCH  10  11
ATOM     11  C   UNL     1      -6.970  34.844   1.961  1.00  0.00    -0.000 C 
BRANCH  11  12
ATOM     12  C   UNL     1      -7.185  33.724   0.926  1.00  0.00    -0.000 C 
BRANCH  12  13
ATOM     13  C   UNL     1      -6.662  32.358   1.403  1.00  0.00    -0.000 C 
BRANCH  13  14
ATOM     14  C   UNL     1      -7.601  31.202   1.018  1.00  0.00    -0.000 C 
BRANCH  14  15
ATOM     15  C   UNL     1      -7.274  29.901   1.765  1.00  0.00    -0.003 C 
ATOM     16  C   UNL     1      -7.923  29.885   3.147  1.00  0.00     0.004 C 
ENDBRANCH  14  15
ENDBRANCH  13  14
ENDBRANCH  12  13
ENDBRANCH  11  12
ENDBRANCH  10  11
ENDBRANCH   1  10
TORSDOF 12
ENDMDL
