MODEL 1
REMARK VINA RESULT:    -3.491      0.000      0.000
REMARK INTER + INTRA:          -9.555
REMARK INTER:                  -6.553
REMARK INTRA:                  -3.003
REMARK UNBOUND:                -3.003
REMARK SMILES CCCCCCCCC=CCCCCCCCC(=O)[O-]
REMARK SMILES IDX 10 1 9 2 11 3 12 4 13 5 14 6 15 7 16 8 17 9 18 10 19 11
REMARK SMILES IDX 20 12 8 13 7 14 6 15 5 16 4 17 3 18 2 19 1 20
REMARK H PARENT
REMARK Flexibility Score: inf
ROOT
ATOM      1  C   UNL     1       7.806  -4.920  -6.273  1.00  0.00    -0.031 C 
ATOM      2  C   UNL     1       7.840  -5.997  -7.082  1.00  0.00    -0.031 C 
ENDROOT
BRANCH   1   3
ATOM      3  C   UNL     1       7.245  -3.572  -6.655  1.00  0.00     0.027 C 
BRANCH   3   4
ATOM      4  C   UNL     1       5.734  -3.477  -6.392  1.00  0.00     0.004 C 
BRANCH   4   5
ATOM      5  C   UNL     1       5.155  -2.125  -6.844  1.00  0.00     0.000 C 
BRANCH   5   6
ATOM      6  C   UNL     1       6.224  -1.024  -6.937  1.00  0.00     0.000 C 
BRANCH   6   7
ATOM      7  C   UNL     1       5.870   0.061  -7.965  1.00  0.00     0.000 C 
BRANCH   7   8
ATOM      8  C   UNL     1       4.441  -0.126  -8.490  1.00  0.00     0.006 C 
BRANCH   8   9
ATOM      9  C   UNL     1       4.329   0.324  -9.950  1.00  0.00     0.053 C 
BRANCH   9  10
ATOM     10  C   UNL     1       3.639   1.648 -10.038  1.00  0.00     0.041 C 
ATOM     11  O   UNL     1       3.266   2.096 -11.153  1.00  0.00    -0.550 OA
ATOM     12  O   UNL     1       3.450   2.410  -8.892  1.00  0.00    -0.550 OA
ENDBRANCH   9  10
ENDBRANCH   8   9
ENDBRANCH   7   8
ENDBRANCH   6   7
ENDBRANCH   5   6
ENDBRANCH   4   5
ENDBRANCH   3   4
ENDBRANCH   1   3
BRANCH   2  13
ATOM     13  C   UNL     1       7.377  -6.019  -8.520  1.00  0.00     0.027 C 
BRANCH  13  14
ATOM     14  C   UNL     1       8.518  -5.663  -9.481  1.00  0.00     0.004 C 
BRANCH  14  15
ATOM     15  C   UNL     1       8.063  -4.690 -10.583  1.00  0.00     0.000 C 
BRANCH  15  16
ATOM     16  C   UNL     1       8.094  -3.224 -10.124  1.00  0.00     0.000 C 
BRANCH  16  17
ATOM     17  C   UNL     1       6.749  -2.508 -10.339  1.00  0.00    -0.000 C 
BRANCH  17  18
ATOM     18  C   UNL     1       5.721  -3.388 -11.069  1.00  0.00    -0.000 C 
BRANCH  18  19
ATOM     19  C   UNL     1       4.350  -3.391 -10.377  1.00  0.00    -0.003 C 
ATOM     20  C   UNL     1       4.196  -4.606  -9.468  1.00  0.00     0.004 C 
ENDBRANCH  18  19
ENDBRANCH  17  18
ENDBRANCH  16  17
ENDBRANCH  15  16
ENDBRANCH  14  15
ENDBRANCH  13  14
ENDBRANCH   2  13
TORSDOF 15
ENDMDL
MODEL 2
REMARK VINA RESULT:    -3.427      1.542      2.846
REMARK INTER + INTRA:          -9.435
REMARK INTER:                  -6.544
REMARK INTRA:                  -2.891
REMARK UNBOUND:                -3.003
REMARK SMILES CCCCCCCCC=CCCCCCCCC(=O)[O-]
REMARK SMILES IDX 10 1 9 2 11 3 12 4 13 5 14 6 15 7 16 8 17 9 18 10 19 11
REMARK SMILES IDX 20 12 8 13 7 14 6 15 5 16 4 17 3 18 2 19 1 20
REMARK H PARENT
REMARK Flexibility Score: inf
ROOT
ATOM      1  C   UNL     1       8.383  -6.586  -8.284  1.00  0.00    -0.031 C 
ATOM      2  C   UNL     1       8.964  -6.689  -9.496  1.00  0.00    -0.031 C 
ENDROOT
BRANCH   1   3
ATOM      3  C   UNL     1       7.895  -5.298  -7.668  1.00  0.00     0.027 C 
BRANCH   3   4
ATOM      4  C   UNL     1       7.970  -5.324  -6.134  1.00  0.00     0.004 C 
BRANCH   4   5
ATOM      5  C   UNL     1       7.398  -4.040  -5.507  1.00  0.00     0.000 C 
BRANCH   5   6
ATOM      6  C   UNL     1       6.803  -3.086  -6.555  1.00  0.00     0.000 C 
BRANCH   6   7
ATOM      7  C   UNL     1       5.269  -3.018  -6.491  1.00  0.00     0.000 C 
BRANCH   7   8
ATOM      8  C   UNL     1       4.784  -1.563  -6.500  1.00  0.00     0.006 C 
BRANCH   8   9
ATOM      9  C   UNL     1       4.313  -1.149  -7.897  1.00  0.00     0.053 C 
BRANCH   9  10
ATOM     10  C   UNL     1       5.119   0.006  -8.400  1.00  0.00     0.041 C 
ATOM     11  O   UNL     1       6.252   0.251  -7.908  1.00  0.00    -0.550 OA
ATOM     12  O   UNL     1       4.600   0.842  -9.380  1.00  0.00    -0.550 OA
ENDBRANCH   9  10
ENDBRANCH   8   9
ENDBRANCH   7   8
ENDBRANCH   6   7
ENDBRANCH   5   6
ENDBRANCH   4   5
ENDBRANCH   3   4
ENDBRANCH   1   3
BRANCH   2  13
ATOM     13  C   UNL     1       9.273  -5.529 -10.413  1.00  0.00     0.027 C 
BRANCH  13  14
ATOM     14  C   UNL     1       8.812  -5.812 -11.848  1.00  0.00     0.004 C 
BRANCH  14  15
ATOM     15  C   UNL     1       7.433  -6.491 -11.889  1.00  0.00     0.000 C 
BRANCH  15  16
ATOM     16  C   UNL     1       6.277  -5.478 -11.875  1.00  0.00     0.000 C 
BRANCH  16  17
ATOM     17  C   UNL     1       5.536  -5.444 -10.527  1.00  0.00    -0.000 C 
BRANCH  17  18
ATOM     18  C   UNL     1       5.360  -4.016  -9.986  1.00  0.00    -0.000 C 
BRANCH  18  19
ATOM     19  C   UNL     1       6.108  -2.971 -10.827  1.00  0.00    -0.003 C 
ATOM     20  C   UNL     1       7.339  -2.453 -10.090  1.00  0.00     0.004 C 
ENDBRANCH  18  19
ENDBRANCH  17  18
ENDBRANCH  16  17
ENDBRANCH  15  16
ENDBRANCH  14  15
ENDBRANCH  13  14
ENDBRANCH   2  13
TORSDOF 15
ENDMDL
MODEL 3
REMARK VINA RESULT:    -3.340      1.853      3.064
REMARK INTER + INTRA:          -9.271
REMARK INTER:                  -7.210
REMARK INTRA:                  -2.062
REMARK UNBOUND:                -3.003
REMARK SMILES CCCCCCCCC=CCCCCCCCC(=O)[O-]
REMARK SMILES IDX 10 1 9 2 11 3 12 4 13 5 14 6 15 7 16 8 17 9 18 10 19 11
REMARK SMILES IDX 20 12 8 13 7 14 6 15 5 16 4 17 3 18 2 19 1 20
REMARK H PARENT
REMARK Flexibility Score: inf
ROOT
ATOM      1  C   UNL     1       8.135  -5.757  -5.876  1.00  0.00    -0.031 C 
ATOM      2  C   UNL     1       8.836  -6.907  -5.866  1.00  0.00    -0.031 C 
ENDROOT
BRANCH   1   3
ATOM      3  C   UNL     1       7.413  -5.197  -7.078  1.00  0.00     0.027 C 
BRANCH   3   4
ATOM      4  C   UNL     1       7.179  -3.683  -6.960  1.00  0.00     0.004 C 
BRANCH   4   5
ATOM      5  C   UNL     1       7.147  -3.218  -5.493  1.00  0.00     0.000 C 
BRANCH   5   6
ATOM      6  C   UNL     1       6.053  -2.172  -5.228  1.00  0.00     0.000 C 
BRANCH   6   7
ATOM      7  C   UNL     1       4.680  -2.598  -5.771  1.00  0.00     0.000 C 
BRANCH   7   8
ATOM      8  C   UNL     1       4.006  -1.445  -6.523  1.00  0.00     0.006 C 
BRANCH   8   9
ATOM      9  C   UNL     1       4.421  -1.432  -7.997  1.00  0.00     0.053 C 
BRANCH   9  10
ATOM     10  C   UNL     1       5.372  -0.308  -8.263  1.00  0.00     0.041 C 
ATOM     11  O   UNL     1       6.581  -0.548  -8.519  1.00  0.00    -0.550 OA
ATOM     12  O   UNL     1       4.934   1.007  -8.180  1.00  0.00    -0.550 OA
ENDBRANCH   9  10
ENDBRANCH   8   9
ENDBRANCH   7   8
ENDBRANCH   6   7
ENDBRANCH   5   6
ENDBRANCH   4   5
ENDBRANCH   3   4
ENDBRANCH   1   3
BRANCH   2  13
ATOM     13  C   UNL     1       9.064  -7.797  -7.066  1.00  0.00     0.027 C 
BRANCH  13  14
ATOM     14  C   UNL     1      10.521  -7.733  -7.542  1.00  0.00     0.004 C 
BRANCH  14  15
ATOM     15  C   UNL     1      10.623  -7.607  -9.072  1.00  0.00     0.000 C 
BRANCH  15  16
ATOM     16  C   UNL     1       9.340  -7.047  -9.705  1.00  0.00     0.000 C 
BRANCH  16  17
ATOM     17  C   UNL     1       9.558  -5.674 -10.367  1.00  0.00    -0.000 C 
BRANCH  17  18
ATOM     18  C   UNL     1       8.270  -5.106 -10.985  1.00  0.00    -0.000 C 
BRANCH  18  19
ATOM     19  C   UNL     1       7.911  -3.721 -10.428  1.00  0.00    -0.003 C 
ATOM     20  C   UNL     1       6.411  -3.459 -10.534  1.00  0.00     0.004 C 
ENDBRANCH  18  19
ENDBRANCH  17  18
ENDBRANCH  16  17
ENDBRANCH  15  16
ENDBRANCH  14  15
ENDBRANCH  13  14
ENDBRANCH   2  13
TORSDOF 15
ENDMDL
MODEL 4
REMARK VINA RESULT:    -3.339      9.063     12.207
REMARK INTER + INTRA:          -9.269
REMARK INTER:                  -6.550
REMARK INTRA:                  -2.719
REMARK UNBOUND:                -3.003
REMARK SMILES CCCCCCCCC=CCCCCCCCC(=O)[O-]
REMARK SMILES IDX 10 1 9 2 11 3 12 4 13 5 14 6 15 7 16 8 17 9 18 10 19 11
REMARK SMILES IDX 20 12 8 13 7 14 6 15 5 16 4 17 3 18 2 19 1 20
REMARK H PARENT
REMARK Flexibility Score: inf
ROOT
ATOM      1  C   UNL     1       4.092   6.693 -15.202  1.00  0.00    -0.031 C 
ATOM      2  C   UNL     1       4.149   5.378 -14.917  1.00  0.00    -0.031 C 
ENDROOT
BRANCH   1   3
ATOM      3  C   UNL     1       3.396   7.730 -14.356  1.00  0.00     0.027 C 
BRANCH   3   4
ATOM      4  C   UNL     1       2.922   8.933 -15.186  1.00  0.00     0.004 C 
BRANCH   4   5
ATOM      5  C   UNL     1       1.388   9.057 -15.196  1.00  0.00     0.000 C 
BRANCH   5   6
ATOM      6  C   UNL     1       0.685   7.717 -14.928  1.00  0.00     0.000 C 
BRANCH   6   7
ATOM      7  C   UNL     1      -0.536   7.496 -15.834  1.00  0.00     0.000 C 
BRANCH   7   8
ATOM      8  C   UNL     1      -0.277   6.365 -16.836  1.00  0.00     0.006 C 
BRANCH   8   9
ATOM      9  C   UNL     1       0.743   5.364 -16.284  1.00  0.00     0.053 C 
BRANCH   9  10
ATOM     10  C   UNL     1       1.120   4.368 -17.334  1.00  0.00     0.041 C 
ATOM     11  O   UNL     1       2.279   3.876 -17.354  1.00  0.00    -0.550 OA
ATOM     12  O   UNL     1       0.207   4.019 -18.321  1.00  0.00    -0.550 OA
ENDBRANCH   9  10
ENDBRANCH   8   9
ENDBRANCH   7   8
ENDBRANCH   6   7
ENDBRANCH   5   6
ENDBRANCH   4   5
ENDBRANCH   3   4
ENDBRANCH   1   3
BRANCH   2  13
ATOM     13  C   UNL     1       3.480   4.715 -13.736  1.00  0.00     0.027 C 
BRANCH  13  14
ATOM     14  C   UNL     1       4.429   4.623 -12.534  1.00  0.00     0.004 C 
BRANCH  14  15
ATOM     15  C   UNL     1       3.899   5.403 -11.319  1.00  0.00     0.000 C 
BRANCH  15  16
ATOM     16  C   UNL     1       4.677   6.703 -11.067  1.00  0.00     0.000 C 
BRANCH  16  17
ATOM     17  C   UNL     1       3.768   7.859 -10.614  1.00  0.00    -0.000 C 
BRANCH  17  18
ATOM     18  C   UNL     1       2.275   7.544 -10.802  1.00  0.00    -0.000 C 
BRANCH  18  19
ATOM     19  C   UNL     1       1.487   8.738 -11.361  1.00  0.00    -0.003 C 
ATOM     20  C   UNL     1       2.389   9.955 -11.542  1.00  0.00     0.004 C 
ENDBRANCH  18  19
ENDBRANCH  17  18
ENDBRANCH  16  17
ENDBRANCH  15  16
ENDBRANCH  14  15
ENDBRANCH  13  14
ENDBRANCH   2  13
TORSDOF 15
ENDMDL
MODEL 5
REMARK VINA RESULT:    -3.323      3.388      6.387
REMARK INTER + INTRA:          -9.240
REMARK INTER:                  -6.837
REMARK INTRA:                  -2.403
REMARK UNBOUND:                -3.003
REMARK SMILES CCCCCCCCC=CCCCCCCCC(=O)[O-]
REMARK SMILES IDX 10 1 9 2 11 3 12 4 13 5 14 6 15 7 16 8 17 9 18 10 19 11
REMARK SMILES IDX 20 12 8 13 7 14 6 15 5 16 4 17 3 18 2 19 1 20
REMARK H PARENT
REMARK Flexibility Score: inf
ROOT
ATOM      1  C   UNL     1       4.073   0.863 -10.419  1.00  0.00    -0.031 C 
ATOM      2  C   UNL     1       4.526   0.918  -9.152  1.00  0.00    -0.031 C 
ENDROOT
BRANCH   1   3
ATOM      3  C   UNL     1       3.521  -0.373 -11.086  1.00  0.00     0.027 C 
BRANCH   3   4
ATOM      4  C   UNL     1       4.565  -1.066 -11.976  1.00  0.00     0.004 C 
BRANCH   4   5
ATOM      5  C   UNL     1       4.576  -2.591 -11.768  1.00  0.00     0.000 C 
BRANCH   5   6
ATOM      6  C   UNL     1       5.465  -3.021 -10.591  1.00  0.00     0.000 C 
BRANCH   6   7
ATOM      7  C   UNL     1       6.872  -2.406 -10.655  1.00  0.00     0.000 C 
BRANCH   7   8
ATOM      8  C   UNL     1       7.928  -3.401 -10.158  1.00  0.00     0.006 C 
BRANCH   8   9
ATOM      9  C   UNL     1       7.589  -4.828 -10.599  1.00  0.00     0.053 C 
BRANCH   9  10
ATOM     10  C   UNL     1       8.774  -5.472 -11.246  1.00  0.00     0.041 C 
ATOM     11  O   UNL     1       8.652  -6.057 -12.353  1.00  0.00    -0.550 OA
ATOM     12  O   UNL     1      10.005  -5.466 -10.602  1.00  0.00    -0.550 OA
ENDBRANCH   9  10
ENDBRANCH   8   9
ENDBRANCH   7   8
ENDBRANCH   6   7
ENDBRANCH   5   6
ENDBRANCH   4   5
ENDBRANCH   3   4
ENDBRANCH   1   3
BRANCH   2  13
ATOM     13  C   UNL     1       4.609  -0.259  -8.207  1.00  0.00     0.027 C 
BRANCH  13  14
ATOM     14  C   UNL     1       5.980  -0.331  -7.522  1.00  0.00     0.004 C 
BRANCH  14  15
ATOM     15  C   UNL     1       6.409  -1.781  -7.242  1.00  0.00     0.000 C 
BRANCH  15  16
ATOM     16  C   UNL     1       6.430  -2.110  -5.741  1.00  0.00     0.000 C 
BRANCH  16  17
ATOM     17  C   UNL     1       7.181  -3.418  -5.432  1.00  0.00    -0.000 C 
BRANCH  17  18
ATOM     18  C   UNL     1       7.468  -4.246  -6.696  1.00  0.00    -0.000 C 
BRANCH  18  19
ATOM     19  C   UNL     1       6.667  -5.555  -6.737  1.00  0.00    -0.003 C 
ATOM     20  C   UNL     1       5.357  -5.374  -7.499  1.00  0.00     0.004 C 
ENDBRANCH  18  19
ENDBRANCH  17  18
ENDBRANCH  16  17
ENDBRANCH  15  16
ENDBRANCH  14  15
ENDBRANCH  13  14
ENDBRANCH   2  13
TORSDOF 15
ENDMDL
MODEL 6
REMARK VINA RESULT:    -3.309      4.797      9.578
REMARK INTER + INTRA:          -9.213
REMARK INTER:                  -7.231
REMARK INTRA:                  -1.982
REMARK UNBOUND:                -3.003
REMARK SMILES CCCCCCCCC=CCCCCCCCC(=O)[O-]
REMARK SMILES IDX 10 1 9 2 11 3 12 4 13 5 14 6 15 7 16 8 17 9 18 10 19 11
REMARK SMILES IDX 20 12 8 13 7 14 6 15 5 16 4 17 3 18 2 19 1 20
REMARK H PARENT
REMARK Flexibility Score: inf
ROOT
ATOM      1  C   UNL     1       2.757   3.522 -12.584  1.00  0.00    -0.031 C 
ATOM      2  C   UNL     1       2.940   4.342 -13.637  1.00  0.00    -0.031 C 
ENDROOT
BRANCH   1   3
ATOM      3  C   UNL     1       3.848   3.063 -11.648  1.00  0.00     0.027 C 
BRANCH   3   4
ATOM      4  C   UNL     1       4.142   1.562 -11.794  1.00  0.00     0.004 C 
BRANCH   4   5
ATOM      5  C   UNL     1       3.271   0.711 -10.853  1.00  0.00     0.000 C 
BRANCH   5   6
ATOM      6  C   UNL     1       4.103  -0.090  -9.839  1.00  0.00     0.000 C 
BRANCH   6   7
ATOM      7  C   UNL     1       4.258   0.636  -8.494  1.00  0.00     0.000 C 
BRANCH   7   8
ATOM      8  C   UNL     1       5.666   0.436  -7.921  1.00  0.00     0.006 C 
BRANCH   8   9
ATOM      9  C   UNL     1       6.318  -0.826  -8.495  1.00  0.00     0.053 C 
BRANCH   9  10
ATOM     10  C   UNL     1       6.407  -1.891  -7.449  1.00  0.00     0.041 C 
ATOM     11  O   UNL     1       6.401  -1.583  -6.228  1.00  0.00    -0.550 OA
ATOM     12  O   UNL     1       6.543  -3.222  -7.822  1.00  0.00    -0.550 OA
ENDBRANCH   9  10
ENDBRANCH   8   9
ENDBRANCH   7   8
ENDBRANCH   6   7
ENDBRANCH   5   6
ENDBRANCH   4   5
ENDBRANCH   3   4
ENDBRANCH   1   3
BRANCH   2  13
ATOM     13  C   UNL     1       4.273   4.892 -14.089  1.00  0.00     0.027 C 
BRANCH  13  14
ATOM     14  C   UNL     1       4.096   5.997 -15.138  1.00  0.00     0.004 C 
BRANCH  14  15
ATOM     15  C   UNL     1       2.861   6.869 -14.856  1.00  0.00     0.000 C 
BRANCH  15  16
ATOM     16  C   UNL     1       3.232   8.298 -14.431  1.00  0.00     0.000 C 
BRANCH  16  17
ATOM     17  C   UNL     1       3.378   8.443 -12.906  1.00  0.00    -0.000 C 
BRANCH  17  18
ATOM     18  C   UNL     1       2.330   7.627 -12.132  1.00  0.00    -0.000 C 
BRANCH  18  19
ATOM     19  C   UNL     1       2.918   6.936 -10.893  1.00  0.00    -0.003 C 
ATOM     20  C   UNL     1       4.440   6.860 -10.978  1.00  0.00     0.004 C 
ENDBRANCH  18  19
ENDBRANCH  17  18
ENDBRANCH  16  17
ENDBRANCH  15  16
ENDBRANCH  14  15
ENDBRANCH  13  14
ENDBRANCH   2  13
TORSDOF 15
ENDMDL
MODEL 7
REMARK VINA RESULT:    -3.252      7.248     12.124
REMARK INTER + INTRA:          -9.107
REMARK INTER:                  -6.880
REMARK INTRA:                  -2.227
REMARK UNBOUND:                -3.003
REMARK SMILES CCCCCCCCC=CCCCCCCCC(=O)[O-]
REMARK SMILES IDX 10 1 9 2 11 3 12 4 13 5 14 6 15 7 16 8 17 9 18 10 19 11
REMARK SMILES IDX 20 12 8 13 7 14 6 15 5 16 4 17 3 18 2 19 1 20
REMARK H PARENT
REMARK Flexibility Score: inf
ROOT
ATOM      1  C   UNL     1       2.687   7.716 -14.231  1.00  0.00    -0.031 C 
ATOM      2  C   UNL     1       2.295   8.952 -13.867  1.00  0.00    -0.031 C 
ENDROOT
BRANCH   1   3
ATOM      3  C   UNL     1       3.799   7.415 -15.205  1.00  0.00     0.027 C 
BRANCH   3   4
ATOM      4  C   UNL     1       4.139   5.917 -15.253  1.00  0.00     0.004 C 
BRANCH   4   5
ATOM      5  C   UNL     1       3.575   5.160 -14.037  1.00  0.00     0.000 C 
BRANCH   5   6
ATOM      6  C   UNL     1       4.623   4.261 -13.362  1.00  0.00     0.000 C 
BRANCH   6   7
ATOM      7  C   UNL     1       4.042   3.443 -12.198  1.00  0.00     0.000 C 
BRANCH   7   8
ATOM      8  C   UNL     1       3.819   1.983 -12.612  1.00  0.00     0.006 C 
BRANCH   8   9
ATOM      9  C   UNL     1       2.345   1.722 -12.936  1.00  0.00     0.053 C 
BRANCH   9  10
ATOM     10  C   UNL     1       2.170   1.458 -14.398  1.00  0.00     0.041 C 
ATOM     11  O   UNL     1       1.733   2.362 -15.158  1.00  0.00    -0.550 OA
ATOM     12  O   UNL     1       2.445   0.198 -14.914  1.00  0.00    -0.550 OA
ENDBRANCH   9  10
ENDBRANCH   8   9
ENDBRANCH   7   8
ENDBRANCH   6   7
ENDBRANCH   5   6
ENDBRANCH   4   5
ENDBRANCH   3   4
ENDBRANCH   1   3
BRANCH   2  13
ATOM     13  C   UNL     1       2.864  10.240 -14.414  1.00  0.00     0.027 C 
BRANCH  13  14
ATOM     14  C   UNL     1       3.117  11.260 -13.296  1.00  0.00     0.004 C 
BRANCH  14  15
ATOM     15  C   UNL     1       2.689  10.725 -11.919  1.00  0.00     0.000 C 
BRANCH  15  16
ATOM     16  C   UNL     1       3.824  10.784 -10.885  1.00  0.00     0.000 C 
BRANCH  16  17
ATOM     17  C   UNL     1       4.015   9.450 -10.141  1.00  0.00    -0.000 C 
BRANCH  17  18
ATOM     18  C   UNL     1       2.741   8.590 -10.131  1.00  0.00    -0.000 C 
BRANCH  18  19
ATOM     19  C   UNL     1       2.998   7.150 -10.598  1.00  0.00    -0.003 C 
ATOM     20  C   UNL     1       4.467   6.942 -10.952  1.00  0.00     0.004 C 
ENDBRANCH  18  19
ENDBRANCH  17  18
ENDBRANCH  16  17
ENDBRANCH  15  16
ENDBRANCH  14  15
ENDBRANCH  13  14
ENDBRANCH   2  13
TORSDOF 15
ENDMDL
MODEL 8
REMARK VINA RESULT:    -3.250      8.183     11.216
REMARK INTER + INTRA:          -9.103
REMARK INTER:                  -5.907
REMARK INTRA:                  -3.196
REMARK UNBOUND:                -3.003
REMARK SMILES CCCCCCCCC=CCCCCCCCC(=O)[O-]
REMARK SMILES IDX 10 1 9 2 11 3 12 4 13 5 14 6 15 7 16 8 17 9 18 10 19 11
REMARK SMILES IDX 20 12 8 13 7 14 6 15 5 16 4 17 3 18 2 19 1 20
REMARK H PARENT
REMARK Flexibility Score: inf
ROOT
ATOM      1  C   UNL     1       1.590   3.288 -12.733  1.00  0.00    -0.031 C 
ATOM      2  C   UNL     1       2.842   2.874 -13.007  1.00  0.00    -0.031 C 
ENDROOT
BRANCH   1   3
ATOM      3  C   UNL     1       1.219   4.232 -11.616  1.00  0.00     0.027 C 
BRANCH   3   4
ATOM      4  C   UNL     1       0.478   5.477 -12.130  1.00  0.00     0.004 C 
BRANCH   4   5
ATOM      5  C   UNL     1      -0.050   5.281 -13.563  1.00  0.00     0.000 C 
BRANCH   5   6
ATOM      6  C   UNL     1       0.223   6.495 -14.465  1.00  0.00     0.000 C 
BRANCH   6   7
ATOM      7  C   UNL     1       0.646   6.095 -15.887  1.00  0.00     0.000 C 
BRANCH   7   8
ATOM      8  C   UNL     1       0.835   4.577 -15.996  1.00  0.00     0.006 C 
BRANCH   8   9
ATOM      9  C   UNL     1       1.809   4.224 -17.124  1.00  0.00     0.053 C 
BRANCH   9  10
ATOM     10  C   UNL     1       1.081   3.578 -18.260  1.00  0.00     0.041 C 
ATOM     11  O   UNL     1       1.711   2.899 -19.112  1.00  0.00    -0.550 OA
ATOM     12  O   UNL     1      -0.288   3.765 -18.404  1.00  0.00    -0.550 OA
ENDBRANCH   9  10
ENDBRANCH   8   9
ENDBRANCH   7   8
ENDBRANCH   6   7
ENDBRANCH   5   6
ENDBRANCH   4   5
ENDBRANCH   3   4
ENDBRANCH   1   3
BRANCH   2  13
ATOM     13  C   UNL     1       4.073   3.240 -12.211  1.00  0.00     0.027 C 
BRANCH  13  14
ATOM     14  C   UNL     1       4.793   4.451 -12.819  1.00  0.00     0.004 C 
BRANCH  14  15
ATOM     15  C   UNL     1       4.381   4.694 -14.281  1.00  0.00     0.000 C 
BRANCH  15  16
ATOM     16  C   UNL     1       3.979   6.153 -14.546  1.00  0.00     0.000 C 
BRANCH  16  17
ATOM     17  C   UNL     1       3.672   6.927 -13.251  1.00  0.00    -0.000 C 
BRANCH  17  18
ATOM     18  C   UNL     1       3.270   8.387 -13.517  1.00  0.00    -0.000 C 
BRANCH  18  19
ATOM     19  C   UNL     1       3.213   8.718 -15.015  1.00  0.00    -0.003 C 
ATOM     20  C   UNL     1       2.130   9.752 -15.308  1.00  0.00     0.004 C 
ENDBRANCH  18  19
ENDBRANCH  17  18
ENDBRANCH  16  17
ENDBRANCH  15  16
ENDBRANCH  14  15
ENDBRANCH  13  14
ENDBRANCH   2  13
TORSDOF 15
ENDMDL
MODEL 9
REMARK VINA RESULT:    -3.244      7.048     11.897
REMARK INTER + INTRA:          -9.092
REMARK INTER:                  -6.245
REMARK INTRA:                  -2.846
REMARK UNBOUND:                -3.003
REMARK SMILES CCCCCCCCC=CCCCCCCCC(=O)[O-]
REMARK SMILES IDX 10 1 9 2 11 3 12 4 13 5 14 6 15 7 16 8 17 9 18 10 19 11
REMARK SMILES IDX 20 12 8 13 7 14 6 15 5 16 4 17 3 18 2 19 1 20
REMARK H PARENT
REMARK Flexibility Score: inf
ROOT
ATOM      1  C   UNL     1      -0.107   7.798 -14.656  1.00  0.00    -0.031 C 
ATOM      2  C   UNL     1       0.915   8.618 -14.342  1.00  0.00    -0.031 C 
ENDROOT
BRANCH   1   3
ATOM      3  C   UNL     1      -0.238   7.042 -15.955  1.00  0.00     0.027 C 
BRANCH   3   4
ATOM      4  C   UNL     1      -0.066   5.527 -15.765  1.00  0.00     0.004 C 
BRANCH   4   5
ATOM      5  C   UNL     1       0.949   4.934 -16.758  1.00  0.00     0.000 C 
BRANCH   5   6
ATOM      6  C   UNL     1       1.841   3.857 -16.120  1.00  0.00     0.000 C 
BRANCH   6   7
ATOM      7  C   UNL     1       1.468   3.567 -14.658  1.00  0.00     0.000 C 
BRANCH   7   8
ATOM      8  C   UNL     1       2.450   2.572 -14.028  1.00  0.00     0.006 C 
BRANCH   8   9
ATOM      9  C   UNL     1       2.519   2.755 -12.509  1.00  0.00     0.053 C 
BRANCH   9  10
ATOM     10  C   UNL     1       3.890   2.432 -12.005  1.00  0.00     0.041 C 
ATOM     11  O   UNL     1       4.905   2.774 -12.666  1.00  0.00    -0.550 OA
ATOM     12  O   UNL     1       4.046   1.711 -10.828  1.00  0.00    -0.550 OA
ENDBRANCH   9  10
ENDBRANCH   8   9
ENDBRANCH   7   8
ENDBRANCH   6   7
ENDBRANCH   5   6
ENDBRANCH   4   5
ENDBRANCH   3   4
ENDBRANCH   1   3
BRANCH   2  13
ATOM     13  C   UNL     1       2.067   8.961 -15.257  1.00  0.00     0.027 C 
BRANCH  13  14
ATOM     14  C   UNL     1       3.392   8.401 -14.723  1.00  0.00     0.004 C 
BRANCH  14  15
ATOM     15  C   UNL     1       3.713   7.017 -15.312  1.00  0.00     0.000 C 
BRANCH  15  16
ATOM     16  C   UNL     1       4.102   5.994 -14.233  1.00  0.00     0.000 C 
BRANCH  16  17
ATOM     17  C   UNL     1       3.430   6.277 -12.878  1.00  0.00    -0.000 C 
BRANCH  17  18
ATOM     18  C   UNL     1       4.412   6.177 -11.700  1.00  0.00    -0.000 C 
BRANCH  18  19
ATOM     19  C   UNL     1       4.324   7.386 -10.756  1.00  0.00    -0.003 C 
ATOM     20  C   UNL     1       3.254   8.369 -11.221  1.00  0.00     0.004 C 
ENDBRANCH  18  19
ENDBRANCH  17  18
ENDBRANCH  16  17
ENDBRANCH  15  16
ENDBRANCH  14  15
ENDBRANCH  13  14
ENDBRANCH   2  13
TORSDOF 15
ENDMDL
