MODEL 1
REMARK VINA RESULT:   144.328      0.000      0.000
REMARK INTER + INTRA:         157.634
REMARK INTER:                 156.984
REMARK INTRA:                   0.650
REMARK UNBOUND:                 0.650
REMARK SMILES CC1(C)CC[C@@]2(C(=O)[O-])CC[C@@]3(C)C(=CC[C@@H]4[C@@]5(C)CC[C@@H](O)C(C)(C)[C@H]5CC[C@]43C)[C@H]2C1
REMARK SMILES IDX 6 1 5 2 10 3 32 4 4 5 11 6 14 7 33 8 2 9 12 10 15 11 1 12
REMARK SMILES IDX 3 13 13 14 30 15 16 16 17 17 29 18 31 19 18 20 28 21 27 22
REMARK SMILES IDX 20 23 19 24 24 25 21 26 22 27 25 28 26 29 7 30 8 31 9 32
REMARK SMILES IDX 23 33
REMARK H PARENT 23 34
REMARK Flexibility Score: inf
ROOT
ATOM      1  C   UNL     1     -37.714  28.573 -20.822  1.00  0.00     0.017 C 
ATOM      2  C   UNL     1     -38.761  28.162 -21.895  1.00  0.00     0.014 C 
ATOM      3  C   UNL     1     -36.705  29.601 -21.401  1.00  0.00     0.014 C 
ATOM      4  C   UNL     1     -38.417  29.188 -19.572  1.00  0.00     0.028 C 
ATOM      5  C   UNL     1     -39.811  29.243 -22.202  1.00  0.00     0.007 C 
ATOM      6  C   UNL     1     -35.638  30.053 -20.373  1.00  0.00     0.013 C 
ATOM      7  C   UNL     1     -37.360  29.687 -18.572  1.00  0.00    -0.064 C 
ATOM      8  C   UNL     1     -39.496  30.249 -19.903  1.00  0.00     0.015 C 
ATOM      9  C   UNL     1     -40.542  29.764 -20.940  1.00  0.00    -0.035 C 
ATOM     10  C   UNL     1     -36.221  30.652 -19.035  1.00  0.00    -0.006 C 
ATOM     11  C   UNL     1     -37.285  28.979 -17.414  1.00  0.00    -0.027 C 
ATOM     12  C   UNL     1     -41.427  30.963 -21.346  1.00  0.00     0.011 C 
ATOM     13  C   UNL     1     -41.469  28.679 -20.342  1.00  0.00     0.011 C 
ATOM     14  C   UNL     1     -36.797  32.063 -19.380  1.00  0.00     0.017 C 
ATOM     15  C   UNL     1     -35.095  30.835 -17.877  1.00  0.00    -0.020 C 
ATOM     16  C   UNL     1     -36.085  28.917 -16.518  1.00  0.00     0.032 C 
ATOM     17  C   UNL     1     -34.816  29.426 -17.226  1.00  0.00     0.006 C 
ATOM     18  C   UNL     1     -33.772  31.465 -18.447  1.00  0.00     0.008 C 
ATOM     19  C   UNL     1     -35.623  31.817 -16.774  1.00  0.00     0.012 C 
ATOM     20  C   UNL     1     -33.465  29.182 -16.391  1.00  0.00    -0.025 C 
ATOM     21  C   UNL     1     -32.547  30.552 -18.360  1.00  0.00     0.005 C 
ATOM     22  C   UNL     1     -32.298  30.152 -16.881  1.00  0.00     0.003 C 
ATOM     23  C   UNL     1     -33.091  27.648 -16.550  1.00  0.00     0.010 C 
ATOM     24  C   UNL     1     -33.686  29.431 -14.865  1.00  0.00     0.012 C 
ATOM     25  C   UNL     1     -30.788  29.702 -16.530  1.00  0.00    -0.006 C 
ATOM     26  C   UNL     1     -31.661  27.373 -16.997  1.00  0.00     0.033 C 
ATOM     27  C   UNL     1     -30.700  28.189 -16.143  1.00  0.00     0.120 C 
ATOM     28  C   UNL     1     -29.786  29.994 -17.689  1.00  0.00     0.014 C 
ATOM     29  C   UNL     1     -30.270  30.526 -15.321  1.00  0.00     0.014 C 
ENDROOT
BRANCH   1  30
ATOM     30  C   UNL     1     -36.967  27.294 -20.442  1.00  0.00     0.048 C 
ATOM     31  O   UNL     1     -35.847  27.357 -19.866  1.00  0.00    -0.550 OA
ATOM     32  O   UNL     1     -37.450  26.047 -20.820  1.00  0.00    -0.550 OA
ENDBRANCH   1  30
BRANCH  27  33
ATOM     33  O   UNL     1     -29.392  27.689 -16.289  1.00  0.00    -0.393 OA
ATOM     34  H   UNL     1     -29.413  27.017 -17.020  1.00  0.00     0.210 HD
ENDBRANCH  27  33
TORSDOF 2
ENDMDL
