MODEL 1
REMARK VINA RESULT:    -5.886      0.000      0.000
REMARK INTER + INTRA:         -16.086
REMARK INTER:                 -13.457
REMARK INTRA:                  -2.629
REMARK UNBOUND:                -2.629
REMARK SMILES CCCCCCCCCCCCCCCCCCCCCCCC(=O)[O-]
REMARK SMILES IDX 13 1 14 2 15 3 16 4 17 5 18 6 19 7 20 8 21 9 22 10 23 11
REMARK SMILES IDX 24 12 25 13 26 14 12 15 11 16 10 17 9 18 8 19 7 20 6 21 5 22
REMARK SMILES IDX 4 23 3 24 2 25 1 26
REMARK H PARENT
REMARK Flexibility Score: inf
ROOT
ATOM      1  C   UNL     1      90.398 325.912 201.427  1.00  0.00     0.000 C 
ENDROOT
BRANCH   1   2
ATOM      2  C   UNL     1      90.447 326.280 202.926  1.00  0.00     0.000 C 
BRANCH   2   3
ATOM      3  C   UNL     1      89.125 326.889 203.428  1.00  0.00     0.000 C 
BRANCH   3   4
ATOM      4  C   UNL     1      89.247 327.481 204.841  1.00  0.00     0.000 C 
BRANCH   4   5
ATOM      5  C   UNL     1      89.909 326.511 205.834  1.00  0.00     0.000 C 
BRANCH   5   6
ATOM      6  C   UNL     1      88.984 326.144 207.005  1.00  0.00     0.000 C 
BRANCH   6   7
ATOM      7  C   UNL     1      88.215 324.834 206.766  1.00  0.00     0.000 C 
BRANCH   7   8
ATOM      8  C   UNL     1      86.740 325.088 206.387  1.00  0.00     0.000 C 
BRANCH   8   9
ATOM      9  C   UNL     1      86.218 324.151 205.285  1.00  0.00     0.000 C 
BRANCH   9  10
ATOM     10  C   UNL     1      87.308 323.752 204.276  1.00  0.00     0.006 C 
BRANCH  10  11
ATOM     11  C   UNL     1      86.817 323.847 202.826  1.00  0.00     0.053 C 
BRANCH  11  12
ATOM     12  C   UNL     1      86.503 322.497 202.254  1.00  0.00     0.041 C 
ATOM     13  O   UNL     1      85.953 322.402 201.126  1.00  0.00    -0.550 OA
ATOM     14  O   UNL     1      86.778 321.349 202.984  1.00  0.00    -0.550 OA
ENDBRANCH  11  12
ENDBRANCH  10  11
ENDBRANCH   9  10
ENDBRANCH   8   9
ENDBRANCH   7   8
ENDBRANCH   6   7
ENDBRANCH   5   6
ENDBRANCH   4   5
ENDBRANCH   3   4
ENDBRANCH   2   3
ENDBRANCH   1   2
BRANCH   1  15
ATOM     15  C   UNL     1      89.021 326.135 200.773  1.00  0.00     0.000 C 
BRANCH  15  16
ATOM     16  C   UNL     1      89.019 326.125 199.233  1.00  0.00     0.000 C 
BRANCH  16  17
ATOM     17  C   UNL     1      88.951 324.727 198.589  1.00  0.00     0.000 C 
BRANCH  17  18
ATOM     18  C   UNL     1      88.151 324.708 197.278  1.00  0.00    -0.000 C 
BRANCH  18  19
ATOM     19  C   UNL     1      87.989 326.125 196.714  1.00  0.00    -0.000 C 
BRANCH  19  20
ATOM     20  C   UNL     1      88.921 326.348 195.513  1.00  0.00    -0.000 C 
BRANCH  20  21
ATOM     21  C   UNL     1      88.174 326.839 194.262  1.00  0.00    -0.000 C 
BRANCH  21  22
ATOM     22  C   UNL     1      86.706 326.380 194.230  1.00  0.00    -0.000 C 
BRANCH  22  23
ATOM     23  C   UNL     1      86.529 325.018 193.540  1.00  0.00    -0.000 C 
BRANCH  23  24
ATOM     24  C   UNL     1      87.599 324.756 192.470  1.00  0.00    -0.000 C 
BRANCH  24  25
ATOM     25  C   UNL     1      88.230 323.372 192.651  1.00  0.00    -0.003 C 
ATOM     26  C   UNL     1      88.137 322.909 194.103  1.00  0.00     0.004 C 
ENDBRANCH  24  25
ENDBRANCH  23  24
ENDBRANCH  22  23
ENDBRANCH  21  22
ENDBRANCH  20  21
ENDBRANCH  19  20
ENDBRANCH  18  19
ENDBRANCH  17  18
ENDBRANCH  16  17
ENDBRANCH  15  16
ENDBRANCH   1  15
TORSDOF 22
ENDMDL
MODEL 2
REMARK VINA RESULT:    -5.830      3.166      9.846
REMARK INTER + INTRA:         -15.957
REMARK INTER:                 -13.146
REMARK INTRA:                  -2.811
REMARK UNBOUND:                -2.629
REMARK SMILES CCCCCCCCCCCCCCCCCCCCCCCC(=O)[O-]
REMARK SMILES IDX 13 1 14 2 15 3 16 4 17 5 18 6 19 7 20 8 21 9 22 10 23 11
REMARK SMILES IDX 24 12 25 13 26 14 12 15 11 16 10 17 9 18 8 19 7 20 6 21 5 22
REMARK SMILES IDX 4 23 3 24 2 25 1 26
REMARK H PARENT
REMARK Flexibility Score: inf
ROOT
ATOM      1  C   UNL     1      89.002 323.814 201.138  1.00  0.00     0.000 C 
ENDROOT
BRANCH   1   2
ATOM      2  C   UNL     1      89.843 324.687 200.182  1.00  0.00     0.000 C 
BRANCH   2   3
ATOM      3  C   UNL     1      89.384 326.157 200.168  1.00  0.00     0.000 C 
BRANCH   3   4
ATOM      4  C   UNL     1      89.009 326.644 198.760  1.00  0.00     0.000 C 
BRANCH   4   5
ATOM      5  C   UNL     1      88.547 325.499 197.841  1.00  0.00     0.000 C 
BRANCH   5   6
ATOM      6  C   UNL     1      87.861 326.009 196.564  1.00  0.00     0.000 C 
BRANCH   6   7
ATOM      7  C   UNL     1      88.865 326.398 195.466  1.00  0.00     0.000 C 
BRANCH   7   8
ATOM      8  C   UNL     1      88.163 326.780 194.146  1.00  0.00     0.000 C 
BRANCH   8   9
ATOM      9  C   UNL     1      86.698 326.317 194.072  1.00  0.00     0.000 C 
BRANCH   9  10
ATOM     10  C   UNL     1      86.517 325.042 193.230  1.00  0.00     0.006 C 
BRANCH  10  11
ATOM     11  C   UNL     1      87.800 324.656 192.484  1.00  0.00     0.053 C 
BRANCH  11  12
ATOM     12  C   UNL     1      87.511 323.824 191.271  1.00  0.00     0.041 C 
ATOM     13  O   UNL     1      86.481 323.102 191.231  1.00  0.00    -0.550 OA
ATOM     14  O   UNL     1      88.399 323.815 190.205  1.00  0.00    -0.550 OA
ENDBRANCH  11  12
ENDBRANCH  10  11
ENDBRANCH   9  10
ENDBRANCH   8   9
ENDBRANCH   7   8
ENDBRANCH   6   7
ENDBRANCH   5   6
ENDBRANCH   4   5
ENDBRANCH   3   4
ENDBRANCH   2   3
ENDBRANCH   1   2
BRANCH   1  15
ATOM     15  C   UNL     1      87.770 324.531 201.721  1.00  0.00     0.000 C 
BRANCH  15  16
ATOM     16  C   UNL     1      86.991 323.736 202.785  1.00  0.00     0.000 C 
BRANCH  16  17
ATOM     17  C   UNL     1      87.858 322.857 203.708  1.00  0.00     0.000 C 
BRANCH  17  18
ATOM     18  C   UNL     1      87.418 322.915 205.178  1.00  0.00    -0.000 C 
BRANCH  18  19
ATOM     19  C   UNL     1      86.251 323.892 205.363  1.00  0.00    -0.000 C 
BRANCH  19  20
ATOM     20  C   UNL     1      86.607 324.985 206.383  1.00  0.00    -0.000 C 
BRANCH  20  21
ATOM     21  C   UNL     1      88.105 325.016 206.725  1.00  0.00    -0.000 C 
BRANCH  21  22
ATOM     22  C   UNL     1      88.599 326.425 207.098  1.00  0.00    -0.000 C 
BRANCH  22  23
ATOM     23  C   UNL     1      89.639 326.966 206.104  1.00  0.00    -0.000 C 
BRANCH  23  24
ATOM     24  C   UNL     1      89.122 326.977 204.657  1.00  0.00    -0.000 C 
BRANCH  24  25
ATOM     25  C   UNL     1      90.210 326.515 203.683  1.00  0.00    -0.003 C 
ATOM     26  C   UNL     1      90.766 325.150 204.081  1.00  0.00     0.004 C 
ENDBRANCH  24  25
ENDBRANCH  23  24
ENDBRANCH  22  23
ENDBRANCH  21  22
ENDBRANCH  20  21
ENDBRANCH  19  20
ENDBRANCH  18  19
ENDBRANCH  17  18
ENDBRANCH  16  17
ENDBRANCH  15  16
ENDBRANCH   1  15
TORSDOF 22
ENDMDL
MODEL 3
REMARK VINA RESULT:    -5.815      3.784     10.586
REMARK INTER + INTRA:         -15.923
REMARK INTER:                 -14.353
REMARK INTRA:                  -1.571
REMARK UNBOUND:                -2.629
REMARK SMILES CCCCCCCCCCCCCCCCCCCCCCCC(=O)[O-]
REMARK SMILES IDX 13 1 14 2 15 3 16 4 17 5 18 6 19 7 20 8 21 9 22 10 23 11
REMARK SMILES IDX 24 12 25 13 26 14 12 15 11 16 10 17 9 18 8 19 7 20 6 21 5 22
REMARK SMILES IDX 4 23 3 24 2 25 1 26
REMARK H PARENT
REMARK Flexibility Score: inf
ROOT
ATOM      1  C   UNL     1      89.182 325.379 199.832  1.00  0.00     0.000 C 
ENDROOT
BRANCH   1   2
ATOM      2  C   UNL     1      88.873 325.859 198.397  1.00  0.00     0.000 C 
BRANCH   2   3
ATOM      3  C   UNL     1      88.411 324.712 197.478  1.00  0.00     0.000 C 
BRANCH   3   4
ATOM      4  C   UNL     1      88.856 324.909 196.020  1.00  0.00     0.000 C 
BRANCH   4   5
ATOM      5  C   UNL     1      88.913 326.392 195.615  1.00  0.00     0.000 C 
BRANCH   5   6
ATOM      6  C   UNL     1      88.192 326.667 194.286  1.00  0.00     0.000 C 
BRANCH   6   7
ATOM      7  C   UNL     1      86.725 326.205 194.301  1.00  0.00     0.000 C 
BRANCH   7   8
ATOM      8  C   UNL     1      86.461 325.077 193.281  1.00  0.00     0.000 C 
BRANCH   8   9
ATOM      9  C   UNL     1      87.678 324.747 192.400  1.00  0.00     0.000 C 
BRANCH   9  10
ATOM     10  C   UNL     1      87.365 323.699 191.319  1.00  0.00     0.006 C 
BRANCH  10  11
ATOM     11  C   UNL     1      88.472 323.611 190.261  1.00  0.00     0.053 C 
BRANCH  11  12
ATOM     12  C   UNL     1      88.107 322.675 189.149  1.00  0.00     0.041 C 
ATOM     13  O   UNL     1      89.008 322.147 188.446  1.00  0.00    -0.550 OA
ATOM     14  O   UNL     1      86.773 322.419 188.862  1.00  0.00    -0.550 OA
ENDBRANCH  11  12
ENDBRANCH  10  11
ENDBRANCH   9  10
ENDBRANCH   8   9
ENDBRANCH   7   8
ENDBRANCH   6   7
ENDBRANCH   5   6
ENDBRANCH   4   5
ENDBRANCH   3   4
ENDBRANCH   2   3
ENDBRANCH   1   2
BRANCH   1  15
ATOM     15  C   UNL     1      89.551 326.515 200.805  1.00  0.00     0.000 C 
BRANCH  15  16
ATOM     16  C   UNL     1      88.981 326.370 202.228  1.00  0.00     0.000 C 
BRANCH  16  17
ATOM     17  C   UNL     1      89.935 326.795 203.361  1.00  0.00     0.000 C 
BRANCH  17  18
ATOM     18  C   UNL     1      89.197 327.272 204.619  1.00  0.00    -0.000 C 
BRANCH  18  19
ATOM     19  C   UNL     1      90.115 327.220 205.847  1.00  0.00    -0.000 C 
BRANCH  19  20
ATOM     20  C   UNL     1      89.523 326.315 206.938  1.00  0.00    -0.000 C 
BRANCH  20  21
ATOM     21  C   UNL     1      88.014 326.082 206.765  1.00  0.00    -0.000 C 
BRANCH  21  22
ATOM     22  C   UNL     1      87.655 324.592 206.630  1.00  0.00    -0.000 C 
BRANCH  22  23
ATOM     23  C   UNL     1      86.473 324.354 205.677  1.00  0.00    -0.000 C 
BRANCH  23  24
ATOM     24  C   UNL     1      86.717 323.181 204.717  1.00  0.00    -0.000 C 
BRANCH  24  25
ATOM     25  C   UNL     1      87.100 323.684 203.321  1.00  0.00    -0.003 C 
ATOM     26  C   UNL     1      86.333 322.935 202.234  1.00  0.00     0.004 C 
ENDBRANCH  24  25
ENDBRANCH  23  24
ENDBRANCH  22  23
ENDBRANCH  21  22
ENDBRANCH  20  21
ENDBRANCH  19  20
ENDBRANCH  18  19
ENDBRANCH  17  18
ENDBRANCH  16  17
ENDBRANCH  15  16
ENDBRANCH   1  15
TORSDOF 22
ENDMDL
MODEL 4
REMARK VINA RESULT:    -5.733      1.785      3.296
REMARK INTER + INTRA:         -15.735
REMARK INTER:                 -14.276
REMARK INTRA:                  -1.459
REMARK UNBOUND:                -2.629
REMARK SMILES CCCCCCCCCCCCCCCCCCCCCCCC(=O)[O-]
REMARK SMILES IDX 13 1 14 2 15 3 16 4 17 5 18 6 19 7 20 8 21 9 22 10 23 11
REMARK SMILES IDX 24 12 25 13 26 14 12 15 11 16 10 17 9 18 8 19 7 20 6 21 5 22
REMARK SMILES IDX 4 23 3 24 2 25 1 26
REMARK H PARENT
REMARK Flexibility Score: inf
ROOT
ATOM      1  C   UNL     1      88.990 325.711 198.951  1.00  0.00     0.000 C 
ENDROOT
BRANCH   1   2
ATOM      2  C   UNL     1      89.234 326.571 200.211  1.00  0.00     0.000 C 
BRANCH   2   3
ATOM      3  C   UNL     1      90.081 325.841 201.269  1.00  0.00     0.000 C 
BRANCH   3   4
ATOM      4  C   UNL     1      91.147 326.750 201.902  1.00  0.00     0.000 C 
BRANCH   4   5
ATOM      5  C   UNL     1      90.782 327.181 203.333  1.00  0.00     0.000 C 
BRANCH   5   6
ATOM      6  C   UNL     1      89.726 326.264 203.972  1.00  0.00     0.000 C 
BRANCH   6   7
ATOM      7  C   UNL     1      89.025 326.917 205.176  1.00  0.00     0.000 C 
BRANCH   7   8
ATOM      8  C   UNL     1      89.043 326.006 206.421  1.00  0.00     0.000 C 
BRANCH   8   9
ATOM      9  C   UNL     1      87.676 325.893 207.119  1.00  0.00     0.000 C 
BRANCH   9  10
ATOM     10  C   UNL     1      86.689 324.995 206.355  1.00  0.00     0.006 C 
BRANCH  10  11
ATOM     11  C   UNL     1      87.205 323.557 206.213  1.00  0.00     0.053 C 
BRANCH  11  12
ATOM     12  C   UNL     1      86.986 323.020 204.831  1.00  0.00     0.041 C 
ATOM     13  O   UNL     1      86.716 321.802 204.662  1.00  0.00    -0.550 OA
ATOM     14  O   UNL     1      87.121 323.853 203.729  1.00  0.00    -0.550 OA
ENDBRANCH  11  12
ENDBRANCH  10  11
ENDBRANCH   9  10
ENDBRANCH   8   9
ENDBRANCH   7   8
ENDBRANCH   6   7
ENDBRANCH   5   6
ENDBRANCH   4   5
ENDBRANCH   3   4
ENDBRANCH   2   3
ENDBRANCH   1   2
BRANCH   1  15
ATOM     15  C   UNL     1      88.518 326.516 197.725  1.00  0.00     0.000 C 
BRANCH  15  16
ATOM     16  C   UNL     1      87.769 325.701 196.655  1.00  0.00     0.000 C 
BRANCH  16  17
ATOM     17  C   UNL     1      86.512 326.379 196.079  1.00  0.00     0.000 C 
BRANCH  17  18
ATOM     18  C   UNL     1      86.615 326.653 194.572  1.00  0.00    -0.000 C 
BRANCH  18  19
ATOM     19  C   UNL     1      88.059 326.484 194.081  1.00  0.00    -0.000 C 
BRANCH  19  20
ATOM     20  C   UNL     1      88.133 325.466 192.933  1.00  0.00    -0.000 C 
BRANCH  20  21
ATOM     21  C   UNL     1      86.840 324.650 192.775  1.00  0.00    -0.000 C 
BRANCH  21  22
ATOM     22  C   UNL     1      86.952 323.564 191.691  1.00  0.00    -0.000 C 
BRANCH  22  23
ATOM     23  C   UNL     1      88.118 323.818 190.721  1.00  0.00    -0.000 C 
BRANCH  23  24
ATOM     24  C   UNL     1      88.080 322.890 189.498  1.00  0.00    -0.000 C 
BRANCH  24  25
ATOM     25  C   UNL     1      86.659 322.374 189.245  1.00  0.00    -0.003 C 
ATOM     26  C   UNL     1      86.682 321.014 188.550  1.00  0.00     0.004 C 
ENDBRANCH  24  25
ENDBRANCH  23  24
ENDBRANCH  22  23
ENDBRANCH  21  22
ENDBRANCH  20  21
ENDBRANCH  19  20
ENDBRANCH  18  19
ENDBRANCH  17  18
ENDBRANCH  16  17
ENDBRANCH  15  16
ENDBRANCH   1  15
TORSDOF 22
ENDMDL
MODEL 5
REMARK VINA RESULT:    -5.565      3.893     10.974
REMARK INTER + INTRA:         -15.352
REMARK INTER:                 -13.309
REMARK INTRA:                  -2.044
REMARK UNBOUND:                -2.629
REMARK SMILES CCCCCCCCCCCCCCCCCCCCCCCC(=O)[O-]
REMARK SMILES IDX 13 1 14 2 15 3 16 4 17 5 18 6 19 7 20 8 21 9 22 10 23 11
REMARK SMILES IDX 24 12 25 13 26 14 12 15 11 16 10 17 9 18 8 19 7 20 6 21 5 22
REMARK SMILES IDX 4 23 3 24 2 25 1 26
REMARK H PARENT
REMARK Flexibility Score: inf
ROOT
ATOM      1  C   UNL     1      89.219 324.849 199.183  1.00  0.00     0.000 C 
ENDROOT
BRANCH   1   2
ATOM      2  C   UNL     1      88.553 324.748 197.793  1.00  0.00     0.000 C 
BRANCH   2   3
ATOM      3  C   UNL     1      88.021 326.104 197.293  1.00  0.00     0.000 C 
BRANCH   3   4
ATOM      4  C   UNL     1      86.956 325.952 196.196  1.00  0.00     0.000 C 
BRANCH   4   5
ATOM      5  C   UNL     1      87.191 326.900 195.008  1.00  0.00     0.000 C 
BRANCH   5   6
ATOM      6  C   UNL     1      88.160 326.313 193.969  1.00  0.00     0.000 C 
BRANCH   6   7
ATOM      7  C   UNL     1      88.115 324.776 193.919  1.00  0.00     0.000 C 
BRANCH   7   8
ATOM      8  C   UNL     1      87.370 324.259 192.670  1.00  0.00     0.000 C 
BRANCH   8   9
ATOM      9  C   UNL     1      88.150 324.462 191.360  1.00  0.00     0.000 C 
BRANCH   9  10
ATOM     10  C   UNL     1      87.988 323.286 190.381  1.00  0.00     0.006 C 
BRANCH  10  11
ATOM     11  C   UNL     1      88.850 323.457 189.124  1.00  0.00     0.053 C 
BRANCH  11  12
ATOM     12  C   UNL     1      89.881 322.376 189.004  1.00  0.00     0.041 C 
ATOM     13  O   UNL     1      89.921 321.444 189.849  1.00  0.00    -0.550 OA
ATOM     14  O   UNL     1      90.823 322.421 187.986  1.00  0.00    -0.550 OA
ENDBRANCH  11  12
ENDBRANCH  10  11
ENDBRANCH   9  10
ENDBRANCH   8   9
ENDBRANCH   7   8
ENDBRANCH   6   7
ENDBRANCH   5   6
ENDBRANCH   4   5
ENDBRANCH   3   4
ENDBRANCH   2   3
ENDBRANCH   1   2
BRANCH   1  15
ATOM     15  C   UNL     1      89.014 326.209 199.878  1.00  0.00     0.000 C 
BRANCH  15  16
ATOM     16  C   UNL     1      88.734 326.136 201.390  1.00  0.00     0.000 C 
BRANCH  16  17
ATOM     17  C   UNL     1      88.966 324.754 202.031  1.00  0.00     0.000 C 
BRANCH  17  18
ATOM     18  C   UNL     1      87.684 324.139 202.611  1.00  0.00    -0.000 C 
BRANCH  18  19
ATOM     19  C   UNL     1      87.998 322.870 203.413  1.00  0.00    -0.000 C 
BRANCH  19  20
ATOM     20  C   UNL     1      87.645 323.056 204.897  1.00  0.00    -0.000 C 
BRANCH  20  21
ATOM     21  C   UNL     1      86.429 323.972 205.110  1.00  0.00    -0.000 C 
BRANCH  21  22
ATOM     22  C   UNL     1      86.673 325.039 206.191  1.00  0.00    -0.000 C 
BRANCH  22  23
ATOM     23  C   UNL     1      88.087 324.961 206.788  1.00  0.00    -0.000 C 
BRANCH  23  24
ATOM     24  C   UNL     1      88.867 326.274 206.631  1.00  0.00    -0.000 C 
BRANCH  24  25
ATOM     25  C   UNL     1      88.807 326.779 205.186  1.00  0.00    -0.003 C 
ATOM     26  C   UNL     1      90.175 327.266 204.713  1.00  0.00     0.004 C 
ENDBRANCH  24  25
ENDBRANCH  23  24
ENDBRANCH  22  23
ENDBRANCH  21  22
ENDBRANCH  20  21
ENDBRANCH  19  20
ENDBRANCH  18  19
ENDBRANCH  17  18
ENDBRANCH  16  17
ENDBRANCH  15  16
ENDBRANCH   1  15
TORSDOF 22
ENDMDL
MODEL 6
REMARK VINA RESULT:    -5.565      2.589      3.854
REMARK INTER + INTRA:         -15.351
REMARK INTER:                 -13.472
REMARK INTRA:                  -1.879
REMARK UNBOUND:                -2.629
REMARK SMILES CCCCCCCCCCCCCCCCCCCCCCCC(=O)[O-]
REMARK SMILES IDX 13 1 14 2 15 3 16 4 17 5 18 6 19 7 20 8 21 9 22 10 23 11
REMARK SMILES IDX 24 12 25 13 26 14 12 15 11 16 10 17 9 18 8 19 7 20 6 21 5 22
REMARK SMILES IDX 4 23 3 24 2 25 1 26
REMARK H PARENT
REMARK Flexibility Score: inf
ROOT
ATOM      1  C   UNL     1      89.074 325.658 201.137  1.00  0.00     0.000 C 
ENDROOT
BRANCH   1   2
ATOM      2  C   UNL     1      89.430 324.158 201.045  1.00  0.00     0.000 C 
BRANCH   2   3
ATOM      3  C   UNL     1      88.258 323.247 201.452  1.00  0.00     0.000 C 
BRANCH   3   4
ATOM      4  C   UNL     1      87.187 323.991 202.266  1.00  0.00     0.000 C 
BRANCH   4   5
ATOM      5  C   UNL     1      86.512 323.092 203.316  1.00  0.00     0.000 C 
BRANCH   5   6
ATOM      6  C   UNL     1      87.183 323.194 204.696  1.00  0.00     0.000 C 
BRANCH   6   7
ATOM      7  C   UNL     1      86.578 324.305 205.569  1.00  0.00     0.000 C 
BRANCH   7   8
ATOM      8  C   UNL     1      87.469 324.639 206.784  1.00  0.00     0.000 C 
BRANCH   8   9
ATOM      9  C   UNL     1      88.196 325.989 206.662  1.00  0.00     0.000 C 
BRANCH   9  10
ATOM     10  C   UNL     1      88.538 326.352 205.207  1.00  0.00     0.006 C 
BRANCH  10  11
ATOM     11  C   UNL     1      89.977 325.971 204.839  1.00  0.00     0.053 C 
BRANCH  11  12
ATOM     12  C   UNL     1      90.850 327.179 204.679  1.00  0.00     0.041 C 
ATOM     13  O   UNL     1      91.165 327.583 203.529  1.00  0.00    -0.550 OA
ATOM     14  O   UNL     1      91.350 327.831 205.797  1.00  0.00    -0.550 OA
ENDBRANCH  11  12
ENDBRANCH  10  11
ENDBRANCH   9  10
ENDBRANCH   8   9
ENDBRANCH   7   8
ENDBRANCH   6   7
ENDBRANCH   5   6
ENDBRANCH   4   5
ENDBRANCH   3   4
ENDBRANCH   2   3
ENDBRANCH   1   2
BRANCH   1  15
ATOM     15  C   UNL     1      89.247 326.425 199.812  1.00  0.00     0.000 C 
BRANCH  15  16
ATOM     16  C   UNL     1      88.838 325.649 198.547  1.00  0.00     0.000 C 
BRANCH  16  17
ATOM     17  C   UNL     1      88.560 326.520 197.307  1.00  0.00     0.000 C 
BRANCH  17  18
ATOM     18  C   UNL     1      88.884 325.805 195.987  1.00  0.00    -0.000 C 
BRANCH  18  19
ATOM     19  C   UNL     1      88.300 326.568 194.792  1.00  0.00    -0.000 C 
BRANCH  19  20
ATOM     20  C   UNL     1      86.765 326.494 194.790  1.00  0.00    -0.000 C 
BRANCH  20  21
ATOM     21  C   UNL     1      86.237 325.082 194.492  1.00  0.00    -0.000 C 
BRANCH  21  22
ATOM     22  C   UNL     1      86.227 324.758 192.988  1.00  0.00    -0.000 C 
BRANCH  22  23
ATOM     23  C   UNL     1      87.417 323.881 192.566  1.00  0.00    -0.000 C 
BRANCH  23  24
ATOM     24  C   UNL     1      88.061 324.351 191.254  1.00  0.00    -0.000 C 
BRANCH  24  25
ATOM     25  C   UNL     1      87.863 323.315 190.143  1.00  0.00    -0.003 C 
ATOM     26  C   UNL     1      88.985 323.391 189.111  1.00  0.00     0.004 C 
ENDBRANCH  24  25
ENDBRANCH  23  24
ENDBRANCH  22  23
ENDBRANCH  21  22
ENDBRANCH  20  21
ENDBRANCH  19  20
ENDBRANCH  18  19
ENDBRANCH  17  18
ENDBRANCH  16  17
ENDBRANCH  15  16
ENDBRANCH   1  15
TORSDOF 22
ENDMDL
MODEL 7
REMARK VINA RESULT:    -5.563      3.023      9.985
REMARK INTER + INTRA:         -15.347
REMARK INTER:                 -13.082
REMARK INTRA:                  -2.265
REMARK UNBOUND:                -2.629
REMARK SMILES CCCCCCCCCCCCCCCCCCCCCCCC(=O)[O-]
REMARK SMILES IDX 13 1 14 2 15 3 16 4 17 5 18 6 19 7 20 8 21 9 22 10 23 11
REMARK SMILES IDX 24 12 25 13 26 14 12 15 11 16 10 17 9 18 8 19 7 20 6 21 5 22
REMARK SMILES IDX 4 23 3 24 2 25 1 26
REMARK H PARENT
REMARK Flexibility Score: inf
ROOT
ATOM      1  C   UNL     1      89.093 326.356 200.933  1.00  0.00     0.000 C 
ENDROOT
BRANCH   1   2
ATOM      2  C   UNL     1      89.038 325.692 199.540  1.00  0.00     0.000 C 
BRANCH   2   3
ATOM      3  C   UNL     1      88.852 326.716 198.405  1.00  0.00     0.000 C 
BRANCH   3   4
ATOM      4  C   UNL     1      88.050 326.148 197.224  1.00  0.00     0.000 C 
BRANCH   4   5
ATOM      5  C   UNL     1      88.920 325.913 195.977  1.00  0.00     0.000 C 
BRANCH   5   6
ATOM      6  C   UNL     1      88.336 326.573 194.718  1.00  0.00     0.000 C 
BRANCH   6   7
ATOM      7  C   UNL     1      86.815 326.378 194.597  1.00  0.00     0.000 C 
BRANCH   7   8
ATOM      8  C   UNL     1      86.451 325.260 193.597  1.00  0.00     0.000 C 
BRANCH   8   9
ATOM      9  C   UNL     1      87.647 324.380 193.196  1.00  0.00     0.000 C 
BRANCH   9  10
ATOM     10  C   UNL     1      88.063 324.571 191.728  1.00  0.00     0.006 C 
BRANCH  10  11
ATOM     11  C   UNL     1      87.545 323.442 190.828  1.00  0.00     0.053 C 
BRANCH  11  12
ATOM     12  C   UNL     1      87.786 322.092 191.433  1.00  0.00     0.041 C 
ATOM     13  O   UNL     1      88.962 321.668 191.585  1.00  0.00    -0.550 OA
ATOM     14  O   UNL     1      86.714 321.287 191.790  1.00  0.00    -0.550 OA
ENDBRANCH  11  12
ENDBRANCH  10  11
ENDBRANCH   9  10
ENDBRANCH   8   9
ENDBRANCH   7   8
ENDBRANCH   6   7
ENDBRANCH   5   6
ENDBRANCH   4   5
ENDBRANCH   3   4
ENDBRANCH   2   3
ENDBRANCH   1   2
BRANCH   1  15
ATOM     15  C   UNL     1      90.490 326.330 201.584  1.00  0.00     0.000 C 
BRANCH  15  16
ATOM     16  C   UNL     1      90.554 326.885 203.019  1.00  0.00     0.000 C 
BRANCH  16  17
ATOM     17  C   UNL     1      89.235 326.803 203.810  1.00  0.00     0.000 C 
BRANCH  17  18
ATOM     18  C   UNL     1      89.346 327.392 205.224  1.00  0.00    -0.000 C 
BRANCH  18  19
ATOM     19  C   UNL     1      89.420 326.279 206.277  1.00  0.00    -0.000 C 
BRANCH  19  20
ATOM     20  C   UNL     1      88.026 325.965 206.843  1.00  0.00    -0.000 C 
BRANCH  20  21
ATOM     21  C   UNL     1      87.649 324.481 206.707  1.00  0.00    -0.000 C 
BRANCH  21  22
ATOM     22  C   UNL     1      86.446 324.257 205.774  1.00  0.00    -0.000 C 
BRANCH  22  23
ATOM     23  C   UNL     1      86.870 323.981 204.323  1.00  0.00    -0.000 C 
BRANCH  23  24
ATOM     24  C   UNL     1      87.873 322.824 204.212  1.00  0.00    -0.000 C 
BRANCH  24  25
ATOM     25  C   UNL     1      89.088 323.229 203.370  1.00  0.00    -0.003 C 
ATOM     26  C   UNL     1      90.359 323.264 204.214  1.00  0.00     0.004 C 
ENDBRANCH  24  25
ENDBRANCH  23  24
ENDBRANCH  22  23
ENDBRANCH  21  22
ENDBRANCH  20  21
ENDBRANCH  19  20
ENDBRANCH  18  19
ENDBRANCH  17  18
ENDBRANCH  16  17
ENDBRANCH  15  16
ENDBRANCH   1  15
TORSDOF 22
ENDMDL
MODEL 8
REMARK VINA RESULT:    -5.558     18.896     20.360
REMARK INTER + INTRA:         -15.336
REMARK INTER:                 -12.693
REMARK INTRA:                  -2.642
REMARK UNBOUND:                -2.629
REMARK SMILES CCCCCCCCCCCCCCCCCCCCCCCC(=O)[O-]
REMARK SMILES IDX 13 1 14 2 15 3 16 4 17 5 18 6 19 7 20 8 21 9 22 10 23 11
REMARK SMILES IDX 24 12 25 13 26 14 12 15 11 16 10 17 9 18 8 19 7 20 6 21 5 22
REMARK SMILES IDX 4 23 3 24 2 25 1 26
REMARK H PARENT
REMARK Flexibility Score: inf
ROOT
ATOM      1  C   UNL     1     104.165 312.876 196.863  1.00  0.00     0.000 C 
ENDROOT
BRANCH   1   2
ATOM      2  C   UNL     1     103.919 311.531 197.580  1.00  0.00     0.000 C 
BRANCH   2   3
ATOM      3  C   UNL     1     103.366 311.714 199.006  1.00  0.00     0.000 C 
BRANCH   3   4
ATOM      4  C   UNL     1     104.415 312.278 199.977  1.00  0.00     0.000 C 
BRANCH   4   5
ATOM      5  C   UNL     1     103.987 313.620 200.595  1.00  0.00     0.000 C 
BRANCH   5   6
ATOM      6  C   UNL     1     102.460 313.797 200.619  1.00  0.00     0.000 C 
BRANCH   6   7
ATOM      7  C   UNL     1     101.847 313.475 201.993  1.00  0.00     0.000 C 
BRANCH   7   8
ATOM      8  C   UNL     1     100.929 312.236 201.943  1.00  0.00     0.000 C 
BRANCH   8   9
ATOM      9  C   UNL     1     101.682 310.905 202.105  1.00  0.00     0.000 C 
BRANCH   9  10
ATOM     10  C   UNL     1     102.368 310.771 203.475  1.00  0.00     0.006 C 
BRANCH  10  11
ATOM     11  C   UNL     1     103.897 310.741 203.356  1.00  0.00     0.053 C 
BRANCH  11  12
ATOM     12  C   UNL     1     104.546 311.743 204.263  1.00  0.00     0.041 C 
ATOM     13  O   UNL     1     104.908 312.861 203.813  1.00  0.00    -0.550 OA
ATOM     14  O   UNL     1     104.789 311.425 205.592  1.00  0.00    -0.550 OA
ENDBRANCH  11  12
ENDBRANCH  10  11
ENDBRANCH   9  10
ENDBRANCH   8   9
ENDBRANCH   7   8
ENDBRANCH   6   7
ENDBRANCH   5   6
ENDBRANCH   4   5
ENDBRANCH   3   4
ENDBRANCH   2   3
ENDBRANCH   1   2
BRANCH   1  15
ATOM     15  C   UNL     1     104.428 312.740 195.351  1.00  0.00     0.000 C 
BRANCH  15  16
ATOM     16  C   UNL     1     103.476 311.789 194.603  1.00  0.00     0.000 C 
BRANCH  16  17
ATOM     17  C   UNL     1     103.974 311.317 193.224  1.00  0.00     0.000 C 
BRANCH  17  18
ATOM     18  C   UNL     1     104.889 312.340 192.534  1.00  0.00    -0.000 C 
BRANCH  18  19
ATOM     19  C   UNL     1     104.109 313.167 191.504  1.00  0.00    -0.000 C 
BRANCH  19  20
ATOM     20  C   UNL     1     103.905 314.608 191.997  1.00  0.00    -0.000 C 
BRANCH  20  21
ATOM     21  C   UNL     1     105.003 315.566 191.507  1.00  0.00    -0.000 C 
BRANCH  21  22
ATOM     22  C   UNL     1     105.564 315.171 190.130  1.00  0.00    -0.000 C 
BRANCH  22  23
ATOM     23  C   UNL     1     105.072 316.096 189.005  1.00  0.00    -0.000 C 
BRANCH  23  24
ATOM     24  C   UNL     1     104.318 315.337 187.904  1.00  0.00    -0.000 C 
BRANCH  24  25
ATOM     25  C   UNL     1     102.917 314.934 188.376  1.00  0.00    -0.003 C 
ATOM     26  C   UNL     1     102.166 316.127 188.960  1.00  0.00     0.004 C 
ENDBRANCH  24  25
ENDBRANCH  23  24
ENDBRANCH  22  23
ENDBRANCH  21  22
ENDBRANCH  20  21
ENDBRANCH  19  20
ENDBRANCH  18  19
ENDBRANCH  17  18
ENDBRANCH  16  17
ENDBRANCH  15  16
ENDBRANCH   1  15
TORSDOF 22
ENDMDL
MODEL 9
REMARK VINA RESULT:    -5.526      2.897     10.328
REMARK INTER + INTRA:         -15.263
REMARK INTER:                 -13.351
REMARK INTRA:                  -1.912
REMARK UNBOUND:                -2.629
REMARK SMILES CCCCCCCCCCCCCCCCCCCCCCCC(=O)[O-]
REMARK SMILES IDX 13 1 14 2 15 3 16 4 17 5 18 6 19 7 20 8 21 9 22 10 23 11
REMARK SMILES IDX 24 12 25 13 26 14 12 15 11 16 10 17 9 18 8 19 7 20 6 21 5 22
REMARK SMILES IDX 4 23 3 24 2 25 1 26
REMARK H PARENT
REMARK Flexibility Score: inf
ROOT
ATOM      1  C   UNL     1      89.318 324.561 200.051  1.00  0.00     0.000 C 
ENDROOT
BRANCH   1   2
ATOM      2  C   UNL     1      88.988 324.711 198.549  1.00  0.00     0.000 C 
BRANCH   2   3
ATOM      3  C   UNL     1      88.512 326.131 198.189  1.00  0.00     0.000 C 
BRANCH   3   4
ATOM      4  C   UNL     1      87.842 326.195 196.808  1.00  0.00     0.000 C 
BRANCH   4   5
ATOM      5  C   UNL     1      88.855 326.094 195.654  1.00  0.00     0.000 C 
BRANCH   5   6
ATOM      6  C   UNL     1      88.341 326.746 194.361  1.00  0.00     0.000 C 
BRANCH   6   7
ATOM      7  C   UNL     1      86.881 326.376 194.049  1.00  0.00     0.000 C 
BRANCH   7   8
ATOM      8  C   UNL     1      86.756 324.957 193.456  1.00  0.00     0.000 C 
BRANCH   8   9
ATOM      9  C   UNL     1      87.894 324.592 192.487  1.00  0.00     0.000 C 
BRANCH   9  10
ATOM     10  C   UNL     1      87.409 323.775 191.278  1.00  0.00     0.006 C 
BRANCH  10  11
ATOM     11  C   UNL     1      85.984 323.241 191.474  1.00  0.00     0.053 C 
BRANCH  11  12
ATOM     12  C   UNL     1      85.974 321.769 191.752  1.00  0.00     0.041 C 
ATOM     13  O   UNL     1      85.903 321.350 192.937  1.00  0.00    -0.550 OA
ATOM     14  O   UNL     1      86.084 320.861 190.708  1.00  0.00    -0.550 OA
ENDBRANCH  11  12
ENDBRANCH  10  11
ENDBRANCH   9  10
ENDBRANCH   8   9
ENDBRANCH   7   8
ENDBRANCH   6   7
ENDBRANCH   5   6
ENDBRANCH   4   5
ENDBRANCH   3   4
ENDBRANCH   2   3
ENDBRANCH   1   2
BRANCH   1  15
ATOM     15  C   UNL     1      88.808 325.724 200.923  1.00  0.00     0.000 C 
BRANCH  15  16
ATOM     16  C   UNL     1      88.441 325.345 202.370  1.00  0.00     0.000 C 
BRANCH  16  17
ATOM     17  C   UNL     1      88.990 323.987 202.849  1.00  0.00     0.000 C 
BRANCH  17  18
ATOM     18  C   UNL     1      87.891 323.037 203.346  1.00  0.00    -0.000 C 
BRANCH  18  19
ATOM     19  C   UNL     1      86.807 323.806 204.113  1.00  0.00    -0.000 C 
BRANCH  19  20
ATOM     20  C   UNL     1      87.079 323.776 205.625  1.00  0.00    -0.000 C 
BRANCH  20  21
ATOM     21  C   UNL     1      86.601 325.048 206.342  1.00  0.00    -0.000 C 
BRANCH  21  22
ATOM     22  C   UNL     1      87.751 325.821 207.010  1.00  0.00    -0.000 C 
BRANCH  22  23
ATOM     23  C   UNL     1      88.729 326.422 205.987  1.00  0.00    -0.000 C 
BRANCH  23  24
ATOM     24  C   UNL     1      90.164 326.514 206.527  1.00  0.00    -0.000 C 
BRANCH  24  25
ATOM     25  C   UNL     1      91.013 327.457 205.668  1.00  0.00    -0.003 C 
ATOM     26  C   UNL     1      90.411 327.629 204.276  1.00  0.00     0.004 C 
ENDBRANCH  24  25
ENDBRANCH  23  24
ENDBRANCH  22  23
ENDBRANCH  21  22
ENDBRANCH  20  21
ENDBRANCH  19  20
ENDBRANCH  18  19
ENDBRANCH  17  18
ENDBRANCH  16  17
ENDBRANCH  15  16
ENDBRANCH   1  15
TORSDOF 22
ENDMDL
