MODEL 1
REMARK VINA RESULT:    -6.475      0.000      0.000
REMARK INTER + INTRA:          -7.636
REMARK INTER:                  -7.422
REMARK INTRA:                  -0.214
REMARK UNBOUND:                -0.214
REMARK SMILES O=C([O-])C=Cc1ccc(O)cc1
REMARK SMILES IDX 6 1 7 2 12 3 8 4 11 5 9 6 5 7 4 8 2 9 1 10 3 11 10 12
REMARK H PARENT 10 13
REMARK Flexibility Score: inf
ROOT
ATOM      1  C   UNL     1      34.055  26.710  20.867  1.00  0.00    -0.025 A 
ATOM      2  C   UNL     1      34.746  25.493  20.734  1.00  0.00     0.012 A 
ATOM      3  C   UNL     1      33.372  27.237  19.761  1.00  0.00     0.012 A 
ATOM      4  C   UNL     1      34.795  24.842  19.497  1.00  0.00     0.047 A 
ATOM      5  C   UNL     1      33.422  26.584  18.525  1.00  0.00     0.047 A 
ATOM      6  C   UNL     1      34.138  25.387  18.389  1.00  0.00     0.115 A 
ENDROOT
BRANCH   1   7
ATOM      7  C   UNL     1      33.943  27.388  22.175  1.00  0.00     0.010 C 
ATOM      8  C   UNL     1      34.950  27.993  22.827  1.00  0.00     0.025 C 
BRANCH   8   9
ATOM      9  C   UNL     1      36.298  28.248  22.284  1.00  0.00     0.064 C 
ATOM     10  O   UNL     1      36.581  29.328  21.703  1.00  0.00    -0.545 OA
ATOM     11  O   UNL     1      37.296  27.302  22.479  1.00  0.00    -0.545 OA
ENDBRANCH   8   9
ENDBRANCH   1   7
BRANCH   6  12
ATOM     12  O   UNL     1      34.196  24.728  17.163  1.00  0.00    -0.508 OA
ATOM     13  H   UNL     1      34.273  23.719  17.108  1.00  0.00     0.293 HD
ENDBRANCH   6  12
TORSDOF 3
ENDMDL
MODEL 2
REMARK VINA RESULT:    -6.419      1.040      1.428
REMARK INTER + INTRA:          -7.572
REMARK INTER:                  -7.300
REMARK INTRA:                  -0.272
REMARK UNBOUND:                -0.214
REMARK SMILES O=C([O-])C=Cc1ccc(O)cc1
REMARK SMILES IDX 6 1 7 2 12 3 8 4 11 5 9 6 5 7 4 8 2 9 1 10 3 11 10 12
REMARK H PARENT 10 13
REMARK Flexibility Score: inf
ROOT
ATOM      1  C   UNL     1      34.405  26.193  21.022  1.00  0.00    -0.025 A 
ATOM      2  C   UNL     1      34.752  25.157  20.137  1.00  0.00     0.012 A 
ATOM      3  C   UNL     1      33.646  27.274  20.549  1.00  0.00     0.012 A 
ATOM      4  C   UNL     1      34.389  25.230  18.789  1.00  0.00     0.047 A 
ATOM      5  C   UNL     1      33.284  27.345  19.200  1.00  0.00     0.047 A 
ATOM      6  C   UNL     1      33.658  26.325  18.316  1.00  0.00     0.115 A 
ENDROOT
BRANCH   1   7
ATOM      7  C   UNL     1      34.730  26.113  22.461  1.00  0.00     0.010 C 
ATOM      8  C   UNL     1      35.839  26.605  23.037  1.00  0.00     0.025 C 
BRANCH   8   9
ATOM      9  C   UNL     1      36.842  27.466  22.381  1.00  0.00     0.064 C 
ATOM     10  O   UNL     1      37.965  27.019  22.030  1.00  0.00    -0.545 OA
ATOM     11  O   UNL     1      36.512  28.781  22.081  1.00  0.00    -0.545 OA
ENDBRANCH   8   9
ENDBRANCH   1   7
BRANCH   6  12
ATOM     12  O   UNL     1      33.304  26.386  16.970  1.00  0.00    -0.508 OA
ATOM     13  H   UNL     1      33.851  25.916  16.257  1.00  0.00     0.293 HD
ENDBRANCH   6  12
TORSDOF 3
ENDMDL
MODEL 3
REMARK VINA RESULT:    -6.193      2.268      3.406
REMARK INTER + INTRA:          -7.313
REMARK INTER:                  -8.234
REMARK INTRA:                   0.922
REMARK UNBOUND:                -0.214
REMARK SMILES O=C([O-])C=Cc1ccc(O)cc1
REMARK SMILES IDX 6 1 7 2 12 3 8 4 11 5 9 6 5 7 4 8 2 9 1 10 3 11 10 12
REMARK H PARENT 10 13
REMARK Flexibility Score: inf
ROOT
ATOM      1  C   UNL     1      33.829  25.924  18.295  1.00  0.00    -0.025 A 
ATOM      2  C   UNL     1      33.337  27.211  18.018  1.00  0.00     0.012 A 
ATOM      3  C   UNL     1      33.997  25.012  17.242  1.00  0.00     0.012 A 
ATOM      4  C   UNL     1      32.968  27.560  16.716  1.00  0.00     0.047 A 
ATOM      5  C   UNL     1      33.628  25.364  15.940  1.00  0.00     0.047 A 
ATOM      6  C   UNL     1      33.109  26.638  15.674  1.00  0.00     0.115 A 
ENDROOT
BRANCH   1   7
ATOM      7  C   UNL     1      34.276  25.550  19.653  1.00  0.00     0.010 C 
ATOM      8  C   UNL     1      34.345  26.381  20.706  1.00  0.00     0.025 C 
BRANCH   8   9
ATOM      9  C   UNL     1      33.822  27.760  20.751  1.00  0.00     0.064 C 
ATOM     10  O   UNL     1      32.586  27.997  20.749  1.00  0.00    -0.545 OA
ATOM     11  O   UNL     1      34.714  28.818  20.867  1.00  0.00    -0.545 OA
ENDBRANCH   8   9
ENDBRANCH   1   7
BRANCH   6  12
ATOM     12  O   UNL     1      32.736  26.999  14.381  1.00  0.00    -0.508 OA
ATOM     13  H   UNL     1      31.862  26.685  13.975  1.00  0.00     0.293 HD
ENDBRANCH   6  12
TORSDOF 3
ENDMDL
MODEL 4
REMARK VINA RESULT:    -6.172      2.256      2.871
REMARK INTER + INTRA:          -7.288
REMARK INTER:                  -7.072
REMARK INTRA:                  -0.216
REMARK UNBOUND:                -0.214
REMARK SMILES O=C([O-])C=Cc1ccc(O)cc1
REMARK SMILES IDX 6 1 7 2 12 3 8 4 11 5 9 6 5 7 4 8 2 9 1 10 3 11 10 12
REMARK H PARENT 10 13
REMARK Flexibility Score: inf
ROOT
ATOM      1  C   UNL     1      34.831  26.319  20.746  1.00  0.00    -0.025 A 
ATOM      2  C   UNL     1      33.804  27.136  20.241  1.00  0.00     0.012 A 
ATOM      3  C   UNL     1      35.104  25.094  20.120  1.00  0.00     0.012 A 
ATOM      4  C   UNL     1      33.030  26.708  19.159  1.00  0.00     0.047 A 
ATOM      5  C   UNL     1      34.328  24.668  19.037  1.00  0.00     0.047 A 
ATOM      6  C   UNL     1      33.286  25.471  18.557  1.00  0.00     0.115 A 
ENDROOT
BRANCH   1   7
ATOM      7  C   UNL     1      35.697  26.774  21.853  1.00  0.00     0.010 C 
ATOM      8  C   UNL     1      35.515  26.486  23.153  1.00  0.00     0.025 C 
BRANCH   8   9
ATOM      9  C   UNL     1      34.533  25.527  23.694  1.00  0.00     0.064 C 
ATOM     10  O   UNL     1      34.647  24.288  23.500  1.00  0.00    -0.545 OA
ATOM     11  O   UNL     1      33.498  25.995  24.493  1.00  0.00    -0.545 OA
ENDBRANCH   8   9
ENDBRANCH   1   7
BRANCH   6  12
ATOM     12  O   UNL     1      32.506  25.056  17.480  1.00  0.00    -0.508 OA
ATOM     13  H   UNL     1      32.468  25.588  16.618  1.00  0.00     0.293 HD
ENDBRANCH   6  12
TORSDOF 3
ENDMDL
MODEL 5
REMARK VINA RESULT:    -6.117      1.288      2.126
REMARK INTER + INTRA:          -7.226
REMARK INTER:                  -7.853
REMARK INTRA:                   0.627
REMARK UNBOUND:                -0.214
REMARK SMILES O=C([O-])C=Cc1ccc(O)cc1
REMARK SMILES IDX 6 1 7 2 12 3 8 4 11 5 9 6 5 7 4 8 2 9 1 10 3 11 10 12
REMARK H PARENT 10 13
REMARK Flexibility Score: inf
ROOT
ATOM      1  C   UNL     1      33.454  27.003  19.660  1.00  0.00    -0.025 A 
ATOM      2  C   UNL     1      33.144  27.457  18.367  1.00  0.00     0.012 A 
ATOM      3  C   UNL     1      34.049  25.743  19.821  1.00  0.00     0.012 A 
ATOM      4  C   UNL     1      33.376  26.639  17.257  1.00  0.00     0.047 A 
ATOM      5  C   UNL     1      34.281  24.926  18.709  1.00  0.00     0.047 A 
ATOM      6  C   UNL     1      33.941  25.371  17.425  1.00  0.00     0.115 A 
ENDROOT
BRANCH   1   7
ATOM      7  C   UNL     1      33.269  27.870  20.842  1.00  0.00     0.010 C 
ATOM      8  C   UNL     1      33.913  27.736  22.014  1.00  0.00     0.025 C 
BRANCH   8   9
ATOM      9  C   UNL     1      35.042  26.824  22.277  1.00  0.00     0.064 C 
ATOM     10  O   UNL     1      36.216  27.108  21.922  1.00  0.00    -0.545 OA
ATOM     11  O   UNL     1      34.816  25.656  22.995  1.00  0.00    -0.545 OA
ENDBRANCH   8   9
ENDBRANCH   1   7
BRANCH   6  12
ATOM     12  O   UNL     1      34.166  24.566  16.311  1.00  0.00    -0.508 OA
ATOM     13  H   UNL     1      33.695  24.738  15.430  1.00  0.00     0.293 HD
ENDBRANCH   6  12
TORSDOF 3
ENDMDL
MODEL 6
REMARK VINA RESULT:    -6.044      3.122      3.799
REMARK INTER + INTRA:          -7.141
REMARK INTER:                  -7.411
REMARK INTRA:                   0.270
REMARK UNBOUND:                -0.214
REMARK SMILES O=C([O-])C=Cc1ccc(O)cc1
REMARK SMILES IDX 6 1 7 2 12 3 8 4 11 5 9 6 5 7 4 8 2 9 1 10 3 11 10 12
REMARK H PARENT 10 13
REMARK Flexibility Score: inf
ROOT
ATOM      1  C   UNL     1      33.783  26.863  19.522  1.00  0.00    -0.025 A 
ATOM      2  C   UNL     1      33.291  26.858  18.205  1.00  0.00     0.012 A 
ATOM      3  C   UNL     1      34.345  25.692  20.050  1.00  0.00     0.012 A 
ATOM      4  C   UNL     1      33.315  25.682  17.448  1.00  0.00     0.047 A 
ATOM      5  C   UNL     1      34.368  24.517  19.291  1.00  0.00     0.047 A 
ATOM      6  C   UNL     1      33.849  24.508  17.990  1.00  0.00     0.115 A 
ENDROOT
BRANCH   1   7
ATOM      7  C   UNL     1      33.819  28.105  20.321  1.00  0.00     0.010 C 
ATOM      8  C   UNL     1      32.937  29.115  20.229  1.00  0.00     0.025 C 
BRANCH   8   9
ATOM      9  C   UNL     1      31.682  29.096  19.454  1.00  0.00     0.064 C 
ATOM     10  O   UNL     1      30.661  28.487  19.867  1.00  0.00    -0.545 OA
ATOM     11  O   UNL     1      31.605  29.824  18.273  1.00  0.00    -0.545 OA
ENDBRANCH   8   9
ENDBRANCH   1   7
BRANCH   6  12
ATOM     12  O   UNL     1      33.865  23.344  17.225  1.00  0.00    -0.508 OA
ATOM     13  H   UNL     1      34.668  22.726  17.219  1.00  0.00     0.293 HD
ENDBRANCH   6  12
TORSDOF 3
ENDMDL
MODEL 7
REMARK VINA RESULT:    -6.023      3.447      4.417
REMARK INTER + INTRA:          -7.118
REMARK INTER:                  -7.822
REMARK INTRA:                   0.704
REMARK UNBOUND:                -0.214
REMARK SMILES O=C([O-])C=Cc1ccc(O)cc1
REMARK SMILES IDX 6 1 7 2 12 3 8 4 11 5 9 6 5 7 4 8 2 9 1 10 3 11 10 12
REMARK H PARENT 10 13
REMARK Flexibility Score: inf
ROOT
ATOM      1  C   UNL     1      32.888  27.999  16.818  1.00  0.00    -0.025 A 
ATOM      2  C   UNL     1      33.250  27.350  18.012  1.00  0.00     0.012 A 
ATOM      3  C   UNL     1      32.855  27.268  15.622  1.00  0.00     0.012 A 
ATOM      4  C   UNL     1      33.625  26.004  17.997  1.00  0.00     0.047 A 
ATOM      5  C   UNL     1      33.231  25.920  15.609  1.00  0.00     0.047 A 
ATOM      6  C   UNL     1      33.621  25.286  16.796  1.00  0.00     0.115 A 
ENDROOT
BRANCH   1   7
ATOM      7  C   UNL     1      32.435  29.405  16.817  1.00  0.00     0.010 C 
ATOM      8  C   UNL     1      31.968  30.073  17.886  1.00  0.00     0.025 C 
BRANCH   8   9
ATOM      9  C   UNL     1      31.988  29.590  19.280  1.00  0.00     0.064 C 
ATOM     10  O   UNL     1      31.055  28.886  19.747  1.00  0.00    -0.545 OA
ATOM     11  O   UNL     1      33.095  29.862  20.074  1.00  0.00    -0.545 OA
ENDBRANCH   8   9
ENDBRANCH   1   7
BRANCH   6  12
ATOM     12  O   UNL     1      33.998  23.945  16.795  1.00  0.00    -0.508 OA
ATOM     13  H   UNL     1      33.525  23.262  17.376  1.00  0.00     0.293 HD
ENDBRANCH   6  12
TORSDOF 3
ENDMDL
MODEL 8
REMARK VINA RESULT:    -5.955      2.243      3.282
REMARK INTER + INTRA:          -7.040
REMARK INTER:                  -7.395
REMARK INTRA:                   0.355
REMARK UNBOUND:                -0.214
REMARK SMILES O=C([O-])C=Cc1ccc(O)cc1
REMARK SMILES IDX 6 1 7 2 12 3 8 4 11 5 9 6 5 7 4 8 2 9 1 10 3 11 10 12
REMARK H PARENT 10 13
REMARK Flexibility Score: inf
ROOT
ATOM      1  C   UNL     1      33.605  26.443  19.240  1.00  0.00    -0.025 A 
ATOM      2  C   UNL     1      32.985  27.340  20.128  1.00  0.00     0.012 A 
ATOM      3  C   UNL     1      33.604  26.726  17.866  1.00  0.00     0.012 A 
ATOM      4  C   UNL     1      32.328  28.474  19.641  1.00  0.00     0.047 A 
ATOM      5  C   UNL     1      32.947  27.861  17.381  1.00  0.00     0.047 A 
ATOM      6  C   UNL     1      32.304  28.736  18.267  1.00  0.00     0.115 A 
ENDROOT
BRANCH   1   7
ATOM      7  C   UNL     1      34.351  25.268  19.735  1.00  0.00     0.010 C 
ATOM      8  C   UNL     1      35.093  25.232  20.855  1.00  0.00     0.025 C 
BRANCH   8   9
ATOM      9  C   UNL     1      35.155  26.290  21.882  1.00  0.00     0.064 C 
ATOM     10  O   UNL     1      34.460  26.233  22.929  1.00  0.00    -0.545 OA
ATOM     11  O   UNL     1      36.051  27.338  21.720  1.00  0.00    -0.545 OA
ENDBRANCH   8   9
ENDBRANCH   1   7
BRANCH   6  12
ATOM     12  O   UNL     1      31.645  29.869  17.795  1.00  0.00    -0.508 OA
ATOM     13  H   UNL     1      31.666  30.124  16.814  1.00  0.00     0.293 HD
ENDBRANCH   6  12
TORSDOF 3
ENDMDL
MODEL 9
REMARK VINA RESULT:    -5.857      2.966      5.407
REMARK INTER + INTRA:          -6.927
REMARK INTER:                  -7.463
REMARK INTRA:                   0.536
REMARK UNBOUND:                -0.214
REMARK SMILES O=C([O-])C=Cc1ccc(O)cc1
REMARK SMILES IDX 6 1 7 2 12 3 8 4 11 5 9 6 5 7 4 8 2 9 1 10 3 11 10 12
REMARK H PARENT 10 13
REMARK Flexibility Score: inf
ROOT
ATOM      1  C   UNL     1      33.415  26.355  17.297  1.00  0.00    -0.025 A 
ATOM      2  C   UNL     1      32.983  27.312  18.231  1.00  0.00     0.012 A 
ATOM      3  C   UNL     1      34.148  25.244  17.741  1.00  0.00     0.012 A 
ATOM      4  C   UNL     1      33.325  27.185  19.581  1.00  0.00     0.047 A 
ATOM      5  C   UNL     1      34.489  25.118  19.092  1.00  0.00     0.047 A 
ATOM      6  C   UNL     1      34.082  26.091  20.014  1.00  0.00     0.115 A 
ENDROOT
BRANCH   1   7
ATOM      7  C   UNL     1      33.020  26.438  15.876  1.00  0.00     0.010 C 
ATOM      8  C   UNL     1      32.553  27.538  15.261  1.00  0.00     0.025 C 
BRANCH   8   9
ATOM      9  C   UNL     1      32.518  28.897  15.836  1.00  0.00     0.064 C 
ATOM     10  O   UNL     1      33.527  29.648  15.814  1.00  0.00    -0.545 OA
ATOM     11  O   UNL     1      31.323  29.383  16.351  1.00  0.00    -0.545 OA
ENDBRANCH   8   9
ENDBRANCH   1   7
BRANCH   6  12
ATOM     12  O   UNL     1      34.416  25.977  21.362  1.00  0.00    -0.508 OA
ATOM     13  H   UNL     1      33.705  25.942  22.083  1.00  0.00     0.293 HD
ENDBRANCH   6  12
TORSDOF 3
ENDMDL
