MODEL 1
REMARK VINA RESULT:    -4.435      0.000      0.000
REMARK INTER + INTRA:          -4.888
REMARK INTER:                  -4.824
REMARK INTRA:                  -0.064
REMARK UNBOUND:                -0.064
REMARK SMILES COc1cc2ccc(=O)oc2cc1O
REMARK SMILES IDX 3 1 13 2 12 3 11 4 5 5 4 6 6 7 7 8 8 9 9 10 10 11 2 12 1 13
REMARK SMILES IDX 14 14
REMARK H PARENT 14 15
REMARK Flexibility Score: inf
ROOT
ATOM      1  C   UNL     1       7.320  19.180  23.655  1.00  0.00     0.161 A 
ATOM      2  C   UNL     1       8.394  19.148  22.751  1.00  0.00     0.161 A 
ATOM      3  C   UNL     1       9.713  19.244  23.216  1.00  0.00     0.098 A 
ATOM      4  C   UNL     1       9.971  19.371  24.583  1.00  0.00     0.142 A 
ATOM      5  C   UNL     1       8.898  19.405  25.498  1.00  0.00     0.022 A 
ATOM      6  C   UNL     1       7.579  19.309  25.035  1.00  0.00     0.062 A 
ATOM      7  C   UNL     1       9.187  19.533  26.861  1.00  0.00     0.019 A 
ATOM      8  C   UNL     1      10.517  19.624  27.272  1.00  0.00     0.094 A 
ATOM      9  C   UNL     1      11.530  19.584  26.308  1.00  0.00     0.336 A 
ATOM     10  O   UNL     1      12.735  19.664  26.659  1.00  0.00    -0.246 OA
ATOM     11  O   UNL     1      11.226  19.460  25.017  1.00  0.00    -0.423 OA
ENDROOT
BRANCH   1  12
ATOM     12  O   UNL     1       6.015  19.082  23.145  1.00  0.00    -0.493 OA
ATOM     13  C   UNL     1       5.148  20.191  22.931  1.00  0.00     0.278 C 
ENDBRANCH   1  12
BRANCH   2  14
ATOM     14  O   UNL     1       8.139  19.020  21.386  1.00  0.00    -0.504 OA
ATOM     15  H   UNL     1       7.231  18.734  21.040  1.00  0.00     0.293 HD
ENDBRANCH   2  14
TORSDOF 2
ENDMDL
MODEL 2
REMARK VINA RESULT:    -4.342     13.495     15.221
REMARK INTER + INTRA:          -4.787
REMARK INTER:                  -4.722
REMARK INTRA:                  -0.065
REMARK UNBOUND:                -0.064
REMARK SMILES COc1cc2ccc(=O)oc2cc1O
REMARK SMILES IDX 3 1 13 2 12 3 11 4 5 5 4 6 6 7 7 8 8 9 9 10 10 11 2 12 1 13
REMARK SMILES IDX 14 14
REMARK H PARENT 14 15
REMARK Flexibility Score: inf
ROOT
ATOM      1  C   UNL     1      15.568  30.706  31.157  1.00  0.00     0.161 A 
ATOM      2  C   UNL     1      16.335  31.879  31.078  1.00  0.00     0.161 A 
ATOM      3  C   UNL     1      16.416  32.592  29.873  1.00  0.00     0.098 A 
ATOM      4  C   UNL     1      15.734  32.141  28.741  1.00  0.00     0.142 A 
ATOM      5  C   UNL     1      14.961  30.962  28.811  1.00  0.00     0.022 A 
ATOM      6  C   UNL     1      14.880  30.249  30.015  1.00  0.00     0.062 A 
ATOM      7  C   UNL     1      14.290  30.535  27.661  1.00  0.00     0.019 A 
ATOM      8  C   UNL     1      14.402  31.279  26.487  1.00  0.00     0.094 A 
ATOM      9  C   UNL     1      15.186  32.438  26.491  1.00  0.00     0.336 A 
ATOM     10  O   UNL     1      15.299  33.124  25.442  1.00  0.00    -0.246 OA
ATOM     11  O   UNL     1      15.814  32.822  27.600  1.00  0.00    -0.423 OA
ENDROOT
BRANCH   1  12
ATOM     12  O   UNL     1      15.517  30.024  32.384  1.00  0.00    -0.493 OA
ATOM     13  C   UNL     1      14.407  30.054  33.276  1.00  0.00     0.278 C 
ENDBRANCH   1  12
BRANCH   2  14
ATOM     14  O   UNL     1      17.017  32.332  32.207  1.00  0.00    -0.504 OA
ATOM     15  H   UNL     1      16.567  32.382  33.114  1.00  0.00     0.293 HD
ENDBRANCH   2  14
TORSDOF 2
ENDMDL
MODEL 3
REMARK VINA RESULT:    -4.255      1.264      5.372
REMARK INTER + INTRA:          -4.693
REMARK INTER:                  -4.642
REMARK INTRA:                  -0.051
REMARK UNBOUND:                -0.064
REMARK SMILES COc1cc2ccc(=O)oc2cc1O
REMARK SMILES IDX 3 1 13 2 12 3 11 4 5 5 4 6 6 7 7 8 8 9 9 10 10 11 2 12 1 13
REMARK SMILES IDX 14 14
REMARK H PARENT 14 15
REMARK Flexibility Score: inf
ROOT
ATOM      1  C   UNL     1      10.873  19.626  25.766  1.00  0.00     0.161 A 
ATOM      2  C   UNL     1       9.776  19.757  26.632  1.00  0.00     0.161 A 
ATOM      3  C   UNL     1       8.468  19.644  26.140  1.00  0.00     0.098 A 
ATOM      4  C   UNL     1       8.244  19.401  24.783  1.00  0.00     0.142 A 
ATOM      5  C   UNL     1       9.341  19.269  23.905  1.00  0.00     0.022 A 
ATOM      6  C   UNL     1      10.649  19.381  24.396  1.00  0.00     0.062 A 
ATOM      7  C   UNL     1       9.085  19.026  22.552  1.00  0.00     0.019 A 
ATOM      8  C   UNL     1       7.766  18.922  22.111  1.00  0.00     0.094 A 
ATOM      9  C   UNL     1       6.729  19.064  23.040  1.00  0.00     0.336 A 
ATOM     10  O   UNL     1       5.531  18.973  22.663  1.00  0.00    -0.246 OA
ATOM     11  O   UNL     1       7.000  19.295  24.323  1.00  0.00    -0.423 OA
ENDROOT
BRANCH   1  12
ATOM     12  O   UNL     1      12.165  19.746  26.302  1.00  0.00    -0.493 OA
ATOM     13  C   UNL     1      13.244  20.419  25.661  1.00  0.00     0.278 C 
ENDBRANCH   1  12
BRANCH   2  14
ATOM     14  O   UNL     1       9.996  19.999  27.988  1.00  0.00    -0.504 OA
ATOM     15  H   UNL     1      10.891  20.330  28.329  1.00  0.00     0.293 HD
ENDBRANCH   2  14
TORSDOF 2
ENDMDL
MODEL 4
REMARK VINA RESULT:    -4.232      1.253      4.988
REMARK INTER + INTRA:          -4.667
REMARK INTER:                  -4.603
REMARK INTRA:                  -0.064
REMARK UNBOUND:                -0.064
REMARK SMILES COc1cc2ccc(=O)oc2cc1O
REMARK SMILES IDX 3 1 13 2 12 3 11 4 5 5 4 6 6 7 7 8 8 9 9 10 10 11 2 12 1 13
REMARK SMILES IDX 14 14
REMARK H PARENT 14 15
REMARK Flexibility Score: inf
ROOT
ATOM      1  C   UNL     1      10.826  19.947  27.240  1.00  0.00     0.161 A 
ATOM      2  C   UNL     1      11.791  19.825  26.227  1.00  0.00     0.161 A 
ATOM      3  C   UNL     1      11.401  19.567  24.905  1.00  0.00     0.098 A 
ATOM      4  C   UNL     1      10.049  19.429  24.584  1.00  0.00     0.142 A 
ATOM      5  C   UNL     1       9.072  19.550  25.595  1.00  0.00     0.022 A 
ATOM      6  C   UNL     1       9.460  19.808  26.916  1.00  0.00     0.062 A 
ATOM      7  C   UNL     1       7.726  19.408  25.242  1.00  0.00     0.019 A 
ATOM      8  C   UNL     1       7.390  19.152  23.913  1.00  0.00     0.094 A 
ATOM      9  C   UNL     1       8.413  19.045  22.963  1.00  0.00     0.336 A 
ATOM     10  O   UNL     1       8.130  18.815  21.759  1.00  0.00    -0.246 OA
ATOM     11  O   UNL     1       9.686  19.185  23.327  1.00  0.00    -0.423 OA
ENDROOT
BRANCH   1  12
ATOM     12  O   UNL     1      11.261  20.205  28.549  1.00  0.00    -0.493 OA
ATOM     13  C   UNL     1      11.064  21.437  29.236  1.00  0.00     0.278 C 
ENDBRANCH   1  12
BRANCH   2  14
ATOM     14  O   UNL     1      13.141  19.962  26.545  1.00  0.00    -0.504 OA
ATOM     15  H   UNL     1      13.793  20.411  25.913  1.00  0.00     0.293 HD
ENDBRANCH   2  14
TORSDOF 2
ENDMDL
MODEL 5
REMARK VINA RESULT:    -4.228      1.908      3.012
REMARK INTER + INTRA:          -4.663
REMARK INTER:                  -4.597
REMARK INTRA:                  -0.065
REMARK UNBOUND:                -0.064
REMARK SMILES COc1cc2ccc(=O)oc2cc1O
REMARK SMILES IDX 3 1 13 2 12 3 11 4 5 5 4 6 6 7 7 8 8 9 9 10 10 11 2 12 1 13
REMARK SMILES IDX 14 14
REMARK H PARENT 14 15
REMARK Flexibility Score: inf
ROOT
ATOM      1  C   UNL     1       4.680  19.954  22.655  1.00  0.00     0.161 A 
ATOM      2  C   UNL     1       5.385  18.873  22.102  1.00  0.00     0.161 A 
ATOM      3  C   UNL     1       6.680  18.571  22.546  1.00  0.00     0.098 A 
ATOM      4  C   UNL     1       7.280  19.342  23.544  1.00  0.00     0.142 A 
ATOM      5  C   UNL     1       6.580  20.430  24.105  1.00  0.00     0.022 A 
ATOM      6  C   UNL     1       5.285  20.733  23.663  1.00  0.00     0.062 A 
ATOM      7  C   UNL     1       7.207  21.183  25.103  1.00  0.00     0.019 A 
ATOM      8  C   UNL     1       8.496  20.842  25.510  1.00  0.00     0.094 A 
ATOM      9  C   UNL     1       9.130  19.749  24.908  1.00  0.00     0.336 A 
ATOM     10  O   UNL     1      10.294  19.424  25.262  1.00  0.00    -0.246 OA
ATOM     11  O   UNL     1       8.510  19.048  23.961  1.00  0.00    -0.423 OA
ENDROOT
BRANCH   1  12
ATOM     12  O   UNL     1       3.386  20.221  22.180  1.00  0.00    -0.493 OA
ATOM     13  C   UNL     1       2.188  19.891  22.876  1.00  0.00     0.278 C 
ENDBRANCH   1  12
BRANCH   2  14
ATOM     14  O   UNL     1       4.788  18.102  21.106  1.00  0.00    -0.504 OA
ATOM     15  H   UNL     1       4.784  18.397  20.136  1.00  0.00     0.293 HD
ENDBRANCH   2  14
TORSDOF 2
ENDMDL
MODEL 6
REMARK VINA RESULT:    -4.206      1.406      1.726
REMARK INTER + INTRA:          -4.639
REMARK INTER:                  -4.575
REMARK INTRA:                  -0.064
REMARK UNBOUND:                -0.064
REMARK SMILES COc1cc2ccc(=O)oc2cc1O
REMARK SMILES IDX 3 1 13 2 12 3 11 4 5 5 4 6 6 7 7 8 8 9 9 10 10 11 2 12 1 13
REMARK SMILES IDX 14 14
REMARK H PARENT 14 15
REMARK Flexibility Score: inf
ROOT
ATOM      1  C   UNL     1       8.861  19.975  23.753  1.00  0.00     0.161 A 
ATOM      2  C   UNL     1      10.080  20.344  23.163  1.00  0.00     0.161 A 
ATOM      3  C   UNL     1      11.267  20.309  23.908  1.00  0.00     0.098 A 
ATOM      4  C   UNL     1      11.247  19.906  25.245  1.00  0.00     0.142 A 
ATOM      5  C   UNL     1      10.026  19.534  25.847  1.00  0.00     0.022 A 
ATOM      6  C   UNL     1       8.839  19.568  25.103  1.00  0.00     0.062 A 
ATOM      7  C   UNL     1      10.038  19.135  27.188  1.00  0.00     0.019 A 
ATOM      8  C   UNL     1      11.245  19.117  27.886  1.00  0.00     0.094 A 
ATOM      9  C   UNL     1      12.417  19.499  27.224  1.00  0.00     0.336 A 
ATOM     10  O   UNL     1      13.516  19.489  27.837  1.00  0.00    -0.246 OA
ATOM     11  O   UNL     1      12.377  19.874  25.947  1.00  0.00    -0.423 OA
ENDROOT
BRANCH   1  12
ATOM     12  O   UNL     1       7.697  20.025  22.969  1.00  0.00    -0.493 OA
ATOM     13  C   UNL     1       7.101  18.897  22.337  1.00  0.00     0.278 C 
ENDBRANCH   1  12
BRANCH   2  14
ATOM     14  O   UNL     1      10.103  20.746  21.828  1.00  0.00    -0.504 OA
ATOM     15  H   UNL     1       9.248  20.914  21.309  1.00  0.00     0.293 HD
ENDBRANCH   2  14
TORSDOF 2
ENDMDL
MODEL 7
REMARK VINA RESULT:    -4.161     12.480     14.294
REMARK INTER + INTRA:          -4.590
REMARK INTER:                  -4.538
REMARK INTRA:                  -0.052
REMARK UNBOUND:                -0.064
REMARK SMILES COc1cc2ccc(=O)oc2cc1O
REMARK SMILES IDX 3 1 13 2 12 3 11 4 5 5 4 6 6 7 7 8 8 9 9 10 10 11 2 12 1 13
REMARK SMILES IDX 14 14
REMARK H PARENT 14 15
REMARK Flexibility Score: inf
ROOT
ATOM      1  C   UNL     1      14.379  15.496  36.212  1.00  0.00     0.161 A 
ATOM      2  C   UNL     1      13.805  16.701  35.779  1.00  0.00     0.161 A 
ATOM      3  C   UNL     1      12.585  17.137  36.315  1.00  0.00     0.098 A 
ATOM      4  C   UNL     1      11.930  16.375  37.285  1.00  0.00     0.142 A 
ATOM      5  C   UNL     1      12.500  15.162  37.726  1.00  0.00     0.022 A 
ATOM      6  C   UNL     1      13.719  14.726  37.191  1.00  0.00     0.062 A 
ATOM      7  C   UNL     1      11.821  14.422  38.699  1.00  0.00     0.019 A 
ATOM      8  C   UNL     1      10.610  14.898  39.201  1.00  0.00     0.094 A 
ATOM      9  C   UNL     1      10.105  16.110  38.717  1.00  0.00     0.336 A 
ATOM     10  O   UNL     1       9.014  16.557  39.158  1.00  0.00    -0.246 OA
ATOM     11  O   UNL     1      10.773  16.795  37.791  1.00  0.00    -0.423 OA
ENDROOT
BRANCH   1  12
ATOM     12  O   UNL     1      15.602  15.098  35.647  1.00  0.00    -0.493 OA
ATOM     13  C   UNL     1      16.697  14.567  36.387  1.00  0.00     0.278 C 
ENDBRANCH   1  12
BRANCH   2  14
ATOM     14  O   UNL     1      14.457  17.464  34.810  1.00  0.00    -0.504 OA
ATOM     15  H   UNL     1      15.443  17.340  34.612  1.00  0.00     0.293 HD
ENDBRANCH   2  14
TORSDOF 2
ENDMDL
MODEL 8
REMARK VINA RESULT:    -4.139      1.511      5.044
REMARK INTER + INTRA:          -4.566
REMARK INTER:                  -4.514
REMARK INTRA:                  -0.051
REMARK UNBOUND:                -0.064
REMARK SMILES COc1cc2ccc(=O)oc2cc1O
REMARK SMILES IDX 3 1 13 2 12 3 11 4 5 5 4 6 6 7 7 8 8 9 9 10 10 11 2 12 1 13
REMARK SMILES IDX 14 14
REMARK H PARENT 14 15
REMARK Flexibility Score: inf
ROOT
ATOM      1  C   UNL     1      12.162  19.945  25.178  1.00  0.00     0.161 A 
ATOM      2  C   UNL     1      12.378  19.589  23.837  1.00  0.00     0.161 A 
ATOM      3  C   UNL     1      11.297  19.246  23.013  1.00  0.00     0.098 A 
ATOM      4  C   UNL     1       9.995  19.256  23.518  1.00  0.00     0.142 A 
ATOM      5  C   UNL     1       9.768  19.613  24.864  1.00  0.00     0.022 A 
ATOM      6  C   UNL     1      10.848  19.956  25.689  1.00  0.00     0.062 A 
ATOM      7  C   UNL     1       8.453  19.615  25.341  1.00  0.00     0.019 A 
ATOM      8  C   UNL     1       7.412  19.266  24.481  1.00  0.00     0.094 A 
ATOM      9  C   UNL     1       7.712  18.923  23.158  1.00  0.00     0.336 A 
ATOM     10  O   UNL     1       6.787  18.606  22.366  1.00  0.00    -0.246 OA
ATOM     11  O   UNL     1       8.973  18.930  22.729  1.00  0.00    -0.423 OA
ENDROOT
BRANCH   1  12
ATOM     12  O   UNL     1      13.274  20.281  25.967  1.00  0.00    -0.493 OA
ATOM     13  C   UNL     1      13.465  19.855  27.312  1.00  0.00     0.278 C 
ENDBRANCH   1  12
BRANCH   2  14
ATOM     14  O   UNL     1      13.677  19.578  23.330  1.00  0.00    -0.504 OA
ATOM     15  H   UNL     1      14.427  20.088  23.781  1.00  0.00     0.293 HD
ENDBRANCH   2  14
TORSDOF 2
ENDMDL
MODEL 9
REMARK VINA RESULT:    -4.130      2.248      6.129
REMARK INTER + INTRA:          -4.556
REMARK INTER:                  -4.492
REMARK INTRA:                  -0.064
REMARK UNBOUND:                -0.064
REMARK SMILES COc1cc2ccc(=O)oc2cc1O
REMARK SMILES IDX 3 1 13 2 12 3 11 4 5 5 4 6 6 7 7 8 8 9 9 10 10 11 2 12 1 13
REMARK SMILES IDX 14 14
REMARK H PARENT 14 15
REMARK Flexibility Score: inf
ROOT
ATOM      1  C   UNL     1       7.550  19.865  23.198  1.00  0.00     0.161 A 
ATOM      2  C   UNL     1       7.139  18.745  22.458  1.00  0.00     0.161 A 
ATOM      3  C   UNL     1       5.780  18.541  22.178  1.00  0.00     0.098 A 
ATOM      4  C   UNL     1       4.823  19.452  22.632  1.00  0.00     0.142 A 
ATOM      5  C   UNL     1       5.227  20.580  23.376  1.00  0.00     0.022 A 
ATOM      6  C   UNL     1       6.585  20.785  23.657  1.00  0.00     0.062 A 
ATOM      7  C   UNL     1       4.246  21.474  23.817  1.00  0.00     0.019 A 
ATOM      8  C   UNL     1       2.908  21.227  23.512  1.00  0.00     0.094 A 
ATOM      9  C   UNL     1       2.581  20.087  22.769  1.00  0.00     0.336 A 
ATOM     10  O   UNL     1       1.379  19.847  22.483  1.00  0.00    -0.246 OA
ATOM     11  O   UNL     1       3.535  19.253  22.361  1.00  0.00    -0.423 OA
ENDROOT
BRANCH   1  12
ATOM     12  O   UNL     1       8.920  20.029  23.455  1.00  0.00    -0.493 OA
ATOM     13  C   UNL     1       9.557  19.682  24.681  1.00  0.00     0.278 C 
ENDBRANCH   1  12
BRANCH   2  14
ATOM     14  O   UNL     1       8.092  17.835  22.003  1.00  0.00    -0.504 OA
ATOM     15  H   UNL     1       8.966  18.142  21.592  1.00  0.00     0.293 HD
ENDBRANCH   2  14
TORSDOF 2
ENDMDL
