MODEL 1
REMARK VINA RESULT:    -4.654      0.000      0.000
REMARK INTER + INTRA:          -5.220
REMARK INTER:                  -5.062
REMARK INTRA:                  -0.157
REMARK UNBOUND:                -0.157
REMARK SMILES C[C@@H]1[C@@H](C)CC[C@@]2(C(=O)[O-])CC[C@]3(C)C(=CC[C@H]4[C@@]5(C)CC[C@H](O)C(C)(C)[C@@H]5CC[C@]43C)[C@@H]12
REMARK SMILES IDX 7 1 6 2 11 3 33 4 5 5 12 6 15 7 2 8 3 9 13 10 16 11 1 12
REMARK SMILES IDX 4 13 14 14 31 15 17 16 18 17 30 18 32 19 19 20 29 21 28 22
REMARK SMILES IDX 21 23 20 24 25 25 22 26 23 27 26 28 27 29 8 30 9 31 10 32
REMARK SMILES IDX 24 33
REMARK H PARENT 24 34
REMARK Flexibility Score: inf
ROOT
ATOM      1  C   UNL     1       1.663  -8.153   4.624  1.00  0.00     0.017 C 
ATOM      2  C   UNL     1       1.424  -9.493   5.400  1.00  0.00     0.014 C 
ATOM      3  C   UNL     1       0.274  -7.656   4.084  1.00  0.00     0.014 C 
ATOM      4  C   UNL     1       2.402  -7.104   5.567  1.00  0.00     0.030 C 
ATOM      5  C   UNL     1       2.574  -9.809   6.353  1.00  0.00     0.004 C 
ATOM      6  C   UNL     1      -0.215  -6.346   4.714  1.00  0.00     0.013 C 
ATOM      7  C   UNL     1       2.149  -5.646   5.150  1.00  0.00    -0.063 C 
ATOM      8  C   UNL     1       2.135  -7.362   7.093  1.00  0.00    -0.003 C 
ATOM      9  C   UNL     1       2.615  -8.793   7.518  1.00  0.00    -0.011 C 
ATOM     10  C   UNL     1       0.814  -5.178   4.578  1.00  0.00    -0.006 C 
ATOM     11  C   UNL     1       3.146  -4.746   5.255  1.00  0.00    -0.027 C 
ATOM     12  C   UNL     1       2.814  -6.311   7.995  1.00  0.00     0.008 C 
ATOM     13  C   UNL     1       1.797  -9.318   8.713  1.00  0.00     0.008 C 
ATOM     14  C   UNL     1       1.052  -4.979   3.040  1.00  0.00     0.017 C 
ATOM     15  C   UNL     1       0.320  -3.808   5.324  1.00  0.00    -0.020 C 
ATOM     16  C   UNL     1       2.876  -3.271   5.123  1.00  0.00     0.032 C 
ATOM     17  C   UNL     1       1.553  -2.914   5.849  1.00  0.00     0.006 C 
ATOM     18  C   UNL     1      -0.623  -3.005   4.363  1.00  0.00     0.008 C 
ATOM     19  C   UNL     1      -0.533  -4.174   6.580  1.00  0.00     0.012 C 
ATOM     20  C   UNL     1       1.280  -1.337   6.084  1.00  0.00    -0.025 C 
ATOM     21  C   UNL     1      -0.942  -1.588   4.817  1.00  0.00     0.005 C 
ATOM     22  C   UNL     1       0.367  -0.772   4.936  1.00  0.00     0.003 C 
ATOM     23  C   UNL     1       2.617  -0.522   6.058  1.00  0.00     0.010 C 
ATOM     24  C   UNL     1       0.646  -1.145   7.513  1.00  0.00     0.012 C 
ATOM     25  C   UNL     1       0.164   0.802   4.901  1.00  0.00    -0.006 C 
ATOM     26  C   UNL     1       2.438   1.003   6.110  1.00  0.00     0.033 C 
ATOM     27  C   UNL     1       1.560   1.504   4.961  1.00  0.00     0.120 C 
ATOM     28  C   UNL     1      -0.486   1.213   3.548  1.00  0.00     0.014 C 
ATOM     29  C   UNL     1      -0.766   1.322   6.027  1.00  0.00     0.014 C 
ENDROOT
BRANCH   1  30
ATOM     30  C   UNL     1       2.546  -8.450   3.409  1.00  0.00     0.048 C 
ATOM     31  O   UNL     1       3.573  -7.755   3.183  1.00  0.00    -0.550 OA
ATOM     32  O   UNL     1       2.291  -9.541   2.584  1.00  0.00    -0.550 OA
ENDBRANCH   1  30
BRANCH  27  33
ATOM     33  O   UNL     1       1.414   2.899   5.091  1.00  0.00    -0.393 OA
ATOM     34  H   UNL     1       0.558   3.155   4.656  1.00  0.00     0.210 HD
ENDBRANCH  27  33
TORSDOF 2
ENDMDL
MODEL 2
REMARK VINA RESULT:    -4.550      1.844      3.529
REMARK INTER + INTRA:          -5.106
REMARK INTER:                  -5.240
REMARK INTRA:                   0.135
REMARK UNBOUND:                -0.157
REMARK SMILES C[C@@H]1[C@@H](C)CC[C@@]2(C(=O)[O-])CC[C@]3(C)C(=CC[C@H]4[C@@]5(C)CC[C@H](O)C(C)(C)[C@@H]5CC[C@]43C)[C@@H]12
REMARK SMILES IDX 7 1 6 2 11 3 33 4 5 5 12 6 15 7 2 8 3 9 13 10 16 11 1 12
REMARK SMILES IDX 4 13 14 14 31 15 17 16 18 17 30 18 32 19 19 20 29 21 28 22
REMARK SMILES IDX 21 23 20 24 25 25 22 26 23 27 26 28 27 29 8 30 9 31 10 32
REMARK SMILES IDX 24 33
REMARK H PARENT 24 34
REMARK Flexibility Score: inf
ROOT
ATOM      1  C   UNL     1       0.587  -6.751   5.224  1.00  0.00     0.017 C 
ATOM      2  C   UNL     1       1.675  -7.873   5.119  1.00  0.00     0.014 C 
ATOM      3  C   UNL     1       0.454  -6.351   6.738  1.00  0.00     0.014 C 
ATOM      4  C   UNL     1       0.965  -5.536   4.266  1.00  0.00     0.030 C 
ATOM      5  C   UNL     1       2.227  -7.996   3.701  1.00  0.00     0.004 C 
ATOM      6  C   UNL     1       0.904  -4.919   7.053  1.00  0.00     0.013 C 
ATOM      7  C   UNL     1       0.344  -4.204   4.719  1.00  0.00    -0.063 C 
ATOM      8  C   UNL     1       2.507  -5.434   3.990  1.00  0.00    -0.003 C 
ATOM      9  C   UNL     1       3.051  -6.744   3.322  1.00  0.00    -0.011 C 
ATOM     10  C   UNL     1       0.170  -3.841   6.191  1.00  0.00    -0.006 C 
ATOM     11  C   UNL     1      -0.098  -3.332   3.793  1.00  0.00    -0.027 C 
ATOM     12  C   UNL     1       2.867  -4.225   3.102  1.00  0.00     0.008 C 
ATOM     13  C   UNL     1       4.538  -6.961   3.662  1.00  0.00     0.008 C 
ATOM     14  C   UNL     1      -1.361  -4.004   6.495  1.00  0.00     0.017 C 
ATOM     15  C   UNL     1       0.714  -2.325   6.475  1.00  0.00    -0.020 C 
ATOM     16  C   UNL     1      -0.457  -1.919   4.167  1.00  0.00     0.032 C 
ATOM     17  C   UNL     1       0.577  -1.369   5.185  1.00  0.00     0.006 C 
ATOM     18  C   UNL     1      -0.023  -1.734   7.726  1.00  0.00     0.008 C 
ATOM     19  C   UNL     1       2.233  -2.372   6.835  1.00  0.00     0.012 C 
ATOM     20  C   UNL     1       0.533   0.226   5.443  1.00  0.00    -0.025 C 
ATOM     21  C   UNL     1       0.184  -0.243   7.946  1.00  0.00     0.005 C 
ATOM     22  C   UNL     1      -0.332   0.542   6.717  1.00  0.00     0.003 C 
ATOM     23  C   UNL     1      -0.126   0.977   4.237  1.00  0.00     0.010 C 
ATOM     24  C   UNL     1       2.011   0.755   5.568  1.00  0.00     0.012 C 
ATOM     25  C   UNL     1      -0.647   2.071   7.001  1.00  0.00    -0.006 C 
ATOM     26  C   UNL     1      -0.358   2.478   4.466  1.00  0.00     0.033 C 
ATOM     27  C   UNL     1      -1.222   2.730   5.704  1.00  0.00     0.120 C 
ATOM     28  C   UNL     1      -1.754   2.183   8.089  1.00  0.00     0.014 C 
ATOM     29  C   UNL     1       0.582   2.859   7.523  1.00  0.00     0.014 C 
ENDROOT
BRANCH   1  30
ATOM     30  C   UNL     1      -0.757  -7.341   4.788  1.00  0.00     0.048 C 
ATOM     31  O   UNL     1      -0.804  -8.217   3.883  1.00  0.00    -0.550 OA
ATOM     32  O   UNL     1      -1.938  -6.996   5.438  1.00  0.00    -0.550 OA
ENDBRANCH   1  30
BRANCH  27  33
ATOM     33  O   UNL     1      -1.364   4.121   5.870  1.00  0.00    -0.393 OA
ATOM     34  H   UNL     1      -0.454   4.517   5.894  1.00  0.00     0.210 HD
ENDBRANCH  27  33
TORSDOF 2
ENDMDL
MODEL 3
REMARK VINA RESULT:    -4.526      9.213     10.546
REMARK INTER + INTRA:          -5.080
REMARK INTER:                  -5.038
REMARK INTRA:                  -0.042
REMARK UNBOUND:                -0.157
REMARK SMILES C[C@@H]1[C@@H](C)CC[C@@]2(C(=O)[O-])CC[C@]3(C)C(=CC[C@H]4[C@@]5(C)CC[C@H](O)C(C)(C)[C@@H]5CC[C@]43C)[C@@H]12
REMARK SMILES IDX 7 1 6 2 11 3 33 4 5 5 12 6 15 7 2 8 3 9 13 10 16 11 1 12
REMARK SMILES IDX 4 13 14 14 31 15 17 16 18 17 30 18 32 19 19 20 29 21 28 22
REMARK SMILES IDX 21 23 20 24 25 25 22 26 23 27 26 28 27 29 8 30 9 31 10 32
REMARK SMILES IDX 24 33
REMARK H PARENT 24 34
REMARK Flexibility Score: inf
ROOT
ATOM      1  C   UNL     1      -2.697  -7.321  -4.005  1.00  0.00     0.017 C 
ATOM      2  C   UNL     1      -2.866  -8.840  -4.349  1.00  0.00     0.014 C 
ATOM      3  C   UNL     1      -3.181  -6.489  -5.248  1.00  0.00     0.014 C 
ATOM      4  C   UNL     1      -3.475  -6.980  -2.658  1.00  0.00     0.030 C 
ATOM      5  C   UNL     1      -2.892  -9.707  -3.093  1.00  0.00     0.004 C 
ATOM      6  C   UNL     1      -4.439  -5.650  -4.993  1.00  0.00     0.013 C 
ATOM      7  C   UNL     1      -3.874  -5.498  -2.559  1.00  0.00    -0.063 C 
ATOM      8  C   UNL     1      -4.670  -7.959  -2.379  1.00  0.00    -0.003 C 
ATOM      9  C   UNL     1      -4.175  -9.442  -2.271  1.00  0.00    -0.011 C 
ATOM     10  C   UNL     1      -4.294  -4.680  -3.777  1.00  0.00    -0.006 C 
ATOM     11  C   UNL     1      -3.821  -4.878  -1.364  1.00  0.00    -0.027 C 
ATOM     12  C   UNL     1      -5.447  -7.589  -1.099  1.00  0.00     0.008 C 
ATOM     13  C   UNL     1      -5.285 -10.428  -2.683  1.00  0.00     0.008 C 
ATOM     14  C   UNL     1      -3.079  -3.743  -4.104  1.00  0.00     0.017 C 
ATOM     15  C   UNL     1      -5.668  -3.849  -3.463  1.00  0.00    -0.020 C 
ATOM     16  C   UNL     1      -4.453  -3.527  -1.163  1.00  0.00     0.032 C 
ATOM     17  C   UNL     1      -5.816  -3.471  -1.902  1.00  0.00     0.006 C 
ATOM     18  C   UNL     1      -5.730  -2.582  -4.383  1.00  0.00     0.008 C 
ATOM     19  C   UNL     1      -6.907  -4.726  -3.828  1.00  0.00     0.012 C 
ATOM     20  C   UNL     1      -6.771  -2.222  -1.528  1.00  0.00    -0.025 C 
ATOM     21  C   UNL     1      -6.812  -1.577  -4.016  1.00  0.00     0.005 C 
ATOM     22  C   UNL     1      -6.579  -1.065  -2.575  1.00  0.00     0.003 C 
ATOM     23  C   UNL     1      -6.413  -1.638  -0.119  1.00  0.00     0.010 C 
ATOM     24  C   UNL     1      -8.260  -2.733  -1.456  1.00  0.00     0.012 C 
ATOM     25  C   UNL     1      -7.292   0.315  -2.247  1.00  0.00    -0.006 C 
ATOM     26  C   UNL     1      -7.162  -0.348   0.247  1.00  0.00     0.033 C 
ATOM     27  C   UNL     1      -6.925   0.752  -0.791  1.00  0.00     0.120 C 
ATOM     28  C   UNL     1      -6.750   1.421  -3.197  1.00  0.00     0.014 C 
ATOM     29  C   UNL     1      -8.830   0.267  -2.438  1.00  0.00     0.014 C 
ENDROOT
BRANCH   1  30
ATOM     30  C   UNL     1      -1.206  -7.033  -3.816  1.00  0.00     0.048 C 
ATOM     31  O   UNL     1      -0.831  -6.060  -3.107  1.00  0.00    -0.550 OA
ATOM     32  O   UNL     1      -0.236  -7.883  -4.338  1.00  0.00    -0.550 OA
ENDBRANCH   1  30
BRANCH  27  33
ATOM     33  O   UNL     1      -7.663   1.889  -0.408  1.00  0.00    -0.393 OA
ATOM     34  H   UNL     1      -7.831   2.429  -1.225  1.00  0.00     0.210 HD
ENDBRANCH  27  33
TORSDOF 2
ENDMDL
MODEL 4
REMARK VINA RESULT:    -4.411      9.447     13.382
REMARK INTER + INTRA:          -4.955
REMARK INTER:                  -4.899
REMARK INTRA:                  -0.056
REMARK UNBOUND:                -0.157
REMARK SMILES C[C@@H]1[C@@H](C)CC[C@@]2(C(=O)[O-])CC[C@]3(C)C(=CC[C@H]4[C@@]5(C)CC[C@H](O)C(C)(C)[C@@H]5CC[C@]43C)[C@@H]12
REMARK SMILES IDX 7 1 6 2 11 3 33 4 5 5 12 6 15 7 2 8 3 9 13 10 16 11 1 12
REMARK SMILES IDX 4 13 14 14 31 15 17 16 18 17 30 18 32 19 19 20 29 21 28 22
REMARK SMILES IDX 21 23 20 24 25 25 22 26 23 27 26 28 27 29 8 30 9 31 10 32
REMARK SMILES IDX 24 33
REMARK H PARENT 24 34
REMARK Flexibility Score: inf
ROOT
ATOM      1  C   UNL     1      -8.393   1.321   0.962  1.00  0.00     0.017 C 
ATOM      2  C   UNL     1      -9.338   2.523   0.626  1.00  0.00     0.014 C 
ATOM      3  C   UNL     1      -9.294   0.099   1.367  1.00  0.00     0.014 C 
ATOM      4  C   UNL     1      -7.426   1.029  -0.270  1.00  0.00     0.030 C 
ATOM      5  C   UNL     1      -8.633   3.580  -0.221  1.00  0.00     0.004 C 
ATOM      6  C   UNL     1      -9.233  -1.081   0.390  1.00  0.00     0.013 C 
ATOM      7  C   UNL     1      -6.917  -0.422  -0.298  1.00  0.00    -0.063 C 
ATOM      8  C   UNL     1      -8.029   1.495  -1.642  1.00  0.00    -0.003 C 
ATOM      9  C   UNL     1      -8.328   3.034  -1.636  1.00  0.00    -0.011 C 
ATOM     10  C   UNL     1      -7.779  -1.601   0.145  1.00  0.00    -0.006 C 
ATOM     11  C   UNL     1      -5.654  -0.672  -0.692  1.00  0.00    -0.027 C 
ATOM     12  C   UNL     1      -7.108   1.163  -2.834  1.00  0.00     0.008 C 
ATOM     13  C   UNL     1      -9.481   3.378  -2.599  1.00  0.00     0.008 C 
ATOM     14  C   UNL     1      -7.226  -2.034   1.548  1.00  0.00     0.017 C 
ATOM     15  C   UNL     1      -7.715  -2.805  -0.960  1.00  0.00    -0.020 C 
ATOM     16  C   UNL     1      -5.199  -2.074  -0.996  1.00  0.00     0.032 C 
ATOM     17  C   UNL     1      -6.316  -2.832  -1.760  1.00  0.00     0.006 C 
ATOM     18  C   UNL     1      -8.017  -4.173  -0.256  1.00  0.00     0.008 C 
ATOM     19  C   UNL     1      -8.835  -2.597  -2.028  1.00  0.00     0.012 C 
ATOM     20  C   UNL     1      -5.879  -4.230  -2.445  1.00  0.00    -0.025 C 
ATOM     21  C   UNL     1      -7.729  -5.405  -1.102  1.00  0.00     0.005 C 
ATOM     22  C   UNL     1      -6.232  -5.430  -1.493  1.00  0.00     0.003 C 
ATOM     23  C   UNL     1      -4.334  -4.277  -2.698  1.00  0.00     0.010 C 
ATOM     24  C   UNL     1      -6.584  -4.343  -3.849  1.00  0.00     0.012 C 
ATOM     25  C   UNL     1      -5.691  -6.859  -1.921  1.00  0.00    -0.006 C 
ATOM     26  C   UNL     1      -3.809  -5.632  -3.196  1.00  0.00     0.033 C 
ATOM     27  C   UNL     1      -4.159  -6.761  -2.224  1.00  0.00     0.120 C 
ATOM     28  C   UNL     1      -5.850  -7.853  -0.734  1.00  0.00     0.014 C 
ATOM     29  C   UNL     1      -6.455  -7.465  -3.125  1.00  0.00     0.014 C 
ENDROOT
BRANCH   1  30
ATOM     30  C   UNL     1      -7.553   1.694   2.187  1.00  0.00     0.048 C 
ATOM     31  O   UNL     1      -7.511   0.928   3.186  1.00  0.00    -0.550 OA
ATOM     32  O   UNL     1      -6.750   2.830   2.189  1.00  0.00    -0.550 OA
ENDBRANCH   1  30
BRANCH  27  33
ATOM     33  O   UNL     1      -3.676  -7.972  -2.758  1.00  0.00    -0.393 OA
ATOM     34  H   UNL     1      -3.888  -7.980  -3.728  1.00  0.00     0.210 HD
ENDBRANCH  27  33
TORSDOF 2
ENDMDL
MODEL 5
REMARK VINA RESULT:    -4.358      9.126     11.539
REMARK INTER + INTRA:          -4.898
REMARK INTER:                  -4.658
REMARK INTRA:                  -0.240
REMARK UNBOUND:                -0.157
REMARK SMILES C[C@@H]1[C@@H](C)CC[C@@]2(C(=O)[O-])CC[C@]3(C)C(=CC[C@H]4[C@@]5(C)CC[C@H](O)C(C)(C)[C@@H]5CC[C@]43C)[C@@H]12
REMARK SMILES IDX 7 1 6 2 11 3 33 4 5 5 12 6 15 7 2 8 3 9 13 10 16 11 1 12
REMARK SMILES IDX 4 13 14 14 31 15 17 16 18 17 30 18 32 19 19 20 29 21 28 22
REMARK SMILES IDX 21 23 20 24 25 25 22 26 23 27 26 28 27 29 8 30 9 31 10 32
REMARK SMILES IDX 24 33
REMARK H PARENT 24 34
REMARK Flexibility Score: inf
ROOT
ATOM      1  C   UNL     1      -6.415  -4.051  -0.435  1.00  0.00     0.017 C 
ATOM      2  C   UNL     1      -7.100  -5.459  -0.446  1.00  0.00     0.014 C 
ATOM      3  C   UNL     1      -6.405  -3.510  -1.911  1.00  0.00     0.014 C 
ATOM      4  C   UNL     1      -7.157  -3.093   0.598  1.00  0.00     0.030 C 
ATOM      5  C   UNL     1      -7.593  -5.861   0.942  1.00  0.00     0.004 C 
ATOM      6  C   UNL     1      -7.278  -2.269  -2.132  1.00  0.00     0.013 C 
ATOM      7  C   UNL     1      -6.981  -1.603   0.263  1.00  0.00    -0.063 C 
ATOM      8  C   UNL     1      -8.656  -3.497   0.835  1.00  0.00    -0.003 C 
ATOM      9  C   UNL     1      -8.769  -4.960   1.388  1.00  0.00    -0.011 C 
ATOM     10  C   UNL     1      -6.921  -1.088  -1.172  1.00  0.00    -0.006 C 
ATOM     11  C   UNL     1      -6.837  -0.713   1.264  1.00  0.00    -0.027 C 
ATOM     12  C   UNL     1      -9.380  -2.534   1.798  1.00  0.00     0.008 C 
ATOM     13  C   UNL     1     -10.112  -5.601   0.989  1.00  0.00     0.008 C 
ATOM     14  C   UNL     1      -5.414  -0.743  -1.441  1.00  0.00     0.017 C 
ATOM     15  C   UNL     1      -7.909   0.202  -1.360  1.00  0.00    -0.020 C 
ATOM     16  C   UNL     1      -6.935   0.766   1.006  1.00  0.00     0.032 C 
ATOM     17  C   UNL     1      -8.084   1.047   0.001  1.00  0.00     0.006 C 
ATOM     18  C   UNL     1      -7.386   1.089  -2.541  1.00  0.00     0.008 C 
ATOM     19  C   UNL     1      -9.336  -0.285  -1.767  1.00  0.00     0.012 C 
ATOM     20  C   UNL     1      -8.538   2.593  -0.137  1.00  0.00    -0.025 C 
ATOM     21  C   UNL     1      -8.047   2.455  -2.657  1.00  0.00     0.005 C 
ATOM     22  C   UNL     1      -7.807   3.261  -1.358  1.00  0.00     0.003 C 
ATOM     23  C   UNL     1      -8.152   3.413   1.140  1.00  0.00     0.010 C 
ATOM     24  C   UNL     1     -10.107   2.645  -0.267  1.00  0.00     0.012 C 
ATOM     25  C   UNL     1      -7.984   4.830  -1.519  1.00  0.00    -0.006 C 
ATOM     26  C   UNL     1      -8.399   4.924   1.029  1.00  0.00     0.033 C 
ATOM     27  C   UNL     1      -7.650   5.530  -0.161  1.00  0.00     0.120 C 
ATOM     28  C   UNL     1      -6.962   5.366  -2.563  1.00  0.00     0.014 C 
ATOM     29  C   UNL     1      -9.395   5.237  -2.018  1.00  0.00     0.014 C 
ENDROOT
BRANCH   1  30
ATOM     30  C   UNL     1      -4.956  -4.227  -0.004  1.00  0.00     0.048 C 
ATOM     31  O   UNL     1      -4.046  -4.339  -0.869  1.00  0.00    -0.550 OA
ATOM     32  O   UNL     1      -4.591  -4.173   1.337  1.00  0.00    -0.550 OA
ENDBRANCH   1  30
BRANCH  27  33
ATOM     33  O   UNL     1      -7.947   6.905  -0.219  1.00  0.00    -0.393 OA
ATOM     34  H   UNL     1      -7.093   7.394  -0.349  1.00  0.00     0.210 HD
ENDBRANCH  27  33
TORSDOF 2
ENDMDL
MODEL 6
REMARK VINA RESULT:    -4.306      3.461      5.984
REMARK INTER + INTRA:          -4.840
REMARK INTER:                  -4.634
REMARK INTRA:                  -0.206
REMARK UNBOUND:                -0.157
REMARK SMILES C[C@@H]1[C@@H](C)CC[C@@]2(C(=O)[O-])CC[C@]3(C)C(=CC[C@H]4[C@@]5(C)CC[C@H](O)C(C)(C)[C@@H]5CC[C@]43C)[C@@H]12
REMARK SMILES IDX 7 1 6 2 11 3 33 4 5 5 12 6 15 7 2 8 3 9 13 10 16 11 1 12
REMARK SMILES IDX 4 13 14 14 31 15 17 16 18 17 30 18 32 19 19 20 29 21 28 22
REMARK SMILES IDX 21 23 20 24 25 25 22 26 23 27 26 28 27 29 8 30 9 31 10 32
REMARK SMILES IDX 24 33
REMARK H PARENT 24 34
REMARK Flexibility Score: inf
ROOT
ATOM      1  C   UNL     1       0.248  -2.354   5.709  1.00  0.00     0.017 C 
ATOM      2  C   UNL     1       0.049  -3.588   6.652  1.00  0.00     0.014 C 
ATOM      3  C   UNL     1      -1.144  -1.642   5.548  1.00  0.00     0.014 C 
ATOM      4  C   UNL     1       1.393  -1.408   6.285  1.00  0.00     0.030 C 
ATOM      5  C   UNL     1       1.369  -4.058   7.258  1.00  0.00     0.004 C 
ATOM      6  C   UNL     1      -1.207  -0.236   6.156  1.00  0.00     0.013 C 
ATOM      7  C   UNL     1       1.257   0.049   5.814  1.00  0.00    -0.063 C 
ATOM      8  C   UNL     1       1.565  -1.538   7.841  1.00  0.00    -0.003 C 
ATOM      9  C   UNL     1       1.920  -3.009   8.251  1.00  0.00    -0.011 C 
ATOM     10  C   UNL     1      -0.098   0.720   5.610  1.00  0.00    -0.006 C 
ATOM     11  C   UNL     1       2.367   0.759   5.534  1.00  0.00    -0.027 C 
ATOM     12  C   UNL     1       2.641  -0.583   8.395  1.00  0.00     0.008 C 
ATOM     13  C   UNL     1       1.432  -3.319   9.679  1.00  0.00     0.008 C 
ATOM     14  C   UNL     1      -0.309   0.796   4.057  1.00  0.00     0.017 C 
ATOM     15  C   UNL     1      -0.122   2.192   6.324  1.00  0.00    -0.020 C 
ATOM     16  C   UNL     1       2.304   2.250   5.336  1.00  0.00     0.032 C 
ATOM     17  C   UNL     1       1.337   2.875   6.376  1.00  0.00     0.006 C 
ATOM     18  C   UNL     1      -1.173   3.103   5.602  1.00  0.00     0.008 C 
ATOM     19  C   UNL     1      -0.599   2.049   7.804  1.00  0.00     0.012 C 
ATOM     20  C   UNL     1       1.399   4.485   6.519  1.00  0.00    -0.025 C 
ATOM     21  C   UNL     1      -1.113   4.575   5.983  1.00  0.00     0.005 C 
ATOM     22  C   UNL     1       0.281   5.147   5.634  1.00  0.00     0.003 C 
ATOM     23  C   UNL     1       2.776   5.044   6.023  1.00  0.00     0.010 C 
ATOM     24  C   UNL     1       1.267   4.858   8.043  1.00  0.00     0.012 C 
ATOM     25  C   UNL     1       0.326   6.727   5.500  1.00  0.00    -0.006 C 
ATOM     26  C   UNL     1       2.861   6.576   5.970  1.00  0.00     0.033 C 
ATOM     27  C   UNL     1       1.767   7.170   5.080  1.00  0.00     0.120 C 
ATOM     28  C   UNL     1      -0.631   7.182   4.360  1.00  0.00     0.014 C 
ATOM     29  C   UNL     1      -0.125   7.462   6.789  1.00  0.00     0.014 C 
ENDROOT
BRANCH   1  30
ATOM     30  C   UNL     1       0.662  -2.864   4.326  1.00  0.00     0.048 C 
ATOM     31  O   UNL     1      -0.165  -2.866   3.375  1.00  0.00    -0.550 OA
ATOM     32  O   UNL     1       1.974  -3.246   4.064  1.00  0.00    -0.550 OA
ENDBRANCH   1  30
BRANCH  27  33
ATOM     33  O   UNL     1       1.887   8.573   5.105  1.00  0.00    -0.393 OA
ATOM     34  H   UNL     1       2.309   8.825   5.968  1.00  0.00     0.210 HD
ENDBRANCH  27  33
TORSDOF 2
ENDMDL
MODEL 7
REMARK VINA RESULT:    -4.297     10.547     12.011
REMARK INTER + INTRA:          -4.832
REMARK INTER:                  -4.614
REMARK INTRA:                  -0.218
REMARK UNBOUND:                -0.157
REMARK SMILES C[C@@H]1[C@@H](C)CC[C@@]2(C(=O)[O-])CC[C@]3(C)C(=CC[C@H]4[C@@]5(C)CC[C@H](O)C(C)(C)[C@@H]5CC[C@]43C)[C@@H]12
REMARK SMILES IDX 7 1 6 2 11 3 33 4 5 5 12 6 15 7 2 8 3 9 13 10 16 11 1 12
REMARK SMILES IDX 4 13 14 14 31 15 17 16 18 17 30 18 32 19 19 20 29 21 28 22
REMARK SMILES IDX 21 23 20 24 25 25 22 26 23 27 26 28 27 29 8 30 9 31 10 32
REMARK SMILES IDX 24 33
REMARK H PARENT 24 34
REMARK Flexibility Score: inf
ROOT
ATOM      1  C   UNL     1      -5.423  -3.001  -4.456  1.00  0.00     0.017 C 
ATOM      2  C   UNL     1      -5.896  -4.328  -5.139  1.00  0.00     0.014 C 
ATOM      3  C   UNL     1      -6.016  -1.799  -5.278  1.00  0.00     0.014 C 
ATOM      4  C   UNL     1      -5.842  -3.000  -2.920  1.00  0.00     0.030 C 
ATOM      5  C   UNL     1      -5.799  -5.520  -4.190  1.00  0.00     0.004 C 
ATOM      6  C   UNL     1      -7.046  -0.960  -4.512  1.00  0.00     0.013 C 
ATOM      7  C   UNL     1      -5.974  -1.583  -2.337  1.00  0.00    -0.063 C 
ATOM      8  C   UNL     1      -7.093  -3.903  -2.629  1.00  0.00    -0.003 C 
ATOM      9  C   UNL     1      -6.826  -5.392  -3.041  1.00  0.00    -0.011 C 
ATOM     10  C   UNL     1      -6.502  -0.408  -3.155  1.00  0.00    -0.006 C 
ATOM     11  C   UNL     1      -5.579  -1.350  -1.071  1.00  0.00    -0.027 C 
ATOM     12  C   UNL     1      -7.521  -3.857  -1.147  1.00  0.00     0.008 C 
ATOM     13  C   UNL     1      -8.138  -6.106  -3.418  1.00  0.00     0.008 C 
ATOM     14  C   UNL     1      -5.249   0.467  -3.507  1.00  0.00     0.017 C 
ATOM     15  C   UNL     1      -7.633   0.416  -2.308  1.00  0.00    -0.020 C 
ATOM     16  C   UNL     1      -5.935  -0.065  -0.372  1.00  0.00     0.032 C 
ATOM     17  C   UNL     1      -7.395   0.330  -0.716  1.00  0.00     0.006 C 
ATOM     18  C   UNL     1      -7.684   1.898  -2.816  1.00  0.00     0.008 C 
ATOM     19  C   UNL     1      -9.043  -0.196  -2.581  1.00  0.00     0.012 C 
ATOM     20  C   UNL     1      -8.044   1.497   0.196  1.00  0.00    -0.025 C 
ATOM     21  C   UNL     1      -8.495   2.846  -1.944  1.00  0.00     0.005 C 
ATOM     22  C   UNL     1      -7.892   2.888  -0.520  1.00  0.00     0.003 C 
ATOM     23  C   UNL     1      -7.315   1.605   1.579  1.00  0.00     0.010 C 
ATOM     24  C   UNL     1      -9.546   1.126   0.490  1.00  0.00     0.012 C 
ATOM     25  C   UNL     1      -8.296   4.169   0.325  1.00  0.00    -0.006 C 
ATOM     26  C   UNL     1      -7.759   2.793   2.444  1.00  0.00     0.033 C 
ATOM     27  C   UNL     1      -7.572   4.123   1.710  1.00  0.00     0.120 C 
ATOM     28  C   UNL     1      -7.795   5.452  -0.400  1.00  0.00     0.014 C 
ATOM     29  C   UNL     1      -9.828   4.322   0.507  1.00  0.00     0.014 C 
ENDROOT
BRANCH   1  30
ATOM     30  C   UNL     1      -3.898  -2.919  -4.564  1.00  0.00     0.048 C 
ATOM     31  O   UNL     1      -3.360  -2.179  -5.432  1.00  0.00    -0.550 OA
ATOM     32  O   UNL     1      -3.076  -3.579  -3.657  1.00  0.00    -0.550 OA
ENDBRANCH   1  30
BRANCH  27  33
ATOM     33  O   UNL     1      -8.027   5.160   2.548  1.00  0.00    -0.393 OA
ATOM     34  H   UNL     1      -8.347   5.899   1.967  1.00  0.00     0.210 HD
ENDBRANCH  27  33
TORSDOF 2
ENDMDL
MODEL 8
REMARK VINA RESULT:    -4.180      9.111     12.209
REMARK INTER + INTRA:          -4.704
REMARK INTER:                  -4.494
REMARK INTRA:                  -0.210
REMARK UNBOUND:                -0.157
REMARK SMILES C[C@@H]1[C@@H](C)CC[C@@]2(C(=O)[O-])CC[C@]3(C)C(=CC[C@H]4[C@@]5(C)CC[C@H](O)C(C)(C)[C@@H]5CC[C@]43C)[C@@H]12
REMARK SMILES IDX 7 1 6 2 11 3 33 4 5 5 12 6 15 7 2 8 3 9 13 10 16 11 1 12
REMARK SMILES IDX 4 13 14 14 31 15 17 16 18 17 30 18 32 19 19 20 29 21 28 22
REMARK SMILES IDX 21 23 20 24 25 25 22 26 23 27 26 28 27 29 8 30 9 31 10 32
REMARK SMILES IDX 24 33
REMARK H PARENT 24 34
REMARK Flexibility Score: inf
ROOT
ATOM      1  C   UNL     1      -7.393  -3.532   1.587  1.00  0.00     0.017 C 
ATOM      2  C   UNL     1      -8.365  -2.416   2.097  1.00  0.00     0.014 C 
ATOM      3  C   UNL     1      -8.256  -4.626   0.859  1.00  0.00     0.014 C 
ATOM      4  C   UNL     1      -6.261  -2.889   0.670  1.00  0.00     0.030 C 
ATOM      5  C   UNL     1      -7.629  -1.108   2.379  1.00  0.00     0.004 C 
ATOM      6  C   UNL     1      -7.993  -4.736  -0.648  1.00  0.00     0.013 C 
ATOM      7  C   UNL     1      -5.657  -3.893  -0.326  1.00  0.00    -0.063 C 
ATOM      8  C   UNL     1      -6.714  -1.548  -0.008  1.00  0.00    -0.003 C 
ATOM      9  C   UNL     1      -7.112  -0.477   1.066  1.00  0.00    -0.011 C 
ATOM     10  C   UNL     1      -6.489  -4.986  -0.991  1.00  0.00    -0.006 C 
ATOM     11  C   UNL     1      -4.340  -3.840  -0.602  1.00  0.00    -0.027 C 
ATOM     12  C   UNL     1      -5.628  -0.959  -0.932  1.00  0.00     0.008 C 
ATOM     13  C   UNL     1      -8.153   0.510   0.503  1.00  0.00     0.008 C 
ATOM     14  C   UNL     1      -6.091  -6.324  -0.275  1.00  0.00     0.017 C 
ATOM     15  C   UNL     1      -6.205  -5.021  -2.602  1.00  0.00    -0.020 C 
ATOM     16  C   UNL     1      -3.758  -4.609  -1.758  1.00  0.00     0.032 C 
ATOM     17  C   UNL     1      -4.717  -4.527  -2.976  1.00  0.00     0.006 C 
ATOM     18  C   UNL     1      -6.502  -6.459  -3.151  1.00  0.00     0.008 C 
ATOM     19  C   UNL     1      -7.191  -4.054  -3.330  1.00  0.00     0.012 C 
ATOM     20  C   UNL     1      -4.104  -5.017  -4.390  1.00  0.00    -0.025 C 
ATOM     21  C   UNL     1      -6.028  -6.711  -4.574  1.00  0.00     0.005 C 
ATOM     22  C   UNL     1      -4.496  -6.516  -4.656  1.00  0.00     0.003 C 
ATOM     23  C   UNL     1      -2.540  -4.939  -4.387  1.00  0.00     0.010 C 
ATOM     24  C   UNL     1      -4.616  -4.047  -5.521  1.00  0.00     0.012 C 
ATOM     25  C   UNL     1      -3.811  -7.218  -5.903  1.00  0.00    -0.006 C 
ATOM     26  C   UNL     1      -1.867  -5.539  -5.630  1.00  0.00     0.033 C 
ATOM     27  C   UNL     1      -2.263  -7.003  -5.831  1.00  0.00     0.120 C 
ATOM     28  C   UNL     1      -4.053  -8.754  -5.836  1.00  0.00     0.014 C 
ATOM     29  C   UNL     1      -4.375  -6.730  -7.263  1.00  0.00     0.014 C 
ENDROOT
BRANCH   1  30
ATOM     30  C   UNL     1      -6.742  -4.199   2.802  1.00  0.00     0.048 C 
ATOM     31  O   UNL     1      -7.126  -5.337   3.185  1.00  0.00    -0.550 OA
ATOM     32  O   UNL     1      -5.660  -3.613   3.450  1.00  0.00    -0.550 OA
ENDBRANCH   1  30
BRANCH  27  33
ATOM     33  O   UNL     1      -1.637  -7.475  -7.002  1.00  0.00    -0.393 OA
ATOM     34  H   UNL     1      -1.763  -6.789  -7.709  1.00  0.00     0.210 HD
ENDBRANCH  27  33
TORSDOF 2
ENDMDL
MODEL 9
REMARK VINA RESULT:    -4.173      1.776      8.041
REMARK INTER + INTRA:          -4.696
REMARK INTER:                  -4.720
REMARK INTRA:                   0.024
REMARK UNBOUND:                -0.157
REMARK SMILES C[C@@H]1[C@@H](C)CC[C@@]2(C(=O)[O-])CC[C@]3(C)C(=CC[C@H]4[C@@]5(C)CC[C@H](O)C(C)(C)[C@@H]5CC[C@]43C)[C@@H]12
REMARK SMILES IDX 7 1 6 2 11 3 33 4 5 5 12 6 15 7 2 8 3 9 13 10 16 11 1 12
REMARK SMILES IDX 4 13 14 14 31 15 17 16 18 17 30 18 32 19 19 20 29 21 28 22
REMARK SMILES IDX 21 23 20 24 25 25 22 26 23 27 26 28 27 29 8 30 9 31 10 32
REMARK SMILES IDX 24 33
REMARK H PARENT 24 34
REMARK Flexibility Score: inf
ROOT
ATOM      1  C   UNL     1       0.163   0.560   5.491  1.00  0.00     0.017 C 
ATOM      2  C   UNL     1       0.974   1.851   5.136  1.00  0.00     0.014 C 
ATOM      3  C   UNL     1      -0.333  -0.083   4.145  1.00  0.00     0.014 C 
ATOM      4  C   UNL     1       1.055  -0.414   6.380  1.00  0.00     0.030 C 
ATOM      5  C   UNL     1       1.888   2.280   6.280  1.00  0.00     0.004 C 
ATOM      6  C   UNL     1       0.289  -1.449   3.833  1.00  0.00     0.013 C 
ATOM      7  C   UNL     1       0.619  -1.885   6.276  1.00  0.00    -0.063 C 
ATOM      8  C   UNL     1       2.595  -0.212   6.150  1.00  0.00    -0.003 C 
ATOM      9  C   UNL     1       3.030   1.257   6.483  1.00  0.00    -0.011 C 
ATOM     10  C   UNL     1       0.090  -2.492   4.979  1.00  0.00    -0.006 C 
ATOM     11  C   UNL     1       0.667  -2.669   7.371  1.00  0.00    -0.027 C 
ATOM     12  C   UNL     1       3.448  -1.194   6.978  1.00  0.00     0.008 C 
ATOM     13  C   UNL     1       4.266   1.668   5.661  1.00  0.00     0.008 C 
ATOM     14  C   UNL     1      -1.460  -2.638   5.175  1.00  0.00     0.017 C 
ATOM     15  C   UNL     1       0.826  -3.920   4.672  1.00  0.00    -0.020 C 
ATOM     16  C   UNL     1       0.515  -4.162   7.263  1.00  0.00     0.032 C 
ATOM     17  C   UNL     1       1.286  -4.678   6.019  1.00  0.00     0.006 C 
ATOM     18  C   UNL     1      -0.113  -4.809   3.787  1.00  0.00     0.008 C 
ATOM     19  C   UNL     1       2.122  -3.672   3.837  1.00  0.00     0.012 C 
ATOM     20  C   UNL     1       1.499  -6.278   5.934  1.00  0.00    -0.025 C 
ATOM     21  C   UNL     1       0.325  -6.260   3.648  1.00  0.00     0.005 C 
ATOM     22  C   UNL     1       0.376  -6.925   5.044  1.00  0.00     0.003 C 
ATOM     23  C   UNL     1       1.404  -6.938   7.352  1.00  0.00     0.010 C 
ATOM     24  C   UNL     1       2.948  -6.563   5.385  1.00  0.00     0.012 C 
ATOM     25  C   UNL     1       0.317  -8.510   5.017  1.00  0.00    -0.006 C 
ATOM     26  C   UNL     1       1.433  -8.473   7.346  1.00  0.00     0.033 C 
ATOM     27  C   UNL     1       0.308  -9.052   6.484  1.00  0.00     0.120 C 
ATOM     28  C   UNL     1      -1.017  -8.972   4.362  1.00  0.00     0.014 C 
ATOM     29  C   UNL     1       1.468  -9.150   4.198  1.00  0.00     0.014 C 
ENDROOT
BRANCH   1  30
ATOM     30  C   UNL     1      -1.080   0.973   6.284  1.00  0.00     0.048 C 
ATOM     31  O   UNL     1      -1.494   2.163   6.244  1.00  0.00    -0.550 OA
ATOM     32  O   UNL     1      -1.830   0.034   6.986  1.00  0.00    -0.550 OA
ENDBRANCH   1  30
BRANCH  27  33
ATOM     33  O   UNL     1       0.416 -10.456   6.501  1.00  0.00    -0.393 OA
ATOM     34  H   UNL     1       0.536 -10.739   7.445  1.00  0.00     0.210 HD
ENDBRANCH  27  33
TORSDOF 2
ENDMDL
