MODEL 1
REMARK VINA RESULT:    -5.253      0.000      0.000
REMARK INTER + INTRA:         -10.265
REMARK INTER:                  -8.938
REMARK INTRA:                  -1.326
REMARK UNBOUND:                -1.326
REMARK SMILES CCCCCCCCCCCCCC(=O)[O-]
REMARK SMILES IDX 8 1 9 2 10 3 11 4 12 5 13 6 14 7 15 8 16 9 7 10 6 11 5 12
REMARK SMILES IDX 4 13 3 14 2 15 1 16
REMARK H PARENT
REMARK Flexibility Score: inf
ROOT
ATOM      1  C   UNL     1      10.420 -24.129  23.075  1.00  0.00     0.000 C 
ENDROOT
BRANCH   1   2
ATOM      2  C   UNL     1      10.362 -24.954  21.782  1.00  0.00     0.000 C 
BRANCH   2   3
ATOM      3  C   UNL     1      11.579 -24.722  20.869  1.00  0.00     0.000 C 
BRANCH   3   4
ATOM      4  C   UNL     1      12.367 -23.427  21.149  1.00  0.00     0.000 C 
BRANCH   4   5
ATOM      5  C   UNL     1      13.355 -23.009  20.041  1.00  0.00     0.006 C 
BRANCH   5   6
ATOM      6  C   UNL     1      14.834 -23.088  20.447  1.00  0.00     0.053 C 
BRANCH   6   7
ATOM      7  C   UNL     1      15.160 -24.385  21.122  1.00  0.00     0.041 C 
ATOM      8  O   UNL     1      15.531 -24.399  22.324  1.00  0.00    -0.550 OA
ATOM      9  O   UNL     1      15.023 -25.582  20.430  1.00  0.00    -0.550 OA
ENDBRANCH   6   7
ENDBRANCH   5   6
ENDBRANCH   4   5
ENDBRANCH   3   4
ENDBRANCH   2   3
ENDBRANCH   1   2
BRANCH   1  10
ATOM     10  C   UNL     1       9.350 -24.598  24.072  1.00  0.00     0.000 C 
BRANCH  10  11
ATOM     11  C   UNL     1       9.737 -24.324  25.537  1.00  0.00    -0.000 C 
BRANCH  11  12
ATOM     12  C   UNL     1      10.600 -23.065  25.758  1.00  0.00    -0.000 C 
BRANCH  12  13
ATOM     13  C   UNL     1      12.024 -23.334  26.283  1.00  0.00    -0.000 C 
BRANCH  13  14
ATOM     14  C   UNL     1      13.154 -23.071  25.268  1.00  0.00    -0.000 C 
BRANCH  14  15
ATOM     15  C   UNL     1      12.924 -21.863  24.343  1.00  0.00    -0.003 C 
ATOM     16  C   UNL     1      14.204 -21.385  23.659  1.00  0.00     0.004 C 
ENDBRANCH  14  15
ENDBRANCH  13  14
ENDBRANCH  12  13
ENDBRANCH  11  12
ENDBRANCH  10  11
ENDBRANCH   1  10
TORSDOF 12
ENDMDL
MODEL 2
REMARK VINA RESULT:    -5.176      2.636      5.283
REMARK INTER + INTRA:         -10.134
REMARK INTER:                  -8.625
REMARK INTRA:                  -1.510
REMARK UNBOUND:                -1.326
REMARK SMILES CCCCCCCCCCCCCC(=O)[O-]
REMARK SMILES IDX 8 1 9 2 10 3 11 4 12 5 13 6 14 7 15 8 16 9 7 10 6 11 5 12
REMARK SMILES IDX 4 13 3 14 2 15 1 16
REMARK H PARENT
REMARK Flexibility Score: inf
ROOT
ATOM      1  C   UNL     1      12.261 -24.776  20.726  1.00  0.00     0.000 C 
ENDROOT
BRANCH   1   2
ATOM      2  C   UNL     1      10.873 -24.884  21.373  1.00  0.00     0.000 C 
BRANCH   2   3
ATOM      3  C   UNL     1      10.775 -24.125  22.709  1.00  0.00     0.000 C 
BRANCH   3   4
ATOM      4  C   UNL     1       9.525 -24.448  23.552  1.00  0.00     0.000 C 
BRANCH   4   5
ATOM      5  C   UNL     1       9.386 -23.632  24.853  1.00  0.00     0.006 C 
BRANCH   5   6
ATOM      6  C   UNL     1      10.173 -24.197  26.045  1.00  0.00     0.053 C 
BRANCH   6   7
ATOM      7  C   UNL     1      10.960 -23.135  26.749  1.00  0.00     0.041 C 
ATOM      8  O   UNL     1      10.560 -21.942  26.745  1.00  0.00    -0.550 OA
ATOM      9  O   UNL     1      12.120 -23.470  27.437  1.00  0.00    -0.550 OA
ENDBRANCH   6   7
ENDBRANCH   5   6
ENDBRANCH   4   5
ENDBRANCH   3   4
ENDBRANCH   2   3
ENDBRANCH   1   2
BRANCH   1  10
ATOM     10  C   UNL     1      12.581 -23.318  20.360  1.00  0.00     0.000 C 
BRANCH  10  11
ATOM     11  C   UNL     1      14.092 -23.024  20.348  1.00  0.00    -0.000 C 
BRANCH  11  12
ATOM     12  C   UNL     1      14.984 -24.179  20.845  1.00  0.00    -0.000 C 
BRANCH  12  13
ATOM     13  C   UNL     1      15.591 -23.977  22.247  1.00  0.00    -0.000 C 
BRANCH  13  14
ATOM     14  C   UNL     1      15.117 -22.710  22.987  1.00  0.00    -0.000 C 
BRANCH  14  15
ATOM     15  C   UNL     1      13.978 -22.938  23.996  1.00  0.00    -0.003 C 
ATOM     16  C   UNL     1      13.052 -21.730  24.131  1.00  0.00     0.004 C 
ENDBRANCH  14  15
ENDBRANCH  13  14
ENDBRANCH  12  13
ENDBRANCH  11  12
ENDBRANCH  10  11
ENDBRANCH   1  10
TORSDOF 12
ENDMDL
MODEL 3
REMARK VINA RESULT:    -5.171      1.166      3.031
REMARK INTER + INTRA:         -10.126
REMARK INTER:                  -8.571
REMARK INTRA:                  -1.555
REMARK UNBOUND:                -1.326
REMARK SMILES CCCCCCCCCCCCCC(=O)[O-]
REMARK SMILES IDX 8 1 9 2 10 3 11 4 12 5 13 6 14 7 15 8 16 9 7 10 6 11 5 12
REMARK SMILES IDX 4 13 3 14 2 15 1 16
REMARK H PARENT
REMARK Flexibility Score: inf
ROOT
ATOM      1  C   UNL     1      12.819 -23.400  23.783  1.00  0.00     0.000 C 
ENDROOT
BRANCH   1   2
ATOM      2  C   UNL     1      12.438 -22.516  22.586  1.00  0.00     0.000 C 
BRANCH   2   3
ATOM      3  C   UNL     1      12.303 -23.311  21.275  1.00  0.00     0.000 C 
BRANCH   3   4
ATOM      4  C   UNL     1      13.128 -22.764  20.093  1.00  0.00     0.000 C 
BRANCH   4   5
ATOM      5  C   UNL     1      14.530 -23.386  19.930  1.00  0.00     0.006 C 
BRANCH   5   6
ATOM      6  C   UNL     1      14.564 -24.916  20.064  1.00  0.00     0.053 C 
BRANCH   6   7
ATOM      7  C   UNL     1      15.342 -25.353  21.268  1.00  0.00     0.041 C 
ATOM      8  O   UNL     1      15.655 -26.563  21.415  1.00  0.00    -0.550 OA
ATOM      9  O   UNL     1      15.748 -24.417  22.211  1.00  0.00    -0.550 OA
ENDBRANCH   6   7
ENDBRANCH   5   6
ENDBRANCH   4   5
ENDBRANCH   3   4
ENDBRANCH   2   3
ENDBRANCH   1   2
BRANCH   1  10
ATOM     10  C   UNL     1      12.508 -22.689  25.109  1.00  0.00     0.000 C 
BRANCH  10  11
ATOM     11  C   UNL     1      11.361 -21.670  24.985  1.00  0.00    -0.000 C 
BRANCH  11  12
ATOM     12  C   UNL     1       9.967 -22.209  25.367  1.00  0.00    -0.000 C 
BRANCH  12  13
ATOM     13  C   UNL     1       9.956 -23.639  25.942  1.00  0.00    -0.000 C 
BRANCH  13  14
ATOM     14  C   UNL     1       9.464 -24.729  24.970  1.00  0.00    -0.000 C 
BRANCH  14  15
ATOM     15  C   UNL     1       9.071 -24.220  23.572  1.00  0.00    -0.003 C 
ATOM     16  C   UNL     1       9.340 -25.242  22.469  1.00  0.00     0.004 C 
ENDBRANCH  14  15
ENDBRANCH  13  14
ENDBRANCH  12  13
ENDBRANCH  11  12
ENDBRANCH  10  11
ENDBRANCH   1  10
TORSDOF 12
ENDMDL
MODEL 4
REMARK VINA RESULT:    -5.083      2.769      5.966
REMARK INTER + INTRA:          -9.975
REMARK INTER:                  -8.648
REMARK INTRA:                  -1.327
REMARK UNBOUND:                -1.326
REMARK SMILES CCCCCCCCCCCCCC(=O)[O-]
REMARK SMILES IDX 8 1 9 2 10 3 11 4 12 5 13 6 14 7 15 8 16 9 7 10 6 11 5 12
REMARK SMILES IDX 4 13 3 14 2 15 1 16
REMARK H PARENT
REMARK Flexibility Score: inf
ROOT
ATOM      1  C   UNL     1      15.097 -23.484  22.613  1.00  0.00     0.000 C 
ENDROOT
BRANCH   1   2
ATOM      2  C   UNL     1      15.020 -22.498  23.787  1.00  0.00     0.000 C 
BRANCH   2   3
ATOM      3  C   UNL     1      13.844 -21.512  23.663  1.00  0.00     0.000 C 
BRANCH   3   4
ATOM      4  C   UNL     1      12.596 -21.879  24.491  1.00  0.00     0.000 C 
BRANCH   4   5
ATOM      5  C   UNL     1      12.632 -23.275  25.145  1.00  0.00     0.006 C 
BRANCH   5   6
ATOM      6  C   UNL     1      11.958 -23.347  26.524  1.00  0.00     0.053 C 
BRANCH   6   7
ATOM      7  C   UNL     1      10.527 -23.780  26.424  1.00  0.00     0.041 C 
ATOM      8  O   UNL     1       9.646 -22.972  26.031  1.00  0.00    -0.550 OA
ATOM      9  O   UNL     1      10.173 -25.088  26.735  1.00  0.00    -0.550 OA
ENDBRANCH   6   7
ENDBRANCH   5   6
ENDBRANCH   4   5
ENDBRANCH   3   4
ENDBRANCH   2   3
ENDBRANCH   1   2
BRANCH   1  10
ATOM     10  C   UNL     1      15.187 -22.736  21.275  1.00  0.00     0.000 C 
BRANCH  10  11
ATOM     11  C   UNL     1      14.363 -23.405  20.160  1.00  0.00    -0.000 C 
BRANCH  11  12
ATOM     12  C   UNL     1      12.844 -23.463  20.418  1.00  0.00    -0.000 C 
BRANCH  12  13
ATOM     13  C   UNL     1      12.288 -24.867  20.725  1.00  0.00    -0.000 C 
BRANCH  13  14
ATOM     14  C   UNL     1      10.801 -24.906  21.129  1.00  0.00    -0.000 C 
BRANCH  14  15
ATOM     15  C   UNL     1      10.505 -24.416  22.556  1.00  0.00    -0.003 C 
ATOM     16  C   UNL     1       9.040 -24.590  22.955  1.00  0.00     0.004 C 
ENDBRANCH  14  15
ENDBRANCH  13  14
ENDBRANCH  12  13
ENDBRANCH  11  12
ENDBRANCH  10  11
ENDBRANCH   1  10
TORSDOF 12
ENDMDL
MODEL 5
REMARK VINA RESULT:    -5.032      2.656      4.726
REMARK INTER + INTRA:          -9.889
REMARK INTER:                  -8.589
REMARK INTRA:                  -1.300
REMARK UNBOUND:                -1.326
REMARK SMILES CCCCCCCCCCCCCC(=O)[O-]
REMARK SMILES IDX 8 1 9 2 10 3 11 4 12 5 13 6 14 7 15 8 16 9 7 10 6 11 5 12
REMARK SMILES IDX 4 13 3 14 2 15 1 16
REMARK H PARENT
REMARK Flexibility Score: inf
ROOT
ATOM      1  C   UNL     1      14.899 -23.696  21.480  1.00  0.00     0.000 C 
ENDROOT
BRANCH   1   2
ATOM      2  C   UNL     1      14.035 -22.779  20.602  1.00  0.00     0.000 C 
BRANCH   2   3
ATOM      3  C   UNL     1      12.603 -23.312  20.410  1.00  0.00     0.000 C 
BRANCH   3   4
ATOM      4  C   UNL     1      12.423 -24.817  20.692  1.00  0.00     0.000 C 
BRANCH   4   5
ATOM      5  C   UNL     1      11.057 -25.212  21.288  1.00  0.00     0.006 C 
BRANCH   5   6
ATOM      6  C   UNL     1      10.612 -24.350  22.479  1.00  0.00     0.053 C 
BRANCH   6   7
ATOM      7  C   UNL     1       9.134 -24.436  22.709  1.00  0.00     0.041 C 
ATOM      8  O   UNL     1       8.438 -25.260  22.060  1.00  0.00    -0.550 OA
ATOM      9  O   UNL     1       8.531 -23.627  23.665  1.00  0.00    -0.550 OA
ENDBRANCH   6   7
ENDBRANCH   5   6
ENDBRANCH   4   5
ENDBRANCH   3   4
ENDBRANCH   2   3
ENDBRANCH   1   2
BRANCH   1  10
ATOM     10  C   UNL     1      15.074 -23.101  22.885  1.00  0.00     0.000 C 
BRANCH  10  11
ATOM     11  C   UNL     1      13.978 -22.080  23.242  1.00  0.00    -0.000 C 
BRANCH  11  12
ATOM     12  C   UNL     1      13.180 -22.402  24.521  1.00  0.00    -0.000 C 
BRANCH  12  13
ATOM     13  C   UNL     1      11.767 -21.787  24.581  1.00  0.00    -0.000 C 
BRANCH  13  14
ATOM     14  C   UNL     1      10.963 -22.124  25.851  1.00  0.00    -0.000 C 
BRANCH  14  15
ATOM     15  C   UNL     1      11.359 -23.442  26.538  1.00  0.00    -0.003 C 
ATOM     16  C   UNL     1      10.242 -24.484  26.519  1.00  0.00     0.004 C 
ENDBRANCH  14  15
ENDBRANCH  13  14
ENDBRANCH  12  13
ENDBRANCH  11  12
ENDBRANCH  10  11
ENDBRANCH   1  10
TORSDOF 12
ENDMDL
MODEL 6
REMARK VINA RESULT:    -5.016      2.436      5.573
REMARK INTER + INTRA:          -9.861
REMARK INTER:                  -8.948
REMARK INTRA:                  -0.913
REMARK UNBOUND:                -1.326
REMARK SMILES CCCCCCCCCCCCCC(=O)[O-]
REMARK SMILES IDX 8 1 9 2 10 3 11 4 12 5 13 6 14 7 15 8 16 9 7 10 6 11 5 12
REMARK SMILES IDX 4 13 3 14 2 15 1 16
REMARK H PARENT
REMARK Flexibility Score: inf
ROOT
ATOM      1  C   UNL     1      12.537 -23.188  25.514  1.00  0.00     0.000 C 
ENDROOT
BRANCH   1   2
ATOM      2  C   UNL     1      11.688 -22.924  26.766  1.00  0.00     0.000 C 
BRANCH   2   3
ATOM      3  C   UNL     1      10.194 -23.224  26.549  1.00  0.00     0.000 C 
BRANCH   3   4
ATOM      4  C   UNL     1       9.828 -24.721  26.510  1.00  0.00     0.000 C 
BRANCH   4   5
ATOM      5  C   UNL     1       9.439 -25.264  25.121  1.00  0.00     0.006 C 
BRANCH   5   6
ATOM      6  C   UNL     1       9.326 -24.190  24.029  1.00  0.00     0.053 C 
BRANCH   6   7
ATOM      7  C   UNL     1       9.016 -24.784  22.690  1.00  0.00     0.041 C 
ATOM      8  O   UNL     1       7.939 -24.501  22.104  1.00  0.00    -0.550 OA
ATOM      9  O   UNL     1       9.933 -25.627  22.074  1.00  0.00    -0.550 OA
ENDBRANCH   6   7
ENDBRANCH   5   6
ENDBRANCH   4   5
ENDBRANCH   3   4
ENDBRANCH   2   3
ENDBRANCH   1   2
BRANCH   1  10
ATOM     10  C   UNL     1      12.433 -22.017  24.525  1.00  0.00     0.000 C 
BRANCH  10  11
ATOM     11  C   UNL     1      13.799 -21.594  23.955  1.00  0.00    -0.000 C 
BRANCH  11  12
ATOM     12  C   UNL     1      14.141 -22.190  22.574  1.00  0.00    -0.000 C 
BRANCH  12  13
ATOM     13  C   UNL     1      12.929 -22.682  21.759  1.00  0.00    -0.000 C 
BRANCH  13  14
ATOM     14  C   UNL     1      13.211 -22.947  20.267  1.00  0.00    -0.000 C 
BRANCH  14  15
ATOM     15  C   UNL     1      14.671 -23.306  19.938  1.00  0.00    -0.003 C 
ATOM     16  C   UNL     1      14.910 -24.813  19.855  1.00  0.00     0.004 C 
ENDBRANCH  14  15
ENDBRANCH  13  14
ENDBRANCH  12  13
ENDBRANCH  11  12
ENDBRANCH  10  11
ENDBRANCH   1  10
TORSDOF 12
ENDMDL
MODEL 7
REMARK VINA RESULT:    -4.993      2.501      5.987
REMARK INTER + INTRA:          -9.822
REMARK INTER:                  -8.380
REMARK INTRA:                  -1.442
REMARK UNBOUND:                -1.326
REMARK SMILES CCCCCCCCCCCCCC(=O)[O-]
REMARK SMILES IDX 8 1 9 2 10 3 11 4 12 5 13 6 14 7 15 8 16 9 7 10 6 11 5 12
REMARK SMILES IDX 4 13 3 14 2 15 1 16
REMARK H PARENT
REMARK Flexibility Score: inf
ROOT
ATOM      1  C   UNL     1      14.276 -21.555  23.505  1.00  0.00     0.000 C 
ENDROOT
BRANCH   1   2
ATOM      2  C   UNL     1      12.897 -21.941  24.061  1.00  0.00     0.000 C 
BRANCH   2   3
ATOM      3  C   UNL     1      12.940 -23.201  24.945  1.00  0.00     0.000 C 
BRANCH   3   4
ATOM      4  C   UNL     1      12.085 -23.128  26.226  1.00  0.00     0.000 C 
BRANCH   4   5
ATOM      5  C   UNL     1      11.350 -24.431  26.597  1.00  0.00     0.006 C 
BRANCH   5   6
ATOM      6  C   UNL     1       9.831 -24.388  26.376  1.00  0.00     0.053 C 
BRANCH   6   7
ATOM      7  C   UNL     1       9.481 -23.997  24.973  1.00  0.00     0.041 C 
ATOM      8  O   UNL     1       9.115 -22.821  24.715  1.00  0.00    -0.550 OA
ATOM      9  O   UNL     1       9.591 -24.925  23.944  1.00  0.00    -0.550 OA
ENDBRANCH   6   7
ENDBRANCH   5   6
ENDBRANCH   4   5
ENDBRANCH   3   4
ENDBRANCH   2   3
ENDBRANCH   1   2
BRANCH   1  10
ATOM     10  C   UNL     1      15.315 -22.643  23.818  1.00  0.00     0.000 C 
BRANCH  10  11
ATOM     11  C   UNL     1      15.970 -23.223  22.551  1.00  0.00    -0.000 C 
BRANCH  11  12
ATOM     12  C   UNL     1      15.432 -24.600  22.112  1.00  0.00    -0.000 C 
BRANCH  12  13
ATOM     13  C   UNL     1      14.821 -24.640  20.698  1.00  0.00    -0.000 C 
BRANCH  13  14
ATOM     14  C   UNL     1      14.508 -23.262  20.083  1.00  0.00    -0.000 C 
BRANCH  14  15
ATOM     15  C   UNL     1      13.028 -22.845  20.148  1.00  0.00    -0.003 C 
ATOM     16  C   UNL     1      12.134 -23.916  20.768  1.00  0.00     0.004 C 
ENDBRANCH  14  15
ENDBRANCH  13  14
ENDBRANCH  12  13
ENDBRANCH  11  12
ENDBRANCH  10  11
ENDBRANCH   1  10
TORSDOF 12
ENDMDL
MODEL 8
REMARK VINA RESULT:    -4.945      1.440      4.649
REMARK INTER + INTRA:          -9.741
REMARK INTER:                  -8.522
REMARK INTRA:                  -1.219
REMARK UNBOUND:                -1.326
REMARK SMILES CCCCCCCCCCCCCC(=O)[O-]
REMARK SMILES IDX 8 1 9 2 10 3 11 4 12 5 13 6 14 7 15 8 16 9 7 10 6 11 5 12
REMARK SMILES IDX 4 13 3 14 2 15 1 16
REMARK H PARENT
REMARK Flexibility Score: inf
ROOT
ATOM      1  C   UNL     1       9.052 -24.455  23.020  1.00  0.00     0.000 C 
ENDROOT
BRANCH   1   2
ATOM      2  C   UNL     1       9.542 -24.514  24.474  1.00  0.00     0.000 C 
BRANCH   2   3
ATOM      3  C   UNL     1       9.476 -23.150  25.183  1.00  0.00     0.000 C 
BRANCH   3   4
ATOM      4  C   UNL     1      10.620 -22.877  26.181  1.00  0.00     0.000 C 
BRANCH   4   5
ATOM      5  C   UNL     1      12.040 -22.979  25.590  1.00  0.00     0.006 C 
BRANCH   5   6
ATOM      6  C   UNL     1      12.364 -21.917  24.529  1.00  0.00     0.053 C 
BRANCH   6   7
ATOM      7  C   UNL     1      13.771 -22.038  24.029  1.00  0.00     0.041 C 
ATOM      8  O   UNL     1      14.260 -23.170  23.779  1.00  0.00    -0.550 OA
ATOM      9  O   UNL     1      14.532 -20.896  23.809  1.00  0.00    -0.550 OA
ENDBRANCH   6   7
ENDBRANCH   5   6
ENDBRANCH   4   5
ENDBRANCH   3   4
ENDBRANCH   2   3
ENDBRANCH   1   2
BRANCH   1  10
ATOM     10  C   UNL     1      10.098 -25.051  22.066  1.00  0.00     0.000 C 
BRANCH  10  11
ATOM     11  C   UNL     1      11.382 -24.207  21.985  1.00  0.00    -0.000 C 
BRANCH  11  12
ATOM     12  C   UNL     1      12.025 -24.130  20.585  1.00  0.00    -0.000 C 
BRANCH  12  13
ATOM     13  C   UNL     1      13.052 -22.996  20.401  1.00  0.00    -0.000 C 
BRANCH  13  14
ATOM     14  C   UNL     1      14.475 -23.459  20.032  1.00  0.00    -0.000 C 
BRANCH  14  15
ATOM     15  C   UNL     1      14.679 -24.984  20.031  1.00  0.00    -0.003 C 
ATOM     16  C   UNL     1      15.310 -25.501  21.322  1.00  0.00     0.004 C 
ENDBRANCH  14  15
ENDBRANCH  13  14
ENDBRANCH  12  13
ENDBRANCH  11  12
ENDBRANCH  10  11
ENDBRANCH   1  10
TORSDOF 12
ENDMDL
MODEL 9
REMARK VINA RESULT:    -4.929      2.357      5.179
REMARK INTER + INTRA:          -9.713
REMARK INTER:                  -8.335
REMARK INTRA:                  -1.378
REMARK UNBOUND:                -1.326
REMARK SMILES CCCCCCCCCCCCCC(=O)[O-]
REMARK SMILES IDX 8 1 9 2 10 3 11 4 12 5 13 6 14 7 15 8 16 9 7 10 6 11 5 12
REMARK SMILES IDX 4 13 3 14 2 15 1 16
REMARK H PARENT
REMARK Flexibility Score: inf
ROOT
ATOM      1  C   UNL     1      11.145 -24.851  21.155  1.00  0.00     0.000 C 
ENDROOT
BRANCH   1   2
ATOM      2  C   UNL     1      10.014 -25.561  21.913  1.00  0.00     0.000 C 
BRANCH   2   3
ATOM      3  C   UNL     1       8.731 -24.715  22.003  1.00  0.00     0.000 C 
BRANCH   3   4
ATOM      4  C   UNL     1       8.498 -24.024  23.362  1.00  0.00     0.000 C 
BRANCH   4   5
ATOM      5  C   UNL     1       9.478 -24.433  24.480  1.00  0.00     0.006 C 
BRANCH   5   6
ATOM      6  C   UNL     1      10.142 -23.253  25.205  1.00  0.00     0.053 C 
BRANCH   6   7
ATOM      7  C   UNL     1      11.378 -23.673  25.940  1.00  0.00     0.041 C 
ATOM      8  O   UNL     1      12.480 -23.117  25.697  1.00  0.00    -0.550 OA
ATOM      9  O   UNL     1      11.305 -24.659  26.917  1.00  0.00    -0.550 OA
ENDBRANCH   6   7
ENDBRANCH   5   6
ENDBRANCH   4   5
ENDBRANCH   3   4
ENDBRANCH   2   3
ENDBRANCH   1   2
BRANCH   1  10
ATOM     10  C   UNL     1      12.063 -24.094  22.127  1.00  0.00     0.000 C 
BRANCH  10  11
ATOM     11  C   UNL     1      12.569 -22.759  21.552  1.00  0.00    -0.000 C 
BRANCH  11  12
ATOM     12  C   UNL     1      13.981 -22.344  22.013  1.00  0.00    -0.000 C 
BRANCH  12  13
ATOM     13  C   UNL     1      15.136 -23.129  21.360  1.00  0.00    -0.000 C 
BRANCH  13  14
ATOM     14  C   UNL     1      14.916 -23.502  19.881  1.00  0.00    -0.000 C 
BRANCH  14  15
ATOM     15  C   UNL     1      15.003 -25.007  19.574  1.00  0.00    -0.003 C 
ATOM     16  C   UNL     1      15.025 -25.872  20.832  1.00  0.00     0.004 C 
ENDBRANCH  14  15
ENDBRANCH  13  14
ENDBRANCH  12  13
ENDBRANCH  11  12
ENDBRANCH  10  11
ENDBRANCH   1  10
TORSDOF 12
ENDMDL
