MODEL 1
REMARK VINA RESULT:    -6.102      0.000      0.000
REMARK INTER + INTRA:          -7.621
REMARK INTER:                  -7.351
REMARK INTRA:                  -0.270
REMARK UNBOUND:                -0.270
REMARK SMILES O=c1c(O)c(-c2ccc(O)c(O)c2)oc2cc(O)cc(O)c12
REMARK SMILES IDX 5 1 3 2 2 3 1 4 22 5 20 6 19 7 17 8 16 9 15 10 14 11 6 12
REMARK SMILES IDX 7 13 8 14 9 15 13 16 11 17 10 18 12 20 4 22 21 24 18 26
REMARK H PARENT 10 19 12 21 4 23 21 25 18 27
REMARK Flexibility Score: inf
ROOT
ATOM      1  C   UNL     1       8.915  -8.243  -9.626  1.00  0.00     0.180 A 
ATOM      2  C   UNL     1       7.888  -8.592 -10.526  1.00  0.00     0.208 A 
ATOM      3  C   UNL     1       8.231  -8.950 -11.839  1.00  0.00     0.238 A 
ATOM      4  O   UNL     1       7.320  -9.253 -12.656  1.00  0.00    -0.285 OA
ATOM      5  C   UNL     1       9.587  -8.974 -12.224  1.00  0.00     0.111 A 
ATOM      6  C   UNL     1      10.016  -9.327 -13.526  1.00  0.00     0.134 A 
ATOM      7  C   UNL     1      11.386  -9.337 -13.829  1.00  0.00     0.093 A 
ATOM      8  C   UNL     1      12.332  -9.000 -12.858  1.00  0.00     0.123 A 
ATOM      9  C   UNL     1      11.914  -8.650 -11.570  1.00  0.00     0.094 A 
ATOM     10  C   UNL     1      10.554  -8.633 -11.249  1.00  0.00     0.146 A 
ATOM     11  O   UNL     1      10.184  -8.292 -10.020  1.00  0.00    -0.452 OA
ENDROOT
BRANCH   1  12
ATOM     12  C   UNL     1       8.633  -7.835  -8.231  1.00  0.00     0.025 A 
ATOM     13  C   UNL     1       8.282  -8.779  -7.248  1.00  0.00     0.016 A 
ATOM     14  C   UNL     1       7.999  -8.367  -5.943  1.00  0.00     0.051 A 
ATOM     15  C   UNL     1       8.047  -7.009  -5.605  1.00  0.00     0.157 A 
ATOM     16  C   UNL     1       8.660  -6.473  -7.890  1.00  0.00     0.062 A 
ATOM     17  C   UNL     1       8.376  -6.060  -6.581  1.00  0.00     0.158 A 
BRANCH  15  18
ATOM     18  O   UNL     1       7.766  -6.595  -4.304  1.00  0.00    -0.504 OA
ATOM     19  H   UNL     1       7.246  -5.747  -4.118  1.00  0.00     0.293 HD
ENDBRANCH  15  18
BRANCH  17  20
ATOM     20  O   UNL     1       8.417  -4.708  -6.243  1.00  0.00    -0.504 OA
ATOM     21  H   UNL     1       9.080  -4.074  -6.674  1.00  0.00     0.293 HD
ENDBRANCH  17  20
ENDBRANCH   1  12
BRANCH   2  22
ATOM     22  O   UNL     1       6.557  -8.607 -10.105  1.00  0.00    -0.502 OA
ATOM     23  H   UNL     1       6.255  -9.105  -9.277  1.00  0.00     0.293 HD
ENDBRANCH   2  22
BRANCH   6  24
ATOM     24  O   UNL     1       9.095  -9.670 -14.518  1.00  0.00    -0.507 OA
ATOM     25  H   UNL     1       8.380 -10.370 -14.362  1.00  0.00     0.293 HD
ENDBRANCH   6  24
BRANCH   8  26
ATOM     26  O   UNL     1      13.686  -9.018 -13.185  1.00  0.00    -0.508 OA
ATOM     27  H   UNL     1      14.071  -9.712 -13.815  1.00  0.00     0.293 HD
ENDBRANCH   8  26
TORSDOF 6
ENDMDL
MODEL 2
REMARK VINA RESULT:    -6.087     14.600     17.504
REMARK INTER + INTRA:          -7.603
REMARK INTER:                  -7.457
REMARK INTRA:                  -0.146
REMARK UNBOUND:                -0.270
REMARK SMILES O=c1c(O)c(-c2ccc(O)c(O)c2)oc2cc(O)cc(O)c12
REMARK SMILES IDX 5 1 3 2 2 3 1 4 22 5 20 6 19 7 17 8 16 9 15 10 14 11 6 12
REMARK SMILES IDX 7 13 8 14 9 15 13 16 11 17 10 18 12 20 4 22 21 24 18 26
REMARK H PARENT 10 19 12 21 4 23 21 25 18 27
REMARK Flexibility Score: inf
ROOT
ATOM      1  C   UNL     1      20.551   0.477 -17.449  1.00  0.00     0.180 A 
ATOM      2  C   UNL     1      19.319   0.390 -16.772  1.00  0.00     0.208 A 
ATOM      3  C   UNL     1      19.265   0.741 -15.415  1.00  0.00     0.238 A 
ATOM      4  O   UNL     1      18.169   0.656 -14.795  1.00  0.00    -0.285 OA
ATOM      5  C   UNL     1      20.432   1.190 -14.763  1.00  0.00     0.111 A 
ATOM      6  C   UNL     1      20.461   1.567 -13.399  1.00  0.00     0.134 A 
ATOM      7  C   UNL     1      21.661   2.014 -12.826  1.00  0.00     0.093 A 
ATOM      8  C   UNL     1      22.829   2.092 -13.588  1.00  0.00     0.123 A 
ATOM      9  C   UNL     1      22.806   1.720 -14.937  1.00  0.00     0.094 A 
ATOM     10  C   UNL     1      21.621   1.271 -15.525  1.00  0.00     0.146 A 
ATOM     11  O   UNL     1      21.628   0.920 -16.806  1.00  0.00    -0.452 OA
ENDROOT
BRANCH   1  12
ATOM     12  C   UNL     1      20.693   0.106 -18.875  1.00  0.00     0.025 A 
ATOM     13  C   UNL     1      20.406  -1.195 -19.326  1.00  0.00     0.016 A 
ATOM     14  C   UNL     1      20.571  -1.527 -20.674  1.00  0.00     0.051 A 
ATOM     15  C   UNL     1      21.037  -0.572 -21.586  1.00  0.00     0.157 A 
ATOM     16  C   UNL     1      21.180   1.054 -19.791  1.00  0.00     0.062 A 
ATOM     17  C   UNL     1      21.345   0.720 -21.142  1.00  0.00     0.158 A 
BRANCH  15  18
ATOM     18  O   UNL     1      21.200  -0.900 -22.930  1.00  0.00    -0.504 OA
ATOM     19  H   UNL     1      20.421  -1.207 -23.499  1.00  0.00     0.293 HD
ENDBRANCH  15  18
BRANCH  17  20
ATOM     20  O   UNL     1      21.815   1.668 -22.051  1.00  0.00    -0.504 OA
ATOM     21  H   UNL     1      21.490   2.627 -22.032  1.00  0.00     0.293 HD
ENDBRANCH  17  20
ENDBRANCH   1  12
BRANCH   2  22
ATOM     22  O   UNL     1      18.167  -0.012 -17.453  1.00  0.00    -0.502 OA
ATOM     23  H   UNL     1      17.274   0.448 -17.326  1.00  0.00     0.293 HD
ENDBRANCH   2  22
BRANCH   6  24
ATOM     24  O   UNL     1      19.310   1.503 -12.611  1.00  0.00    -0.507 OA
ATOM     25  H   UNL     1      18.698   0.696 -12.627  1.00  0.00     0.293 HD
ENDBRANCH   6  24
BRANCH   8  26
ATOM     26  O   UNL     1      24.006   2.539 -12.996  1.00  0.00    -0.508 OA
ATOM     27  H   UNL     1      24.910   2.386 -13.429  1.00  0.00     0.293 HD
ENDBRANCH   8  26
TORSDOF 6
ENDMDL
MODEL 3
REMARK VINA RESULT:    -6.022     10.681     14.469
REMARK INTER + INTRA:          -7.525
REMARK INTER:                  -7.350
REMARK INTRA:                  -0.175
REMARK UNBOUND:                -0.270
REMARK SMILES O=c1c(O)c(-c2ccc(O)c(O)c2)oc2cc(O)cc(O)c12
REMARK SMILES IDX 5 1 3 2 2 3 1 4 22 5 20 6 19 7 17 8 16 9 15 10 14 11 6 12
REMARK SMILES IDX 7 13 8 14 9 15 13 16 11 17 10 18 12 20 4 22 21 24 18 26
REMARK H PARENT 10 19 12 21 4 23 21 25 18 27
REMARK Flexibility Score: inf
ROOT
ATOM      1  C   UNL     1      18.449  -1.093 -16.697  1.00  0.00     0.180 A 
ATOM      2  C   UNL     1      17.801  -0.278 -15.748  1.00  0.00     0.208 A 
ATOM      3  C   UNL     1      17.064  -0.887 -14.721  1.00  0.00     0.238 A 
ATOM      4  O   UNL     1      16.471  -0.167 -13.873  1.00  0.00    -0.285 OA
ATOM      5  C   UNL     1      17.003  -2.294 -14.646  1.00  0.00     0.111 A 
ATOM      6  C   UNL     1      16.287  -2.986 -13.640  1.00  0.00     0.134 A 
ATOM      7  C   UNL     1      16.283  -4.389 -13.628  1.00  0.00     0.093 A 
ATOM      8  C   UNL     1      16.980  -5.111 -14.599  1.00  0.00     0.123 A 
ATOM      9  C   UNL     1      17.690  -4.433 -15.595  1.00  0.00     0.094 A 
ATOM     10  C   UNL     1      17.705  -3.036 -15.625  1.00  0.00     0.146 A 
ATOM     11  O   UNL     1      18.382  -2.417 -16.586  1.00  0.00    -0.452 OA
ENDROOT
BRANCH   1  12
ATOM     12  C   UNL     1      19.228  -0.526 -17.820  1.00  0.00     0.025 A 
ATOM     13  C   UNL     1      18.828  -0.711 -19.156  1.00  0.00     0.016 A 
ATOM     14  C   UNL     1      19.593  -0.185 -20.202  1.00  0.00     0.051 A 
ATOM     15  C   UNL     1      20.774   0.517 -19.929  1.00  0.00     0.157 A 
ATOM     16  C   UNL     1      20.424   0.162 -17.555  1.00  0.00     0.062 A 
ATOM     17  C   UNL     1      21.191   0.688 -18.603  1.00  0.00     0.158 A 
BRANCH  15  18
ATOM     18  O   UNL     1      21.537   1.043 -20.969  1.00  0.00    -0.504 OA
ATOM     19  H   UNL     1      22.011   1.934 -20.880  1.00  0.00     0.293 HD
ENDBRANCH  15  18
BRANCH  17  20
ATOM     20  O   UNL     1      22.370   1.382 -18.335  1.00  0.00    -0.504 OA
ATOM     21  H   UNL     1      23.021   1.066 -17.625  1.00  0.00     0.293 HD
ENDBRANCH  17  20
ENDBRANCH   1  12
BRANCH   2  22
ATOM     22  O   UNL     1      17.917   1.112 -15.816  1.00  0.00    -0.502 OA
ATOM     23  H   UNL     1      18.623   1.624 -15.302  1.00  0.00     0.293 HD
ENDBRANCH   2  22
BRANCH   6  24
ATOM     24  O   UNL     1      15.581  -2.293 -12.654  1.00  0.00    -0.507 OA
ATOM     25  H   UNL     1      16.045  -1.900 -11.844  1.00  0.00     0.293 HD
ENDBRANCH   6  24
BRANCH   8  26
ATOM     26  O   UNL     1      16.961  -6.503 -14.564  1.00  0.00    -0.508 OA
ATOM     27  H   UNL     1      16.903  -7.011 -13.689  1.00  0.00     0.293 HD
ENDBRANCH   8  26
TORSDOF 6
ENDMDL
MODEL 4
REMARK VINA RESULT:    -5.890     14.161     15.587
REMARK INTER + INTRA:          -7.365
REMARK INTER:                  -7.087
REMARK INTRA:                  -0.279
REMARK UNBOUND:                -0.270
REMARK SMILES O=c1c(O)c(-c2ccc(O)c(O)c2)oc2cc(O)cc(O)c12
REMARK SMILES IDX 5 1 3 2 2 3 1 4 22 5 20 6 19 7 17 8 16 9 15 10 14 11 6 12
REMARK SMILES IDX 7 13 8 14 9 15 13 16 11 17 10 18 12 20 4 22 21 24 18 26
REMARK H PARENT 10 19 12 21 4 23 21 25 18 27
REMARK Flexibility Score: inf
ROOT
ATOM      1  C   UNL     1       9.147   3.628 -18.598  1.00  0.00     0.180 A 
ATOM      2  C   UNL     1       8.698   2.830 -19.669  1.00  0.00     0.208 A 
ATOM      3  C   UNL     1       7.324   2.568 -19.789  1.00  0.00     0.238 A 
ATOM      4  O   UNL     1       6.912   1.846 -20.737  1.00  0.00    -0.285 OA
ATOM      5  C   UNL     1       6.424   3.122 -18.856  1.00  0.00     0.111 A 
ATOM      6  C   UNL     1       5.025   2.910 -18.909  1.00  0.00     0.134 A 
ATOM      7  C   UNL     1       4.194   3.504 -17.948  1.00  0.00     0.093 A 
ATOM      8  C   UNL     1       4.732   4.304 -16.937  1.00  0.00     0.123 A 
ATOM      9  C   UNL     1       6.114   4.516 -16.879  1.00  0.00     0.094 A 
ATOM     10  C   UNL     1       6.959   3.932 -17.827  1.00  0.00     0.146 A 
ATOM     11  O   UNL     1       8.267   4.145 -17.745  1.00  0.00    -0.452 OA
ENDROOT
BRANCH   1  12
ATOM     12  C   UNL     1      10.581   3.933 -18.391  1.00  0.00     0.025 A 
ATOM     13  C   UNL     1      11.132   5.167 -18.783  1.00  0.00     0.016 A 
ATOM     14  C   UNL     1      12.493   5.422 -18.598  1.00  0.00     0.051 A 
ATOM     15  C   UNL     1      13.325   4.447 -18.035  1.00  0.00     0.157 A 
ATOM     16  C   UNL     1      11.424   2.951 -17.846  1.00  0.00     0.062 A 
ATOM     17  C   UNL     1      12.790   3.208 -17.661  1.00  0.00     0.158 A 
BRANCH  15  18
ATOM     18  O   UNL     1      14.683   4.699 -17.848  1.00  0.00    -0.504 OA
ATOM     19  H   UNL     1      15.393   4.078 -18.215  1.00  0.00     0.293 HD
ENDBRANCH  15  18
BRANCH  17  20
ATOM     20  O   UNL     1      13.622   2.236 -17.106  1.00  0.00    -0.504 OA
ATOM     21  H   UNL     1      13.832   1.375 -17.598  1.00  0.00     0.293 HD
ENDBRANCH  17  20
ENDBRANCH   1  12
BRANCH   2  22
ATOM     22  O   UNL     1       9.605   2.334 -20.608  1.00  0.00    -0.502 OA
ATOM     23  H   UNL     1      10.411   2.863 -20.916  1.00  0.00     0.293 HD
ENDBRANCH   2  22
BRANCH   6  24
ATOM     24  O   UNL     1       4.456   2.118 -19.908  1.00  0.00    -0.507 OA
ATOM     25  H   UNL     1       4.758   2.179 -20.873  1.00  0.00     0.293 HD
ENDBRANCH   6  24
BRANCH   8  26
ATOM     26  O   UNL     1       3.886   4.882 -15.996  1.00  0.00    -0.508 OA
ATOM     27  H   UNL     1       3.489   5.805 -16.135  1.00  0.00     0.293 HD
ENDBRANCH   8  26
TORSDOF 6
ENDMDL
MODEL 5
REMARK VINA RESULT:    -5.821      2.434      6.855
REMARK INTER + INTRA:          -7.282
REMARK INTER:                  -7.734
REMARK INTRA:                   0.452
REMARK UNBOUND:                -0.270
REMARK SMILES O=c1c(O)c(-c2ccc(O)c(O)c2)oc2cc(O)cc(O)c12
REMARK SMILES IDX 5 1 3 2 2 3 1 4 22 5 20 6 19 7 17 8 16 9 15 10 14 11 6 12
REMARK SMILES IDX 7 13 8 14 9 15 13 16 11 17 10 18 12 20 4 22 21 24 18 26
REMARK H PARENT 10 19 12 21 4 23 21 25 18 27
REMARK Flexibility Score: inf
ROOT
ATOM      1  C   UNL     1      10.827  -7.188  -9.178  1.00  0.00     0.180 A 
ATOM      2  C   UNL     1      10.096  -8.392  -9.213  1.00  0.00     0.208 A 
ATOM      3  C   UNL     1       9.094  -8.605  -8.254  1.00  0.00     0.238 A 
ATOM      4  O   UNL     1       8.441  -9.683  -8.270  1.00  0.00    -0.285 OA
ATOM      5  C   UNL     1       8.826  -7.610  -7.292  1.00  0.00     0.111 A 
ATOM      6  C   UNL     1       7.830  -7.745  -6.295  1.00  0.00     0.134 A 
ATOM      7  C   UNL     1       7.617  -6.704  -5.379  1.00  0.00     0.093 A 
ATOM      8  C   UNL     1       8.377  -5.534  -5.441  1.00  0.00     0.123 A 
ATOM      9  C   UNL     1       9.362  -5.395  -6.424  1.00  0.00     0.094 A 
ATOM     10  C   UNL     1       9.591  -6.421  -7.345  1.00  0.00     0.146 A 
ATOM     11  O   UNL     1      10.536  -6.265  -8.265  1.00  0.00    -0.452 OA
ENDROOT
BRANCH   1  12
ATOM     12  C   UNL     1      11.912  -6.897 -10.142  1.00  0.00     0.025 A 
ATOM     13  C   UNL     1      12.322  -7.850 -11.092  1.00  0.00     0.016 A 
ATOM     14  C   UNL     1      13.365  -7.560 -11.977  1.00  0.00     0.051 A 
ATOM     15  C   UNL     1      14.021  -6.324 -11.916  1.00  0.00     0.157 A 
ATOM     16  C   UNL     1      12.587  -5.667 -10.073  1.00  0.00     0.062 A 
ATOM     17  C   UNL     1      13.632  -5.377 -10.960  1.00  0.00     0.158 A 
BRANCH  15  18
ATOM     18  O   UNL     1      15.059  -6.032 -12.798  1.00  0.00    -0.504 OA
ATOM     19  H   UNL     1      15.727  -5.296 -12.606  1.00  0.00     0.293 HD
ENDBRANCH  15  18
BRANCH  17  20
ATOM     20  O   UNL     1      14.292  -4.150 -10.897  1.00  0.00    -0.504 OA
ATOM     21  H   UNL     1      15.274  -4.088 -10.657  1.00  0.00     0.293 HD
ENDBRANCH  17  20
ENDBRANCH   1  12
BRANCH   2  22
ATOM     22  O   UNL     1      10.348  -9.341 -10.207  1.00  0.00    -0.502 OA
ATOM     23  H   UNL     1      11.013  -9.181 -10.954  1.00  0.00     0.293 HD
ENDBRANCH   2  22
BRANCH   6  24
ATOM     24  O   UNL     1       7.053  -8.901  -6.207  1.00  0.00    -0.507 OA
ATOM     25  H   UNL     1       6.905  -9.505  -7.007  1.00  0.00     0.293 HD
ENDBRANCH   6  24
BRANCH   8  26
ATOM     26  O   UNL     1       8.145  -4.515  -4.520  1.00  0.00    -0.508 OA
ATOM     27  H   UNL     1       8.854  -3.822  -4.306  1.00  0.00     0.293 HD
ENDBRANCH   8  26
TORSDOF 6
ENDMDL
MODEL 6
REMARK VINA RESULT:    -5.786      1.712      7.041
REMARK INTER + INTRA:          -7.240
REMARK INTER:                  -7.000
REMARK INTRA:                  -0.241
REMARK UNBOUND:                -0.270
REMARK SMILES O=c1c(O)c(-c2ccc(O)c(O)c2)oc2cc(O)cc(O)c12
REMARK SMILES IDX 5 1 3 2 2 3 1 4 22 5 20 6 19 7 17 8 16 9 15 10 14 11 6 12
REMARK SMILES IDX 7 13 8 14 9 15 13 16 11 17 10 18 12 20 4 22 21 24 18 26
REMARK H PARENT 10 19 12 21 4 23 21 25 18 27
REMARK Flexibility Score: inf
ROOT
ATOM      1  C   UNL     1       9.828  -7.994 -10.323  1.00  0.00     0.180 A 
ATOM      2  C   UNL     1       9.843  -8.682  -9.094  1.00  0.00     0.208 A 
ATOM      3  C   UNL     1       9.121  -8.154  -8.013  1.00  0.00     0.238 A 
ATOM      4  O   UNL     1       9.135  -8.756  -6.905  1.00  0.00    -0.285 OA
ATOM      5  C   UNL     1       8.383  -6.964  -8.182  1.00  0.00     0.111 A 
ATOM      6  C   UNL     1       7.625  -6.369  -7.144  1.00  0.00     0.134 A 
ATOM      7  C   UNL     1       6.909  -5.189  -7.394  1.00  0.00     0.093 A 
ATOM      8  C   UNL     1       6.936  -4.594  -8.658  1.00  0.00     0.123 A 
ATOM      9  C   UNL     1       7.683  -5.177  -9.686  1.00  0.00     0.094 A 
ATOM     10  C   UNL     1       8.404  -6.352  -9.457  1.00  0.00     0.146 A 
ATOM     11  O   UNL     1       9.109  -6.882 -10.450  1.00  0.00    -0.452 OA
ENDROOT
BRANCH   1  12
ATOM     12  C   UNL     1      10.580  -8.476 -11.504  1.00  0.00     0.025 A 
ATOM     13  C   UNL     1      11.986  -8.435 -11.545  1.00  0.00     0.016 A 
ATOM     14  C   UNL     1      12.673  -8.874 -12.680  1.00  0.00     0.051 A 
ATOM     15  C   UNL     1      11.967  -9.346 -13.794  1.00  0.00     0.157 A 
ATOM     16  C   UNL     1       9.878  -8.932 -12.632  1.00  0.00     0.062 A 
ATOM     17  C   UNL     1      10.567  -9.372 -13.771  1.00  0.00     0.158 A 
BRANCH  15  18
ATOM     18  O   UNL     1      12.649  -9.786 -14.927  1.00  0.00    -0.504 OA
ATOM     19  H   UNL     1      13.659  -9.745 -14.986  1.00  0.00     0.293 HD
ENDBRANCH  15  18
BRANCH  17  20
ATOM     20  O   UNL     1       9.867  -9.836 -14.884  1.00  0.00    -0.504 OA
ATOM     21  H   UNL     1      10.123  -9.560 -15.824  1.00  0.00     0.293 HD
ENDBRANCH  17  20
ENDBRANCH   1  12
BRANCH   2  22
ATOM     22  O   UNL     1      10.542  -9.885  -8.967  1.00  0.00    -0.502 OA
ATOM     23  H   UNL     1      10.325 -10.700  -9.527  1.00  0.00     0.293 HD
ENDBRANCH   2  22
BRANCH   6  24
ATOM     24  O   UNL     1       7.577  -6.940  -5.871  1.00  0.00    -0.507 OA
ATOM     25  H   UNL     1       7.904  -7.883  -5.698  1.00  0.00     0.293 HD
ENDBRANCH   6  24
BRANCH   8  26
ATOM     26  O   UNL     1       6.216  -3.423  -8.880  1.00  0.00    -0.508 OA
ATOM     27  H   UNL     1       5.207  -3.395  -8.790  1.00  0.00     0.293 HD
ENDBRANCH   8  26
TORSDOF 6
ENDMDL
MODEL 7
REMARK VINA RESULT:    -5.767      9.400     11.211
REMARK INTER + INTRA:          -7.217
REMARK INTER:                  -6.918
REMARK INTRA:                  -0.299
REMARK UNBOUND:                -0.270
REMARK SMILES O=c1c(O)c(-c2ccc(O)c(O)c2)oc2cc(O)cc(O)c12
REMARK SMILES IDX 5 1 3 2 2 3 1 4 22 5 20 6 19 7 17 8 16 9 15 10 14 11 6 12
REMARK SMILES IDX 7 13 8 14 9 15 13 16 11 17 10 18 12 20 4 22 21 24 18 26
REMARK H PARENT 10 19 12 21 4 23 21 25 18 27
REMARK Flexibility Score: inf
ROOT
ATOM      1  C   UNL     1      18.090  -2.446  -8.975  1.00  0.00     0.180 A 
ATOM      2  C   UNL     1      17.355  -1.244  -8.995  1.00  0.00     0.208 A 
ATOM      3  C   UNL     1      16.301  -1.109  -9.911  1.00  0.00     0.238 A 
ATOM      4  O   UNL     1      15.643  -0.034  -9.945  1.00  0.00    -0.285 OA
ATOM      5  C   UNL     1      15.986  -2.179 -10.774  1.00  0.00     0.111 A 
ATOM      6  C   UNL     1      14.936  -2.125 -11.723  1.00  0.00     0.134 A 
ATOM      7  C   UNL     1      14.678  -3.236 -12.540  1.00  0.00     0.093 A 
ATOM      8  C   UNL     1      15.447  -4.396 -12.426  1.00  0.00     0.123 A 
ATOM      9  C   UNL     1      16.486  -4.455 -11.491  1.00  0.00     0.094 A 
ATOM     10  C   UNL     1      16.759  -3.358 -10.669  1.00  0.00     0.146 A 
ATOM     11  O   UNL     1      17.754  -3.439  -9.794  1.00  0.00    -0.452 OA
ENDROOT
BRANCH   1  12
ATOM     12  C   UNL     1      19.228  -2.657  -8.052  1.00  0.00     0.025 A 
ATOM     13  C   UNL     1      19.024  -3.019  -6.708  1.00  0.00     0.016 A 
ATOM     14  C   UNL     1      20.114  -3.191  -5.850  1.00  0.00     0.051 A 
ATOM     15  C   UNL     1      21.419  -2.990  -6.316  1.00  0.00     0.157 A 
ATOM     16  C   UNL     1      20.538  -2.438  -8.509  1.00  0.00     0.062 A 
ATOM     17  C   UNL     1      21.631  -2.610  -7.648  1.00  0.00     0.158 A 
BRANCH  15  18
ATOM     18  O   UNL     1      22.507  -3.162  -5.463  1.00  0.00    -0.504 OA
ATOM     19  H   UNL     1      23.440  -2.869  -5.729  1.00  0.00     0.293 HD
ENDBRANCH  15  18
BRANCH  17  20
ATOM     20  O   UNL     1      22.931  -2.405  -8.108  1.00  0.00    -0.504 OA
ATOM     21  H   UNL     1      23.119  -1.852  -8.936  1.00  0.00     0.293 HD
ENDBRANCH  17  20
ENDBRANCH   1  12
BRANCH   2  22
ATOM     22  O   UNL     1      17.656  -0.218  -8.096  1.00  0.00    -0.502 OA
ATOM     23  H   UNL     1      18.590   0.163  -8.000  1.00  0.00     0.293 HD
ENDBRANCH   2  22
BRANCH   6  24
ATOM     24  O   UNL     1      14.148  -0.980 -11.859  1.00  0.00    -0.507 OA
ATOM     25  H   UNL     1      14.557  -0.054 -11.901  1.00  0.00     0.293 HD
ENDBRANCH   6  24
BRANCH   8  26
ATOM     26  O   UNL     1      15.171  -5.485 -13.249  1.00  0.00    -0.508 OA
ATOM     27  H   UNL     1      14.334  -6.044 -13.126  1.00  0.00     0.293 HD
ENDBRANCH   8  26
TORSDOF 6
ENDMDL
MODEL 8
REMARK VINA RESULT:    -5.730     11.264     13.813
REMARK INTER + INTRA:          -7.172
REMARK INTER:                  -6.850
REMARK INTRA:                  -0.322
REMARK UNBOUND:                -0.270
REMARK SMILES O=c1c(O)c(-c2ccc(O)c(O)c2)oc2cc(O)cc(O)c12
REMARK SMILES IDX 5 1 3 2 2 3 1 4 22 5 20 6 19 7 17 8 16 9 15 10 14 11 6 12
REMARK SMILES IDX 7 13 8 14 9 15 13 16 11 17 10 18 12 20 4 22 21 24 18 26
REMARK H PARENT 10 19 12 21 4 23 21 25 18 27
REMARK Flexibility Score: inf
ROOT
ATOM      1  C   UNL     1      18.029  -0.285 -15.536  1.00  0.00     0.180 A 
ATOM      2  C   UNL     1      19.112   0.472 -15.048  1.00  0.00     0.208 A 
ATOM      3  C   UNL     1      20.158   0.802 -15.924  1.00  0.00     0.238 A 
ATOM      4  O   UNL     1      21.138   1.469 -15.495  1.00  0.00    -0.285 OA
ATOM      5  C   UNL     1      20.095   0.391 -17.271  1.00  0.00     0.111 A 
ATOM      6  C   UNL     1      21.105   0.687 -18.219  1.00  0.00     0.134 A 
ATOM      7  C   UNL     1      20.964   0.250 -19.545  1.00  0.00     0.093 A 
ATOM      8  C   UNL     1      19.837  -0.473 -19.941  1.00  0.00     0.123 A 
ATOM      9  C   UNL     1      18.836  -0.769 -19.009  1.00  0.00     0.094 A 
ATOM     10  C   UNL     1      18.958  -0.344 -17.683  1.00  0.00     0.146 A 
ATOM     11  O   UNL     1      17.996  -0.642 -16.817  1.00  0.00    -0.452 OA
ENDROOT
BRANCH   1  12
ATOM     12  C   UNL     1      16.898  -0.689 -14.671  1.00  0.00     0.025 A 
ATOM     13  C   UNL     1      15.797   0.160 -14.459  1.00  0.00     0.016 A 
ATOM     14  C   UNL     1      14.752  -0.235 -13.619  1.00  0.00     0.051 A 
ATOM     15  C   UNL     1      14.798  -1.475 -12.968  1.00  0.00     0.157 A 
ATOM     16  C   UNL     1      16.948  -1.923 -14.000  1.00  0.00     0.062 A 
ATOM     17  C   UNL     1      15.900  -2.319 -13.158  1.00  0.00     0.158 A 
BRANCH  15  18
ATOM     18  O   UNL     1      13.757  -1.872 -12.132  1.00  0.00    -0.504 OA
ATOM     19  H   UNL     1      13.822  -2.709 -11.565  1.00  0.00     0.293 HD
ENDBRANCH  15  18
BRANCH  17  20
ATOM     20  O   UNL     1      15.946  -3.549 -12.504  1.00  0.00    -0.504 OA
ATOM     21  H   UNL     1      15.762  -4.417 -12.994  1.00  0.00     0.293 HD
ENDBRANCH  17  20
ENDBRANCH   1  12
BRANCH   2  22
ATOM     22  O   UNL     1      19.127   0.908 -13.721  1.00  0.00    -0.502 OA
ATOM     23  H   UNL     1      19.987   1.046 -13.205  1.00  0.00     0.293 HD
ENDBRANCH   2  22
BRANCH   6  24
ATOM     24  O   UNL     1      22.242   1.409 -17.855  1.00  0.00    -0.507 OA
ATOM     25  H   UNL     1      23.073   0.951 -17.500  1.00  0.00     0.293 HD
ENDBRANCH   6  24
BRANCH   8  26
ATOM     26  O   UNL     1      19.721  -0.895 -21.263  1.00  0.00    -0.508 OA
ATOM     27  H   UNL     1      19.163  -1.703 -21.515  1.00  0.00     0.293 HD
ENDBRANCH   8  26
TORSDOF 6
ENDMDL
MODEL 9
REMARK VINA RESULT:    -5.642     13.156     15.137
REMARK INTER + INTRA:          -7.066
REMARK INTER:                  -6.900
REMARK INTRA:                  -0.166
REMARK UNBOUND:                -0.270
REMARK SMILES O=c1c(O)c(-c2ccc(O)c(O)c2)oc2cc(O)cc(O)c12
REMARK SMILES IDX 5 1 3 2 2 3 1 4 22 5 20 6 19 7 17 8 16 9 15 10 14 11 6 12
REMARK SMILES IDX 7 13 8 14 9 15 13 16 11 17 10 18 12 20 4 22 21 24 18 26
REMARK H PARENT 10 19 12 21 4 23 21 25 18 27
REMARK Flexibility Score: inf
ROOT
ATOM      1  C   UNL     1       4.872   5.747 -10.414  1.00  0.00     0.180 A 
ATOM      2  C   UNL     1       4.860   7.154 -10.349  1.00  0.00     0.208 A 
ATOM      3  C   UNL     1       4.668   7.886 -11.530  1.00  0.00     0.238 A 
ATOM      4  O   UNL     1       4.666   9.146 -11.486  1.00  0.00    -0.285 OA
ATOM      5  C   UNL     1       4.473   7.204 -12.749  1.00  0.00     0.111 A 
ATOM      6  C   UNL     1       4.268   7.868 -13.983  1.00  0.00     0.134 A 
ATOM      7  C   UNL     1       4.071   7.118 -15.152  1.00  0.00     0.093 A 
ATOM      8  C   UNL     1       4.074   5.722 -15.112  1.00  0.00     0.123 A 
ATOM      9  C   UNL     1       4.276   5.061 -13.895  1.00  0.00     0.094 A 
ATOM     10  C   UNL     1       4.475   5.790 -12.720  1.00  0.00     0.146 A 
ATOM     11  O   UNL     1       4.670   5.138 -11.580  1.00  0.00    -0.452 OA
ENDROOT
BRANCH   1  12
ATOM     12  C   UNL     1       5.088   4.905  -9.216  1.00  0.00     0.025 A 
ATOM     13  C   UNL     1       4.167   4.893  -8.153  1.00  0.00     0.016 A 
ATOM     14  C   UNL     1       4.404   4.107  -7.022  1.00  0.00     0.051 A 
ATOM     15  C   UNL     1       5.569   3.335  -6.929  1.00  0.00     0.157 A 
ATOM     16  C   UNL     1       6.264   4.144  -9.109  1.00  0.00     0.062 A 
ATOM     17  C   UNL     1       6.502   3.356  -7.974  1.00  0.00     0.158 A 
BRANCH  15  18
ATOM     18  O   UNL     1       5.808   2.549  -5.804  1.00  0.00    -0.504 OA
ATOM     19  H   UNL     1       6.728   2.488  -5.385  1.00  0.00     0.293 HD
ENDBRANCH  15  18
BRANCH  17  20
ATOM     20  O   UNL     1       7.664   2.591  -7.877  1.00  0.00    -0.504 OA
ATOM     21  H   UNL     1       7.712   1.774  -7.280  1.00  0.00     0.293 HD
ENDBRANCH  17  20
ENDBRANCH   1  12
BRANCH   2  22
ATOM     22  O   UNL     1       5.007   7.804  -9.121  1.00  0.00    -0.502 OA
ATOM     23  H   UNL     1       5.913   7.969  -8.700  1.00  0.00     0.293 HD
ENDBRANCH   2  22
BRANCH   6  24
ATOM     24  O   UNL     1       4.258   9.262 -14.057  1.00  0.00    -0.507 OA
ATOM     25  H   UNL     1       4.250   9.748 -14.945  1.00  0.00     0.293 HD
ENDBRANCH   6  24
BRANCH   8  26
ATOM     26  O   UNL     1       3.875   5.000 -16.286  1.00  0.00    -0.508 OA
ATOM     27  H   UNL     1       3.068   5.162 -16.878  1.00  0.00     0.293 HD
ENDBRANCH   8  26
TORSDOF 6
ENDMDL
