MODEL 1
REMARK VINA RESULT:    -6.764      0.000      0.000
REMARK INTER + INTRA:          -8.236
REMARK INTER:                  -7.951
REMARK INTRA:                  -0.286
REMARK UNBOUND:                -0.286
REMARK SMILES O=c1cc(-c2ccc(O)c(O)c2)oc2cc(O)cc(O)c12
REMARK SMILES IDX 4 1 3 2 2 3 1 4 21 5 19 6 18 7 16 8 15 9 14 10 13 11 5 12
REMARK SMILES IDX 6 13 7 14 8 15 12 16 10 17 9 18 11 20 20 22 17 24
REMARK H PARENT 9 19 11 21 20 23 17 25
REMARK Flexibility Score: inf
ROOT
ATOM      1  C   UNL     1      48.347  -3.537   0.390  1.00  0.00     0.138 A 
ATOM      2  C   UNL     1      48.925  -4.619   1.069  1.00  0.00     0.100 A 
ATOM      3  C   UNL     1      50.262  -4.552   1.463  1.00  0.00     0.197 A 
ATOM      4  O   UNL     1      50.735  -5.512   2.125  1.00  0.00    -0.289 OA
ATOM      5  C   UNL     1      51.031  -3.407   1.148  1.00  0.00     0.107 A 
ATOM      6  C   UNL     1      52.414  -3.245   1.464  1.00  0.00     0.134 A 
ATOM      7  C   UNL     1      53.041  -2.020   1.205  1.00  0.00     0.093 A 
ATOM      8  C   UNL     1      52.355  -0.975   0.588  1.00  0.00     0.123 A 
ATOM      9  C   UNL     1      51.018  -1.141   0.226  1.00  0.00     0.094 A 
ATOM     10  C   UNL     1      50.354  -2.339   0.503  1.00  0.00     0.146 A 
ATOM     11  O   UNL     1      49.076  -2.452   0.154  1.00  0.00    -0.456 OA
ENDROOT
BRANCH   1  12
ATOM     12  C   UNL     1      46.930  -3.557  -0.054  1.00  0.00     0.021 A 
ATOM     13  C   UNL     1      46.418  -4.599  -0.849  1.00  0.00     0.016 A 
ATOM     14  C   UNL     1      45.082  -4.586  -1.260  1.00  0.00     0.051 A 
ATOM     15  C   UNL     1      44.239  -3.531  -0.893  1.00  0.00     0.157 A 
ATOM     16  C   UNL     1      46.079  -2.494   0.300  1.00  0.00     0.062 A 
ATOM     17  C   UNL     1      44.742  -2.479  -0.109  1.00  0.00     0.158 A 
BRANCH  15  18
ATOM     18  O   UNL     1      42.906  -3.522  -1.304  1.00  0.00    -0.504 OA
ATOM     19  H   UNL     1      42.439  -2.664  -1.570  1.00  0.00     0.293 HD
ENDBRANCH  15  18
BRANCH  17  20
ATOM     20  O   UNL     1      43.928  -1.411   0.270  1.00  0.00    -0.504 OA
ATOM     21  H   UNL     1      43.003  -1.550   0.655  1.00  0.00     0.293 HD
ENDBRANCH  17  20
ENDBRANCH   1  12
BRANCH   6  22
ATOM     22  O   UNL     1      53.215  -4.255   2.004  1.00  0.00    -0.507 OA
ATOM     23  H   UNL     1      53.386  -4.391   2.989  1.00  0.00     0.293 HD
ENDBRANCH   6  22
BRANCH   8  24
ATOM     24  O   UNL     1      53.017   0.225   0.333  1.00  0.00    -0.508 OA
ATOM     25  H   UNL     1      53.211   0.532  -0.613  1.00  0.00     0.293 HD
ENDBRANCH   8  24
TORSDOF 5
ENDMDL
MODEL 2
REMARK VINA RESULT:    -6.679      2.769      4.937
REMARK INTER + INTRA:          -8.136
REMARK INTER:                  -7.821
REMARK INTRA:                  -0.316
REMARK UNBOUND:                -0.286
REMARK SMILES O=c1cc(-c2ccc(O)c(O)c2)oc2cc(O)cc(O)c12
REMARK SMILES IDX 4 1 3 2 2 3 1 4 21 5 19 6 18 7 16 8 15 9 14 10 13 11 5 12
REMARK SMILES IDX 6 13 7 14 8 15 12 16 10 17 9 18 11 20 20 22 17 24
REMARK H PARENT 9 19 11 21 20 23 17 25
REMARK Flexibility Score: inf
ROOT
ATOM      1  C   UNL     1      44.862  -1.922   0.189  1.00  0.00     0.138 A 
ATOM      2  C   UNL     1      44.489  -3.008  -0.615  1.00  0.00     0.100 A 
ATOM      3  C   UNL     1      45.429  -3.990  -0.928  1.00  0.00     0.197 A 
ATOM      4  O   UNL     1      45.048  -4.984  -1.600  1.00  0.00    -0.289 OA
ATOM      5  C   UNL     1      46.758  -3.868  -0.456  1.00  0.00     0.107 A 
ATOM      6  C   UNL     1      47.811  -4.788  -0.745  1.00  0.00     0.134 A 
ATOM      7  C   UNL     1      49.056  -4.625  -0.128  1.00  0.00     0.093 A 
ATOM      8  C   UNL     1      49.307  -3.545   0.719  1.00  0.00     0.123 A 
ATOM      9  C   UNL     1      48.301  -2.611   0.966  1.00  0.00     0.094 A 
ATOM     10  C   UNL     1      47.036  -2.764   0.393  1.00  0.00     0.146 A 
ATOM     11  O   UNL     1      46.101  -1.859   0.664  1.00  0.00    -0.456 OA
ENDROOT
BRANCH   1  12
ATOM     12  C   UNL     1      43.902  -0.848   0.551  1.00  0.00     0.021 A 
ATOM     13  C   UNL     1      42.521  -0.980   0.315  1.00  0.00     0.016 A 
ATOM     14  C   UNL     1      41.642   0.051   0.657  1.00  0.00     0.051 A 
ATOM     15  C   UNL     1      42.126   1.233   1.230  1.00  0.00     0.157 A 
ATOM     16  C   UNL     1      44.382   0.348   1.116  1.00  0.00     0.062 A 
ATOM     17  C   UNL     1      43.505   1.382   1.459  1.00  0.00     0.158 A 
BRANCH  15  18
ATOM     18  O   UNL     1      41.246   2.260   1.571  1.00  0.00    -0.504 OA
ATOM     19  H   UNL     1      41.330   3.186   1.169  1.00  0.00     0.293 HD
ENDBRANCH  15  18
BRANCH  17  20
ATOM     20  O   UNL     1      44.019   2.548   2.025  1.00  0.00    -0.504 OA
ATOM     21  H   UNL     1      43.895   2.771   3.005  1.00  0.00     0.293 HD
ENDBRANCH  17  20
ENDBRANCH   1  12
BRANCH   6  22
ATOM     22  O   UNL     1      47.693  -5.852  -1.643  1.00  0.00    -0.507 OA
ATOM     23  H   UNL     1      47.043  -6.618  -1.548  1.00  0.00     0.293 HD
ENDBRANCH   6  22
BRANCH   8  24
ATOM     24  O   UNL     1      50.564  -3.409   1.304  1.00  0.00    -0.508 OA
ATOM     25  H   UNL     1      50.851  -2.543   1.747  1.00  0.00     0.293 HD
ENDBRANCH   8  24
TORSDOF 5
ENDMDL
MODEL 3
REMARK VINA RESULT:    -6.595      2.769      7.753
REMARK INTER + INTRA:          -8.038
REMARK INTER:                  -7.747
REMARK INTRA:                  -0.290
REMARK UNBOUND:                -0.286
REMARK SMILES O=c1cc(-c2ccc(O)c(O)c2)oc2cc(O)cc(O)c12
REMARK SMILES IDX 4 1 3 2 2 3 1 4 21 5 19 6 18 7 16 8 15 9 14 10 13 11 5 12
REMARK SMILES IDX 6 13 7 14 8 15 12 16 10 17 9 18 11 20 20 22 17 24
REMARK H PARENT 9 19 11 21 20 23 17 25
REMARK Flexibility Score: inf
ROOT
ATOM      1  C   UNL     1      44.931  -2.545   0.149  1.00  0.00     0.138 A 
ATOM      2  C   UNL     1      43.769  -3.257  -0.183  1.00  0.00     0.100 A 
ATOM      3  C   UNL     1      42.528  -2.623  -0.111  1.00  0.00     0.197 A 
ATOM      4  O   UNL     1      41.510  -3.268  -0.474  1.00  0.00    -0.289 OA
ATOM      5  C   UNL     1      42.449  -1.279   0.326  1.00  0.00     0.107 A 
ATOM      6  C   UNL     1      41.234  -0.544   0.476  1.00  0.00     0.134 A 
ATOM      7  C   UNL     1      41.288   0.816   0.804  1.00  0.00     0.093 A 
ATOM      8  C   UNL     1      42.505   1.452   1.046  1.00  0.00     0.123 A 
ATOM      9  C   UNL     1      43.696   0.730   0.953  1.00  0.00     0.094 A 
ATOM     10  C   UNL     1      43.678  -0.620   0.594  1.00  0.00     0.146 A 
ATOM     11  O   UNL     1      44.834  -1.269   0.504  1.00  0.00    -0.456 OA
ENDROOT
BRANCH   1  12
ATOM     12  C   UNL     1      46.277  -3.171   0.092  1.00  0.00     0.021 A 
ATOM     13  C   UNL     1      47.376  -2.626   0.780  1.00  0.00     0.016 A 
ATOM     14  C   UNL     1      48.634  -3.231   0.700  1.00  0.00     0.051 A 
ATOM     15  C   UNL     1      48.816  -4.383  -0.074  1.00  0.00     0.157 A 
ATOM     16  C   UNL     1      46.472  -4.322  -0.694  1.00  0.00     0.062 A 
ATOM     17  C   UNL     1      47.729  -4.930  -0.776  1.00  0.00     0.158 A 
BRANCH  15  18
ATOM     18  O   UNL     1      50.072  -4.985  -0.151  1.00  0.00    -0.504 OA
ATOM     19  H   UNL     1      50.868  -4.502  -0.550  1.00  0.00     0.293 HD
ENDBRANCH  15  18
BRANCH  17  20
ATOM     20  O   UNL     1      47.880  -6.074  -1.559  1.00  0.00    -0.504 OA
ATOM     21  H   UNL     1      47.783  -6.053  -2.567  1.00  0.00     0.293 HD
ENDBRANCH  17  20
ENDBRANCH   1  12
BRANCH   6  22
ATOM     22  O   UNL     1      39.961  -1.105   0.342  1.00  0.00    -0.507 OA
ATOM     23  H   UNL     1      39.426  -1.510   1.095  1.00  0.00     0.293 HD
ENDBRANCH   6  22
BRANCH   8  24
ATOM     24  O   UNL     1      42.518   2.804   1.384  1.00  0.00    -0.508 OA
ATOM     25  H   UNL     1      42.794   3.515   0.715  1.00  0.00     0.293 HD
ENDBRANCH   8  24
TORSDOF 5
ENDMDL
MODEL 4
REMARK VINA RESULT:    -6.395      6.647      9.687
REMARK INTER + INTRA:          -7.802
REMARK INTER:                  -7.523
REMARK INTRA:                  -0.279
REMARK UNBOUND:                -0.286
REMARK SMILES O=c1cc(-c2ccc(O)c(O)c2)oc2cc(O)cc(O)c12
REMARK SMILES IDX 4 1 3 2 2 3 1 4 21 5 19 6 18 7 16 8 15 9 14 10 13 11 5 12
REMARK SMILES IDX 6 13 7 14 8 15 12 16 10 17 9 18 11 20 20 22 17 24
REMARK H PARENT 9 19 11 21 20 23 17 25
REMARK Flexibility Score: inf
ROOT
ATOM      1  C   UNL     1      55.136   0.509  -4.796  1.00  0.00     0.138 A 
ATOM      2  C   UNL     1      56.064  -0.494  -5.110  1.00  0.00     0.100 A 
ATOM      3  C   UNL     1      56.332  -1.500  -4.181  1.00  0.00     0.197 A 
ATOM      4  O   UNL     1      57.124  -2.420  -4.515  1.00  0.00    -0.289 OA
ATOM      5  C   UNL     1      55.690  -1.483  -2.920  1.00  0.00     0.107 A 
ATOM      6  C   UNL     1      55.916  -2.434  -1.880  1.00  0.00     0.134 A 
ATOM      7  C   UNL     1      55.137  -2.383  -0.718  1.00  0.00     0.093 A 
ATOM      8  C   UNL     1      54.183  -1.383  -0.532  1.00  0.00     0.123 A 
ATOM      9  C   UNL     1      53.991  -0.416  -1.520  1.00  0.00     0.094 A 
ATOM     10  C   UNL     1      54.729  -0.460  -2.705  1.00  0.00     0.146 A 
ATOM     11  O   UNL     1      54.506   0.472  -3.627  1.00  0.00    -0.456 OA
ENDROOT
BRANCH   1  12
ATOM     12  C   UNL     1      54.814   1.604  -5.747  1.00  0.00     0.021 A 
ATOM     13  C   UNL     1      54.329   1.341  -7.042  1.00  0.00     0.016 A 
ATOM     14  C   UNL     1      54.043   2.391  -7.919  1.00  0.00     0.051 A 
ATOM     15  C   UNL     1      54.245   3.718  -7.522  1.00  0.00     0.157 A 
ATOM     16  C   UNL     1      55.025   2.940  -5.361  1.00  0.00     0.062 A 
ATOM     17  C   UNL     1      54.740   3.993  -6.236  1.00  0.00     0.158 A 
BRANCH  15  18
ATOM     18  O   UNL     1      53.957   4.764  -8.400  1.00  0.00    -0.504 OA
ATOM     19  H   UNL     1      53.032   4.885  -8.795  1.00  0.00     0.293 HD
ENDBRANCH  15  18
BRANCH  17  20
ATOM     20  O   UNL     1      54.954   5.305  -5.813  1.00  0.00    -0.504 OA
ATOM     21  H   UNL     1      54.549   5.668  -4.959  1.00  0.00     0.293 HD
ENDBRANCH  17  20
ENDBRANCH   1  12
BRANCH   6  22
ATOM     22  O   UNL     1      56.903  -3.423  -1.927  1.00  0.00    -0.507 OA
ATOM     23  H   UNL     1      57.895  -3.246  -1.989  1.00  0.00     0.293 HD
ENDBRANCH   6  22
BRANCH   8  24
ATOM     24  O   UNL     1      53.436  -1.357   0.644  1.00  0.00    -0.508 OA
ATOM     25  H   UNL     1      53.521  -2.087   1.342  1.00  0.00     0.293 HD
ENDBRANCH   8  24
TORSDOF 5
ENDMDL
MODEL 5
REMARK VINA RESULT:    -6.168     14.991     17.409
REMARK INTER + INTRA:          -7.536
REMARK INTER:                  -7.252
REMARK INTRA:                  -0.284
REMARK UNBOUND:                -0.286
REMARK SMILES O=c1cc(-c2ccc(O)c(O)c2)oc2cc(O)cc(O)c12
REMARK SMILES IDX 4 1 3 2 2 3 1 4 21 5 19 6 18 7 16 8 15 9 14 10 13 11 5 12
REMARK SMILES IDX 6 13 7 14 8 15 12 16 10 17 9 18 11 20 20 22 17 24
REMARK H PARENT 9 19 11 21 20 23 17 25
REMARK Flexibility Score: inf
ROOT
ATOM      1  C   UNL     1      41.438   9.959  -8.288  1.00  0.00     0.138 A 
ATOM      2  C   UNL     1      41.615  10.565  -9.540  1.00  0.00     0.100 A 
ATOM      3  C   UNL     1      42.393   9.931 -10.509  1.00  0.00     0.197 A 
ATOM      4  O   UNL     1      42.483  10.470 -11.643  1.00  0.00    -0.289 OA
ATOM      5  C   UNL     1      43.021   8.699 -10.212  1.00  0.00     0.107 A 
ATOM      6  C   UNL     1      43.869   7.982 -11.109  1.00  0.00     0.134 A 
ATOM      7  C   UNL     1      44.342   6.715 -10.746  1.00  0.00     0.093 A 
ATOM      8  C   UNL     1      44.048   6.165  -9.499  1.00  0.00     0.123 A 
ATOM      9  C   UNL     1      43.263   6.881  -8.593  1.00  0.00     0.094 A 
ATOM     10  C   UNL     1      42.748   8.132  -8.939  1.00  0.00     0.146 A 
ATOM     11  O   UNL     1      41.995   8.776  -8.053  1.00  0.00    -0.456 OA
ENDROOT
BRANCH   1  12
ATOM     12  C   UNL     1      40.623  10.591  -7.219  1.00  0.00     0.021 A 
ATOM     13  C   UNL     1      40.896  11.889  -6.750  1.00  0.00     0.016 A 
ATOM     14  C   UNL     1      40.117  12.454  -5.736  1.00  0.00     0.051 A 
ATOM     15  C   UNL     1      39.061  11.732  -5.169  1.00  0.00     0.157 A 
ATOM     16  C   UNL     1      39.567   9.867  -6.636  1.00  0.00     0.062 A 
ATOM     17  C   UNL     1      38.786  10.430  -5.621  1.00  0.00     0.158 A 
BRANCH  15  18
ATOM     18  O   UNL     1      38.285  12.300  -4.159  1.00  0.00    -0.504 OA
ATOM     19  H   UNL     1      37.916  13.240  -4.239  1.00  0.00     0.293 HD
ENDBRANCH  15  18
BRANCH  17  20
ATOM     20  O   UNL     1      37.742   9.683  -5.074  1.00  0.00    -0.504 OA
ATOM     21  H   UNL     1      37.357   9.886  -4.161  1.00  0.00     0.293 HD
ENDBRANCH  17  20
ENDBRANCH   1  12
BRANCH   6  22
ATOM     22  O   UNL     1      44.295   8.477 -12.345  1.00  0.00    -0.507 OA
ATOM     23  H   UNL     1      45.253   8.676 -12.588  1.00  0.00     0.293 HD
ENDBRANCH   6  22
BRANCH   8  24
ATOM     24  O   UNL     1      44.548   4.907  -9.168  1.00  0.00    -0.508 OA
ATOM     25  H   UNL     1      44.074   4.057  -9.451  1.00  0.00     0.293 HD
ENDBRANCH   8  24
TORSDOF 5
ENDMDL
MODEL 6
REMARK VINA RESULT:    -6.116      4.672      8.206
REMARK INTER + INTRA:          -7.474
REMARK INTER:                  -7.190
REMARK INTRA:                  -0.285
REMARK UNBOUND:                -0.286
REMARK SMILES O=c1cc(-c2ccc(O)c(O)c2)oc2cc(O)cc(O)c12
REMARK SMILES IDX 4 1 3 2 2 3 1 4 21 5 19 6 18 7 16 8 15 9 14 10 13 11 5 12
REMARK SMILES IDX 6 13 7 14 8 15 12 16 10 17 9 18 11 20 20 22 17 24
REMARK H PARENT 9 19 11 21 20 23 17 25
REMARK Flexibility Score: inf
ROOT
ATOM      1  C   UNL     1      42.420   0.571   0.546  1.00  0.00     0.138 A 
ATOM      2  C   UNL     1      41.438  -0.365   0.193  1.00  0.00     0.100 A 
ATOM      3  C   UNL     1      41.811  -1.675  -0.109  1.00  0.00     0.197 A 
ATOM      4  O   UNL     1      40.901  -2.508  -0.362  1.00  0.00    -0.289 OA
ATOM      5  C   UNL     1      43.178  -2.040  -0.087  1.00  0.00     0.107 A 
ATOM      6  C   UNL     1      43.678  -3.337  -0.415  1.00  0.00     0.134 A 
ATOM      7  C   UNL     1      45.040  -3.613  -0.245  1.00  0.00     0.093 A 
ATOM      8  C   UNL     1      45.928  -2.627   0.183  1.00  0.00     0.123 A 
ATOM      9  C   UNL     1      45.458  -1.342   0.457  1.00  0.00     0.094 A 
ATOM     10  C   UNL     1      44.100  -1.044   0.330  1.00  0.00     0.146 A 
ATOM     11  O   UNL     1      43.690   0.189   0.612  1.00  0.00    -0.456 OA
ENDROOT
BRANCH   1  12
ATOM     12  C   UNL     1      42.079   1.979   0.875  1.00  0.00     0.021 A 
ATOM     13  C   UNL     1      42.810   2.714   1.827  1.00  0.00     0.016 A 
ATOM     14  C   UNL     1      42.460   4.034   2.123  1.00  0.00     0.051 A 
ATOM     15  C   UNL     1      41.372   4.639   1.484  1.00  0.00     0.157 A 
ATOM     16  C   UNL     1      40.979   2.590   0.246  1.00  0.00     0.062 A 
ATOM     17  C   UNL     1      40.626   3.911   0.541  1.00  0.00     0.158 A 
BRANCH  15  18
ATOM     18  O   UNL     1      41.026   5.957   1.782  1.00  0.00    -0.504 OA
ATOM     19  H   UNL     1      41.648   6.728   1.571  1.00  0.00     0.293 HD
ENDBRANCH  15  18
BRANCH  17  20
ATOM     20  O   UNL     1      39.534   4.483  -0.111  1.00  0.00    -0.504 OA
ATOM     21  H   UNL     1      39.245   5.438   0.061  1.00  0.00     0.293 HD
ENDBRANCH  17  20
ENDBRANCH   1  12
BRANCH   6  22
ATOM     22  O   UNL     1      42.891  -4.369  -0.933  1.00  0.00    -0.507 OA
ATOM     23  H   UNL     1      42.432  -5.077  -0.381  1.00  0.00     0.293 HD
ENDBRANCH   6  22
BRANCH   8  24
ATOM     24  O   UNL     1      47.279  -2.936   0.328  1.00  0.00    -0.508 OA
ATOM     25  H   UNL     1      47.857  -3.174  -0.471  1.00  0.00     0.293 HD
ENDBRANCH   8  24
TORSDOF 5
ENDMDL
MODEL 7
REMARK VINA RESULT:    -6.073      3.809      8.180
REMARK INTER + INTRA:          -7.424
REMARK INTER:                  -7.110
REMARK INTRA:                  -0.314
REMARK UNBOUND:                -0.286
REMARK SMILES O=c1cc(-c2ccc(O)c(O)c2)oc2cc(O)cc(O)c12
REMARK SMILES IDX 4 1 3 2 2 3 1 4 21 5 19 6 18 7 16 8 15 9 14 10 13 11 5 12
REMARK SMILES IDX 6 13 7 14 8 15 12 16 10 17 9 18 11 20 20 22 17 24
REMARK H PARENT 9 19 11 21 20 23 17 25
REMARK Flexibility Score: inf
ROOT
ATOM      1  C   UNL     1      43.396  -1.689   0.273  1.00  0.00     0.138 A 
ATOM      2  C   UNL     1      42.021  -1.962   0.258  1.00  0.00     0.100 A 
ATOM      3  C   UNL     1      41.118  -0.977   0.660  1.00  0.00     0.197 A 
ATOM      4  O   UNL     1      39.888  -1.230   0.577  1.00  0.00    -0.289 OA
ATOM      5  C   UNL     1      41.597   0.277   1.107  1.00  0.00     0.107 A 
ATOM      6  C   UNL     1      40.771   1.342   1.578  1.00  0.00     0.134 A 
ATOM      7  C   UNL     1      41.350   2.579   1.885  1.00  0.00     0.093 A 
ATOM      8  C   UNL     1      42.729   2.772   1.797  1.00  0.00     0.123 A 
ATOM      9  C   UNL     1      43.551   1.721   1.389  1.00  0.00     0.094 A 
ATOM     10  C   UNL     1      43.000   0.485   1.042  1.00  0.00     0.146 A 
ATOM     11  O   UNL     1      43.817  -0.486   0.645  1.00  0.00    -0.456 OA
ENDROOT
BRANCH   1  12
ATOM     12  C   UNL     1      44.400  -2.701  -0.143  1.00  0.00     0.021 A 
ATOM     13  C   UNL     1      44.038  -3.843  -0.882  1.00  0.00     0.016 A 
ATOM     14  C   UNL     1      45.003  -4.784  -1.251  1.00  0.00     0.051 A 
ATOM     15  C   UNL     1      46.342  -4.606  -0.881  1.00  0.00     0.157 A 
ATOM     16  C   UNL     1      45.746  -2.537   0.235  1.00  0.00     0.062 A 
ATOM     17  C   UNL     1      46.714  -3.477  -0.133  1.00  0.00     0.158 A 
BRANCH  15  18
ATOM     18  O   UNL     1      47.303  -5.547  -1.252  1.00  0.00    -0.504 OA
ATOM     19  H   UNL     1      48.243  -5.271  -1.509  1.00  0.00     0.293 HD
ENDBRANCH  15  18
BRANCH  17  20
ATOM     20  O   UNL     1      48.038  -3.273   0.254  1.00  0.00    -0.504 OA
ATOM     21  H   UNL     1      48.625  -4.030   0.583  1.00  0.00     0.293 HD
ENDBRANCH  17  20
ENDBRANCH   1  12
BRANCH   6  22
ATOM     22  O   UNL     1      39.393   1.229   1.784  1.00  0.00    -0.507 OA
ATOM     23  H   UNL     1      38.832   0.437   1.509  1.00  0.00     0.293 HD
ENDBRANCH   6  22
BRANCH   8  24
ATOM     24  O   UNL     1      43.271   4.013   2.125  1.00  0.00    -0.508 OA
ATOM     25  H   UNL     1      42.725   4.865   2.054  1.00  0.00     0.293 HD
ENDBRANCH   8  24
TORSDOF 5
ENDMDL
MODEL 8
REMARK VINA RESULT:    -6.069      3.361      6.025
REMARK INTER + INTRA:          -7.419
REMARK INTER:                  -7.127
REMARK INTRA:                  -0.292
REMARK UNBOUND:                -0.286
REMARK SMILES O=c1cc(-c2ccc(O)c(O)c2)oc2cc(O)cc(O)c12
REMARK SMILES IDX 4 1 3 2 2 3 1 4 21 5 19 6 18 7 16 8 15 9 14 10 13 11 5 12
REMARK SMILES IDX 6 13 7 14 8 15 12 16 10 17 9 18 11 20 20 22 17 24
REMARK H PARENT 9 19 11 21 20 23 17 25
REMARK Flexibility Score: inf
ROOT
ATOM      1  C   UNL     1      44.080  -0.908   0.459  1.00  0.00     0.138 A 
ATOM      2  C   UNL     1      43.488  -2.008  -0.178  1.00  0.00     0.100 A 
ATOM      3  C   UNL     1      44.236  -3.166  -0.392  1.00  0.00     0.197 A 
ATOM      4  O   UNL     1      43.659  -4.158  -0.910  1.00  0.00    -0.289 OA
ATOM      5  C   UNL     1      45.593  -3.211   0.007  1.00  0.00     0.107 A 
ATOM      6  C   UNL     1      46.463  -4.324  -0.196  1.00  0.00     0.134 A 
ATOM      7  C   UNL     1      47.754  -4.298   0.345  1.00  0.00     0.093 A 
ATOM      8  C   UNL     1      48.227  -3.178   1.029  1.00  0.00     0.123 A 
ATOM      9  C   UNL     1      47.402  -2.063   1.187  1.00  0.00     0.094 A 
ATOM     10  C   UNL     1      46.097  -2.072   0.689  1.00  0.00     0.146 A 
ATOM     11  O   UNL     1      45.339  -0.996   0.872  1.00  0.00    -0.456 OA
ENDROOT
BRANCH   1  12
ATOM     12  C   UNL     1      43.331   0.349   0.710  1.00  0.00     0.021 A 
ATOM     13  C   UNL     1      43.763   1.290   1.663  1.00  0.00     0.016 A 
ATOM     14  C   UNL     1      43.033   2.461   1.885  1.00  0.00     0.051 A 
ATOM     15  C   UNL     1      41.855   2.707   1.169  1.00  0.00     0.157 A 
ATOM     16  C   UNL     1      42.140   0.598   0.003  1.00  0.00     0.062 A 
ATOM     17  C   UNL     1      41.407   1.769   0.224  1.00  0.00     0.158 A 
BRANCH  15  18
ATOM     18  O   UNL     1      41.129   3.876   1.392  1.00  0.00    -0.504 OA
ATOM     19  H   UNL     1      40.690   4.382   0.632  1.00  0.00     0.293 HD
ENDBRANCH  15  18
BRANCH  17  20
ATOM     20  O   UNL     1      40.236   1.983  -0.504  1.00  0.00    -0.504 OA
ATOM     21  H   UNL     1      40.206   2.600  -1.306  1.00  0.00     0.293 HD
ENDBRANCH  17  20
ENDBRANCH   1  12
BRANCH   6  22
ATOM     22  O   UNL     1      46.121  -5.458  -0.938  1.00  0.00    -0.507 OA
ATOM     23  H   UNL     1      46.739  -6.232  -1.129  1.00  0.00     0.293 HD
ENDBRANCH   6  22
BRANCH   8  24
ATOM     24  O   UNL     1      49.523  -3.183   1.541  1.00  0.00    -0.508 OA
ATOM     25  H   UNL     1      49.780  -2.609   2.336  1.00  0.00     0.293 HD
ENDBRANCH   8  24
TORSDOF 5
ENDMDL
MODEL 9
REMARK VINA RESULT:    -6.060      5.051      8.217
REMARK INTER + INTRA:          -7.408
REMARK INTER:                  -7.091
REMARK INTRA:                  -0.317
REMARK UNBOUND:                -0.286
REMARK SMILES O=c1cc(-c2ccc(O)c(O)c2)oc2cc(O)cc(O)c12
REMARK SMILES IDX 4 1 3 2 2 3 1 4 21 5 19 6 18 7 16 8 15 9 14 10 13 11 5 12
REMARK SMILES IDX 6 13 7 14 8 15 12 16 10 17 9 18 11 20 20 22 17 24
REMARK H PARENT 9 19 11 21 20 23 17 25
REMARK Flexibility Score: inf
ROOT
ATOM      1  C   UNL     1      43.146   0.505   0.888  1.00  0.00     0.138 A 
ATOM      2  C   UNL     1      44.458   0.205   1.281  1.00  0.00     0.100 A 
ATOM      3  C   UNL     1      44.973  -1.070   1.048  1.00  0.00     0.197 A 
ATOM      4  O   UNL     1      46.173  -1.291   1.356  1.00  0.00    -0.289 OA
ATOM      5  C   UNL     1      44.159  -2.058   0.445  1.00  0.00     0.107 A 
ATOM      6  C   UNL     1      44.565  -3.404   0.194  1.00  0.00     0.134 A 
ATOM      7  C   UNL     1      43.714  -4.260  -0.514  1.00  0.00     0.093 A 
ATOM      8  C   UNL     1      42.450  -3.841  -0.928  1.00  0.00     0.123 A 
ATOM      9  C   UNL     1      42.022  -2.544  -0.642  1.00  0.00     0.094 A 
ATOM     10  C   UNL     1      42.862  -1.655   0.033  1.00  0.00     0.146 A 
ATOM     11  O   UNL     1      42.421  -0.424   0.274  1.00  0.00    -0.456 OA
ENDROOT
BRANCH   1  12
ATOM     12  C   UNL     1      42.547   1.846   1.113  1.00  0.00     0.021 A 
ATOM     13  C   UNL     1      43.176   2.810   1.922  1.00  0.00     0.016 A 
ATOM     14  C   UNL     1      42.585   4.060   2.125  1.00  0.00     0.051 A 
ATOM     15  C   UNL     1      41.353   4.365   1.532  1.00  0.00     0.157 A 
ATOM     16  C   UNL     1      41.304   2.155   0.532  1.00  0.00     0.062 A 
ATOM     17  C   UNL     1      40.710   3.406   0.733  1.00  0.00     0.158 A 
BRANCH  15  18
ATOM     18  O   UNL     1      40.767   5.614   1.735  1.00  0.00    -0.504 OA
ATOM     19  H   UNL     1      40.380   6.149   0.967  1.00  0.00     0.293 HD
ENDBRANCH  15  18
BRANCH  17  20
ATOM     20  O   UNL     1      39.481   3.677   0.131  1.00  0.00    -0.504 OA
ATOM     21  H   UNL     1      39.411   4.053  -0.806  1.00  0.00     0.293 HD
ENDBRANCH  17  20
ENDBRANCH   1  12
BRANCH   6  22
ATOM     22  O   UNL     1      45.773  -3.951   0.639  1.00  0.00    -0.507 OA
ATOM     23  H   UNL     1      46.582  -3.415   0.914  1.00  0.00     0.293 HD
ENDBRANCH   6  22
BRANCH   8  24
ATOM     24  O   UNL     1      41.625  -4.726  -1.618  1.00  0.00    -0.508 OA
ATOM     25  H   UNL     1      41.077  -5.428  -1.133  1.00  0.00     0.293 HD
ENDBRANCH   8  24
TORSDOF 5
ENDMDL
