MODEL 1
REMARK VINA RESULT:    -5.819      0.000      0.000
REMARK INTER + INTRA:         -12.278
REMARK INTER:                 -10.921
REMARK INTRA:                  -1.357
REMARK UNBOUND:                -1.357
REMARK SMILES CCCCCCCCC=CCCCCCCCC(=O)[O-]
REMARK SMILES IDX 10 1 9 2 11 3 12 4 13 5 14 6 15 7 16 8 17 9 18 10 19 11
REMARK SMILES IDX 20 12 8 13 7 14 6 15 5 16 4 17 3 18 2 19 1 20
REMARK H PARENT
REMARK Flexibility Score: inf
ROOT
ATOM      1  C   UNL     1     -11.273  12.138   8.807  1.00  0.00    -0.031 C 
ATOM      2  C   UNL     1     -10.763  13.165   9.513  1.00  0.00    -0.031 C 
ENDROOT
BRANCH   1   3
ATOM      3  C   UNL     1     -11.002  11.862   7.349  1.00  0.00     0.027 C 
BRANCH   3   4
ATOM      4  C   UNL     1     -11.829  10.677   6.835  1.00  0.00     0.004 C 
BRANCH   4   5
ATOM      5  C   UNL     1     -11.824  10.630   5.299  1.00  0.00     0.000 C 
BRANCH   5   6
ATOM      6  C   UNL     1     -10.910  11.700   4.678  1.00  0.00     0.000 C 
BRANCH   6   7
ATOM      7  C   UNL     1     -10.098  11.161   3.487  1.00  0.00     0.000 C 
BRANCH   7   8
ATOM      8  C   UNL     1      -9.155  12.218   2.890  1.00  0.00     0.006 C 
BRANCH   8   9
ATOM      9  C   UNL     1      -9.852  13.564   2.642  1.00  0.00     0.053 C 
BRANCH   9  10
ATOM     10  C   UNL     1      -8.957  14.486   1.878  1.00  0.00     0.041 C 
ATOM     11  O   UNL     1      -8.855  15.695   2.216  1.00  0.00    -0.550 OA
ATOM     12  O   UNL     1      -8.214  14.007   0.804  1.00  0.00    -0.550 OA
ENDBRANCH   9  10
ENDBRANCH   8   9
ENDBRANCH   7   8
ENDBRANCH   6   7
ENDBRANCH   5   6
ENDBRANCH   4   5
ENDBRANCH   3   4
ENDBRANCH   1   3
BRANCH   2  13
ATOM     13  C   UNL     1      -9.805  14.206   8.978  1.00  0.00     0.027 C 
BRANCH  13  14
ATOM     14  C   UNL     1     -10.243  15.635   9.346  1.00  0.00     0.004 C 
BRANCH  14  15
ATOM     15  C   UNL     1      -9.408  16.299  10.455  1.00  0.00     0.000 C 
BRANCH  15  16
ATOM     16  C   UNL     1      -8.059  15.602  10.687  1.00  0.00     0.000 C 
BRANCH  16  17
ATOM     17  C   UNL     1      -7.830  15.333  12.180  1.00  0.00    -0.000 C 
BRANCH  17  18
ATOM     18  C   UNL     1      -6.913  14.117  12.385  1.00  0.00    -0.000 C 
BRANCH  18  19
ATOM     19  C   UNL     1      -7.398  12.877  11.617  1.00  0.00    -0.003 C 
ATOM     20  C   UNL     1      -8.599  12.202  12.280  1.00  0.00     0.004 C 
ENDBRANCH  18  19
ENDBRANCH  17  18
ENDBRANCH  16  17
ENDBRANCH  15  16
ENDBRANCH  14  15
ENDBRANCH  13  14
ENDBRANCH   2  13
TORSDOF 15
ENDMDL
MODEL 2
REMARK VINA RESULT:    -5.706      5.135      7.627
REMARK INTER + INTRA:         -12.066
REMARK INTER:                 -11.120
REMARK INTRA:                  -0.946
REMARK UNBOUND:                -1.357
REMARK SMILES CCCCCCCCC=CCCCCCCCC(=O)[O-]
REMARK SMILES IDX 10 1 9 2 11 3 12 4 13 5 14 6 15 7 16 8 17 9 18 10 19 11
REMARK SMILES IDX 20 12 8 13 7 14 6 15 5 16 4 17 3 18 2 19 1 20
REMARK H PARENT
REMARK Flexibility Score: inf
ROOT
ATOM      1  C   UNL     1      -7.860  12.818   3.476  1.00  0.00    -0.031 C 
ATOM      2  C   UNL     1      -9.187  13.053   3.456  1.00  0.00    -0.031 C 
ENDROOT
BRANCH   1   3
ATOM      3  C   UNL     1      -7.168  11.670   2.786  1.00  0.00     0.027 C 
BRANCH   3   4
ATOM      4  C   UNL     1      -5.819  11.348   3.439  1.00  0.00     0.004 C 
BRANCH   4   5
ATOM      5  C   UNL     1      -5.499   9.849   3.331  1.00  0.00     0.000 C 
BRANCH   5   6
ATOM      6  C   UNL     1      -4.513   9.376   4.411  1.00  0.00     0.000 C 
BRANCH   6   7
ATOM      7  C   UNL     1      -5.111   8.285   5.317  1.00  0.00     0.000 C 
BRANCH   7   8
ATOM      8  C   UNL     1      -4.754   8.488   6.799  1.00  0.00     0.006 C 
BRANCH   8   9
ATOM      9  C   UNL     1      -5.426   7.457   7.718  1.00  0.00     0.053 C 
BRANCH   9  10
ATOM     10  C   UNL     1      -4.977   6.073   7.371  1.00  0.00     0.041 C 
ATOM     11  O   UNL     1      -3.774   5.737   7.535  1.00  0.00    -0.550 OA
ATOM     12  O   UNL     1      -5.892   5.144   6.888  1.00  0.00    -0.550 OA
ENDBRANCH   9  10
ENDBRANCH   8   9
ENDBRANCH   7   8
ENDBRANCH   6   7
ENDBRANCH   5   6
ENDBRANCH   4   5
ENDBRANCH   3   4
ENDBRANCH   1   3
BRANCH   2  13
ATOM     13  C   UNL     1     -10.213  12.226   2.714  1.00  0.00     0.027 C 
BRANCH  13  14
ATOM     14  C   UNL     1     -10.803  11.113   3.598  1.00  0.00     0.004 C 
BRANCH  14  15
ATOM     15  C   UNL     1     -10.904  11.464   5.093  1.00  0.00     0.000 C 
BRANCH  15  16
ATOM     16  C   UNL     1     -12.035  10.711   5.809  1.00  0.00     0.000 C 
BRANCH  16  17
ATOM     17  C   UNL     1     -11.896  10.833   7.332  1.00  0.00    -0.000 C 
BRANCH  17  18
ATOM     18  C   UNL     1     -10.989  12.013   7.709  1.00  0.00    -0.000 C 
BRANCH  18  19
ATOM     19  C   UNL     1     -11.061  12.359   9.206  1.00  0.00    -0.003 C 
ATOM     20  C   UNL     1     -10.339  13.662   9.548  1.00  0.00     0.004 C 
ENDBRANCH  18  19
ENDBRANCH  17  18
ENDBRANCH  16  17
ENDBRANCH  15  16
ENDBRANCH  14  15
ENDBRANCH  13  14
ENDBRANCH   2  13
TORSDOF 15
ENDMDL
MODEL 3
REMARK VINA RESULT:    -5.660      1.213      2.183
REMARK INTER + INTRA:         -11.980
REMARK INTER:                 -10.578
REMARK INTRA:                  -1.402
REMARK UNBOUND:                -1.357
REMARK SMILES CCCCCCCCC=CCCCCCCCC(=O)[O-]
REMARK SMILES IDX 10 1 9 2 11 3 12 4 13 5 14 6 15 7 16 8 17 9 18 10 19 11
REMARK SMILES IDX 20 12 8 13 7 14 6 15 5 16 4 17 3 18 2 19 1 20
REMARK H PARENT
REMARK Flexibility Score: inf
ROOT
ATOM      1  C   UNL     1     -11.152  14.164   9.259  1.00  0.00    -0.031 C 
ATOM      2  C   UNL     1     -10.198  15.098   9.435  1.00  0.00    -0.031 C 
ENDROOT
BRANCH   1   3
ATOM      3  C   UNL     1     -10.914  12.676   9.193  1.00  0.00     0.027 C 
BRANCH   3   4
ATOM      4  C   UNL     1     -10.787  12.188   7.745  1.00  0.00     0.004 C 
BRANCH   4   5
ATOM      5  C   UNL     1     -11.868  11.146   7.421  1.00  0.00     0.000 C 
BRANCH   5   6
ATOM      6  C   UNL     1     -11.939  10.817   5.921  1.00  0.00     0.000 C 
BRANCH   6   7
ATOM      7  C   UNL     1     -10.852  11.541   5.107  1.00  0.00     0.000 C 
BRANCH   7   8
ATOM      8  C   UNL     1     -10.836  11.112   3.631  1.00  0.00     0.006 C 
BRANCH   8   9
ATOM      9  C   UNL     1      -9.481  11.364   2.953  1.00  0.00     0.053 C 
BRANCH   9  10
ATOM     10  C   UNL     1      -9.087  12.801   3.085  1.00  0.00     0.041 C 
ATOM     11  O   UNL     1      -8.011  13.113   3.662  1.00  0.00    -0.550 OA
ATOM     12  O   UNL     1      -9.895  13.798   2.550  1.00  0.00    -0.550 OA
ENDBRANCH   9  10
ENDBRANCH   8   9
ENDBRANCH   7   8
ENDBRANCH   6   7
ENDBRANCH   5   6
ENDBRANCH   4   5
ENDBRANCH   3   4
ENDBRANCH   1   3
BRANCH   2  13
ATOM     13  C   UNL     1      -8.723  14.820   9.628  1.00  0.00     0.027 C 
BRANCH  13  14
ATOM     14  C   UNL     1      -8.013  15.969  10.366  1.00  0.00     0.004 C 
BRANCH  14  15
ATOM     15  C   UNL     1      -7.468  15.601  11.758  1.00  0.00     0.000 C 
BRANCH  15  16
ATOM     16  C   UNL     1      -8.018  14.265  12.281  1.00  0.00     0.000 C 
BRANCH  16  17
ATOM     17  C   UNL     1      -6.903  13.216  12.386  1.00  0.00    -0.000 C 
BRANCH  17  18
ATOM     18  C   UNL     1      -7.474  11.794  12.277  1.00  0.00    -0.000 C 
BRANCH  18  19
ATOM     19  C   UNL     1      -9.008  11.781  12.168  1.00  0.00    -0.003 C 
ATOM     20  C   UNL     1      -9.621  10.456  12.622  1.00  0.00     0.004 C 
ENDBRANCH  18  19
ENDBRANCH  17  18
ENDBRANCH  16  17
ENDBRANCH  15  16
ENDBRANCH  14  15
ENDBRANCH  13  14
ENDBRANCH   2  13
TORSDOF 15
ENDMDL
MODEL 4
REMARK VINA RESULT:    -5.653      5.078      6.329
REMARK INTER + INTRA:         -11.967
REMARK INTER:                 -10.718
REMARK INTRA:                  -1.250
REMARK UNBOUND:                -1.357
REMARK SMILES CCCCCCCCC=CCCCCCCCC(=O)[O-]
REMARK SMILES IDX 10 1 9 2 11 3 12 4 13 5 14 6 15 7 16 8 17 9 18 10 19 11
REMARK SMILES IDX 20 12 8 13 7 14 6 15 5 16 4 17 3 18 2 19 1 20
REMARK H PARENT
REMARK Flexibility Score: inf
ROOT
ATOM      1  C   UNL     1     -11.254  12.607   9.016  1.00  0.00    -0.031 C 
ATOM      2  C   UNL     1     -10.490  13.683   9.291  1.00  0.00    -0.031 C 
ENDROOT
BRANCH   1   3
ATOM      3  C   UNL     1     -11.074  11.691   7.832  1.00  0.00     0.027 C 
BRANCH   3   4
ATOM      4  C   UNL     1     -12.385  11.501   7.060  1.00  0.00     0.004 C 
BRANCH   4   5
ATOM      5  C   UNL     1     -12.201  10.510   5.901  1.00  0.00     0.000 C 
BRANCH   5   6
ATOM      6  C   UNL     1     -13.089   9.263   6.044  1.00  0.00     0.000 C 
BRANCH   6   7
ATOM      7  C   UNL     1     -13.267   8.832   7.510  1.00  0.00     0.000 C 
BRANCH   7   8
ATOM      8  C   UNL     1     -14.279   7.686   7.670  1.00  0.00     0.006 C 
BRANCH   8   9
ATOM      9  C   UNL     1     -14.693   7.457   9.131  1.00  0.00     0.053 C 
BRANCH   9  10
ATOM     10  C   UNL     1     -15.415   6.155   9.275  1.00  0.00     0.041 C 
ATOM     11  O   UNL     1     -16.672   6.117   9.208  1.00  0.00    -0.550 OA
ATOM     12  O   UNL     1     -14.699   4.978   9.460  1.00  0.00    -0.550 OA
ENDBRANCH   9  10
ENDBRANCH   8   9
ENDBRANCH   7   8
ENDBRANCH   6   7
ENDBRANCH   5   6
ENDBRANCH   4   5
ENDBRANCH   3   4
ENDBRANCH   1   3
BRANCH   2  13
ATOM     13  C   UNL     1      -9.300  14.144   8.479  1.00  0.00     0.027 C 
BRANCH  13  14
ATOM     14  C   UNL     1      -8.185  14.720   9.370  1.00  0.00     0.004 C 
BRANCH  14  15
ATOM     15  C   UNL     1      -8.681  15.444  10.635  1.00  0.00     0.000 C 
BRANCH  15  16
ATOM     16  C   UNL     1      -7.594  15.578  11.712  1.00  0.00     0.000 C 
BRANCH  16  17
ATOM     17  C   UNL     1      -7.021  14.206  12.088  1.00  0.00    -0.000 C 
BRANCH  17  18
ATOM     18  C   UNL     1      -8.103  13.309  12.707  1.00  0.00    -0.000 C 
BRANCH  18  19
ATOM     19  C   UNL     1      -8.047  11.866  12.179  1.00  0.00    -0.003 C 
ATOM     20  C   UNL     1      -9.316  11.072  12.490  1.00  0.00     0.004 C 
ENDBRANCH  18  19
ENDBRANCH  17  18
ENDBRANCH  16  17
ENDBRANCH  15  16
ENDBRANCH  14  15
ENDBRANCH  13  14
ENDBRANCH   2  13
TORSDOF 15
ENDMDL
MODEL 5
REMARK VINA RESULT:    -5.634      2.862      7.623
REMARK INTER + INTRA:         -11.930
REMARK INTER:                 -10.321
REMARK INTRA:                  -1.609
REMARK UNBOUND:                -1.357
REMARK SMILES CCCCCCCCC=CCCCCCCCC(=O)[O-]
REMARK SMILES IDX 10 1 9 2 11 3 12 4 13 5 14 6 15 7 16 8 17 9 18 10 19 11
REMARK SMILES IDX 20 12 8 13 7 14 6 15 5 16 4 17 3 18 2 19 1 20
REMARK H PARENT
REMARK Flexibility Score: inf
ROOT
ATOM      1  C   UNL     1     -10.825  11.661   3.939  1.00  0.00    -0.031 C 
ATOM      2  C   UNL     1      -9.888  12.367   3.275  1.00  0.00    -0.031 C 
ENDROOT
BRANCH   1   3
ATOM      3  C   UNL     1     -11.005  11.646   5.437  1.00  0.00     0.027 C 
BRANCH   3   4
ATOM      4  C   UNL     1     -11.903  10.487   5.885  1.00  0.00     0.004 C 
BRANCH   4   5
ATOM      5  C   UNL     1     -12.249  10.607   7.378  1.00  0.00     0.000 C 
BRANCH   5   6
ATOM      6  C   UNL     1     -13.151  11.814   7.680  1.00  0.00     0.000 C 
BRANCH   6   7
ATOM      7  C   UNL     1     -12.576  12.717   8.785  1.00  0.00     0.000 C 
BRANCH   7   8
ATOM      8  C   UNL     1     -11.039  12.702   8.820  1.00  0.00     0.006 C 
BRANCH   8   9
ATOM      9  C   UNL     1     -10.444  13.994   9.399  1.00  0.00     0.053 C 
BRANCH   9  10
ATOM     10  C   UNL     1      -9.130  14.301   8.756  1.00  0.00     0.041 C 
ATOM     11  O   UNL     1      -8.168  14.723   9.451  1.00  0.00    -0.550 OA
ATOM     12  O   UNL     1      -8.957  14.100   7.391  1.00  0.00    -0.550 OA
ENDBRANCH   9  10
ENDBRANCH   8   9
ENDBRANCH   7   8
ENDBRANCH   6   7
ENDBRANCH   5   6
ENDBRANCH   4   5
ENDBRANCH   3   4
ENDBRANCH   1   3
BRANCH   2  13
ATOM     13  C   UNL     1      -8.872  13.290   3.910  1.00  0.00     0.027 C 
BRANCH  13  14
ATOM     14  C   UNL     1      -7.432  12.782   3.713  1.00  0.00     0.004 C 
BRANCH  14  15
ATOM     15  C   UNL     1      -7.314  11.480   2.901  1.00  0.00     0.000 C 
BRANCH  15  16
ATOM     16  C   UNL     1      -6.143  11.498   1.907  1.00  0.00     0.000 C 
BRANCH  16  17
ATOM     17  C   UNL     1      -6.133  12.799   1.095  1.00  0.00    -0.000 C 
BRANCH  17  18
ATOM     18  C   UNL     1      -7.424  12.946   0.275  1.00  0.00    -0.000 C 
BRANCH  18  19
ATOM     19  C   UNL     1      -7.862  14.412   0.120  1.00  0.00    -0.003 C 
ATOM     20  C   UNL     1      -7.242  15.329   1.174  1.00  0.00     0.004 C 
ENDBRANCH  18  19
ENDBRANCH  17  18
ENDBRANCH  16  17
ENDBRANCH  15  16
ENDBRANCH  14  15
ENDBRANCH  13  14
ENDBRANCH   2  13
TORSDOF 15
ENDMDL
MODEL 6
REMARK VINA RESULT:    -5.625      6.175      8.810
REMARK INTER + INTRA:         -11.913
REMARK INTER:                 -10.326
REMARK INTRA:                  -1.587
REMARK UNBOUND:                -1.357
REMARK SMILES CCCCCCCCC=CCCCCCCCC(=O)[O-]
REMARK SMILES IDX 10 1 9 2 11 3 12 4 13 5 14 6 15 7 16 8 17 9 18 10 19 11
REMARK SMILES IDX 20 12 8 13 7 14 6 15 5 16 4 17 3 18 2 19 1 20
REMARK H PARENT
REMARK Flexibility Score: inf
ROOT
ATOM      1  C   UNL     1     -10.908  11.510   3.619  1.00  0.00    -0.031 C 
ATOM      2  C   UNL     1     -10.385  12.479   2.842  1.00  0.00    -0.031 C 
ENDROOT
BRANCH   1   3
ATOM      3  C   UNL     1     -10.856  11.478   5.125  1.00  0.00     0.027 C 
BRANCH   3   4
ATOM      4  C   UNL     1     -11.934  10.558   5.709  1.00  0.00     0.004 C 
BRANCH   4   5
ATOM      5  C   UNL     1     -11.953  10.637   7.243  1.00  0.00     0.000 C 
BRANCH   5   6
ATOM      6  C   UNL     1     -13.037   9.743   7.867  1.00  0.00     0.000 C 
BRANCH   6   7
ATOM      7  C   UNL     1     -13.461   8.594   6.935  1.00  0.00     0.000 C 
BRANCH   7   8
ATOM      8  C   UNL     1     -14.075   7.410   7.700  1.00  0.00     0.006 C 
BRANCH   8   9
ATOM      9  C   UNL     1     -14.330   7.727   9.181  1.00  0.00     0.053 C 
BRANCH   9  10
ATOM     10  C   UNL     1     -15.674   7.224   9.602  1.00  0.00     0.041 C 
ATOM     11  O   UNL     1     -16.313   6.428   8.863  1.00  0.00    -0.550 OA
ATOM     12  O   UNL     1     -16.215   7.614  10.822  1.00  0.00    -0.550 OA
ENDBRANCH   9  10
ENDBRANCH   8   9
ENDBRANCH   7   8
ENDBRANCH   6   7
ENDBRANCH   5   6
ENDBRANCH   4   5
ENDBRANCH   3   4
ENDBRANCH   1   3
BRANCH   2  13
ATOM     13  C   UNL     1      -9.679  13.720   3.343  1.00  0.00     0.027 C 
BRANCH  13  14
ATOM     14  C   UNL     1      -9.412  14.726   2.210  1.00  0.00     0.004 C 
BRANCH  14  15
ATOM     15  C   UNL     1      -7.986  14.680   1.632  1.00  0.00     0.000 C 
BRANCH  15  16
ATOM     16  C   UNL     1      -7.872  13.780   0.392  1.00  0.00     0.000 C 
BRANCH  16  17
ATOM     17  C   UNL     1      -7.043  12.526   0.699  1.00  0.00    -0.000 C 
BRANCH  17  18
ATOM     18  C   UNL     1      -6.297  12.673   2.034  1.00  0.00    -0.000 C 
BRANCH  18  19
ATOM     19  C   UNL     1      -6.607  11.528   3.012  1.00  0.00    -0.003 C 
ATOM     20  C   UNL     1      -7.434  10.412   2.373  1.00  0.00     0.004 C 
ENDBRANCH  18  19
ENDBRANCH  17  18
ENDBRANCH  16  17
ENDBRANCH  15  16
ENDBRANCH  14  15
ENDBRANCH  13  14
ENDBRANCH   2  13
TORSDOF 15
ENDMDL
MODEL 7
REMARK VINA RESULT:    -5.590      3.497      7.470
REMARK INTER + INTRA:         -11.849
REMARK INTER:                 -10.618
REMARK INTRA:                  -1.231
REMARK UNBOUND:                -1.357
REMARK SMILES CCCCCCCCC=CCCCCCCCC(=O)[O-]
REMARK SMILES IDX 10 1 9 2 11 3 12 4 13 5 14 6 15 7 16 8 17 9 18 10 19 11
REMARK SMILES IDX 20 12 8 13 7 14 6 15 5 16 4 17 3 18 2 19 1 20
REMARK H PARENT
REMARK Flexibility Score: inf
ROOT
ATOM      1  C   UNL     1     -10.600  11.119   3.850  1.00  0.00    -0.031 C 
ATOM      2  C   UNL     1     -10.023  11.822   2.856  1.00  0.00    -0.031 C 
ENDROOT
BRANCH   1   3
ATOM      3  C   UNL     1     -11.132  11.702   5.135  1.00  0.00     0.027 C 
BRANCH   3   4
ATOM      4  C   UNL     1     -11.844  10.642   5.985  1.00  0.00     0.004 C 
BRANCH   4   5
ATOM      5  C   UNL     1     -11.760  10.989   7.479  1.00  0.00     0.000 C 
BRANCH   5   6
ATOM      6  C   UNL     1     -10.848  12.197   7.754  1.00  0.00     0.000 C 
BRANCH   6   7
ATOM      7  C   UNL     1     -10.959  12.700   9.205  1.00  0.00     0.000 C 
BRANCH   7   8
ATOM      8  C   UNL     1     -10.513  14.163   9.358  1.00  0.00     0.006 C 
BRANCH   8   9
ATOM      9  C   UNL     1      -8.993  14.337   9.225  1.00  0.00     0.053 C 
BRANCH   9  10
ATOM     10  C   UNL     1      -8.471  15.232  10.304  1.00  0.00     0.041 C 
ATOM     11  O   UNL     1      -7.416  14.929  10.923  1.00  0.00    -0.550 OA
ATOM     12  O   UNL     1      -9.135  16.413  10.613  1.00  0.00    -0.550 OA
ENDBRANCH   9  10
ENDBRANCH   8   9
ENDBRANCH   7   8
ENDBRANCH   6   7
ENDBRANCH   5   6
ENDBRANCH   4   5
ENDBRANCH   3   4
ENDBRANCH   1   3
BRANCH   2  13
ATOM     13  C   UNL     1      -9.834  13.323   2.839  1.00  0.00     0.027 C 
BRANCH  13  14
ATOM     14  C   UNL     1      -8.348  13.716   2.915  1.00  0.00     0.004 C 
BRANCH  14  15
ATOM     15  C   UNL     1      -7.433  12.655   3.552  1.00  0.00     0.000 C 
BRANCH  15  16
ATOM     16  C   UNL     1      -6.263  12.250   2.643  1.00  0.00     0.000 C 
BRANCH  16  17
ATOM     17  C   UNL     1      -6.590  10.968   1.865  1.00  0.00    -0.000 C 
BRANCH  17  18
ATOM     18  C   UNL     1      -6.692   9.763   2.811  1.00  0.00    -0.000 C 
BRANCH  18  19
ATOM     19  C   UNL     1      -5.324   9.328   3.363  1.00  0.00    -0.003 C 
ATOM     20  C   UNL     1      -5.430   8.205   4.394  1.00  0.00     0.004 C 
ENDBRANCH  18  19
ENDBRANCH  17  18
ENDBRANCH  16  17
ENDBRANCH  15  16
ENDBRANCH  14  15
ENDBRANCH  13  14
ENDBRANCH   2  13
TORSDOF 15
ENDMDL
MODEL 8
REMARK VINA RESULT:    -5.497      4.299      8.434
REMARK INTER + INTRA:         -11.674
REMARK INTER:                 -10.532
REMARK INTRA:                  -1.142
REMARK UNBOUND:                -1.357
REMARK SMILES CCCCCCCCC=CCCCCCCCC(=O)[O-]
REMARK SMILES IDX 10 1 9 2 11 3 12 4 13 5 14 6 15 7 16 8 17 9 18 10 19 11
REMARK SMILES IDX 20 12 8 13 7 14 6 15 5 16 4 17 3 18 2 19 1 20
REMARK H PARENT
REMARK Flexibility Score: inf
ROOT
ATOM      1  C   UNL     1     -11.230  11.858   8.869  1.00  0.00    -0.031 C 
ATOM      2  C   UNL     1     -12.182  11.174   8.206  1.00  0.00    -0.031 C 
ENDROOT
BRANCH   1   3
ATOM      3  C   UNL     1     -10.515  13.081   8.351  1.00  0.00     0.027 C 
BRANCH   3   4
ATOM      4  C   UNL     1     -10.142  14.041   9.487  1.00  0.00     0.004 C 
BRANCH   4   5
ATOM      5  C   UNL     1      -8.680  14.497   9.363  1.00  0.00     0.000 C 
BRANCH   5   6
ATOM      6  C   UNL     1      -8.269  15.471  10.479  1.00  0.00     0.000 C 
BRANCH   6   7
ATOM      7  C   UNL     1      -7.902  14.747  11.786  1.00  0.00     0.000 C 
BRANCH   7   8
ATOM      8  C   UNL     1      -7.430  13.304  11.549  1.00  0.00     0.006 C 
BRANCH   8   9
ATOM      9  C   UNL     1      -8.092  12.298  12.502  1.00  0.00     0.053 C 
BRANCH   9  10
ATOM     10  C   UNL     1      -7.581  12.479  13.896  1.00  0.00     0.041 C 
ATOM     11  O   UNL     1      -6.420  12.095  14.200  1.00  0.00    -0.550 OA
ATOM     12  O   UNL     1      -8.377  13.094  14.856  1.00  0.00    -0.550 OA
ENDBRANCH   9  10
ENDBRANCH   8   9
ENDBRANCH   7   8
ENDBRANCH   6   7
ENDBRANCH   5   6
ENDBRANCH   4   5
ENDBRANCH   3   4
ENDBRANCH   1   3
BRANCH   2  13
ATOM     13  C   UNL     1     -12.725  11.527   6.839  1.00  0.00     0.027 C 
BRANCH  13  14
ATOM     14  C   UNL     1     -11.986  10.778   5.716  1.00  0.00     0.004 C 
BRANCH  14  15
ATOM     15  C   UNL     1     -10.811  11.551   5.091  1.00  0.00     0.000 C 
BRANCH  15  16
ATOM     16  C   UNL     1     -10.598  11.220   3.607  1.00  0.00     0.000 C 
BRANCH  16  17
ATOM     17  C   UNL     1      -9.863  12.360   2.890  1.00  0.00    -0.000 C 
BRANCH  17  18
ATOM     18  C   UNL     1      -9.263  13.348   3.901  1.00  0.00    -0.000 C 
BRANCH  18  19
ATOM     19  C   UNL     1      -7.737  13.207   4.030  1.00  0.00    -0.003 C 
ATOM     20  C   UNL     1      -7.106  12.496   2.833  1.00  0.00     0.004 C 
ENDBRANCH  18  19
ENDBRANCH  17  18
ENDBRANCH  16  17
ENDBRANCH  15  16
ENDBRANCH  14  15
ENDBRANCH  13  14
ENDBRANCH   2  13
TORSDOF 15
ENDMDL
MODEL 9
REMARK VINA RESULT:    -5.457      6.326      9.153
REMARK INTER + INTRA:         -11.599
REMARK INTER:                  -9.459
REMARK INTRA:                  -2.140
REMARK UNBOUND:                -1.357
REMARK SMILES CCCCCCCCC=CCCCCCCCC(=O)[O-]
REMARK SMILES IDX 10 1 9 2 11 3 12 4 13 5 14 6 15 7 16 8 17 9 18 10 19 11
REMARK SMILES IDX 20 12 8 13 7 14 6 15 5 16 4 17 3 18 2 19 1 20
REMARK H PARENT
REMARK Flexibility Score: inf
ROOT
ATOM      1  C   UNL     1      -7.026  10.440   2.785  1.00  0.00    -0.031 C 
ATOM      2  C   UNL     1      -7.513  10.406   1.529  1.00  0.00    -0.031 C 
ENDROOT
BRANCH   1   3
ATOM      3  C   UNL     1      -5.853  11.271   3.243  1.00  0.00     0.027 C 
BRANCH   3   4
ATOM      4  C   UNL     1      -4.862  10.443   4.069  1.00  0.00     0.004 C 
BRANCH   4   5
ATOM      5  C   UNL     1      -5.121   8.939   3.890  1.00  0.00     0.000 C 
BRANCH   5   6
ATOM      6  C   UNL     1      -4.629   8.109   5.087  1.00  0.00     0.000 C 
BRANCH   6   7
ATOM      7  C   UNL     1      -4.457   8.957   6.360  1.00  0.00     0.000 C 
BRANCH   7   8
ATOM      8  C   UNL     1      -4.547   8.117   7.645  1.00  0.00     0.006 C 
BRANCH   8   9
ATOM      9  C   UNL     1      -5.634   7.035   7.573  1.00  0.00     0.053 C 
BRANCH   9  10
ATOM     10  C   UNL     1      -5.020   5.671   7.607  1.00  0.00     0.041 C 
ATOM     11  O   UNL     1      -3.778   5.531   7.445  1.00  0.00    -0.550 OA
ATOM     12  O   UNL     1      -5.814   4.554   7.840  1.00  0.00    -0.550 OA
ENDBRANCH   9  10
ENDBRANCH   8   9
ENDBRANCH   7   8
ENDBRANCH   6   7
ENDBRANCH   5   6
ENDBRANCH   4   5
ENDBRANCH   3   4
ENDBRANCH   1   3
BRANCH   2  13
ATOM     13  C   UNL     1      -6.991  11.218   0.364  1.00  0.00     0.027 C 
BRANCH  13  14
ATOM     14  C   UNL     1      -7.979  12.321  -0.056  1.00  0.00     0.004 C 
BRANCH  14  15
ATOM     15  C   UNL     1      -7.634  13.727   0.466  1.00  0.00     0.000 C 
BRANCH  15  16
ATOM     16  C   UNL     1      -8.621  14.229   1.531  1.00  0.00     0.000 C 
BRANCH  16  17
ATOM     17  C   UNL     1      -8.049  14.041   2.942  1.00  0.00    -0.000 C 
BRANCH  17  18
ATOM     18  C   UNL     1      -9.055  13.321   3.851  1.00  0.00    -0.000 C 
BRANCH  18  19
ATOM     19  C   UNL     1     -10.202  12.668   3.062  1.00  0.00    -0.003 C 
ATOM     20  C   UNL     1     -10.620  11.314   3.637  1.00  0.00     0.004 C 
ENDBRANCH  18  19
ENDBRANCH  17  18
ENDBRANCH  16  17
ENDBRANCH  15  16
ENDBRANCH  14  15
ENDBRANCH  13  14
ENDBRANCH   2  13
TORSDOF 15
ENDMDL
