MODEL 1
REMARK VINA RESULT:    -4.756      0.000      0.000
REMARK INTER + INTRA:          -4.629
REMARK INTER:                  -5.173
REMARK INTRA:                   0.543
REMARK UNBOUND:                 0.543
REMARK SMILES C[C@H]1[C@@H](C)CC[C@]2(C(=O)[O-])CC[C@]3(C)C(=CC[C@@H]4[C@]5(C)CC[C@H](O)C(C)(C)[C@H]5CC[C@]43C)[C@@H]12
REMARK SMILES IDX 7 1 6 2 11 3 33 4 5 5 12 6 15 7 2 8 3 9 13 10 16 11 1 12
REMARK SMILES IDX 4 13 14 14 31 15 17 16 18 17 30 18 32 19 19 20 29 21 28 22
REMARK SMILES IDX 21 23 20 24 25 25 22 26 23 27 26 28 27 29 8 30 9 31 10 32
REMARK SMILES IDX 24 33
REMARK H PARENT 24 34
REMARK Flexibility Score: inf
ROOT
ATOM      1  C   UNL     1     -27.539  30.051  32.372  1.00  0.00     0.017 C 
ATOM      2  C   UNL     1     -26.163  30.211  31.654  1.00  0.00     0.014 C 
ATOM      3  C   UNL     1     -27.550  31.022  33.578  1.00  0.00     0.014 C 
ATOM      4  C   UNL     1     -27.655  28.569  32.884  1.00  0.00     0.030 C 
ATOM      5  C   UNL     1     -25.969  29.209  30.508  1.00  0.00     0.004 C 
ATOM      6  C   UNL     1     -28.780  30.839  34.484  1.00  0.00     0.013 C 
ATOM      7  C   UNL     1     -28.818  28.357  33.883  1.00  0.00    -0.063 C 
ATOM      8  C   UNL     1     -27.464  27.516  31.731  1.00  0.00    -0.003 C 
ATOM      9  C   UNL     1     -26.105  27.760  31.012  1.00  0.00    -0.011 C 
ATOM     10  C   UNL     1     -28.972  29.382  35.039  1.00  0.00    -0.006 C 
ATOM     11  C   UNL     1     -29.498  27.172  33.924  1.00  0.00    -0.027 C 
ATOM     12  C   UNL     1     -28.647  27.416  30.737  1.00  0.00     0.008 C 
ATOM     13  C   UNL     1     -25.838  26.762  29.875  1.00  0.00     0.008 C 
ATOM     14  C   UNL     1     -27.796  29.135  36.049  1.00  0.00     0.017 C 
ATOM     15  C   UNL     1     -30.423  29.223  35.734  1.00  0.00    -0.020 C 
ATOM     16  C   UNL     1     -30.655  26.858  34.846  1.00  0.00     0.032 C 
ATOM     17  C   UNL     1     -30.635  27.716  36.127  1.00  0.00     0.006 C 
ATOM     18  C   UNL     1     -30.535  30.063  37.040  1.00  0.00     0.008 C 
ATOM     19  C   UNL     1     -31.523  29.693  34.714  1.00  0.00     0.012 C 
ATOM     20  C   UNL     1     -31.731  27.396  37.273  1.00  0.00    -0.025 C 
ATOM     21  C   UNL     1     -31.902  29.977  37.744  1.00  0.00     0.005 C 
ATOM     22  C   UNL     1     -32.666  28.637  37.539  1.00  0.00     0.003 C 
ATOM     23  C   UNL     1     -32.643  26.193  36.875  1.00  0.00     0.010 C 
ATOM     24  C   UNL     1     -30.944  27.001  38.563  1.00  0.00     0.012 C 
ATOM     25  C   UNL     1     -33.880  28.415  38.532  1.00  0.00    -0.006 C 
ATOM     26  C   UNL     1     -33.797  25.921  37.857  1.00  0.00     0.033 C 
ATOM     27  C   UNL     1     -34.691  27.156  38.073  1.00  0.00     0.120 C 
ATOM     28  C   UNL     1     -34.827  29.648  38.459  1.00  0.00     0.014 C 
ATOM     29  C   UNL     1     -33.469  28.259  40.031  1.00  0.00     0.014 C 
ENDROOT
BRANCH   1  30
ATOM     30  C   UNL     1     -28.667  30.461  31.429  1.00  0.00     0.048 C 
ATOM     31  O   UNL     1     -28.408  30.947  30.296  1.00  0.00    -0.550 OA
ATOM     32  O   UNL     1     -29.993  30.410  31.836  1.00  0.00    -0.550 OA
ENDBRANCH   1  30
BRANCH  27  33
ATOM     33  O   UNL     1     -35.384  27.430  36.877  1.00  0.00    -0.393 OA
ATOM     34  H   UNL     1     -36.193  26.855  36.870  1.00  0.00     0.210 HD
ENDBRANCH  27  33
TORSDOF 2
ENDMDL
MODEL 2
REMARK VINA RESULT:    -4.695     13.870     17.383
REMARK INTER + INTRA:          -4.563
REMARK INTER:                  -4.986
REMARK INTRA:                   0.423
REMARK UNBOUND:                 0.543
REMARK SMILES C[C@H]1[C@@H](C)CC[C@]2(C(=O)[O-])CC[C@]3(C)C(=CC[C@@H]4[C@]5(C)CC[C@H](O)C(C)(C)[C@H]5CC[C@]43C)[C@@H]12
REMARK SMILES IDX 7 1 6 2 11 3 33 4 5 5 12 6 15 7 2 8 3 9 13 10 16 11 1 12
REMARK SMILES IDX 4 13 14 14 31 15 17 16 18 17 30 18 32 19 19 20 29 21 28 22
REMARK SMILES IDX 21 23 20 24 25 25 22 26 23 27 26 28 27 29 8 30 9 31 10 32
REMARK SMILES IDX 24 33
REMARK H PARENT 24 34
REMARK Flexibility Score: inf
ROOT
ATOM      1  C   UNL     1     -32.172  43.681  37.865  1.00  0.00     0.017 C 
ATOM      2  C   UNL     1     -33.228  44.125  38.924  1.00  0.00     0.014 C 
ATOM      3  C   UNL     1     -30.834  43.451  38.610  1.00  0.00     0.014 C 
ATOM      4  C   UNL     1     -32.005  44.845  36.822  1.00  0.00     0.030 C 
ATOM      5  C   UNL     1     -34.576  44.510  38.298  1.00  0.00     0.004 C 
ATOM      6  C   UNL     1     -29.656  43.183  37.658  1.00  0.00     0.013 C 
ATOM      7  C   UNL     1     -30.768  44.673  35.907  1.00  0.00    -0.063 C 
ATOM      8  C   UNL     1     -33.370  45.260  36.159  1.00  0.00    -0.003 C 
ATOM      9  C   UNL     1     -34.402  45.635  37.262  1.00  0.00    -0.011 C 
ATOM     10  C   UNL     1     -29.420  44.300  36.579  1.00  0.00    -0.006 C 
ATOM     11  C   UNL     1     -30.791  45.110  34.612  1.00  0.00    -0.027 C 
ATOM     12  C   UNL     1     -33.938  44.240  35.143  1.00  0.00     0.008 C 
ATOM     13  C   UNL     1     -35.762  46.064  36.692  1.00  0.00     0.008 C 
ATOM     14  C   UNL     1     -28.915  45.566  37.358  1.00  0.00     0.017 C 
ATOM     15  C   UNL     1     -28.361  43.801  35.464  1.00  0.00    -0.020 C 
ATOM     16  C   UNL     1     -29.650  44.983  33.626  1.00  0.00     0.032 C 
ATOM     17  C   UNL     1     -28.279  44.880  34.324  1.00  0.00     0.006 C 
ATOM     18  C   UNL     1     -26.930  43.641  36.054  1.00  0.00     0.008 C 
ATOM     19  C   UNL     1     -28.848  42.420  34.891  1.00  0.00     0.012 C 
ATOM     20  C   UNL     1     -26.954  44.879  33.397  1.00  0.00    -0.025 C 
ATOM     21  C   UNL     1     -25.872  43.145  35.050  1.00  0.00     0.005 C 
ATOM     22  C   UNL     1     -26.130  43.546  33.569  1.00  0.00     0.003 C 
ATOM     23  C   UNL     1     -27.311  45.023  31.884  1.00  0.00     0.010 C 
ATOM     24  C   UNL     1     -26.102  46.121  33.813  1.00  0.00     0.012 C 
ATOM     25  C   UNL     1     -24.885  43.348  32.609  1.00  0.00    -0.006 C 
ATOM     26  C   UNL     1     -26.107  44.891  30.934  1.00  0.00     0.033 C 
ATOM     27  C   UNL     1     -25.344  43.568  31.129  1.00  0.00     0.120 C 
ATOM     28  C   UNL     1     -24.372  41.884  32.741  1.00  0.00     0.014 C 
ATOM     29  C   UNL     1     -23.669  44.275  32.928  1.00  0.00     0.014 C 
ENDROOT
BRANCH   1  30
ATOM     30  C   UNL     1     -32.593  42.355  37.238  1.00  0.00     0.048 C 
ATOM     31  O   UNL     1     -33.317  41.546  37.877  1.00  0.00    -0.550 OA
ATOM     32  O   UNL     1     -32.104  41.963  35.999  1.00  0.00    -0.550 OA
ENDBRANCH   1  30
BRANCH  27  33
ATOM     33  O   UNL     1     -26.166  42.504  30.707  1.00  0.00    -0.393 OA
ATOM     34  H   UNL     1     -26.315  42.617  29.732  1.00  0.00     0.210 HD
ENDBRANCH  27  33
TORSDOF 2
ENDMDL
MODEL 3
REMARK VINA RESULT:    -4.647     13.723     15.401
REMARK INTER + INTRA:          -4.511
REMARK INTER:                  -4.944
REMARK INTRA:                   0.434
REMARK UNBOUND:                 0.543
REMARK SMILES C[C@H]1[C@@H](C)CC[C@]2(C(=O)[O-])CC[C@]3(C)C(=CC[C@@H]4[C@]5(C)CC[C@H](O)C(C)(C)[C@H]5CC[C@]43C)[C@@H]12
REMARK SMILES IDX 7 1 6 2 11 3 33 4 5 5 12 6 15 7 2 8 3 9 13 10 16 11 1 12
REMARK SMILES IDX 4 13 14 14 31 15 17 16 18 17 30 18 32 19 19 20 29 21 28 22
REMARK SMILES IDX 21 23 20 24 25 25 22 26 23 27 26 28 27 29 8 30 9 31 10 32
REMARK SMILES IDX 24 33
REMARK H PARENT 24 34
REMARK Flexibility Score: inf
ROOT
ATOM      1  C   UNL     1     -26.202  44.726  32.437  1.00  0.00     0.017 C 
ATOM      2  C   UNL     1     -24.763  44.569  31.858  1.00  0.00     0.014 C 
ATOM      3  C   UNL     1     -26.128  45.747  33.599  1.00  0.00     0.014 C 
ATOM      4  C   UNL     1     -26.664  43.329  32.989  1.00  0.00     0.030 C 
ATOM      5  C   UNL     1     -24.671  43.485  30.775  1.00  0.00     0.004 C 
ATOM      6  C   UNL     1     -27.447  45.864  34.382  1.00  0.00     0.013 C 
ATOM      7  C   UNL     1     -27.933  43.409  33.873  1.00  0.00    -0.063 C 
ATOM      8  C   UNL     1     -26.585  42.195  31.901  1.00  0.00    -0.003 C 
ATOM      9  C   UNL     1     -25.144  42.123  31.316  1.00  0.00    -0.011 C 
ATOM     10  C   UNL     1     -27.981  44.507  34.968  1.00  0.00    -0.006 C 
ATOM     11  C   UNL     1     -28.840  42.386  33.888  1.00  0.00    -0.027 C 
ATOM     12  C   UNL     1     -27.667  42.275  30.797  1.00  0.00     0.008 C 
ATOM     13  C   UNL     1     -24.983  41.029  30.250  1.00  0.00     0.008 C 
ATOM     14  C   UNL     1     -26.977  44.090  36.100  1.00  0.00     0.017 C 
ATOM     15  C   UNL     1     -29.491  44.679  35.517  1.00  0.00    -0.020 C 
ATOM     16  C   UNL     1     -30.117  42.361  34.699  1.00  0.00     0.032 C 
ATOM     17  C   UNL     1     -30.040  43.269  35.942  1.00  0.00     0.006 C 
ATOM     18  C   UNL     1     -29.551  45.598  36.773  1.00  0.00     0.008 C 
ATOM     19  C   UNL     1     -30.375  45.300  34.374  1.00  0.00     0.012 C 
ATOM     20  C   UNL     1     -31.279  43.239  36.982  1.00  0.00    -0.025 C 
ATOM     21  C   UNL     1     -30.966  45.825  37.337  1.00  0.00     0.005 C 
ATOM     22  C   UNL     1     -31.964  44.654  37.106  1.00  0.00     0.003 C 
ATOM     23  C   UNL     1     -32.376  42.220  36.538  1.00  0.00     0.010 C 
ATOM     24  C   UNL     1     -30.711  42.770  38.359  1.00  0.00     0.012 C 
ATOM     25  C   UNL     1     -33.284  44.733  37.978  1.00  0.00    -0.006 C 
ATOM     26  C   UNL     1     -33.646  42.239  37.407  1.00  0.00     0.033 C 
ATOM     27  C   UNL     1     -34.287  43.637  37.485  1.00  0.00     0.120 C 
ATOM     28  C   UNL     1     -33.949  46.124  37.763  1.00  0.00     0.014 C 
ATOM     29  C   UNL     1     -33.052  44.584  39.515  1.00  0.00     0.014 C 
ENDROOT
BRANCH   1  30
ATOM     30  C   UNL     1     -27.132  45.298  31.370  1.00  0.00     0.048 C 
ATOM     31  O   UNL     1     -26.685  46.066  30.478  1.00  0.00    -0.550 OA
ATOM     32  O   UNL     1     -28.501  45.074  31.420  1.00  0.00    -0.550 OA
ENDBRANCH   1  30
BRANCH  27  33
ATOM     33  O   UNL     1     -34.797  43.974  36.216  1.00  0.00    -0.393 OA
ATOM     34  H   UNL     1     -34.284  44.761  35.894  1.00  0.00     0.210 HD
ENDBRANCH  27  33
TORSDOF 2
ENDMDL
MODEL 4
REMARK VINA RESULT:    -4.631      1.399      8.261
REMARK INTER + INTRA:          -4.494
REMARK INTER:                  -4.915
REMARK INTRA:                   0.421
REMARK UNBOUND:                 0.543
REMARK SMILES C[C@H]1[C@@H](C)CC[C@]2(C(=O)[O-])CC[C@]3(C)C(=CC[C@@H]4[C@]5(C)CC[C@H](O)C(C)(C)[C@H]5CC[C@]43C)[C@@H]12
REMARK SMILES IDX 7 1 6 2 11 3 33 4 5 5 12 6 15 7 2 8 3 9 13 10 16 11 1 12
REMARK SMILES IDX 4 13 14 14 31 15 17 16 18 17 30 18 32 19 19 20 29 21 28 22
REMARK SMILES IDX 21 23 20 24 25 25 22 26 23 27 26 28 27 29 8 30 9 31 10 32
REMARK SMILES IDX 24 33
REMARK H PARENT 24 34
REMARK Flexibility Score: inf
ROOT
ATOM      1  C   UNL     1     -33.476  27.664  38.965  1.00  0.00     0.017 C 
ATOM      2  C   UNL     1     -34.065  27.813  40.402  1.00  0.00     0.014 C 
ATOM      3  C   UNL     1     -32.534  26.436  38.973  1.00  0.00     0.014 C 
ATOM      4  C   UNL     1     -32.652  28.962  38.637  1.00  0.00     0.030 C 
ATOM      5  C   UNL     1     -34.923  29.075  40.567  1.00  0.00     0.004 C 
ATOM      6  C   UNL     1     -31.743  26.277  37.664  1.00  0.00     0.013 C 
ATOM      7  C   UNL     1     -31.756  28.816  37.382  1.00  0.00    -0.063 C 
ATOM      8  C   UNL     1     -33.505  30.274  38.793  1.00  0.00    -0.003 C 
ATOM      9  C   UNL     1     -34.116  30.340  40.223  1.00  0.00    -0.011 C 
ATOM     10  C   UNL     1     -30.890  27.533  37.259  1.00  0.00    -0.006 C 
ATOM     11  C   UNL     1     -31.514  29.886  36.568  1.00  0.00    -0.027 C 
ATOM     12  C   UNL     1     -34.566  30.497  37.688  1.00  0.00     0.008 C 
ATOM     13  C   UNL     1     -34.958  31.603  40.459  1.00  0.00     0.008 C 
ATOM     14  C   UNL     1     -29.734  27.641  38.316  1.00  0.00     0.017 C 
ATOM     15  C   UNL     1     -30.331  27.382  35.750  1.00  0.00    -0.020 C 
ATOM     16  C   UNL     1     -30.669  29.858  35.313  1.00  0.00     0.032 C 
ATOM     17  C   UNL     1     -29.626  28.723  35.333  1.00  0.00     0.006 C 
ATOM     18  C   UNL     1     -29.273  26.246  35.635  1.00  0.00     0.008 C 
ATOM     19  C   UNL     1     -31.541  27.068  34.795  1.00  0.00     0.012 C 
ATOM     20  C   UNL     1     -28.557  28.652  34.121  1.00  0.00    -0.025 C 
ATOM     21  C   UNL     1     -28.713  26.030  34.216  1.00  0.00     0.005 C 
ATOM     22  C   UNL     1     -28.682  27.300  33.319  1.00  0.00     0.003 C 
ATOM     23  C   UNL     1     -28.759  29.824  33.109  1.00  0.00     0.010 C 
ATOM     24  C   UNL     1     -27.136  28.798  34.753  1.00  0.00     0.012 C 
ATOM     25  C   UNL     1     -27.796  27.161  32.014  1.00  0.00    -0.006 C 
ATOM     26  C   UNL     1     -27.866  29.740  31.858  1.00  0.00     0.033 C 
ATOM     27  C   UNL     1     -28.034  28.410  31.101  1.00  0.00     0.120 C 
ATOM     28  C   UNL     1     -28.249  25.897  31.227  1.00  0.00     0.014 C 
ATOM     29  C   UNL     1     -26.267  26.990  32.286  1.00  0.00     0.014 C 
ENDROOT
BRANCH   1  30
ATOM     30  C   UNL     1     -34.600  27.387  37.970  1.00  0.00     0.048 C 
ATOM     31  O   UNL     1     -35.683  26.872  38.356  1.00  0.00    -0.550 OA
ATOM     32  O   UNL     1     -34.417  27.594  36.610  1.00  0.00    -0.550 OA
ENDBRANCH   1  30
BRANCH  27  33
ATOM     33  O   UNL     1     -29.326  28.367  30.540  1.00  0.00    -0.393 OA
ATOM     34  H   UNL     1     -29.464  27.447  30.192  1.00  0.00     0.210 HD
ENDBRANCH  27  33
TORSDOF 2
ENDMDL
MODEL 5
REMARK VINA RESULT:    -4.619      2.176      8.024
REMARK INTER + INTRA:          -4.481
REMARK INTER:                  -4.899
REMARK INTRA:                   0.418
REMARK UNBOUND:                 0.543
REMARK SMILES C[C@H]1[C@@H](C)CC[C@]2(C(=O)[O-])CC[C@]3(C)C(=CC[C@@H]4[C@]5(C)CC[C@H](O)C(C)(C)[C@H]5CC[C@]43C)[C@@H]12
REMARK SMILES IDX 7 1 6 2 11 3 33 4 5 5 12 6 15 7 2 8 3 9 13 10 16 11 1 12
REMARK SMILES IDX 4 13 14 14 31 15 17 16 18 17 30 18 32 19 19 20 29 21 28 22
REMARK SMILES IDX 21 23 20 24 25 25 22 26 23 27 26 28 27 29 8 30 9 31 10 32
REMARK SMILES IDX 24 33
REMARK H PARENT 24 34
REMARK Flexibility Score: inf
ROOT
ATOM      1  C   UNL     1     -31.448  29.103  37.458  1.00  0.00     0.017 C 
ATOM      2  C   UNL     1     -32.758  29.474  38.221  1.00  0.00     0.014 C 
ATOM      3  C   UNL     1     -30.738  30.427  37.083  1.00  0.00     0.014 C 
ATOM      4  C   UNL     1     -31.846  28.327  36.151  1.00  0.00     0.030 C 
ATOM      5  C   UNL     1     -33.627  28.250  38.543  1.00  0.00     0.004 C 
ATOM      6  C   UNL     1     -29.520  30.216  36.167  1.00  0.00     0.013 C 
ATOM      7  C   UNL     1     -30.676  28.180  35.147  1.00  0.00    -0.063 C 
ATOM      8  C   UNL     1     -32.736  27.064  36.447  1.00  0.00    -0.003 C 
ATOM      9  C   UNL     1     -33.995  27.483  37.260  1.00  0.00    -0.011 C 
ATOM     10  C   UNL     1     -29.831  29.444  34.835  1.00  0.00    -0.006 C 
ATOM     11  C   UNL     1     -30.571  27.072  34.354  1.00  0.00    -0.027 C 
ATOM     12  C   UNL     1     -31.984  25.875  37.095  1.00  0.00     0.008 C 
ATOM     13  C   UNL     1     -34.923  26.301  37.581  1.00  0.00     0.008 C 
ATOM     14  C   UNL     1     -30.719  30.403  33.965  1.00  0.00     0.017 C 
ATOM     15  C   UNL     1     -28.461  29.025  34.085  1.00  0.00    -0.020 C 
ATOM     16  C   UNL     1     -29.468  26.816  33.351  1.00  0.00     0.032 C 
ATOM     17  C   UNL     1     -28.815  28.120  32.850  1.00  0.00     0.006 C 
ATOM     18  C   UNL     1     -27.693  30.267  33.545  1.00  0.00     0.008 C 
ATOM     19  C   UNL     1     -27.549  28.248  35.103  1.00  0.00     0.012 C 
ATOM     20  C   UNL     1     -27.714  28.013  31.671  1.00  0.00    -0.025 C 
ATOM     21  C   UNL     1     -26.364  29.943  32.838  1.00  0.00     0.005 C 
ATOM     22  C   UNL     1     -26.309  28.554  32.141  1.00  0.00     0.003 C 
ATOM     23  C   UNL     1     -27.519  26.538  31.198  1.00  0.00     0.010 C 
ATOM     24  C   UNL     1     -28.255  28.841  30.461  1.00  0.00     0.012 C 
ATOM     25  C   UNL     1     -25.101  28.372  31.132  1.00  0.00    -0.006 C 
ATOM     26  C   UNL     1     -26.387  26.345  30.173  1.00  0.00     0.033 C 
ATOM     27  C   UNL     1     -25.033  26.874  30.683  1.00  0.00     0.120 C 
ATOM     28  C   UNL     1     -23.772  28.713  31.868  1.00  0.00     0.014 C 
ATOM     29  C   UNL     1     -25.163  29.297  29.876  1.00  0.00     0.014 C 
ENDROOT
BRANCH   1  30
ATOM     30  C   UNL     1     -30.518  28.315  38.377  1.00  0.00     0.048 C 
ATOM     31  O   UNL     1     -30.603  28.435  39.628  1.00  0.00    -0.550 OA
ATOM     32  O   UNL     1     -29.492  27.538  37.858  1.00  0.00    -0.550 OA
ENDBRANCH   1  30
BRANCH  27  33
ATOM     33  O   UNL     1     -24.602  26.061  31.751  1.00  0.00    -0.393 OA
ATOM     34  H   UNL     1     -24.808  26.548  32.591  1.00  0.00     0.210 HD
ENDBRANCH  27  33
TORSDOF 2
ENDMDL
MODEL 6
REMARK VINA RESULT:    -4.611     13.182     15.131
REMARK INTER + INTRA:          -4.472
REMARK INTER:                  -4.910
REMARK INTRA:                   0.438
REMARK UNBOUND:                 0.543
REMARK SMILES C[C@H]1[C@@H](C)CC[C@]2(C(=O)[O-])CC[C@]3(C)C(=CC[C@@H]4[C@]5(C)CC[C@H](O)C(C)(C)[C@H]5CC[C@]43C)[C@@H]12
REMARK SMILES IDX 7 1 6 2 11 3 33 4 5 5 12 6 15 7 2 8 3 9 13 10 16 11 1 12
REMARK SMILES IDX 4 13 14 14 31 15 17 16 18 17 30 18 32 19 19 20 29 21 28 22
REMARK SMILES IDX 21 23 20 24 25 25 22 26 23 27 26 28 27 29 8 30 9 31 10 32
REMARK SMILES IDX 24 33
REMARK H PARENT 24 34
REMARK Flexibility Score: inf
ROOT
ATOM      1  C   UNL     1     -26.668  43.403  32.124  1.00  0.00     0.017 C 
ATOM      2  C   UNL     1     -25.237  43.479  31.509  1.00  0.00     0.014 C 
ATOM      3  C   UNL     1     -27.318  44.799  31.967  1.00  0.00     0.014 C 
ATOM      4  C   UNL     1     -26.529  43.051  33.649  1.00  0.00     0.030 C 
ATOM      5  C   UNL     1     -24.431  42.189  31.712  1.00  0.00     0.004 C 
ATOM      6  C   UNL     1     -28.669  44.918  32.693  1.00  0.00     0.013 C 
ATOM      7  C   UNL     1     -27.840  43.256  34.446  1.00  0.00    -0.063 C 
ATOM      8  C   UNL     1     -25.710  41.730  33.891  1.00  0.00    -0.003 C 
ATOM      9  C   UNL     1     -24.316  41.839  33.207  1.00  0.00    -0.011 C 
ATOM     10  C   UNL     1     -28.618  44.581  34.227  1.00  0.00    -0.006 C 
ATOM     11  C   UNL     1     -28.148  42.448  35.505  1.00  0.00    -0.027 C 
ATOM     12  C   UNL     1     -26.452  40.425  33.512  1.00  0.00     0.008 C 
ATOM     13  C   UNL     1     -23.449  40.587  33.407  1.00  0.00     0.008 C 
ATOM     14  C   UNL     1     -27.792  45.731  34.905  1.00  0.00     0.017 C 
ATOM     15  C   UNL     1     -30.111  44.456  34.833  1.00  0.00    -0.020 C 
ATOM     16  C   UNL     1     -29.403  42.546  36.345  1.00  0.00     0.032 C 
ATOM     17  C   UNL     1     -30.015  43.961  36.322  1.00  0.00     0.006 C 
ATOM     18  C   UNL     1     -30.848  45.827  34.847  1.00  0.00     0.008 C 
ATOM     19  C   UNL     1     -30.926  43.435  33.957  1.00  0.00     0.012 C 
ATOM     20  C   UNL     1     -31.281  44.256  37.284  1.00  0.00    -0.025 C 
ATOM     21  C   UNL     1     -32.288  45.779  35.392  1.00  0.00     0.005 C 
ATOM     22  C   UNL     1     -32.554  44.672  36.452  1.00  0.00     0.003 C 
ATOM     23  C   UNL     1     -31.660  43.003  38.135  1.00  0.00     0.010 C 
ATOM     24  C   UNL     1     -30.857  45.396  38.264  1.00  0.00     0.012 C 
ATOM     25  C   UNL     1     -33.907  44.846  37.257  1.00  0.00    -0.006 C 
ATOM     26  C   UNL     1     -32.941  43.170  38.971  1.00  0.00     0.033 C 
ATOM     27  C   UNL     1     -34.160  43.560  38.114  1.00  0.00     0.120 C 
ATOM     28  C   UNL     1     -35.083  44.988  36.248  1.00  0.00     0.014 C 
ATOM     29  C   UNL     1     -33.955  46.109  38.175  1.00  0.00     0.014 C 
ENDROOT
BRANCH   1  30
ATOM     30  C   UNL     1     -27.516  42.402  31.342  1.00  0.00     0.048 C 
ATOM     31  O   UNL     1     -27.302  42.204  30.116  1.00  0.00    -0.550 OA
ATOM     32  O   UNL     1     -28.602  41.771  31.931  1.00  0.00    -0.550 OA
ENDBRANCH   1  30
BRANCH  27  33
ATOM     33  O   UNL     1     -34.494  42.474  37.280  1.00  0.00    -0.393 OA
ATOM     34  H   UNL     1     -33.899  41.719  37.530  1.00  0.00     0.210 HD
ENDBRANCH  27  33
TORSDOF 2
ENDMDL
MODEL 7
REMARK VINA RESULT:    -4.535     13.299     15.296
REMARK INTER + INTRA:          -4.389
REMARK INTER:                  -4.811
REMARK INTRA:                   0.422
REMARK UNBOUND:                 0.543
REMARK SMILES C[C@H]1[C@@H](C)CC[C@]2(C(=O)[O-])CC[C@]3(C)C(=CC[C@@H]4[C@]5(C)CC[C@H](O)C(C)(C)[C@H]5CC[C@]43C)[C@@H]12
REMARK SMILES IDX 7 1 6 2 11 3 33 4 5 5 12 6 15 7 2 8 3 9 13 10 16 11 1 12
REMARK SMILES IDX 4 13 14 14 31 15 17 16 18 17 30 18 32 19 19 20 29 21 28 22
REMARK SMILES IDX 21 23 20 24 25 25 22 26 23 27 26 28 27 29 8 30 9 31 10 32
REMARK SMILES IDX 24 33
REMARK H PARENT 24 34
REMARK Flexibility Score: inf
ROOT
ATOM      1  C   UNL     1     -28.281  42.146  32.680  1.00  0.00     0.017 C 
ATOM      2  C   UNL     1     -27.775  41.844  31.236  1.00  0.00     0.014 C 
ATOM      3  C   UNL     1     -29.120  40.930  33.143  1.00  0.00     0.014 C 
ATOM      4  C   UNL     1     -29.190  43.427  32.623  1.00  0.00     0.030 C 
ATOM      5  C   UNL     1     -27.030  43.029  30.605  1.00  0.00     0.004 C 
ATOM      6  C   UNL     1     -29.833  41.169  34.485  1.00  0.00     0.013 C 
ATOM      7  C   UNL     1     -30.011  43.653  33.916  1.00  0.00    -0.063 C 
ATOM      8  C   UNL     1     -28.453  44.661  31.984  1.00  0.00    -0.003 C 
ATOM      9  C   UNL     1     -27.919  44.285  30.571  1.00  0.00    -0.011 C 
ATOM     10  C   UNL     1     -30.764  42.434  34.514  1.00  0.00    -0.006 C 
ATOM     11  C   UNL     1     -30.299  44.916  34.350  1.00  0.00    -0.027 C 
ATOM     12  C   UNL     1     -27.362  45.302  32.876  1.00  0.00     0.008 C 
ATOM     13  C   UNL     1     -27.193  45.446  29.875  1.00  0.00     0.008 C 
ATOM     14  C   UNL     1     -31.974  42.115  33.566  1.00  0.00     0.017 C 
ATOM     15  C   UNL     1     -31.237  42.760  36.025  1.00  0.00    -0.020 C 
ATOM     16  C   UNL     1     -31.078  45.256  35.601  1.00  0.00     0.032 C 
ATOM     17  C   UNL     1     -32.027  44.119  36.029  1.00  0.00     0.006 C 
ATOM     18  C   UNL     1     -32.193  41.665  36.582  1.00  0.00     0.008 C 
ATOM     19  C   UNL     1     -29.962  42.854  36.941  1.00  0.00     0.012 C 
ATOM     20  C   UNL     1     -33.027  44.390  37.270  1.00  0.00    -0.025 C 
ATOM     21  C   UNL     1     -32.666  41.900  38.029  1.00  0.00     0.005 C 
ATOM     22  C   UNL     1     -32.757  43.392  38.460  1.00  0.00     0.003 C 
ATOM     23  C   UNL     1     -32.872  45.842  37.825  1.00  0.00     0.010 C 
ATOM     24  C   UNL     1     -34.484  44.232  36.728  1.00  0.00     0.012 C 
ATOM     25  C   UNL     1     -33.566  43.641  39.799  1.00  0.00    -0.006 C 
ATOM     26  C   UNL     1     -33.696  46.125  39.094  1.00  0.00     0.033 C 
ATOM     27  C   UNL     1     -33.385  45.135  40.232  1.00  0.00     0.120 C 
ATOM     28  C   UNL     1     -32.976  42.740  40.922  1.00  0.00     0.014 C 
ATOM     29  C   UNL     1     -35.087  43.299  39.707  1.00  0.00     0.014 C 
ENDROOT
BRANCH   1  30
ATOM     30  C   UNL     1     -27.092  42.284  33.628  1.00  0.00     0.048 C 
ATOM     31  O   UNL     1     -25.998  41.716  33.368  1.00  0.00    -0.550 OA
ATOM     32  O   UNL     1     -27.220  42.942  34.843  1.00  0.00    -0.550 OA
ENDBRANCH   1  30
BRANCH  27  33
ATOM     33  O   UNL     1     -32.069  45.359  40.682  1.00  0.00    -0.393 OA
ATOM     34  H   UNL     1     -32.115  46.054  41.389  1.00  0.00     0.210 HD
ENDBRANCH  27  33
TORSDOF 2
ENDMDL
MODEL 8
REMARK VINA RESULT:    -4.125     10.754     13.006
REMARK INTER + INTRA:          -3.943
REMARK INTER:                  -4.366
REMARK INTRA:                   0.423
REMARK UNBOUND:                 0.543
REMARK SMILES C[C@H]1[C@@H](C)CC[C@]2(C(=O)[O-])CC[C@]3(C)C(=CC[C@@H]4[C@]5(C)CC[C@H](O)C(C)(C)[C@H]5CC[C@]43C)[C@@H]12
REMARK SMILES IDX 7 1 6 2 11 3 33 4 5 5 12 6 15 7 2 8 3 9 13 10 16 11 1 12
REMARK SMILES IDX 4 13 14 14 31 15 17 16 18 17 30 18 32 19 19 20 29 21 28 22
REMARK SMILES IDX 21 23 20 24 25 25 22 26 23 27 26 28 27 29 8 30 9 31 10 32
REMARK SMILES IDX 24 33
REMARK H PARENT 24 34
REMARK Flexibility Score: inf
ROOT
ATOM      1  C   UNL     1     -31.865  42.926  34.984  1.00  0.00     0.017 C 
ATOM      2  C   UNL     1     -31.528  44.436  34.785  1.00  0.00     0.014 C 
ATOM      3  C   UNL     1     -31.116  42.133  33.885  1.00  0.00     0.014 C 
ATOM      4  C   UNL     1     -33.415  42.742  34.806  1.00  0.00     0.030 C 
ATOM      5  C   UNL     1     -32.310  45.352  35.736  1.00  0.00     0.004 C 
ATOM      6  C   UNL     1     -31.500  40.645  33.850  1.00  0.00     0.013 C 
ATOM      7  C   UNL     1     -33.843  41.261  34.661  1.00  0.00    -0.063 C 
ATOM      8  C   UNL     1     -34.247  43.665  35.771  1.00  0.00    -0.003 C 
ATOM      9  C   UNL     1     -33.828  45.152  35.572  1.00  0.00    -0.011 C 
ATOM     10  C   UNL     1     -33.038  40.371  33.676  1.00  0.00    -0.006 C 
ATOM     11  C   UNL     1     -35.044  40.830  35.149  1.00  0.00    -0.027 C 
ATOM     12  C   UNL     1     -34.224  43.241  37.259  1.00  0.00     0.008 C 
ATOM     13  C   UNL     1     -34.606  46.121  36.475  1.00  0.00     0.008 C 
ATOM     14  C   UNL     1     -33.405  40.827  32.219  1.00  0.00     0.017 C 
ATOM     15  C   UNL     1     -33.373  38.811  33.935  1.00  0.00    -0.020 C 
ATOM     16  C   UNL     1     -35.559  39.409  35.076  1.00  0.00     0.032 C 
ATOM     17  C   UNL     1     -34.932  38.616  33.911  1.00  0.00     0.006 C 
ATOM     18  C   UNL     1     -32.774  37.898  32.827  1.00  0.00     0.008 C 
ATOM     19  C   UNL     1     -32.781  38.395  35.332  1.00  0.00     0.012 C 
ATOM     20  C   UNL     1     -35.488  37.125  33.622  1.00  0.00    -0.025 C 
ATOM     21  C   UNL     1     -33.035  36.392  33.023  1.00  0.00     0.005 C 
ATOM     22  C   UNL     1     -34.350  36.044  33.778  1.00  0.00     0.003 C 
ATOM     23  C   UNL     1     -36.642  36.742  34.602  1.00  0.00     0.010 C 
ATOM     24  C   UNL     1     -36.065  37.124  32.170  1.00  0.00     0.012 C 
ATOM     25  C   UNL     1     -34.789  34.526  33.668  1.00  0.00    -0.006 C 
ATOM     26  C   UNL     1     -37.124  35.286  34.473  1.00  0.00     0.033 C 
ATOM     27  C   UNL     1     -35.982  34.268  34.648  1.00  0.00     0.120 C 
ATOM     28  C   UNL     1     -33.601  33.623  34.110  1.00  0.00     0.014 C 
ATOM     29  C   UNL     1     -35.181  34.070  32.227  1.00  0.00     0.014 C 
ENDROOT
BRANCH   1  30
ATOM     30  C   UNL     1     -31.346  42.453  36.339  1.00  0.00     0.048 C 
ATOM     31  O   UNL     1     -30.422  43.079  36.924  1.00  0.00    -0.550 OA
ATOM     32  O   UNL     1     -31.800  41.270  36.905  1.00  0.00    -0.550 OA
ENDBRANCH   1  30
BRANCH  27  33
ATOM     33  O   UNL     1     -35.537  34.311  35.984  1.00  0.00    -0.393 OA
ATOM     34  H   UNL     1     -35.813  35.189  36.357  1.00  0.00     0.210 HD
ENDBRANCH  27  33
TORSDOF 2
ENDMDL
MODEL 9
REMARK VINA RESULT:    -4.079     12.659     16.282
REMARK INTER + INTRA:          -3.893
REMARK INTER:                  -4.315
REMARK INTRA:                   0.422
REMARK UNBOUND:                 0.543
REMARK SMILES C[C@H]1[C@@H](C)CC[C@]2(C(=O)[O-])CC[C@]3(C)C(=CC[C@@H]4[C@]5(C)CC[C@H](O)C(C)(C)[C@H]5CC[C@]43C)[C@@H]12
REMARK SMILES IDX 7 1 6 2 11 3 33 4 5 5 12 6 15 7 2 8 3 9 13 10 16 11 1 12
REMARK SMILES IDX 4 13 14 14 31 15 17 16 18 17 30 18 32 19 19 20 29 21 28 22
REMARK SMILES IDX 21 23 20 24 25 25 22 26 23 27 26 28 27 29 8 30 9 31 10 32
REMARK SMILES IDX 24 33
REMARK H PARENT 24 34
REMARK Flexibility Score: inf
ROOT
ATOM      1  C   UNL     1     -30.845  44.149  34.993  1.00  0.00     0.017 C 
ATOM      2  C   UNL     1     -32.327  44.616  35.127  1.00  0.00     0.014 C 
ATOM      3  C   UNL     1     -30.010  45.373  34.541  1.00  0.00     0.014 C 
ATOM      4  C   UNL     1     -30.782  43.030  33.891  1.00  0.00     0.030 C 
ATOM      5  C   UNL     1     -33.288  43.464  35.448  1.00  0.00     0.004 C 
ATOM      6  C   UNL     1     -28.555  45.013  34.195  1.00  0.00     0.013 C 
ATOM      7  C   UNL     1     -29.339  42.704  33.432  1.00  0.00    -0.063 C 
ATOM      8  C   UNL     1     -31.754  41.831  34.193  1.00  0.00    -0.003 C 
ATOM      9  C   UNL     1     -33.207  42.362  34.377  1.00  0.00    -0.011 C 
ATOM     10  C   UNL     1     -28.402  43.896  33.100  1.00  0.00    -0.006 C 
ATOM     11  C   UNL     1     -28.995  41.436  33.055  1.00  0.00    -0.027 C 
ATOM     12  C   UNL     1     -31.312  40.910  35.356  1.00  0.00     0.008 C 
ATOM     13  C   UNL     1     -34.222  41.246  34.666  1.00  0.00     0.008 C 
ATOM     14  C   UNL     1     -28.901  44.529  31.752  1.00  0.00     0.017 C 
ATOM     15  C   UNL     1     -26.869  43.391  33.011  1.00  0.00    -0.020 C 
ATOM     16  C   UNL     1     -27.618  41.001  32.603  1.00  0.00     0.032 C 
ATOM     17  C   UNL     1     -26.794  42.169  32.025  1.00  0.00     0.006 C 
ATOM     18  C   UNL     1     -25.925  44.496  32.454  1.00  0.00     0.008 C 
ATOM     19  C   UNL     1     -26.393  42.975  34.451  1.00  0.00     0.012 C 
ATOM     20  C   UNL     1     -25.353  41.831  31.373  1.00  0.00    -0.025 C 
ATOM     21  C   UNL     1     -24.442  44.090  32.364  1.00  0.00     0.005 C 
ATOM     22  C   UNL     1     -24.187  42.572  32.133  1.00  0.00     0.003 C 
ATOM     23  C   UNL     1     -25.048  40.300  31.416  1.00  0.00     0.010 C 
ATOM     24  C   UNL     1     -25.412  42.271  29.875  1.00  0.00     0.012 C 
ATOM     25  C   UNL     1     -22.708  42.215  31.692  1.00  0.00    -0.006 C 
ATOM     26  C   UNL     1     -23.635  39.923  30.937  1.00  0.00     0.033 C 
ATOM     27  C   UNL     1     -22.531  40.660  31.718  1.00  0.00     0.120 C 
ATOM     28  C   UNL     1     -21.711  42.829  32.718  1.00  0.00     0.014 C 
ATOM     29  C   UNL     1     -22.300  42.769  30.290  1.00  0.00     0.014 C 
ENDROOT
BRANCH   1  30
ATOM     30  C   UNL     1     -30.318  43.698  36.352  1.00  0.00     0.048 C 
ATOM     31  O   UNL     1     -30.851  44.114  37.415  1.00  0.00    -0.550 OA
ATOM     32  O   UNL     1     -29.179  42.910  36.452  1.00  0.00    -0.550 OA
ENDBRANCH   1  30
BRANCH  27  33
ATOM     33  O   UNL     1     -22.524  40.189  33.047  1.00  0.00    -0.393 OA
ATOM     34  H   UNL     1     -23.230  40.687  33.537  1.00  0.00     0.210 HD
ENDBRANCH  27  33
TORSDOF 2
ENDMDL
