MODEL 1
REMARK VINA RESULT:    -4.530      0.000      0.000
REMARK INTER + INTRA:          -7.681
REMARK INTER:                  -7.179
REMARK INTRA:                  -0.502
REMARK UNBOUND:                -0.502
REMARK SMILES CCCCCCCCCCCC(=O)[O-]
REMARK SMILES IDX 7 1 8 2 9 3 10 4 11 5 12 6 13 7 14 8 6 9 5 10 4 11 3 12 2 13
REMARK SMILES IDX 1 14
REMARK H PARENT
REMARK Flexibility Score: inf
ROOT
ATOM      1  C   UNL     1      -0.582   3.044  -4.232  1.00  0.00     0.000 C 
ENDROOT
BRANCH   1   2
ATOM      2  C   UNL     1       0.896   3.349  -4.531  1.00  0.00     0.000 C 
BRANCH   2   3
ATOM      3  C   UNL     1       1.785   3.234  -3.283  1.00  0.00     0.000 C 
BRANCH   3   4
ATOM      4  C   UNL     1       2.478   1.865  -3.176  1.00  0.00     0.006 C 
BRANCH   4   5
ATOM      5  C   UNL     1       3.784   1.812  -3.979  1.00  0.00     0.053 C 
BRANCH   5   6
ATOM      6  C   UNL     1       4.905   2.500  -3.262  1.00  0.00     0.041 C 
ATOM      7  O   UNL     1       5.489   3.482  -3.792  1.00  0.00    -0.550 OA
ATOM      8  O   UNL     1       5.281   2.079  -1.992  1.00  0.00    -0.550 OA
ENDBRANCH   5   6
ENDBRANCH   4   5
ENDBRANCH   3   4
ENDBRANCH   2   3
ENDBRANCH   1   2
BRANCH   1   9
ATOM      9  C   UNL     1      -0.867   2.907  -2.727  1.00  0.00     0.000 C 
BRANCH   9  10
ATOM     10  C   UNL     1      -2.306   2.442  -2.439  1.00  0.00    -0.000 C 
BRANCH  10  11
ATOM     11  C   UNL     1      -2.706   1.215  -3.274  1.00  0.00    -0.000 C 
BRANCH  11  12
ATOM     12  C   UNL     1      -4.204   1.202  -3.628  1.00  0.00    -0.000 C 
BRANCH  12  13
ATOM     13  C   UNL     1      -4.775  -0.222  -3.711  1.00  0.00    -0.003 C 
ATOM     14  C   UNL     1      -3.716  -1.298  -3.468  1.00  0.00     0.004 C 
ENDBRANCH  12  13
ENDBRANCH  11  12
ENDBRANCH  10  11
ENDBRANCH   9  10
ENDBRANCH   1   9
TORSDOF 10
ENDMDL
MODEL 2
REMARK VINA RESULT:    -4.517      2.593      3.457
REMARK INTER + INTRA:          -7.659
REMARK INTER:                  -7.110
REMARK INTRA:                  -0.549
REMARK UNBOUND:                -0.502
REMARK SMILES CCCCCCCCCCCC(=O)[O-]
REMARK SMILES IDX 7 1 8 2 9 3 10 4 11 5 12 6 13 7 14 8 6 9 5 10 4 11 3 12 2 13
REMARK SMILES IDX 1 14
REMARK H PARENT
REMARK Flexibility Score: inf
ROOT
ATOM      1  C   UNL     1       1.995   3.204  -3.585  1.00  0.00     0.000 C 
ENDROOT
BRANCH   1   2
ATOM      2  C   UNL     1       2.943   2.053  -3.203  1.00  0.00     0.000 C 
BRANCH   2   3
ATOM      3  C   UNL     1       3.827   1.604  -4.376  1.00  0.00     0.000 C 
BRANCH   3   4
ATOM      4  C   UNL     1       4.238   2.774  -5.287  1.00  0.00     0.006 C 
BRANCH   4   5
ATOM      5  C   UNL     1       3.681   2.624  -6.709  1.00  0.00     0.053 C 
BRANCH   5   6
ATOM      6  C   UNL     1       4.560   1.763  -7.563  1.00  0.00     0.041 C 
ATOM      7  O   UNL     1       5.583   2.251  -8.112  1.00  0.00    -0.550 OA
ATOM      8  O   UNL     1       4.270   0.414  -7.723  1.00  0.00    -0.550 OA
ENDBRANCH   5   6
ENDBRANCH   4   5
ENDBRANCH   3   4
ENDBRANCH   2   3
ENDBRANCH   1   2
BRANCH   1   9
ATOM      9  C   UNL     1       0.524   2.894  -3.262  1.00  0.00     0.000 C 
BRANCH   9  10
ATOM     10  C   UNL     1      -0.410   3.151  -4.459  1.00  0.00    -0.000 C 
BRANCH  10  11
ATOM     11  C   UNL     1      -1.855   2.706  -4.184  1.00  0.00    -0.000 C 
BRANCH  11  12
ATOM     12  C   UNL     1      -2.013   2.010  -2.821  1.00  0.00    -0.000 C 
BRANCH  12  13
ATOM     13  C   UNL     1      -3.122   2.640  -1.964  1.00  0.00    -0.003 C 
ATOM     14  C   UNL     1      -4.440   2.790  -2.724  1.00  0.00     0.004 C 
ENDBRANCH  12  13
ENDBRANCH  11  12
ENDBRANCH  10  11
ENDBRANCH   9  10
ENDBRANCH   1   9
TORSDOF 10
ENDMDL
MODEL 3
REMARK VINA RESULT:    -4.504      0.850      1.379
REMARK INTER + INTRA:          -7.639
REMARK INTER:                  -6.951
REMARK INTRA:                  -0.688
REMARK UNBOUND:                -0.502
REMARK SMILES CCCCCCCCCCCC(=O)[O-]
REMARK SMILES IDX 7 1 8 2 9 3 10 4 11 5 12 6 13 7 14 8 6 9 5 10 4 11 3 12 2 13
REMARK SMILES IDX 1 14
REMARK H PARENT
REMARK Flexibility Score: inf
ROOT
ATOM      1  C   UNL     1      -0.353   3.306  -4.934  1.00  0.00     0.000 C 
ENDROOT
BRANCH   1   2
ATOM      2  C   UNL     1       0.587   3.941  -3.893  1.00  0.00     0.000 C 
BRANCH   2   3
ATOM      3  C   UNL     1       2.052   3.526  -4.094  1.00  0.00     0.000 C 
BRANCH   3   4
ATOM      4  C   UNL     1       2.397   2.211  -3.373  1.00  0.00     0.006 C 
BRANCH   4   5
ATOM      5  C   UNL     1       3.811   1.718  -3.713  1.00  0.00     0.053 C 
BRANCH   5   6
ATOM      6  C   UNL     1       4.857   2.447  -2.927  1.00  0.00     0.041 C 
ATOM      7  O   UNL     1       5.051   2.164  -1.716  1.00  0.00    -0.550 OA
ATOM      8  O   UNL     1       5.642   3.414  -3.542  1.00  0.00    -0.550 OA
ENDBRANCH   5   6
ENDBRANCH   4   5
ENDBRANCH   3   4
ENDBRANCH   2   3
ENDBRANCH   1   2
BRANCH   1   9
ATOM      9  C   UNL     1      -1.649   2.762  -4.309  1.00  0.00     0.000 C 
BRANCH   9  10
ATOM     10  C   UNL     1      -1.557   2.633  -2.778  1.00  0.00    -0.000 C 
BRANCH  10  11
ATOM     11  C   UNL     1      -2.932   2.445  -2.118  1.00  0.00    -0.000 C 
BRANCH  11  12
ATOM     12  C   UNL     1      -4.094   2.594  -3.117  1.00  0.00    -0.000 C 
BRANCH  12  13
ATOM     13  C   UNL     1      -4.900   1.297  -3.279  1.00  0.00    -0.003 C 
ATOM     14  C   UNL     1      -4.008   0.065  -3.437  1.00  0.00     0.004 C 
ENDBRANCH  12  13
ENDBRANCH  11  12
ENDBRANCH  10  11
ENDBRANCH   9  10
ENDBRANCH   1   9
TORSDOF 10
ENDMDL
MODEL 4
REMARK VINA RESULT:    -4.493      1.260      1.540
REMARK INTER + INTRA:          -7.622
REMARK INTER:                  -6.914
REMARK INTRA:                  -0.709
REMARK UNBOUND:                -0.502
REMARK SMILES CCCCCCCCCCCC(=O)[O-]
REMARK SMILES IDX 7 1 8 2 9 3 10 4 11 5 12 6 13 7 14 8 6 9 5 10 4 11 3 12 2 13
REMARK SMILES IDX 1 14
REMARK H PARENT
REMARK Flexibility Score: inf
ROOT
ATOM      1  C   UNL     1      -0.022   3.375  -4.623  1.00  0.00     0.000 C 
ENDROOT
BRANCH   1   2
ATOM      2  C   UNL     1       0.660   4.136  -3.472  1.00  0.00     0.000 C 
BRANCH   2   3
ATOM      3  C   UNL     1       2.128   3.726  -3.284  1.00  0.00     0.000 C 
BRANCH   3   4
ATOM      4  C   UNL     1       2.322   2.199  -3.297  1.00  0.00     0.006 C 
BRANCH   4   5
ATOM      5  C   UNL     1       3.718   1.797  -3.792  1.00  0.00     0.053 C 
BRANCH   5   6
ATOM      6  C   UNL     1       4.801   2.455  -2.993  1.00  0.00     0.041 C 
ATOM      7  O   UNL     1       5.592   3.265  -3.544  1.00  0.00    -0.550 OA
ATOM      8  O   UNL     1       4.914   2.200  -1.632  1.00  0.00    -0.550 OA
ENDBRANCH   5   6
ENDBRANCH   4   5
ENDBRANCH   3   4
ENDBRANCH   2   3
ENDBRANCH   1   2
BRANCH   1   9
ATOM      9  C   UNL     1      -1.366   2.752  -4.209  1.00  0.00     0.000 C 
BRANCH   9  10
ATOM     10  C   UNL     1      -1.471   2.534  -2.689  1.00  0.00    -0.000 C 
BRANCH  10  11
ATOM     11  C   UNL     1      -2.928   2.443  -2.207  1.00  0.00    -0.000 C 
BRANCH  11  12
ATOM     12  C   UNL     1      -3.920   3.086  -3.192  1.00  0.00    -0.000 C 
BRANCH  12  13
ATOM     13  C   UNL     1      -5.376   2.687  -2.904  1.00  0.00    -0.003 C 
ATOM     14  C   UNL     1      -5.706   1.274  -3.384  1.00  0.00     0.004 C 
ENDBRANCH  12  13
ENDBRANCH  11  12
ENDBRANCH  10  11
ENDBRANCH   9  10
ENDBRANCH   1   9
TORSDOF 10
ENDMDL
MODEL 5
REMARK VINA RESULT:    -4.424      1.100      1.596
REMARK INTER + INTRA:          -7.513
REMARK INTER:                  -6.891
REMARK INTRA:                  -0.622
REMARK UNBOUND:                -0.502
REMARK SMILES CCCCCCCCCCCC(=O)[O-]
REMARK SMILES IDX 7 1 8 2 9 3 10 4 11 5 12 6 13 7 14 8 6 9 5 10 4 11 3 12 2 13
REMARK SMILES IDX 1 14
REMARK H PARENT
REMARK Flexibility Score: inf
ROOT
ATOM      1  C   UNL     1      -1.110   3.081  -3.582  1.00  0.00     0.000 C 
ENDROOT
BRANCH   1   2
ATOM      2  C   UNL     1       0.249   3.468  -2.972  1.00  0.00     0.000 C 
BRANCH   2   3
ATOM      3  C   UNL     1       1.434   2.996  -3.828  1.00  0.00     0.000 C 
BRANCH   3   4
ATOM      4  C   UNL     1       2.267   1.905  -3.134  1.00  0.00     0.006 C 
BRANCH   4   5
ATOM      5  C   UNL     1       3.731   1.912  -3.595  1.00  0.00     0.053 C 
BRANCH   5   6
ATOM      6  C   UNL     1       4.633   2.526  -2.568  1.00  0.00     0.041 C 
ATOM      7  O   UNL     1       5.617   1.880  -2.121  1.00  0.00    -0.550 OA
ATOM      8  O   UNL     1       4.408   3.826  -2.132  1.00  0.00    -0.550 OA
ENDBRANCH   5   6
ENDBRANCH   4   5
ENDBRANCH   3   4
ENDBRANCH   2   3
ENDBRANCH   1   2
BRANCH   1   9
ATOM      9  C   UNL     1      -1.923   2.145  -2.672  1.00  0.00     0.000 C 
BRANCH   9  10
ATOM     10  C   UNL     1      -3.325   2.698  -2.359  1.00  0.00    -0.000 C 
BRANCH  10  11
ATOM     11  C   UNL     1      -4.443   1.876  -3.019  1.00  0.00    -0.000 C 
BRANCH  11  12
ATOM     12  C   UNL     1      -3.989   0.456  -3.401  1.00  0.00    -0.000 C 
BRANCH  12  13
ATOM     13  C   UNL     1      -4.200   0.153  -4.892  1.00  0.00    -0.003 C 
ATOM     14  C   UNL     1      -4.190   1.413  -5.757  1.00  0.00     0.004 C 
ENDBRANCH  12  13
ENDBRANCH  11  12
ENDBRANCH  10  11
ENDBRANCH   9  10
ENDBRANCH   1   9
TORSDOF 10
ENDMDL
MODEL 6
REMARK VINA RESULT:    -4.398      1.569      2.300
REMARK INTER + INTRA:          -7.471
REMARK INTER:                  -6.680
REMARK INTRA:                  -0.791
REMARK UNBOUND:                -0.502
REMARK SMILES CCCCCCCCCCCC(=O)[O-]
REMARK SMILES IDX 7 1 8 2 9 3 10 4 11 5 12 6 13 7 14 8 6 9 5 10 4 11 3 12 2 13
REMARK SMILES IDX 1 14
REMARK H PARENT
REMARK Flexibility Score: inf
ROOT
ATOM      1  C   UNL     1      -0.323   4.528  -4.671  1.00  0.00     0.000 C 
ENDROOT
BRANCH   1   2
ATOM      2  C   UNL     1       0.510   4.352  -3.388  1.00  0.00     0.000 C 
BRANCH   2   3
ATOM      3  C   UNL     1       1.170   2.968  -3.300  1.00  0.00     0.000 C 
BRANCH   3   4
ATOM      4  C   UNL     1       2.564   2.935  -3.951  1.00  0.00     0.006 C 
BRANCH   4   5
ATOM      5  C   UNL     1       3.463   1.851  -3.341  1.00  0.00     0.053 C 
BRANCH   5   6
ATOM      6  C   UNL     1       4.831   2.376  -3.028  1.00  0.00     0.041 C 
ATOM      7  O   UNL     1       5.493   1.889  -2.074  1.00  0.00    -0.550 OA
ATOM      8  O   UNL     1       5.388   3.379  -3.811  1.00  0.00    -0.550 OA
ENDBRANCH   5   6
ENDBRANCH   4   5
ENDBRANCH   3   4
ENDBRANCH   2   3
ENDBRANCH   1   2
BRANCH   1   9
ATOM      9  C   UNL     1      -0.734   3.185  -5.299  1.00  0.00     0.000 C 
BRANCH   9  10
ATOM     10  C   UNL     1      -2.249   3.094  -5.557  1.00  0.00    -0.000 C 
BRANCH  10  11
ATOM     11  C   UNL     1      -2.932   2.032  -4.681  1.00  0.00    -0.000 C 
BRANCH  11  12
ATOM     12  C   UNL     1      -2.225   1.834  -3.328  1.00  0.00    -0.000 C 
BRANCH  12  13
ATOM     13  C   UNL     1      -2.991   2.483  -2.165  1.00  0.00    -0.003 C 
ATOM     14  C   UNL     1      -4.406   2.909  -2.555  1.00  0.00     0.004 C 
ENDBRANCH  12  13
ENDBRANCH  11  12
ENDBRANCH  10  11
ENDBRANCH   9  10
ENDBRANCH   1   9
TORSDOF 10
ENDMDL
MODEL 7
REMARK VINA RESULT:    -4.394      1.792      2.523
REMARK INTER + INTRA:          -7.465
REMARK INTER:                  -6.296
REMARK INTRA:                  -1.169
REMARK UNBOUND:                -0.502
REMARK SMILES CCCCCCCCCCCC(=O)[O-]
REMARK SMILES IDX 7 1 8 2 9 3 10 4 11 5 12 6 13 7 14 8 6 9 5 10 4 11 3 12 2 13
REMARK SMILES IDX 1 14
REMARK H PARENT
REMARK Flexibility Score: inf
ROOT
ATOM      1  C   UNL     1       0.865   4.765  -4.369  1.00  0.00     0.000 C 
ENDROOT
BRANCH   1   2
ATOM      2  C   UNL     1       1.221   3.682  -5.403  1.00  0.00     0.000 C 
BRANCH   2   3
ATOM      3  C   UNL     1       2.681   3.773  -5.870  1.00  0.00     0.000 C 
BRANCH   3   4
ATOM      4  C   UNL     1       3.565   2.668  -5.265  1.00  0.00     0.006 C 
BRANCH   4   5
ATOM      5  C   UNL     1       4.320   3.149  -4.018  1.00  0.00     0.053 C 
BRANCH   5   6
ATOM      6  C   UNL     1       4.073   2.256  -2.841  1.00  0.00     0.041 C 
ATOM      7  O   UNL     1       3.086   1.474  -2.834  1.00  0.00    -0.550 OA
ATOM      8  O   UNL     1       4.954   2.262  -1.766  1.00  0.00    -0.550 OA
ENDBRANCH   5   6
ENDBRANCH   4   5
ENDBRANCH   3   4
ENDBRANCH   2   3
ENDBRANCH   1   2
BRANCH   1   9
ATOM      9  C   UNL     1       0.566   4.181  -2.977  1.00  0.00     0.000 C 
BRANCH   9  10
ATOM     10  C   UNL     1       0.000   2.751  -3.047  1.00  0.00    -0.000 C 
BRANCH  10  11
ATOM     11  C   UNL     1      -1.484   2.685  -2.652  1.00  0.00    -0.000 C 
BRANCH  11  12
ATOM     12  C   UNL     1      -2.328   1.872  -3.649  1.00  0.00    -0.000 C 
BRANCH  12  13
ATOM     13  C   UNL     1      -2.934   2.747  -4.756  1.00  0.00    -0.003 C 
ATOM     14  C   UNL     1      -2.208   2.594  -6.093  1.00  0.00     0.004 C 
ENDBRANCH  12  13
ENDBRANCH  11  12
ENDBRANCH  10  11
ENDBRANCH   9  10
ENDBRANCH   1   9
TORSDOF 10
ENDMDL
MODEL 8
REMARK VINA RESULT:    -4.277      1.786      2.679
REMARK INTER + INTRA:          -7.280
REMARK INTER:                  -6.503
REMARK INTRA:                  -0.777
REMARK UNBOUND:                -0.502
REMARK SMILES CCCCCCCCCCCC(=O)[O-]
REMARK SMILES IDX 7 1 8 2 9 3 10 4 11 5 12 6 13 7 14 8 6 9 5 10 4 11 3 12 2 13
REMARK SMILES IDX 1 14
REMARK H PARENT
REMARK Flexibility Score: inf
ROOT
ATOM      1  C   UNL     1      -1.876   2.486  -4.592  1.00  0.00     0.000 C 
ENDROOT
BRANCH   1   2
ATOM      2  C   UNL     1      -0.531   3.233  -4.574  1.00  0.00     0.000 C 
BRANCH   2   3
ATOM      3  C   UNL     1       0.024   3.411  -3.153  1.00  0.00     0.000 C 
BRANCH   3   4
ATOM      4  C   UNL     1       1.539   3.679  -3.140  1.00  0.00     0.006 C 
BRANCH   4   5
ATOM      5  C   UNL     1       2.258   2.993  -4.310  1.00  0.00     0.053 C 
BRANCH   5   6
ATOM      6  C   UNL     1       3.219   1.947  -3.835  1.00  0.00     0.041 C 
ATOM      7  O   UNL     1       4.018   1.406  -4.644  1.00  0.00    -0.550 OA
ATOM      8  O   UNL     1       3.256   1.595  -2.491  1.00  0.00    -0.550 OA
ENDBRANCH   5   6
ENDBRANCH   4   5
ENDBRANCH   3   4
ENDBRANCH   2   3
ENDBRANCH   1   2
BRANCH   1   9
ATOM      9  C   UNL     1      -2.258   1.918  -3.214  1.00  0.00     0.000 C 
BRANCH   9  10
ATOM     10  C   UNL     1      -3.348   0.834  -3.304  1.00  0.00    -0.000 C 
BRANCH  10  11
ATOM     11  C   UNL     1      -4.767   1.421  -3.255  1.00  0.00    -0.000 C 
BRANCH  11  12
ATOM     12  C   UNL     1      -4.820   2.789  -2.551  1.00  0.00    -0.000 C 
BRANCH  12  13
ATOM     13  C   UNL     1      -5.720   3.794  -3.285  1.00  0.00    -0.003 C 
ATOM     14  C   UNL     1      -4.976   4.565  -4.375  1.00  0.00     0.004 C 
ENDBRANCH  12  13
ENDBRANCH  11  12
ENDBRANCH  10  11
ENDBRANCH   9  10
ENDBRANCH   1   9
TORSDOF 10
ENDMDL
MODEL 9
REMARK VINA RESULT:    -4.259      2.007      2.359
REMARK INTER + INTRA:          -7.251
REMARK INTER:                  -6.707
REMARK INTRA:                  -0.544
REMARK UNBOUND:                -0.502
REMARK SMILES CCCCCCCCCCCC(=O)[O-]
REMARK SMILES IDX 7 1 8 2 9 3 10 4 11 5 12 6 13 7 14 8 6 9 5 10 4 11 3 12 2 13
REMARK SMILES IDX 1 14
REMARK H PARENT
REMARK Flexibility Score: inf
ROOT
ATOM      1  C   UNL     1       0.573   4.074  -3.259  1.00  0.00     0.000 C 
ENDROOT
BRANCH   1   2
ATOM      2  C   UNL     1       2.069   3.740  -3.403  1.00  0.00     0.000 C 
BRANCH   2   3
ATOM      3  C   UNL     1       2.327   2.229  -3.507  1.00  0.00     0.000 C 
BRANCH   3   4
ATOM      4  C   UNL     1       3.734   1.905  -4.039  1.00  0.00     0.006 C 
BRANCH   4   5
ATOM      5  C   UNL     1       4.228   2.954  -5.044  1.00  0.00     0.053 C 
BRANCH   5   6
ATOM      6  C   UNL     1       3.771   2.647  -6.437  1.00  0.00     0.041 C 
ATOM      7  O   UNL     1       2.824   3.298  -6.951  1.00  0.00    -0.550 OA
ATOM      8  O   UNL     1       4.416   1.666  -7.181  1.00  0.00    -0.550 OA
ENDBRANCH   5   6
ENDBRANCH   4   5
ENDBRANCH   3   4
ENDBRANCH   2   3
ENDBRANCH   1   2
BRANCH   1   9
ATOM      9  C   UNL     1      -0.248   2.896  -2.707  1.00  0.00     0.000 C 
BRANCH   9  10
ATOM     10  C   UNL     1      -1.663   2.832  -3.308  1.00  0.00    -0.000 C 
BRANCH  10  11
ATOM     11  C   UNL     1      -2.725   2.428  -2.272  1.00  0.00    -0.000 C 
BRANCH  11  12
ATOM     12  C   UNL     1      -4.114   2.212  -2.899  1.00  0.00    -0.000 C 
BRANCH  12  13
ATOM     13  C   UNL     1      -4.108   1.118  -3.978  1.00  0.00    -0.003 C 
ATOM     14  C   UNL     1      -3.783  -0.265  -3.413  1.00  0.00     0.004 C 
ENDBRANCH  12  13
ENDBRANCH  11  12
ENDBRANCH  10  11
ENDBRANCH   9  10
ENDBRANCH   1   9
TORSDOF 10
ENDMDL
