MODEL 1
REMARK VINA RESULT:    -7.053      0.000      0.000
REMARK INTER + INTRA:          -8.768
REMARK INTER:                  -8.496
REMARK INTRA:                  -0.271
REMARK UNBOUND:                -0.271
REMARK SMILES O=c1c(O)c(-c2ccc(O)c(O)c2)oc2cc(O)cc(O)c12
REMARK SMILES IDX 5 1 3 2 2 3 1 4 22 5 20 6 19 7 17 8 16 9 15 10 14 11 6 12
REMARK SMILES IDX 7 13 8 14 9 15 13 16 11 17 10 18 12 20 4 22 21 24 18 26
REMARK H PARENT 10 19 12 21 4 23 21 25 18 27
REMARK Flexibility Score: inf
ROOT
ATOM      1  C   UNL     1     -19.968  32.632  -7.464  1.00  0.00     0.180 A 
ATOM      2  C   UNL     1     -20.816  31.594  -7.894  1.00  0.00     0.208 A 
ATOM      3  C   UNL     1     -20.288  30.580  -8.708  1.00  0.00     0.238 A 
ATOM      4  O   UNL     1     -21.041  29.651  -9.109  1.00  0.00    -0.285 OA
ATOM      5  C   UNL     1     -18.922  30.609  -9.059  1.00  0.00     0.111 A 
ATOM      6  C   UNL     1     -18.311  29.623  -9.871  1.00  0.00     0.134 A 
ATOM      7  C   UNL     1     -16.944  29.718 -10.169  1.00  0.00     0.093 A 
ATOM      8  C   UNL     1     -16.177  30.774  -9.671  1.00  0.00     0.123 A 
ATOM      9  C   UNL     1     -16.775  31.750  -8.868  1.00  0.00     0.094 A 
ATOM     10  C   UNL     1     -18.138  31.675  -8.562  1.00  0.00     0.146 A 
ATOM     11  O   UNL     1     -18.683  32.618  -7.801  1.00  0.00    -0.452 OA
ENDROOT
BRANCH   1  12
ATOM     12  C   UNL     1     -20.456  33.747  -6.619  1.00  0.00     0.025 A 
ATOM     13  C   UNL     1     -21.223  34.769  -7.201  1.00  0.00     0.016 A 
ATOM     14  C   UNL     1     -21.713  35.819  -6.419  1.00  0.00     0.051 A 
ATOM     15  C   UNL     1     -21.458  35.856  -5.045  1.00  0.00     0.157 A 
ATOM     16  C   UNL     1     -20.220  33.775  -5.233  1.00  0.00     0.062 A 
ATOM     17  C   UNL     1     -20.712  34.827  -4.447  1.00  0.00     0.158 A 
BRANCH  15  18
ATOM     18  O   UNL     1     -21.958  36.917  -4.291  1.00  0.00    -0.504 OA
ATOM     19  H   UNL     1     -22.899  37.268  -4.415  1.00  0.00     0.293 HD
ENDBRANCH  15  18
BRANCH  17  20
ATOM     20  O   UNL     1     -20.466  34.850  -3.075  1.00  0.00    -0.504 OA
ATOM     21  H   UNL     1     -21.207  34.700  -2.400  1.00  0.00     0.293 HD
ENDBRANCH  17  20
ENDBRANCH   1  12
BRANCH   2  22
ATOM     22  O   UNL     1     -22.154  31.563  -7.491  1.00  0.00    -0.502 OA
ATOM     23  H   UNL     1     -22.445  31.819  -6.555  1.00  0.00     0.293 HD
ENDBRANCH   2  22
BRANCH   6  24
ATOM     24  O   UNL     1     -19.049  28.555 -10.383  1.00  0.00    -0.507 OA
ATOM     25  H   UNL     1     -20.052  28.491 -10.255  1.00  0.00     0.293 HD
ENDBRANCH   6  24
BRANCH   8  26
ATOM     26  O   UNL     1     -14.820  30.844  -9.979  1.00  0.00    -0.508 OA
ATOM     27  H   UNL     1     -14.190  31.445  -9.464  1.00  0.00     0.293 HD
ENDBRANCH   8  26
TORSDOF 6
ENDMDL
MODEL 2
REMARK VINA RESULT:    -6.772      1.301      3.007
REMARK INTER + INTRA:          -8.429
REMARK INTER:                  -8.098
REMARK INTRA:                  -0.330
REMARK UNBOUND:                -0.271
REMARK SMILES O=c1c(O)c(-c2ccc(O)c(O)c2)oc2cc(O)cc(O)c12
REMARK SMILES IDX 5 1 3 2 2 3 1 4 22 5 20 6 19 7 17 8 16 9 15 10 14 11 6 12
REMARK SMILES IDX 7 13 8 14 9 15 13 16 11 17 10 18 12 20 4 22 21 24 18 26
REMARK H PARENT 10 19 12 21 4 23 21 25 18 27
REMARK Flexibility Score: inf
ROOT
ATOM      1  C   UNL     1     -19.740  32.377  -7.655  1.00  0.00     0.180 A 
ATOM      2  C   UNL     1     -18.468  32.421  -8.259  1.00  0.00     0.208 A 
ATOM      3  C   UNL     1     -18.088  31.376  -9.116  1.00  0.00     0.238 A 
ATOM      4  O   UNL     1     -16.948  31.398  -9.653  1.00  0.00    -0.285 OA
ATOM      5  C   UNL     1     -18.989  30.321  -9.370  1.00  0.00     0.111 A 
ATOM      6  C   UNL     1     -18.686  29.233 -10.224  1.00  0.00     0.134 A 
ATOM      7  C   UNL     1     -19.640  28.227 -10.434  1.00  0.00     0.093 A 
ATOM      8  C   UNL     1     -20.887  28.286  -9.810  1.00  0.00     0.123 A 
ATOM      9  C   UNL     1     -21.193  29.359  -8.965  1.00  0.00     0.094 A 
ATOM     10  C   UNL     1     -20.255  30.371  -8.741  1.00  0.00     0.146 A 
ATOM     11  O   UNL     1     -20.568  31.375  -7.931  1.00  0.00    -0.452 OA
ENDROOT
BRANCH   1  12
ATOM     12  C   UNL     1     -20.205  33.433  -6.725  1.00  0.00     0.025 A 
ATOM     13  C   UNL     1     -20.982  34.493  -7.218  1.00  0.00     0.016 A 
ATOM     14  C   UNL     1     -21.450  35.488  -6.355  1.00  0.00     0.051 A 
ATOM     15  C   UNL     1     -21.162  35.431  -4.989  1.00  0.00     0.157 A 
ATOM     16  C   UNL     1     -19.935  33.366  -5.347  1.00  0.00     0.062 A 
ATOM     17  C   UNL     1     -20.405  34.363  -4.480  1.00  0.00     0.158 A 
BRANCH  15  18
ATOM     18  O   UNL     1     -21.641  36.439  -4.152  1.00  0.00    -0.504 OA
ATOM     19  H   UNL     1     -21.700  37.404  -4.453  1.00  0.00     0.293 HD
ENDBRANCH  15  18
BRANCH  17  20
ATOM     20  O   UNL     1     -20.126  34.293  -3.116  1.00  0.00    -0.504 OA
ATOM     21  H   UNL     1     -19.249  33.920  -2.771  1.00  0.00     0.293 HD
ENDBRANCH  17  20
ENDBRANCH   1  12
BRANCH   2  22
ATOM     22  O   UNL     1     -17.614  33.503  -8.029  1.00  0.00    -0.502 OA
ATOM     23  H   UNL     1     -17.585  33.992  -7.142  1.00  0.00     0.293 HD
ENDBRANCH   2  22
BRANCH   6  24
ATOM     24  O   UNL     1     -17.448  29.145 -10.864  1.00  0.00    -0.507 OA
ATOM     25  H   UNL     1     -16.696  29.792 -10.658  1.00  0.00     0.293 HD
ENDBRANCH   6  24
BRANCH   8  26
ATOM     26  O   UNL     1     -21.818  27.274 -10.035  1.00  0.00    -0.508 OA
ATOM     27  H   UNL     1     -21.541  26.368 -10.390  1.00  0.00     0.293 HD
ENDBRANCH   8  26
TORSDOF 6
ENDMDL
MODEL 3
REMARK VINA RESULT:    -6.696      3.411      5.499
REMARK INTER + INTRA:          -8.337
REMARK INTER:                  -8.297
REMARK INTRA:                  -0.040
REMARK UNBOUND:                -0.271
REMARK SMILES O=c1c(O)c(-c2ccc(O)c(O)c2)oc2cc(O)cc(O)c12
REMARK SMILES IDX 5 1 3 2 2 3 1 4 22 5 20 6 19 7 17 8 16 9 15 10 14 11 6 12
REMARK SMILES IDX 7 13 8 14 9 15 13 16 11 17 10 18 12 20 4 22 21 24 18 26
REMARK H PARENT 10 19 12 21 4 23 21 25 18 27
REMARK Flexibility Score: inf
ROOT
ATOM      1  C   UNL     1     -19.213  33.801  -7.133  1.00  0.00     0.180 A 
ATOM      2  C   UNL     1     -18.008  33.395  -7.738  1.00  0.00     0.208 A 
ATOM      3  C   UNL     1     -17.301  34.317  -8.526  1.00  0.00     0.238 A 
ATOM      4  O   UNL     1     -16.226  33.962  -9.082  1.00  0.00    -0.285 OA
ATOM      5  C   UNL     1     -17.796  35.629  -8.678  1.00  0.00     0.111 A 
ATOM      6  C   UNL     1     -17.143  36.619  -9.451  1.00  0.00     0.134 A 
ATOM      7  C   UNL     1     -17.695  37.904  -9.545  1.00  0.00     0.093 A 
ATOM      8  C   UNL     1     -18.884  38.219  -8.884  1.00  0.00     0.123 A 
ATOM      9  C   UNL     1     -19.535  37.246  -8.119  1.00  0.00     0.094 A 
ATOM     10  C   UNL     1     -19.002  35.957  -8.014  1.00  0.00     0.146 A 
ATOM     11  O   UNL     1     -19.642  35.049  -7.286  1.00  0.00    -0.452 OA
ENDROOT
BRANCH   1  12
ATOM     12  C   UNL     1     -20.025  32.880  -6.304  1.00  0.00     0.025 A 
ATOM     13  C   UNL     1     -21.366  32.644  -6.646  1.00  0.00     0.016 A 
ATOM     14  C   UNL     1     -22.144  31.762  -5.891  1.00  0.00     0.051 A 
ATOM     15  C   UNL     1     -21.592  31.093  -4.795  1.00  0.00     0.157 A 
ATOM     16  C   UNL     1     -19.466  32.190  -5.214  1.00  0.00     0.062 A 
ATOM     17  C   UNL     1     -20.245  31.304  -4.456  1.00  0.00     0.158 A 
BRANCH  15  18
ATOM     18  O   UNL     1     -22.394  30.221  -4.059  1.00  0.00    -0.504 OA
ATOM     19  H   UNL     1     -23.397  30.340  -3.991  1.00  0.00     0.293 HD
ENDBRANCH  15  18
BRANCH  17  20
ATOM     20  O   UNL     1     -19.684  30.629  -3.373  1.00  0.00    -0.504 OA
ATOM     21  H   UNL     1     -20.261  30.218  -2.647  1.00  0.00     0.293 HD
ENDBRANCH  17  20
ENDBRANCH   1  12
BRANCH   2  22
ATOM     22  O   UNL     1     -17.514  32.105  -7.531  1.00  0.00    -0.502 OA
ATOM     23  H   UNL     1     -17.413  31.435  -8.285  1.00  0.00     0.293 HD
ENDBRANCH   2  22
BRANCH   6  24
ATOM     24  O   UNL     1     -15.952  36.336 -10.122  1.00  0.00    -0.507 OA
ATOM     25  H   UNL     1     -15.080  36.788  -9.874  1.00  0.00     0.293 HD
ENDBRANCH   6  24
BRANCH   8  26
ATOM     26  O   UNL     1     -19.412  39.504  -8.993  1.00  0.00    -0.508 OA
ATOM     27  H   UNL     1     -18.865  40.272  -9.362  1.00  0.00     0.293 HD
ENDBRANCH   8  26
TORSDOF 6
ENDMDL
MODEL 4
REMARK VINA RESULT:    -6.635      2.018      6.987
REMARK INTER + INTRA:          -8.264
REMARK INTER:                  -7.980
REMARK INTRA:                  -0.284
REMARK UNBOUND:                -0.271
REMARK SMILES O=c1c(O)c(-c2ccc(O)c(O)c2)oc2cc(O)cc(O)c12
REMARK SMILES IDX 5 1 3 2 2 3 1 4 22 5 20 6 19 7 17 8 16 9 15 10 14 11 6 12
REMARK SMILES IDX 7 13 8 14 9 15 13 16 11 17 10 18 12 20 4 22 21 24 18 26
REMARK H PARENT 10 19 12 21 4 23 21 25 18 27
REMARK Flexibility Score: inf
ROOT
ATOM      1  C   UNL     1     -20.619  31.965  -7.349  1.00  0.00     0.180 A 
ATOM      2  C   UNL     1     -20.410  31.835  -5.963  1.00  0.00     0.208 A 
ATOM      3  C   UNL     1     -20.558  32.968  -5.145  1.00  0.00     0.238 A 
ATOM      4  O   UNL     1     -20.362  32.866  -3.904  1.00  0.00    -0.285 OA
ATOM      5  C   UNL     1     -20.930  34.199  -5.722  1.00  0.00     0.111 A 
ATOM      6  C   UNL     1     -21.104  35.386  -4.969  1.00  0.00     0.134 A 
ATOM      7  C   UNL     1     -21.484  36.570  -5.616  1.00  0.00     0.093 A 
ATOM      8  C   UNL     1     -21.694  36.593  -6.996  1.00  0.00     0.123 A 
ATOM      9  C   UNL     1     -21.525  35.424  -7.745  1.00  0.00     0.094 A 
ATOM     10  C   UNL     1     -21.143  34.233  -7.120  1.00  0.00     0.146 A 
ATOM     11  O   UNL     1     -20.984  33.139  -7.855  1.00  0.00    -0.452 OA
ENDROOT
BRANCH   1  12
ATOM     12  C   UNL     1     -20.464  30.822  -8.278  1.00  0.00     0.025 A 
ATOM     13  C   UNL     1     -19.273  30.683  -9.009  1.00  0.00     0.016 A 
ATOM     14  C   UNL     1     -19.096  29.600  -9.874  1.00  0.00     0.051 A 
ATOM     15  C   UNL     1     -20.096  28.633 -10.010  1.00  0.00     0.157 A 
ATOM     16  C   UNL     1     -21.459  29.837  -8.400  1.00  0.00     0.062 A 
ATOM     17  C   UNL     1     -21.283  28.748  -9.267  1.00  0.00     0.158 A 
BRANCH  15  18
ATOM     18  O   UNL     1     -19.892  27.565 -10.883  1.00  0.00    -0.504 OA
ATOM     19  H   UNL     1     -19.579  26.658 -10.559  1.00  0.00     0.293 HD
ENDBRANCH  15  18
BRANCH  17  20
ATOM     20  O   UNL     1     -22.278  27.780  -9.387  1.00  0.00    -0.504 OA
ATOM     21  H   UNL     1     -22.231  26.903  -8.880  1.00  0.00     0.293 HD
ENDBRANCH  17  20
ENDBRANCH   1  12
BRANCH   2  22
ATOM     22  O   UNL     1     -20.091  30.592  -5.410  1.00  0.00    -0.502 OA
ATOM     23  H   UNL     1     -20.781  29.861  -5.285  1.00  0.00     0.293 HD
ENDBRANCH   2  22
BRANCH   6  24
ATOM     24  O   UNL     1     -20.902  35.396  -3.588  1.00  0.00    -0.507 OA
ATOM     25  H   UNL     1     -20.691  36.250  -3.086  1.00  0.00     0.293 HD
ENDBRANCH   6  24
BRANCH   8  26
ATOM     26  O   UNL     1     -22.073  37.783  -7.615  1.00  0.00    -0.508 OA
ATOM     27  H   UNL     1     -22.556  37.787  -8.505  1.00  0.00     0.293 HD
ENDBRANCH   8  26
TORSDOF 6
ENDMDL
MODEL 5
REMARK VINA RESULT:    -6.353      3.384      5.059
REMARK INTER + INTRA:          -7.925
REMARK INTER:                  -7.628
REMARK INTRA:                  -0.297
REMARK UNBOUND:                -0.271
REMARK SMILES O=c1c(O)c(-c2ccc(O)c(O)c2)oc2cc(O)cc(O)c12
REMARK SMILES IDX 5 1 3 2 2 3 1 4 22 5 20 6 19 7 17 8 16 9 15 10 14 11 6 12
REMARK SMILES IDX 7 13 8 14 9 15 13 16 11 17 10 18 12 20 4 22 21 24 18 26
REMARK H PARENT 10 19 12 21 4 23 21 25 18 27
REMARK Flexibility Score: inf
ROOT
ATOM      1  C   UNL     1     -18.926  34.070  -8.567  1.00  0.00     0.180 A 
ATOM      2  C   UNL     1     -19.470  33.374  -9.663  1.00  0.00     0.208 A 
ATOM      3  C   UNL     1     -20.227  32.216  -9.422  1.00  0.00     0.238 A 
ATOM      4  O   UNL     1     -20.710  31.578 -10.397  1.00  0.00    -0.285 OA
ATOM      5  C   UNL     1     -20.443  31.787  -8.096  1.00  0.00     0.111 A 
ATOM      6  C   UNL     1     -21.197  30.635  -7.768  1.00  0.00     0.134 A 
ATOM      7  C   UNL     1     -21.374  30.280  -6.423  1.00  0.00     0.093 A 
ATOM      8  C   UNL     1     -20.815  31.052  -5.402  1.00  0.00     0.123 A 
ATOM      9  C   UNL     1     -20.070  32.192  -5.720  1.00  0.00     0.094 A 
ATOM     10  C   UNL     1     -19.879  32.562  -7.055  1.00  0.00     0.146 A 
ATOM     11  O   UNL     1     -19.163  33.646  -7.330  1.00  0.00    -0.452 OA
ENDROOT
BRANCH   1  12
ATOM     12  C   UNL     1     -18.101  35.289  -8.741  1.00  0.00     0.025 A 
ATOM     13  C   UNL     1     -18.657  36.545  -8.451  1.00  0.00     0.016 A 
ATOM     14  C   UNL     1     -17.891  37.706  -8.588  1.00  0.00     0.051 A 
ATOM     15  C   UNL     1     -16.558  37.629  -8.999  1.00  0.00     0.157 A 
ATOM     16  C   UNL     1     -16.754  35.212  -9.134  1.00  0.00     0.062 A 
ATOM     17  C   UNL     1     -15.983  36.375  -9.270  1.00  0.00     0.158 A 
BRANCH  15  18
ATOM     18  O   UNL     1     -15.818  38.804  -9.129  1.00  0.00    -0.504 OA
ATOM     19  H   UNL     1     -16.199  39.633  -9.567  1.00  0.00     0.293 HD
ENDBRANCH  15  18
BRANCH  17  20
ATOM     20  O   UNL     1     -14.649  36.290  -9.667  1.00  0.00    -0.504 OA
ATOM     21  H   UNL     1     -14.263  36.912 -10.368  1.00  0.00     0.293 HD
ENDBRANCH  17  20
ENDBRANCH   1  12
BRANCH   2  22
ATOM     22  O   UNL     1     -19.283  33.847 -10.964  1.00  0.00    -0.502 OA
ATOM     23  H   UNL     1     -19.993  33.758 -11.681  1.00  0.00     0.293 HD
ENDBRANCH   2  22
BRANCH   6  24
ATOM     24  O   UNL     1     -21.769  29.843  -8.765  1.00  0.00    -0.507 OA
ATOM     25  H   UNL     1     -22.738  29.548  -8.720  1.00  0.00     0.293 HD
ENDBRANCH   6  24
BRANCH   8  26
ATOM     26  O   UNL     1     -21.007  30.678  -4.074  1.00  0.00    -0.508 OA
ATOM     27  H   UNL     1     -20.685  29.785  -3.722  1.00  0.00     0.293 HD
ENDBRANCH   8  26
TORSDOF 6
ENDMDL
MODEL 6
REMARK VINA RESULT:    -6.315      3.279      5.169
REMARK INTER + INTRA:          -7.879
REMARK INTER:                  -7.604
REMARK INTRA:                  -0.275
REMARK UNBOUND:                -0.271
REMARK SMILES O=c1c(O)c(-c2ccc(O)c(O)c2)oc2cc(O)cc(O)c12
REMARK SMILES IDX 5 1 3 2 2 3 1 4 22 5 20 6 19 7 17 8 16 9 15 10 14 11 6 12
REMARK SMILES IDX 7 13 8 14 9 15 13 16 11 17 10 18 12 20 4 22 21 24 18 26
REMARK H PARENT 10 19 12 21 4 23 21 25 18 27
REMARK Flexibility Score: inf
ROOT
ATOM      1  C   UNL     1     -19.677  34.243  -6.770  1.00  0.00     0.180 A 
ATOM      2  C   UNL     1     -19.923  35.599  -6.478  1.00  0.00     0.208 A 
ATOM      3  C   UNL     1     -19.212  36.584  -7.183  1.00  0.00     0.238 A 
ATOM      4  O   UNL     1     -19.416  37.801  -6.922  1.00  0.00    -0.285 OA
ATOM      5  C   UNL     1     -18.288  36.200  -8.176  1.00  0.00     0.111 A 
ATOM      6  C   UNL     1     -17.535  37.130  -8.933  1.00  0.00     0.134 A 
ATOM      7  C   UNL     1     -16.641  36.668  -9.911  1.00  0.00     0.093 A 
ATOM      8  C   UNL     1     -16.486  35.301 -10.146  1.00  0.00     0.123 A 
ATOM      9  C   UNL     1     -17.228  34.377  -9.402  1.00  0.00     0.094 A 
ATOM     10  C   UNL     1     -18.122  34.817  -8.421  1.00  0.00     0.146 A 
ATOM     11  O   UNL     1     -18.810  33.919  -7.724  1.00  0.00    -0.452 OA
ENDROOT
BRANCH   1  12
ATOM     12  C   UNL     1     -20.374  33.147  -6.057  1.00  0.00     0.025 A 
ATOM     13  C   UNL     1     -21.692  32.822  -6.413  1.00  0.00     0.016 A 
ATOM     14  C   UNL     1     -22.361  31.777  -5.769  1.00  0.00     0.051 A 
ATOM     15  C   UNL     1     -21.720  31.034  -4.774  1.00  0.00     0.157 A 
ATOM     16  C   UNL     1     -19.723  32.385  -5.072  1.00  0.00     0.062 A 
ATOM     17  C   UNL     1     -20.392  31.335  -4.426  1.00  0.00     0.158 A 
BRANCH  15  18
ATOM     18  O   UNL     1     -22.413  29.999  -4.147  1.00  0.00    -0.504 OA
ATOM     19  H   UNL     1     -22.925  30.139  -3.285  1.00  0.00     0.293 HD
ENDBRANCH  15  18
BRANCH  17  20
ATOM     20  O   UNL     1     -19.742  30.589  -3.444  1.00  0.00    -0.504 OA
ATOM     21  H   UNL     1     -20.258  30.047  -2.760  1.00  0.00     0.293 HD
ENDBRANCH  17  20
ENDBRANCH   1  12
BRANCH   2  22
ATOM     22  O   UNL     1     -20.881  35.953  -5.524  1.00  0.00    -0.502 OA
ATOM     23  H   UNL     1     -21.613  35.318  -5.228  1.00  0.00     0.293 HD
ENDBRANCH   2  22
BRANCH   6  24
ATOM     24  O   UNL     1     -17.668  38.503  -8.723  1.00  0.00    -0.507 OA
ATOM     25  H   UNL     1     -18.366  39.052  -9.211  1.00  0.00     0.293 HD
ENDBRANCH   6  24
BRANCH   8  26
ATOM     26  O   UNL     1     -15.593  34.868 -11.124  1.00  0.00    -0.508 OA
ATOM     27  H   UNL     1     -14.648  35.227 -11.176  1.00  0.00     0.293 HD
ENDBRANCH   8  26
TORSDOF 6
ENDMDL
MODEL 7
REMARK VINA RESULT:    -6.178      3.533      5.529
REMARK INTER + INTRA:          -7.713
REMARK INTER:                  -7.553
REMARK INTRA:                  -0.160
REMARK UNBOUND:                -0.271
REMARK SMILES O=c1c(O)c(-c2ccc(O)c(O)c2)oc2cc(O)cc(O)c12
REMARK SMILES IDX 5 1 3 2 2 3 1 4 22 5 20 6 19 7 17 8 16 9 15 10 14 11 6 12
REMARK SMILES IDX 7 13 8 14 9 15 13 16 11 17 10 18 12 20 4 22 21 24 18 26
REMARK H PARENT 10 19 12 21 4 23 21 25 18 27
REMARK Flexibility Score: inf
ROOT
ATOM      1  C   UNL     1     -19.184  34.848  -7.994  1.00  0.00     0.180 A 
ATOM      2  C   UNL     1     -19.373  33.597  -8.612  1.00  0.00     0.208 A 
ATOM      3  C   UNL     1     -19.749  32.499  -7.820  1.00  0.00     0.238 A 
ATOM      4  O   UNL     1     -19.910  31.371  -8.361  1.00  0.00    -0.285 OA
ATOM      5  C   UNL     1     -19.948  32.675  -6.436  1.00  0.00     0.111 A 
ATOM      6  C   UNL     1     -20.331  31.623  -5.569  1.00  0.00     0.134 A 
ATOM      7  C   UNL     1     -20.518  31.880  -4.203  1.00  0.00     0.093 A 
ATOM      8  C   UNL     1     -20.333  33.165  -3.688  1.00  0.00     0.123 A 
ATOM      9  C   UNL     1     -19.955  34.208  -4.539  1.00  0.00     0.094 A 
ATOM     10  C   UNL     1     -19.760  33.972  -5.903  1.00  0.00     0.146 A 
ATOM     11  O   UNL     1     -19.396  34.979  -6.689  1.00  0.00    -0.452 OA
ENDROOT
BRANCH   1  12
ATOM     12  C   UNL     1     -18.770  36.047  -8.759  1.00  0.00     0.025 A 
ATOM     13  C   UNL     1     -19.644  36.592  -9.714  1.00  0.00     0.016 A 
ATOM     14  C   UNL     1     -19.283  37.735 -10.431  1.00  0.00     0.051 A 
ATOM     15  C   UNL     1     -18.055  38.360 -10.196  1.00  0.00     0.157 A 
ATOM     16  C   UNL     1     -17.545  36.689  -8.509  1.00  0.00     0.062 A 
ATOM     17  C   UNL     1     -17.183  37.838  -9.227  1.00  0.00     0.158 A 
BRANCH  15  18
ATOM     18  O   UNL     1     -17.722  39.498 -10.929  1.00  0.00    -0.504 OA
ATOM     19  H   UNL     1     -17.260  39.443 -11.828  1.00  0.00     0.293 HD
ENDBRANCH  15  18
BRANCH  17  20
ATOM     20  O   UNL     1     -15.962  38.464  -8.977  1.00  0.00    -0.504 OA
ATOM     21  H   UNL     1     -15.190  38.401  -9.630  1.00  0.00     0.293 HD
ENDBRANCH  17  20
ENDBRANCH   1  12
BRANCH   2  22
ATOM     22  O   UNL     1     -19.218  33.461  -9.994  1.00  0.00    -0.502 OA
ATOM     23  H   UNL     1     -18.373  33.746 -10.475  1.00  0.00     0.293 HD
ENDBRANCH   2  22
BRANCH   6  24
ATOM     24  O   UNL     1     -20.526  30.328  -6.053  1.00  0.00    -0.507 OA
ATOM     25  H   UNL     1     -19.867  29.892  -6.688  1.00  0.00     0.293 HD
ENDBRANCH   6  24
BRANCH   8  26
ATOM     26  O   UNL     1     -20.527  33.395  -2.327  1.00  0.00    -0.508 OA
ATOM     27  H   UNL     1     -21.316  33.930  -1.988  1.00  0.00     0.293 HD
ENDBRANCH   8  26
TORSDOF 6
ENDMDL
MODEL 8
REMARK VINA RESULT:    -6.005      2.109      6.930
REMARK INTER + INTRA:          -7.505
REMARK INTER:                  -7.239
REMARK INTRA:                  -0.266
REMARK UNBOUND:                -0.271
REMARK SMILES O=c1c(O)c(-c2ccc(O)c(O)c2)oc2cc(O)cc(O)c12
REMARK SMILES IDX 5 1 3 2 2 3 1 4 22 5 20 6 19 7 17 8 16 9 15 10 14 11 6 12
REMARK SMILES IDX 7 13 8 14 9 15 13 16 11 17 10 18 12 20 4 22 21 24 18 26
REMARK H PARENT 10 19 12 21 4 23 21 25 18 27
REMARK Flexibility Score: inf
ROOT
ATOM      1  C   UNL     1     -20.313  31.776  -8.203  1.00  0.00     0.180 A 
ATOM      2  C   UNL     1     -20.485  33.024  -8.832  1.00  0.00     0.208 A 
ATOM      3  C   UNL     1     -20.600  34.175  -8.037  1.00  0.00     0.238 A 
ATOM      4  O   UNL     1     -20.766  35.296  -8.589  1.00  0.00    -0.285 OA
ATOM      5  C   UNL     1     -20.521  34.063  -6.633  1.00  0.00     0.111 A 
ATOM      6  C   UNL     1     -20.623  35.173  -5.761  1.00  0.00     0.134 A 
ATOM      7  C   UNL     1     -20.524  34.980  -4.375  1.00  0.00     0.093 A 
ATOM      8  C   UNL     1     -20.326  33.704  -3.846  1.00  0.00     0.123 A 
ATOM      9  C   UNL     1     -20.224  32.602  -4.703  1.00  0.00     0.094 A 
ATOM     10  C   UNL     1     -20.322  32.773  -6.087  1.00  0.00     0.146 A 
ATOM     11  O   UNL     1     -20.227  31.711  -6.878  1.00  0.00    -0.452 OA
ENDROOT
BRANCH   1  12
ATOM     12  C   UNL     1     -20.203  30.516  -8.973  1.00  0.00     0.025 A 
ATOM     13  C   UNL     1     -18.995  30.205  -9.619  1.00  0.00     0.016 A 
ATOM     14  C   UNL     1     -18.862  29.011 -10.333  1.00  0.00     0.051 A 
ATOM     15  C   UNL     1     -19.924  28.105 -10.400  1.00  0.00     0.157 A 
ATOM     16  C   UNL     1     -21.262  29.593  -9.024  1.00  0.00     0.062 A 
ATOM     17  C   UNL     1     -21.129  28.394  -9.739  1.00  0.00     0.158 A 
BRANCH  15  18
ATOM     18  O   UNL     1     -19.762  26.923 -11.122  1.00  0.00    -0.504 OA
ATOM     19  H   UNL     1     -20.250  26.071 -10.876  1.00  0.00     0.293 HD
ENDBRANCH  15  18
BRANCH  17  20
ATOM     20  O   UNL     1     -22.187  27.487  -9.790  1.00  0.00    -0.504 OA
ATOM     21  H   UNL     1     -22.028  26.487  -9.838  1.00  0.00     0.293 HD
ENDBRANCH  17  20
ENDBRANCH   1  12
BRANCH   2  22
ATOM     22  O   UNL     1     -20.511  33.113 -10.227  1.00  0.00    -0.502 OA
ATOM     23  H   UNL     1     -20.841  33.940 -10.711  1.00  0.00     0.293 HD
ENDBRANCH   2  22
BRANCH   6  24
ATOM     24  O   UNL     1     -20.820  36.462  -6.259  1.00  0.00    -0.507 OA
ATOM     25  H   UNL     1     -20.915  37.262  -5.644  1.00  0.00     0.293 HD
ENDBRANCH   6  24
BRANCH   8  26
ATOM     26  O   UNL     1     -20.230  33.539  -2.466  1.00  0.00    -0.508 OA
ATOM     27  H   UNL     1     -19.352  33.302  -2.020  1.00  0.00     0.293 HD
ENDBRANCH   8  26
TORSDOF 6
ENDMDL
MODEL 9
REMARK VINA RESULT:    -5.911      3.406      6.305
REMARK INTER + INTRA:          -7.391
REMARK INTER:                  -7.073
REMARK INTRA:                  -0.318
REMARK UNBOUND:                -0.271
REMARK SMILES O=c1c(O)c(-c2ccc(O)c(O)c2)oc2cc(O)cc(O)c12
REMARK SMILES IDX 5 1 3 2 2 3 1 4 22 5 20 6 19 7 17 8 16 9 15 10 14 11 6 12
REMARK SMILES IDX 7 13 8 14 9 15 13 16 11 17 10 18 12 20 4 22 21 24 18 26
REMARK H PARENT 10 19 12 21 4 23 21 25 18 27
REMARK Flexibility Score: inf
ROOT
ATOM      1  C   UNL     1     -20.496  35.172  -6.859  1.00  0.00     0.180 A 
ATOM      2  C   UNL     1     -21.733  35.838  -6.948  1.00  0.00     0.208 A 
ATOM      3  C   UNL     1     -21.803  37.046  -7.662  1.00  0.00     0.238 A 
ATOM      4  O   UNL     1     -22.904  37.657  -7.739  1.00  0.00    -0.285 OA
ATOM      5  C   UNL     1     -20.646  37.553  -8.288  1.00  0.00     0.111 A 
ATOM      6  C   UNL     1     -20.633  38.760  -9.029  1.00  0.00     0.134 A 
ATOM      7  C   UNL     1     -19.442  39.193  -9.630  1.00  0.00     0.093 A 
ATOM      8  C   UNL     1     -18.268  38.447  -9.507  1.00  0.00     0.123 A 
ATOM      9  C   UNL     1     -18.275  37.254  -8.777  1.00  0.00     0.094 A 
ATOM     10  C   UNL     1     -19.452  36.806  -8.167  1.00  0.00     0.146 A 
ATOM     11  O   UNL     1     -19.430  35.672  -7.475  1.00  0.00    -0.452 OA
ENDROOT
BRANCH   1  12
ATOM     12  C   UNL     1     -20.339  33.904  -6.109  1.00  0.00     0.025 A 
ATOM     13  C   UNL     1     -20.122  33.946  -4.722  1.00  0.00     0.016 A 
ATOM     14  C   UNL     1     -19.993  32.762  -3.991  1.00  0.00     0.051 A 
ATOM     15  C   UNL     1     -20.093  31.522  -4.629  1.00  0.00     0.157 A 
ATOM     16  C   UNL     1     -20.460  32.657  -6.744  1.00  0.00     0.062 A 
ATOM     17  C   UNL     1     -20.333  31.468  -6.012  1.00  0.00     0.158 A 
BRANCH  15  18
ATOM     18  O   UNL     1     -19.958  30.358  -3.873  1.00  0.00    -0.504 OA
ATOM     19  H   UNL     1     -20.609  30.115  -3.138  1.00  0.00     0.293 HD
ENDBRANCH  15  18
BRANCH  17  20
ATOM     20  O   UNL     1     -20.448  30.234  -6.652  1.00  0.00    -0.504 OA
ATOM     21  H   UNL     1     -20.920  30.141  -7.544  1.00  0.00     0.293 HD
ENDBRANCH  17  20
ENDBRANCH   1  12
BRANCH   2  22
ATOM     22  O   UNL     1     -22.875  35.288  -6.361  1.00  0.00    -0.502 OA
ATOM     23  H   UNL     1     -23.173  34.337  -6.541  1.00  0.00     0.293 HD
ENDBRANCH   2  22
BRANCH   6  24
ATOM     24  O   UNL     1     -21.790  39.528  -9.172  1.00  0.00    -0.507 OA
ATOM     25  H   UNL     1     -21.750  40.533  -9.297  1.00  0.00     0.293 HD
ENDBRANCH   6  24
BRANCH   8  26
ATOM     26  O   UNL     1     -17.099  38.899 -10.115  1.00  0.00    -0.508 OA
ATOM     27  H   UNL     1     -17.073  39.767 -10.635  1.00  0.00     0.293 HD
ENDBRANCH   8  26
TORSDOF 6
ENDMDL
