MODEL 1
REMARK VINA RESULT:    -1.557      0.000      0.000
REMARK INTER + INTRA:         -10.649
REMARK INTER:                  -4.106
REMARK INTRA:                  -6.543
REMARK UNBOUND:                -6.543
REMARK SMILES CCCCCCCCCCCCCCCCCCCCCCCCCCCCCC(=O)[O-]
REMARK SMILES IDX 16 1 17 2 18 3 19 4 20 5 21 6 22 7 23 8 24 9 25 10 26 11
REMARK SMILES IDX 27 12 28 13 29 14 30 15 31 16 32 17 15 18 14 19 13 20 12 21
REMARK SMILES IDX 11 22 10 23 9 24 8 25 7 26 6 27 5 28 4 29 3 30 2 31 1 32
REMARK H PARENT
REMARK Flexibility Score: inf
ROOT
ATOM      1  C   UNL     1     176.056 188.821 182.397  1.00  0.00     0.000 C 
ENDROOT
BRANCH   1   2
ATOM      2  C   UNL     1     175.563 188.818 180.940  1.00  0.00     0.000 C 
BRANCH   2   3
ATOM      3  C   UNL     1     175.512 190.231 180.337  1.00  0.00     0.000 C 
BRANCH   3   4
ATOM      4  C   UNL     1     174.084 190.808 180.308  1.00  0.00     0.000 C 
BRANCH   4   5
ATOM      5  C   UNL     1     173.842 191.828 181.432  1.00  0.00     0.000 C 
BRANCH   5   6
ATOM      6  C   UNL     1     172.713 191.401 182.388  1.00  0.00     0.000 C 
BRANCH   6   7
ATOM      7  C   UNL     1     172.224 189.969 182.115  1.00  0.00     0.000 C 
BRANCH   7   8
ATOM      8  C   UNL     1     172.046 189.145 183.403  1.00  0.00     0.000 C 
BRANCH   8   9
ATOM      9  C   UNL     1     172.427 187.663 183.224  1.00  0.00     0.000 C 
BRANCH   9  10
ATOM     10  C   UNL     1     173.415 187.114 184.270  1.00  0.00     0.000 C 
BRANCH  10  11
ATOM     11  C   UNL     1     172.724 186.634 185.556  1.00  0.00     0.000 C 
BRANCH  11  12
ATOM     12  C   UNL     1     173.574 186.955 186.791  1.00  0.00     0.000 C 
BRANCH  12  13
ATOM     13  C   UNL     1     173.763 185.709 187.666  1.00  0.00     0.006 C 
BRANCH  13  14
ATOM     14  C   UNL     1     173.233 185.945 189.084  1.00  0.00     0.053 C 
BRANCH  14  15
ATOM     15  C   UNL     1     174.204 185.431 190.101  1.00  0.00     0.041 C 
ATOM     16  O   UNL     1     174.391 184.192 190.231  1.00  0.00    -0.550 OA
ATOM     17  O   UNL     1     174.929 186.323 190.883  1.00  0.00    -0.550 OA
ENDBRANCH  14  15
ENDBRANCH  13  14
ENDBRANCH  12  13
ENDBRANCH  11  12
ENDBRANCH  10  11
ENDBRANCH   9  10
ENDBRANCH   8   9
ENDBRANCH   7   8
ENDBRANCH   6   7
ENDBRANCH   5   6
ENDBRANCH   4   5
ENDBRANCH   3   4
ENDBRANCH   2   3
ENDBRANCH   1   2
BRANCH   1  18
ATOM     18  C   UNL     1     177.000 189.995 182.709  1.00  0.00     0.000 C 
BRANCH  18  19
ATOM     19  C   UNL     1     176.582 190.812 183.951  1.00  0.00     0.000 C 
BRANCH  19  20
ATOM     20  C   UNL     1     175.273 190.291 184.572  1.00  0.00     0.000 C 
BRANCH  20  21
ATOM     21  C   UNL     1     175.293 190.316 186.116  1.00  0.00     0.000 C 
BRANCH  21  22
ATOM     22  C   UNL     1     176.536 191.005 186.709  1.00  0.00     0.000 C 
BRANCH  22  23
ATOM     23  C   UNL     1     177.210 190.238 187.860  1.00  0.00     0.000 C 
BRANCH  23  24
ATOM     24  C   UNL     1     177.594 188.776 187.543  1.00  0.00    -0.000 C 
BRANCH  24  25
ATOM     25  C   UNL     1     178.769 188.598 186.564  1.00  0.00    -0.000 C 
BRANCH  25  26
ATOM     26  C   UNL     1     178.443 187.646 185.403  1.00  0.00    -0.000 C 
BRANCH  26  27
ATOM     27  C   UNL     1     176.985 187.154 185.429  1.00  0.00    -0.000 C 
BRANCH  27  28
ATOM     28  C   UNL     1     176.849 185.617 185.439  1.00  0.00    -0.000 C 
BRANCH  28  29
ATOM     29  C   UNL     1     177.976 184.937 186.234  1.00  0.00    -0.000 C 
BRANCH  29  30
ATOM     30  C   UNL     1     177.438 184.320 187.530  1.00  0.00    -0.000 C 
BRANCH  30  31
ATOM     31  C   UNL     1     177.657 185.260 188.721  1.00  0.00    -0.003 C 
ATOM     32  C   UNL     1     179.132 185.628 188.871  1.00  0.00     0.004 C 
ENDBRANCH  30  31
ENDBRANCH  29  30
ENDBRANCH  28  29
ENDBRANCH  27  28
ENDBRANCH  26  27
ENDBRANCH  25  26
ENDBRANCH  24  25
ENDBRANCH  23  24
ENDBRANCH  22  23
ENDBRANCH  21  22
ENDBRANCH  20  21
ENDBRANCH  19  20
ENDBRANCH  18  19
ENDBRANCH   1  18
TORSDOF 28
ENDMDL
MODEL 2
REMARK VINA RESULT:    -1.510      1.912      3.492
REMARK INTER + INTRA:         -10.525
REMARK INTER:                  -3.521
REMARK INTRA:                  -7.004
REMARK UNBOUND:                -6.543
REMARK SMILES CCCCCCCCCCCCCCCCCCCCCCCCCCCCCC(=O)[O-]
REMARK SMILES IDX 16 1 17 2 18 3 19 4 20 5 21 6 22 7 23 8 24 9 25 10 26 11
REMARK SMILES IDX 27 12 28 13 29 14 30 15 31 16 32 17 15 18 14 19 13 20 12 21
REMARK SMILES IDX 11 22 10 23 9 24 8 25 7 26 6 27 5 28 4 29 3 30 2 31 1 32
REMARK H PARENT
REMARK Flexibility Score: inf
ROOT
ATOM      1  C   UNL     1     176.974 188.218 181.567  1.00  0.00     0.000 C 
ENDROOT
BRANCH   1   2
ATOM      2  C   UNL     1     175.497 188.021 181.948  1.00  0.00     0.000 C 
BRANCH   2   3
ATOM      3  C   UNL     1     174.709 187.270 180.861  1.00  0.00     0.000 C 
BRANCH   3   4
ATOM      4  C   UNL     1     175.003 187.802 179.447  1.00  0.00     0.000 C 
BRANCH   4   5
ATOM      5  C   UNL     1     174.185 189.060 179.113  1.00  0.00     0.000 C 
BRANCH   5   6
ATOM      6  C   UNL     1     175.054 190.328 179.028  1.00  0.00     0.000 C 
BRANCH   6   7
ATOM      7  C   UNL     1     174.454 191.503 179.817  1.00  0.00     0.000 C 
BRANCH   7   8
ATOM      8  C   UNL     1     173.131 191.138 180.514  1.00  0.00     0.000 C 
BRANCH   8   9
ATOM      9  C   UNL     1     173.112 191.529 182.005  1.00  0.00     0.000 C 
BRANCH   9  10
ATOM     10  C   UNL     1     172.410 190.520 182.933  1.00  0.00     0.000 C 
BRANCH  10  11
ATOM     11  C   UNL     1     171.893 189.278 182.190  1.00  0.00     0.000 C 
BRANCH  11  12
ATOM     12  C   UNL     1     171.930 188.040 183.093  1.00  0.00     0.000 C 
BRANCH  12  13
ATOM     13  C   UNL     1     172.240 188.427 184.545  1.00  0.00     0.006 C 
BRANCH  13  14
ATOM     14  C   UNL     1     173.423 187.619 185.091  1.00  0.00     0.053 C 
BRANCH  14  15
ATOM     15  C   UNL     1     172.967 186.681 186.165  1.00  0.00     0.041 C 
ATOM     16  O   UNL     1     173.370 186.829 187.349  1.00  0.00    -0.550 OA
ATOM     17  O   UNL     1     172.069 185.664 185.865  1.00  0.00    -0.550 OA
ENDBRANCH  14  15
ENDBRANCH  13  14
ENDBRANCH  12  13
ENDBRANCH  11  12
ENDBRANCH  10  11
ENDBRANCH   9  10
ENDBRANCH   8   9
ENDBRANCH   7   8
ENDBRANCH   6   7
ENDBRANCH   5   6
ENDBRANCH   4   5
ENDBRANCH   3   4
ENDBRANCH   2   3
ENDBRANCH   1   2
BRANCH   1  18
ATOM     18  C   UNL     1     177.567 189.526 182.121  1.00  0.00     0.000 C 
BRANCH  18  19
ATOM     19  C   UNL     1     176.509 190.487 182.705  1.00  0.00     0.000 C 
BRANCH  19  20
ATOM     20  C   UNL     1     176.704 190.713 184.216  1.00  0.00     0.000 C 
BRANCH  20  21
ATOM     21  C   UNL     1     175.382 190.622 185.008  1.00  0.00     0.000 C 
BRANCH  21  22
ATOM     22  C   UNL     1     175.575 190.332 186.508  1.00  0.00     0.000 C 
BRANCH  22  23
ATOM     23  C   UNL     1     176.843 189.530 186.851  1.00  0.00     0.000 C 
BRANCH  23  24
ATOM     24  C   UNL     1     176.599 188.181 187.562  1.00  0.00    -0.000 C 
BRANCH  24  25
ATOM     25  C   UNL     1     177.014 186.930 186.768  1.00  0.00    -0.000 C 
BRANCH  25  26
ATOM     26  C   UNL     1     177.105 187.183 185.255  1.00  0.00    -0.000 C 
BRANCH  26  27
ATOM     27  C   UNL     1     178.528 186.986 184.703  1.00  0.00    -0.000 C 
BRANCH  27  28
ATOM     28  C   UNL     1     178.671 185.759 183.778  1.00  0.00    -0.000 C 
BRANCH  28  29
ATOM     29  C   UNL     1     178.051 184.493 184.390  1.00  0.00    -0.000 C 
BRANCH  29  30
ATOM     30  C   UNL     1     177.354 183.650 183.315  1.00  0.00    -0.000 C 
BRANCH  30  31
ATOM     31  C   UNL     1     176.206 184.428 182.662  1.00  0.00    -0.003 C 
ATOM     32  C   UNL     1     175.030 184.588 183.623  1.00  0.00     0.004 C 
ENDBRANCH  30  31
ENDBRANCH  29  30
ENDBRANCH  28  29
ENDBRANCH  27  28
ENDBRANCH  26  27
ENDBRANCH  25  26
ENDBRANCH  24  25
ENDBRANCH  23  24
ENDBRANCH  22  23
ENDBRANCH  21  22
ENDBRANCH  20  21
ENDBRANCH  19  20
ENDBRANCH  18  19
ENDBRANCH   1  18
TORSDOF 28
ENDMDL
MODEL 3
REMARK VINA RESULT:    -1.507      2.213      5.587
REMARK INTER + INTRA:         -10.518
REMARK INTER:                  -3.817
REMARK INTRA:                  -6.702
REMARK UNBOUND:                -6.543
REMARK SMILES CCCCCCCCCCCCCCCCCCCCCCCCCCCCCC(=O)[O-]
REMARK SMILES IDX 16 1 17 2 18 3 19 4 20 5 21 6 22 7 23 8 24 9 25 10 26 11
REMARK SMILES IDX 27 12 28 13 29 14 30 15 31 16 32 17 15 18 14 19 13 20 12 21
REMARK SMILES IDX 11 22 10 23 9 24 8 25 7 26 6 27 5 28 4 29 3 30 2 31 1 32
REMARK H PARENT
REMARK Flexibility Score: inf
ROOT
ATOM      1  C   UNL     1     171.296 187.985 182.426  1.00  0.00     0.000 C 
ENDROOT
BRANCH   1   2
ATOM      2  C   UNL     1     172.511 187.564 183.269  1.00  0.00     0.000 C 
BRANCH   2   3
ATOM      3  C   UNL     1     172.596 188.334 184.598  1.00  0.00     0.000 C 
BRANCH   3   4
ATOM      4  C   UNL     1     173.167 187.475 185.741  1.00  0.00     0.000 C 
BRANCH   4   5
ATOM      5  C   UNL     1     174.471 188.053 186.312  1.00  0.00     0.000 C 
BRANCH   5   6
ATOM      6  C   UNL     1     175.019 189.223 185.475  1.00  0.00     0.000 C 
BRANCH   6   7
ATOM      7  C   UNL     1     175.374 190.445 186.338  1.00  0.00     0.000 C 
BRANCH   7   8
ATOM      8  C   UNL     1     176.587 191.224 185.796  1.00  0.00     0.000 C 
BRANCH   8   9
ATOM      9  C   UNL     1     177.307 190.490 184.648  1.00  0.00     0.000 C 
BRANCH   9  10
ATOM     10  C   UNL     1     178.795 190.186 184.901  1.00  0.00     0.000 C 
BRANCH  10  11
ATOM     11  C   UNL     1     179.036 189.390 186.192  1.00  0.00     0.000 C 
BRANCH  11  12
ATOM     12  C   UNL     1     178.567 187.938 186.041  1.00  0.00     0.000 C 
BRANCH  12  13
ATOM     13  C   UNL     1     177.932 187.427 187.341  1.00  0.00     0.006 C 
BRANCH  13  14
ATOM     14  C   UNL     1     177.730 188.569 188.342  1.00  0.00     0.053 C 
BRANCH  14  15
ATOM     15  C   UNL     1     178.238 188.179 189.695  1.00  0.00     0.041 C 
ATOM     16  O   UNL     1     177.896 188.832 190.715  1.00  0.00    -0.550 OA
ATOM     17  O   UNL     1     179.065 187.069 189.833  1.00  0.00    -0.550 OA
ENDBRANCH  14  15
ENDBRANCH  13  14
ENDBRANCH  12  13
ENDBRANCH  11  12
ENDBRANCH  10  11
ENDBRANCH   9  10
ENDBRANCH   8   9
ENDBRANCH   7   8
ENDBRANCH   6   7
ENDBRANCH   5   6
ENDBRANCH   4   5
ENDBRANCH   3   4
ENDBRANCH   2   3
ENDBRANCH   1   2
BRANCH   1  18
ATOM     18  C   UNL     1     171.687 188.531 181.041  1.00  0.00     0.000 C 
BRANCH  18  19
ATOM     19  C   UNL     1     171.201 189.975 180.786  1.00  0.00     0.000 C 
BRANCH  19  20
ATOM     20  C   UNL     1     172.360 190.989 180.822  1.00  0.00     0.000 C 
BRANCH  20  21
ATOM     21  C   UNL     1     172.770 191.375 182.260  1.00  0.00     0.000 C 
BRANCH  21  22
ATOM     22  C   UNL     1     174.223 191.006 182.611  1.00  0.00     0.000 C 
BRANCH  22  23
ATOM     23  C   UNL     1     175.248 191.296 181.501  1.00  0.00     0.000 C 
BRANCH  23  24
ATOM     24  C   UNL     1     176.146 190.104 181.104  1.00  0.00    -0.000 C 
BRANCH  24  25
ATOM     25  C   UNL     1     175.420 188.923 180.434  1.00  0.00    -0.000 C 
BRANCH  25  26
ATOM     26  C   UNL     1     175.361 187.672 181.324  1.00  0.00    -0.000 C 
BRANCH  26  27
ATOM     27  C   UNL     1     176.447 187.667 182.415  1.00  0.00    -0.000 C 
BRANCH  27  28
ATOM     28  C   UNL     1     176.258 186.560 183.473  1.00  0.00    -0.000 C 
BRANCH  28  29
ATOM     29  C   UNL     1     175.710 185.259 182.865  1.00  0.00    -0.000 C 
BRANCH  29  30
ATOM     30  C   UNL     1     174.632 184.645 183.767  1.00  0.00    -0.000 C 
BRANCH  30  31
ATOM     31  C   UNL     1     173.577 183.902 182.937  1.00  0.00    -0.003 C 
ATOM     32  C   UNL     1     173.461 184.493 181.534  1.00  0.00     0.004 C 
ENDBRANCH  30  31
ENDBRANCH  29  30
ENDBRANCH  28  29
ENDBRANCH  27  28
ENDBRANCH  26  27
ENDBRANCH  25  26
ENDBRANCH  24  25
ENDBRANCH  23  24
ENDBRANCH  22  23
ENDBRANCH  21  22
ENDBRANCH  20  21
ENDBRANCH  19  20
ENDBRANCH  18  19
ENDBRANCH   1  18
TORSDOF 28
ENDMDL
MODEL 4
REMARK VINA RESULT:    -1.503      2.893      6.338
REMARK INTER + INTRA:         -10.506
REMARK INTER:                  -3.568
REMARK INTRA:                  -6.938
REMARK UNBOUND:                -6.543
REMARK SMILES CCCCCCCCCCCCCCCCCCCCCCCCCCCCCC(=O)[O-]
REMARK SMILES IDX 16 1 17 2 18 3 19 4 20 5 21 6 22 7 23 8 24 9 25 10 26 11
REMARK SMILES IDX 27 12 28 13 29 14 30 15 31 16 32 17 15 18 14 19 13 20 12 21
REMARK SMILES IDX 11 22 10 23 9 24 8 25 7 26 6 27 5 28 4 29 3 30 2 31 1 32
REMARK H PARENT
REMARK Flexibility Score: inf
ROOT
ATOM      1  C   UNL     1     172.363 186.488 185.631  1.00  0.00     0.000 C 
ENDROOT
BRANCH   1   2
ATOM      2  C   UNL     1     173.472 186.630 186.687  1.00  0.00     0.000 C 
BRANCH   2   3
ATOM      3  C   UNL     1     174.295 187.916 186.501  1.00  0.00     0.000 C 
BRANCH   3   4
ATOM      4  C   UNL     1     175.767 187.740 186.918  1.00  0.00     0.000 C 
BRANCH   4   5
ATOM      5  C   UNL     1     176.579 189.035 186.762  1.00  0.00     0.000 C 
BRANCH   5   6
ATOM      6  C   UNL     1     175.725 190.215 186.261  1.00  0.00     0.000 C 
BRANCH   6   7
ATOM      7  C   UNL     1     176.577 191.322 185.620  1.00  0.00     0.000 C 
BRANCH   7   8
ATOM      8  C   UNL     1     178.041 190.898 185.404  1.00  0.00     0.000 C 
BRANCH   8   9
ATOM      9  C   UNL     1     178.390 190.691 183.917  1.00  0.00     0.000 C 
BRANCH   9  10
ATOM     10  C   UNL     1     179.563 189.728 183.652  1.00  0.00     0.000 C 
BRANCH  10  11
ATOM     11  C   UNL     1     179.124 188.259 183.552  1.00  0.00     0.000 C 
BRANCH  11  12
ATOM     12  C   UNL     1     179.421 187.504 184.852  1.00  0.00     0.000 C 
BRANCH  12  13
ATOM     13  C   UNL     1     178.801 186.101 184.827  1.00  0.00     0.006 C 
BRANCH  13  14
ATOM     14  C   UNL     1     179.668 185.130 184.019  1.00  0.00     0.053 C 
BRANCH  14  15
ATOM     15  C   UNL     1     178.868 184.496 182.925  1.00  0.00     0.041 C 
ATOM     16  O   UNL     1     178.469 185.185 181.949  1.00  0.00    -0.550 OA
ATOM     17  O   UNL     1     178.591 183.134 182.965  1.00  0.00    -0.550 OA
ENDBRANCH  14  15
ENDBRANCH  13  14
ENDBRANCH  12  13
ENDBRANCH  11  12
ENDBRANCH  10  11
ENDBRANCH   9  10
ENDBRANCH   8   9
ENDBRANCH   7   8
ENDBRANCH   6   7
ENDBRANCH   5   6
ENDBRANCH   4   5
ENDBRANCH   3   4
ENDBRANCH   2   3
ENDBRANCH   1   2
BRANCH   1  18
ATOM     18  C   UNL     1     172.207 187.741 184.751  1.00  0.00     0.000 C 
BRANCH  18  19
ATOM     19  C   UNL     1     171.429 187.485 183.442  1.00  0.00     0.000 C 
BRANCH  19  20
ATOM     20  C   UNL     1     171.806 188.491 182.339  1.00  0.00     0.000 C 
BRANCH  20  21
ATOM     21  C   UNL     1     172.157 189.886 182.899  1.00  0.00     0.000 C 
BRANCH  21  22
ATOM     22  C   UNL     1     172.201 190.992 181.828  1.00  0.00     0.000 C 
BRANCH  22  23
ATOM     23  C   UNL     1     173.504 191.810 181.799  1.00  0.00     0.000 C 
BRANCH  23  24
ATOM     24  C   UNL     1     174.737 191.108 182.411  1.00  0.00    -0.000 C 
BRANCH  24  25
ATOM     25  C   UNL     1     175.670 190.414 181.403  1.00  0.00    -0.000 C 
BRANCH  25  26
ATOM     26  C   UNL     1     175.750 188.893 181.610  1.00  0.00    -0.000 C 
BRANCH  26  27
ATOM     27  C   UNL     1     175.453 188.474 183.061  1.00  0.00    -0.000 C 
BRANCH  27  28
ATOM     28  C   UNL     1     175.729 186.982 183.344  1.00  0.00    -0.000 C 
BRANCH  28  29
ATOM     29  C   UNL     1     174.735 186.058 182.623  1.00  0.00    -0.000 C 
BRANCH  29  30
ATOM     30  C   UNL     1     175.055 184.584 182.902  1.00  0.00    -0.000 C 
BRANCH  30  31
ATOM     31  C   UNL     1     175.444 184.373 184.371  1.00  0.00    -0.003 C 
ATOM     32  C   UNL     1     174.437 183.475 185.085  1.00  0.00     0.004 C 
ENDBRANCH  30  31
ENDBRANCH  29  30
ENDBRANCH  28  29
ENDBRANCH  27  28
ENDBRANCH  26  27
ENDBRANCH  25  26
ENDBRANCH  24  25
ENDBRANCH  23  24
ENDBRANCH  22  23
ENDBRANCH  21  22
ENDBRANCH  20  21
ENDBRANCH  19  20
ENDBRANCH  18  19
ENDBRANCH   1  18
TORSDOF 28
ENDMDL
MODEL 5
REMARK VINA RESULT:    -1.482      1.851      5.297
REMARK INTER + INTRA:         -10.451
REMARK INTER:                  -4.158
REMARK INTRA:                  -6.293
REMARK UNBOUND:                -6.543
REMARK SMILES CCCCCCCCCCCCCCCCCCCCCCCCCCCCCC(=O)[O-]
REMARK SMILES IDX 16 1 17 2 18 3 19 4 20 5 21 6 22 7 23 8 24 9 25 10 26 11
REMARK SMILES IDX 27 12 28 13 29 14 30 15 31 16 32 17 15 18 14 19 13 20 12 21
REMARK SMILES IDX 11 22 10 23 9 24 8 25 7 26 6 27 5 28 4 29 3 30 2 31 1 32
REMARK H PARENT
REMARK Flexibility Score: inf
ROOT
ATOM      1  C   UNL     1     177.191 187.920 183.602  1.00  0.00     0.000 C 
ENDROOT
BRANCH   1   2
ATOM      2  C   UNL     1     177.204 188.960 182.469  1.00  0.00     0.000 C 
BRANCH   2   3
ATOM      3  C   UNL     1     177.380 190.395 182.995  1.00  0.00     0.000 C 
BRANCH   3   4
ATOM      4  C   UNL     1     177.616 190.439 184.516  1.00  0.00     0.000 C 
BRANCH   4   5
ATOM      5  C   UNL     1     176.985 191.679 185.170  1.00  0.00     0.000 C 
BRANCH   5   6
ATOM      6  C   UNL     1     176.450 191.396 186.586  1.00  0.00     0.000 C 
BRANCH   6   7
ATOM      7  C   UNL     1     177.503 191.663 187.674  1.00  0.00     0.000 C 
BRANCH   7   8
ATOM      8  C   UNL     1     177.740 190.444 188.584  1.00  0.00     0.000 C 
BRANCH   8   9
ATOM      9  C   UNL     1     178.019 189.150 187.794  1.00  0.00     0.000 C 
BRANCH   9  10
ATOM     10  C   UNL     1     177.045 187.991 188.078  1.00  0.00     0.000 C 
BRANCH  10  11
ATOM     11  C   UNL     1     175.920 187.882 187.038  1.00  0.00     0.000 C 
BRANCH  11  12
ATOM     12  C   UNL     1     175.292 186.484 187.050  1.00  0.00     0.000 C 
BRANCH  12  13
ATOM     13  C   UNL     1     173.898 186.513 187.689  1.00  0.00     0.006 C 
BRANCH  13  14
ATOM     14  C   UNL     1     173.763 185.432 188.767  1.00  0.00     0.053 C 
BRANCH  14  15
ATOM     15  C   UNL     1     172.565 185.693 189.626  1.00  0.00     0.041 C 
ATOM     16  O   UNL     1     172.695 186.266 190.740  1.00  0.00    -0.550 OA
ATOM     17  O   UNL     1     171.298 185.335 189.180  1.00  0.00    -0.550 OA
ENDBRANCH  14  15
ENDBRANCH  13  14
ENDBRANCH  12  13
ENDBRANCH  11  12
ENDBRANCH  10  11
ENDBRANCH   9  10
ENDBRANCH   8   9
ENDBRANCH   7   8
ENDBRANCH   6   7
ENDBRANCH   5   6
ENDBRANCH   4   5
ENDBRANCH   3   4
ENDBRANCH   2   3
ENDBRANCH   1   2
BRANCH   1  18
ATOM     18  C   UNL     1     176.095 186.854 183.427  1.00  0.00     0.000 C 
BRANCH  18  19
ATOM     19  C   UNL     1     175.635 186.674 181.963  1.00  0.00     0.000 C 
BRANCH  19  20
ATOM     20  C   UNL     1     174.114 186.862 181.808  1.00  0.00     0.000 C 
BRANCH  20  21
ATOM     21  C   UNL     1     173.742 187.721 180.580  1.00  0.00     0.000 C 
BRANCH  21  22
ATOM     22  C   UNL     1     172.968 189.005 180.932  1.00  0.00     0.000 C 
BRANCH  22  23
ATOM     23  C   UNL     1     173.799 190.083 181.651  1.00  0.00     0.000 C 
BRANCH  23  24
ATOM     24  C   UNL     1     173.306 190.461 183.065  1.00  0.00    -0.000 C 
BRANCH  24  25
ATOM     25  C   UNL     1     173.975 189.701 184.224  1.00  0.00    -0.000 C 
BRANCH  25  26
ATOM     26  C   UNL     1     173.066 188.625 184.840  1.00  0.00    -0.000 C 
BRANCH  26  27
ATOM     27  C   UNL     1     171.612 188.721 184.344  1.00  0.00    -0.000 C 
BRANCH  27  28
ATOM     28  C   UNL     1     170.967 187.352 184.044  1.00  0.00    -0.000 C 
BRANCH  28  29
ATOM     29  C   UNL     1     171.520 186.237 184.947  1.00  0.00    -0.000 C 
BRANCH  29  30
ATOM     30  C   UNL     1     171.902 185.002 184.122  1.00  0.00    -0.000 C 
BRANCH  30  31
ATOM     31  C   UNL     1     172.662 183.981 184.978  1.00  0.00    -0.003 C 
ATOM     32  C   UNL     1     174.141 183.936 184.602  1.00  0.00     0.004 C 
ENDBRANCH  30  31
ENDBRANCH  29  30
ENDBRANCH  28  29
ENDBRANCH  27  28
ENDBRANCH  26  27
ENDBRANCH  25  26
ENDBRANCH  24  25
ENDBRANCH  23  24
ENDBRANCH  22  23
ENDBRANCH  21  22
ENDBRANCH  20  21
ENDBRANCH  19  20
ENDBRANCH  18  19
ENDBRANCH   1  18
TORSDOF 28
ENDMDL
MODEL 6
REMARK VINA RESULT:    -1.476      1.764      3.058
REMARK INTER + INTRA:         -10.434
REMARK INTER:                  -3.690
REMARK INTRA:                  -6.745
REMARK UNBOUND:                -6.543
REMARK SMILES CCCCCCCCCCCCCCCCCCCCCCCCCCCCCC(=O)[O-]
REMARK SMILES IDX 16 1 17 2 18 3 19 4 20 5 21 6 22 7 23 8 24 9 25 10 26 11
REMARK SMILES IDX 27 12 28 13 29 14 30 15 31 16 32 17 15 18 14 19 13 20 12 21
REMARK SMILES IDX 11 22 10 23 9 24 8 25 7 26 6 27 5 28 4 29 3 30 2 31 1 32
REMARK H PARENT
REMARK Flexibility Score: inf
ROOT
ATOM      1  C   UNL     1     176.678 191.144 181.833  1.00  0.00     0.000 C 
ENDROOT
BRANCH   1   2
ATOM      2  C   UNL     1     175.910 190.676 180.585  1.00  0.00     0.000 C 
BRANCH   2   3
ATOM      3  C   UNL     1     174.402 190.959 180.687  1.00  0.00     0.000 C 
BRANCH   3   4
ATOM      4  C   UNL     1     173.999 191.516 182.065  1.00  0.00     0.000 C 
BRANCH   4   5
ATOM      5  C   UNL     1     172.665 190.937 182.563  1.00  0.00     0.000 C 
BRANCH   5   6
ATOM      6  C   UNL     1     172.087 189.873 181.612  1.00  0.00     0.000 C 
BRANCH   6   7
ATOM      7  C   UNL     1     171.670 188.592 182.352  1.00  0.00     0.000 C 
BRANCH   7   8
ATOM      8  C   UNL     1     171.623 188.775 183.880  1.00  0.00     0.000 C 
BRANCH   8   9
ATOM      9  C   UNL     1     171.212 187.490 184.625  1.00  0.00     0.000 C 
BRANCH   9  10
ATOM     10  C   UNL     1     171.753 186.183 184.016  1.00  0.00     0.000 C 
BRANCH  10  11
ATOM     11  C   UNL     1     172.775 185.476 184.920  1.00  0.00     0.000 C 
BRANCH  11  12
ATOM     12  C   UNL     1     172.853 186.148 186.296  1.00  0.00     0.000 C 
BRANCH  12  13
ATOM     13  C   UNL     1     173.921 185.482 187.173  1.00  0.00     0.006 C 
BRANCH  13  14
ATOM     14  C   UNL     1     174.596 186.506 188.092  1.00  0.00     0.053 C 
BRANCH  14  15
ATOM     15  C   UNL     1     176.056 186.205 188.231  1.00  0.00     0.041 C 
ATOM     16  O   UNL     1     176.549 185.961 189.363  1.00  0.00    -0.550 OA
ATOM     17  O   UNL     1     176.867 186.161 187.102  1.00  0.00    -0.550 OA
ENDBRANCH  14  15
ENDBRANCH  13  14
ENDBRANCH  12  13
ENDBRANCH  11  12
ENDBRANCH  10  11
ENDBRANCH   9  10
ENDBRANCH   8   9
ENDBRANCH   7   8
ENDBRANCH   6   7
ENDBRANCH   5   6
ENDBRANCH   4   5
ENDBRANCH   3   4
ENDBRANCH   2   3
ENDBRANCH   1   2
BRANCH   1  18
ATOM     18  C   UNL     1     178.039 190.444 181.999  1.00  0.00     0.000 C 
BRANCH  18  19
ATOM     19  C   UNL     1     178.513 190.353 183.466  1.00  0.00     0.000 C 
BRANCH  19  20
ATOM     20  C   UNL     1     178.851 188.907 183.875  1.00  0.00     0.000 C 
BRANCH  20  21
ATOM     21  C   UNL     1     178.867 188.710 185.406  1.00  0.00     0.000 C 
BRANCH  21  22
ATOM     22  C   UNL     1     178.363 189.932 186.196  1.00  0.00     0.000 C 
BRANCH  22  23
ATOM     23  C   UNL     1     176.968 189.764 186.823  1.00  0.00     0.000 C 
BRANCH  23  24
ATOM     24  C   UNL     1     175.832 190.541 186.122  1.00  0.00    -0.000 C 
BRANCH  24  25
ATOM     25  C   UNL     1     174.712 189.674 185.520  1.00  0.00    -0.000 C 
BRANCH  25  26
ATOM     26  C   UNL     1     175.230 188.359 184.917  1.00  0.00    -0.000 C 
BRANCH  26  27
ATOM     27  C   UNL     1     175.209 188.361 183.378  1.00  0.00    -0.000 C 
BRANCH  27  28
ATOM     28  C   UNL     1     175.469 186.975 182.752  1.00  0.00    -0.000 C 
BRANCH  28  29
ATOM     29  C   UNL     1     176.496 187.034 181.610  1.00  0.00    -0.000 C 
BRANCH  29  30
ATOM     30  C   UNL     1     177.480 185.861 181.697  1.00  0.00    -0.000 C 
BRANCH  30  31
ATOM     31  C   UNL     1     177.730 185.457 183.155  1.00  0.00    -0.003 C 
ATOM     32  C   UNL     1     179.210 185.175 183.404  1.00  0.00     0.004 C 
ENDBRANCH  30  31
ENDBRANCH  29  30
ENDBRANCH  28  29
ENDBRANCH  27  28
ENDBRANCH  26  27
ENDBRANCH  25  26
ENDBRANCH  24  25
ENDBRANCH  23  24
ENDBRANCH  22  23
ENDBRANCH  21  22
ENDBRANCH  20  21
ENDBRANCH  19  20
ENDBRANCH  18  19
ENDBRANCH   1  18
TORSDOF 28
ENDMDL
MODEL 7
REMARK VINA RESULT:    -1.460      3.283      6.336
REMARK INTER + INTRA:         -10.394
REMARK INTER:                  -4.038
REMARK INTRA:                  -6.356
REMARK UNBOUND:                -6.543
REMARK SMILES CCCCCCCCCCCCCCCCCCCCCCCCCCCCCC(=O)[O-]
REMARK SMILES IDX 16 1 17 2 18 3 19 4 20 5 21 6 22 7 23 8 24 9 25 10 26 11
REMARK SMILES IDX 27 12 28 13 29 14 30 15 31 16 32 17 15 18 14 19 13 20 12 21
REMARK SMILES IDX 11 22 10 23 9 24 8 25 7 26 6 27 5 28 4 29 3 30 2 31 1 32
REMARK H PARENT
REMARK Flexibility Score: inf
ROOT
ATOM      1  C   UNL     1     175.550 188.104 185.358  1.00  0.00     0.000 C 
ENDROOT
BRANCH   1   2
ATOM      2  C   UNL     1     175.490 186.824 186.208  1.00  0.00     0.000 C 
BRANCH   2   3
ATOM      3  C   UNL     1     174.937 187.084 187.619  1.00  0.00     0.000 C 
BRANCH   3   4
ATOM      4  C   UNL     1     173.645 186.294 187.900  1.00  0.00     0.000 C 
BRANCH   4   5
ATOM      5  C   UNL     1     173.918 184.813 188.203  1.00  0.00     0.000 C 
BRANCH   5   6
ATOM      6  C   UNL     1     173.407 183.875 187.095  1.00  0.00     0.000 C 
BRANCH   6   7
ATOM      7  C   UNL     1     171.970 184.209 186.662  1.00  0.00     0.000 C 
BRANCH   7   8
ATOM      8  C   UNL     1     171.798 184.223 185.132  1.00  0.00     0.000 C 
BRANCH   8   9
ATOM      9  C   UNL     1     172.889 185.041 184.413  1.00  0.00     0.000 C 
BRANCH   9  10
ATOM     10  C   UNL     1     172.416 186.386 183.831  1.00  0.00     0.000 C 
BRANCH  10  11
ATOM     11  C   UNL     1     171.958 187.380 184.909  1.00  0.00     0.000 C 
BRANCH  11  12
ATOM     12  C   UNL     1     171.535 188.715 184.286  1.00  0.00     0.000 C 
BRANCH  12  13
ATOM     13  C   UNL     1     172.577 189.204 183.272  1.00  0.00     0.006 C 
BRANCH  13  14
ATOM     14  C   UNL     1     171.937 189.463 181.904  1.00  0.00     0.053 C 
BRANCH  14  15
ATOM     15  C   UNL     1     171.899 190.931 181.612  1.00  0.00     0.041 C 
ATOM     16  O   UNL     1     172.657 191.722 182.233  1.00  0.00    -0.550 OA
ATOM     17  O   UNL     1     171.050 191.422 180.627  1.00  0.00    -0.550 OA
ENDBRANCH  14  15
ENDBRANCH  13  14
ENDBRANCH  12  13
ENDBRANCH  11  12
ENDBRANCH  10  11
ENDBRANCH   9  10
ENDBRANCH   8   9
ENDBRANCH   7   8
ENDBRANCH   6   7
ENDBRANCH   5   6
ENDBRANCH   4   5
ENDBRANCH   3   4
ENDBRANCH   2   3
ENDBRANCH   1   2
BRANCH   1  18
ATOM     18  C   UNL     1     175.035 189.346 186.107  1.00  0.00     0.000 C 
BRANCH  18  19
ATOM     19  C   UNL     1     176.153 190.333 186.511  1.00  0.00     0.000 C 
BRANCH  19  20
ATOM     20  C   UNL     1     177.527 189.906 185.962  1.00  0.00     0.000 C 
BRANCH  20  21
ATOM     21  C   UNL     1     178.180 190.992 185.080  1.00  0.00     0.000 C 
BRANCH  21  22
ATOM     22  C   UNL     1     177.167 191.918 184.381  1.00  0.00     0.000 C 
BRANCH  22  23
ATOM     23  C   UNL     1     176.913 191.592 182.899  1.00  0.00     0.000 C 
BRANCH  23  24
ATOM     24  C   UNL     1     175.939 190.421 182.639  1.00  0.00    -0.000 C 
BRANCH  24  25
ATOM     25  C   UNL     1     175.620 190.143 181.159  1.00  0.00    -0.000 C 
BRANCH  25  26
ATOM     26  C   UNL     1     176.087 188.755 180.695  1.00  0.00    -0.000 C 
BRANCH  26  27
ATOM     27  C   UNL     1     175.121 187.632 181.114  1.00  0.00    -0.000 C 
BRANCH  27  28
ATOM     28  C   UNL     1     175.738 186.620 182.102  1.00  0.00    -0.000 C 
BRANCH  28  29
ATOM     29  C   UNL     1     177.143 186.167 181.672  1.00  0.00    -0.000 C 
BRANCH  29  30
ATOM     30  C   UNL     1     178.127 186.242 182.846  1.00  0.00    -0.000 C 
BRANCH  30  31
ATOM     31  C   UNL     1     178.421 187.698 183.226  1.00  0.00    -0.003 C 
ATOM     32  C   UNL     1     179.471 188.310 182.302  1.00  0.00     0.004 C 
ENDBRANCH  30  31
ENDBRANCH  29  30
ENDBRANCH  28  29
ENDBRANCH  27  28
ENDBRANCH  26  27
ENDBRANCH  25  26
ENDBRANCH  24  25
ENDBRANCH  23  24
ENDBRANCH  22  23
ENDBRANCH  21  22
ENDBRANCH  20  21
ENDBRANCH  19  20
ENDBRANCH  18  19
ENDBRANCH   1  18
TORSDOF 28
ENDMDL
MODEL 8
REMARK VINA RESULT:    -1.460      2.955      5.510
REMARK INTER + INTRA:         -10.392
REMARK INTER:                  -3.328
REMARK INTRA:                  -7.064
REMARK UNBOUND:                -6.543
REMARK SMILES CCCCCCCCCCCCCCCCCCCCCCCCCCCCCC(=O)[O-]
REMARK SMILES IDX 16 1 17 2 18 3 19 4 20 5 21 6 22 7 23 8 24 9 25 10 26 11
REMARK SMILES IDX 27 12 28 13 29 14 30 15 31 16 32 17 15 18 14 19 13 20 12 21
REMARK SMILES IDX 11 22 10 23 9 24 8 25 7 26 6 27 5 28 4 29 3 30 2 31 1 32
REMARK H PARENT
REMARK Flexibility Score: inf
ROOT
ATOM      1  C   UNL     1     173.207 185.670 186.944  1.00  0.00     0.000 C 
ENDROOT
BRANCH   1   2
ATOM      2  C   UNL     1     172.714 186.807 186.033  1.00  0.00     0.000 C 
BRANCH   2   3
ATOM      3  C   UNL     1     171.611 186.345 185.066  1.00  0.00     0.000 C 
BRANCH   3   4
ATOM      4  C   UNL     1     171.344 187.366 183.945  1.00  0.00     0.000 C 
BRANCH   4   5
ATOM      5  C   UNL     1     171.891 188.762 184.283  1.00  0.00     0.000 C 
BRANCH   5   6
ATOM      6  C   UNL     1     172.626 189.415 183.098  1.00  0.00     0.000 C 
BRANCH   6   7
ATOM      7  C   UNL     1     172.490 188.598 181.803  1.00  0.00     0.000 C 
BRANCH   7   8
ATOM      8  C   UNL     1     173.851 188.258 181.168  1.00  0.00     0.000 C 
BRANCH   8   9
ATOM      9  C   UNL     1     175.041 188.851 181.948  1.00  0.00     0.000 C 
BRANCH   9  10
ATOM     10  C   UNL     1     175.992 187.813 182.573  1.00  0.00     0.000 C 
BRANCH  10  11
ATOM     11  C   UNL     1     175.320 186.958 183.658  1.00  0.00     0.000 C 
BRANCH  11  12
ATOM     12  C   UNL     1     175.792 185.502 183.585  1.00  0.00     0.000 C 
BRANCH  12  13
ATOM     13  C   UNL     1     174.603 184.535 183.637  1.00  0.00     0.006 C 
BRANCH  13  14
ATOM     14  C   UNL     1     173.683 184.725 182.426  1.00  0.00     0.053 C 
BRANCH  14  15
ATOM     15  C   UNL     1     174.320 184.169 181.190  1.00  0.00     0.041 C 
ATOM     16  O   UNL     1     174.535 182.932 181.089  1.00  0.00    -0.550 OA
ATOM     17  O   UNL     1     174.643 185.013 180.134  1.00  0.00    -0.550 OA
ENDBRANCH  14  15
ENDBRANCH  13  14
ENDBRANCH  12  13
ENDBRANCH  11  12
ENDBRANCH  10  11
ENDBRANCH   9  10
ENDBRANCH   8   9
ENDBRANCH   7   8
ENDBRANCH   6   7
ENDBRANCH   5   6
ENDBRANCH   4   5
ENDBRANCH   3   4
ENDBRANCH   2   3
ENDBRANCH   1   2
BRANCH   1  18
ATOM     18  C   UNL     1     173.511 186.137 188.378  1.00  0.00     0.000 C 
BRANCH  18  19
ATOM     19  C   UNL     1     174.928 185.763 188.864  1.00  0.00     0.000 C 
BRANCH  19  20
ATOM     20  C   UNL     1     175.767 185.109 187.751  1.00  0.00     0.000 C 
BRANCH  20  21
ATOM     21  C   UNL     1     176.934 186.004 187.280  1.00  0.00     0.000 C 
BRANCH  21  22
ATOM     22  C   UNL     1     177.178 187.231 188.179  1.00  0.00     0.000 C 
BRANCH  22  23
ATOM     23  C   UNL     1     176.845 188.584 187.527  1.00  0.00     0.000 C 
BRANCH  23  24
ATOM     24  C   UNL     1     175.794 188.531 186.396  1.00  0.00    -0.000 C 
BRANCH  24  25
ATOM     25  C   UNL     1     175.070 189.857 186.104  1.00  0.00    -0.000 C 
BRANCH  25  26
ATOM     26  C   UNL     1     176.035 191.037 185.908  1.00  0.00    -0.000 C 
BRANCH  26  27
ATOM     27  C   UNL     1     176.690 191.044 184.515  1.00  0.00    -0.000 C 
BRANCH  27  28
ATOM     28  C   UNL     1     178.230 190.945 184.554  1.00  0.00    -0.000 C 
BRANCH  28  29
ATOM     29  C   UNL     1     178.728 189.512 184.307  1.00  0.00    -0.000 C 
BRANCH  29  30
ATOM     30  C   UNL     1     179.806 189.124 185.326  1.00  0.00    -0.000 C 
BRANCH  30  31
ATOM     31  C   UNL     1     179.856 187.604 185.525  1.00  0.00    -0.003 C 
ATOM     32  C   UNL     1     179.153 186.874 184.384  1.00  0.00     0.004 C 
ENDBRANCH  30  31
ENDBRANCH  29  30
ENDBRANCH  28  29
ENDBRANCH  27  28
ENDBRANCH  26  27
ENDBRANCH  25  26
ENDBRANCH  24  25
ENDBRANCH  23  24
ENDBRANCH  22  23
ENDBRANCH  21  22
ENDBRANCH  20  21
ENDBRANCH  19  20
ENDBRANCH  18  19
ENDBRANCH   1  18
TORSDOF 28
ENDMDL
MODEL 9
REMARK VINA RESULT:    -1.457      3.002      4.871
REMARK INTER + INTRA:         -10.385
REMARK INTER:                  -3.182
REMARK INTRA:                  -7.204
REMARK UNBOUND:                -6.543
REMARK SMILES CCCCCCCCCCCCCCCCCCCCCCCCCCCCCC(=O)[O-]
REMARK SMILES IDX 16 1 17 2 18 3 19 4 20 5 21 6 22 7 23 8 24 9 25 10 26 11
REMARK SMILES IDX 27 12 28 13 29 14 30 15 31 16 32 17 15 18 14 19 13 20 12 21
REMARK SMILES IDX 11 22 10 23 9 24 8 25 7 26 6 27 5 28 4 29 3 30 2 31 1 32
REMARK H PARENT
REMARK Flexibility Score: inf
ROOT
ATOM      1  C   UNL     1     173.159 189.130 181.373  1.00  0.00     0.000 C 
ENDROOT
BRANCH   1   2
ATOM      2  C   UNL     1     171.982 189.160 182.363  1.00  0.00     0.000 C 
BRANCH   2   3
ATOM      3  C   UNL     1     171.243 187.813 182.433  1.00  0.00     0.000 C 
BRANCH   3   4
ATOM      4  C   UNL     1     170.942 187.381 183.881  1.00  0.00     0.000 C 
BRANCH   4   5
ATOM      5  C   UNL     1     171.956 187.951 184.885  1.00  0.00     0.000 C 
BRANCH   5   6
ATOM      6  C   UNL     1     172.761 186.854 185.604  1.00  0.00     0.000 C 
BRANCH   6   7
ATOM      7  C   UNL     1     171.962 185.550 185.764  1.00  0.00     0.000 C 
BRANCH   7   8
ATOM      8  C   UNL     1     172.728 184.315 185.257  1.00  0.00     0.000 C 
BRANCH   8   9
ATOM      9  C   UNL     1     172.757 184.217 183.719  1.00  0.00     0.000 C 
BRANCH   9  10
ATOM     10  C   UNL     1     174.117 184.535 183.072  1.00  0.00     0.000 C 
BRANCH  10  11
ATOM     11  C   UNL     1     174.126 184.314 181.551  1.00  0.00     0.000 C 
BRANCH  11  12
ATOM     12  C   UNL     1     175.554 184.355 180.996  1.00  0.00     0.000 C 
BRANCH  12  13
ATOM     13  C   UNL     1     176.566 184.677 182.103  1.00  0.00     0.006 C 
BRANCH  13  14
ATOM     14  C   UNL     1     177.528 185.787 181.666  1.00  0.00     0.053 C 
BRANCH  14  15
ATOM     15  C   UNL     1     178.757 185.784 182.521  1.00  0.00     0.041 C 
ATOM     16  O   UNL     1     179.095 184.743 183.143  1.00  0.00    -0.550 OA
ATOM     17  O   UNL     1     179.550 186.924 182.603  1.00  0.00    -0.550 OA
ENDBRANCH  14  15
ENDBRANCH  13  14
ENDBRANCH  12  13
ENDBRANCH  11  12
ENDBRANCH  10  11
ENDBRANCH   9  10
ENDBRANCH   8   9
ENDBRANCH   7   8
ENDBRANCH   6   7
ENDBRANCH   5   6
ENDBRANCH   4   5
ENDBRANCH   3   4
ENDBRANCH   2   3
ENDBRANCH   1   2
BRANCH   1  18
ATOM     18  C   UNL     1     174.097 187.930 181.592  1.00  0.00     0.000 C 
BRANCH  18  19
ATOM     19  C   UNL     1     175.009 188.074 182.830  1.00  0.00     0.000 C 
BRANCH  19  20
ATOM     20  C   UNL     1     176.089 189.154 182.630  1.00  0.00     0.000 C 
BRANCH  20  21
ATOM     21  C   UNL     1     175.988 190.297 183.663  1.00  0.00     0.000 C 
BRANCH  21  22
ATOM     22  C   UNL     1     174.834 190.126 184.668  1.00  0.00     0.000 C 
BRANCH  22  23
ATOM     23  C   UNL     1     175.263 190.109 186.145  1.00  0.00     0.000 C 
BRANCH  23  24
ATOM     24  C   UNL     1     175.718 188.734 186.684  1.00  0.00    -0.000 C 
BRANCH  24  25
ATOM     25  C   UNL     1     177.232 188.467 186.617  1.00  0.00    -0.000 C 
BRANCH  25  26
ATOM     26  C   UNL     1     177.597 187.325 185.656  1.00  0.00    -0.000 C 
BRANCH  26  27
ATOM     27  C   UNL     1     176.456 186.306 185.482  1.00  0.00    -0.000 C 
BRANCH  27  28
ATOM     28  C   UNL     1     176.855 184.860 185.845  1.00  0.00    -0.000 C 
BRANCH  28  29
ATOM     29  C   UNL     1     176.557 184.525 187.315  1.00  0.00    -0.000 C 
BRANCH  29  30
ATOM     30  C   UNL     1     175.124 184.923 187.689  1.00  0.00    -0.000 C 
BRANCH  30  31
ATOM     31  C   UNL     1     175.111 185.865 188.899  1.00  0.00    -0.003 C 
ATOM     32  C   UNL     1     173.718 185.954 189.516  1.00  0.00     0.004 C 
ENDBRANCH  30  31
ENDBRANCH  29  30
ENDBRANCH  28  29
ENDBRANCH  27  28
ENDBRANCH  26  27
ENDBRANCH  25  26
ENDBRANCH  24  25
ENDBRANCH  23  24
ENDBRANCH  22  23
ENDBRANCH  21  22
ENDBRANCH  20  21
ENDBRANCH  19  20
ENDBRANCH  18  19
ENDBRANCH   1  18
TORSDOF 28
ENDMDL
