MODEL 1
REMARK VINA RESULT:    -1.422      0.000      0.000
REMARK INTER + INTRA:          -4.706
REMARK INTER:                  -3.584
REMARK INTRA:                  -1.123
REMARK UNBOUND:                -1.123
REMARK SMILES CCCCCCCCCCCCCCCCCCCCCCCCCCCC(=O)[O-]
REMARK SMILES IDX 15 1 16 2 17 3 18 4 19 5 20 6 21 7 22 8 23 9 24 10 25 11
REMARK SMILES IDX 26 12 27 13 28 14 29 15 30 16 14 17 13 18 12 19 11 20 10 21
REMARK SMILES IDX 9 22 8 23 7 24 6 25 5 26 4 27 3 28 2 29 1 30
REMARK H PARENT
REMARK Flexibility Score: inf
ROOT
ATOM      1  C   UNL     1      -5.900 -10.655   4.364  1.00  0.00     0.000 C 
ENDROOT
BRANCH   1   2
ATOM      2  C   UNL     1      -5.091 -10.676   3.054  1.00  0.00     0.000 C 
BRANCH   2   3
ATOM      3  C   UNL     1      -5.784 -11.368   1.863  1.00  0.00     0.000 C 
BRANCH   3   4
ATOM      4  C   UNL     1      -7.093 -12.106   2.199  1.00  0.00     0.000 C 
BRANCH   4   5
ATOM      5  C   UNL     1      -8.310 -11.524   1.461  1.00  0.00     0.000 C 
BRANCH   5   6
ATOM      6  C   UNL     1      -9.642 -11.810   2.179  1.00  0.00     0.000 C 
BRANCH   6   7
ATOM      7  C   UNL     1     -10.900 -11.693   1.300  1.00  0.00     0.000 C 
BRANCH   7   8
ATOM      8  C   UNL     1     -10.661 -12.125  -0.155  1.00  0.00     0.000 C 
BRANCH   8   9
ATOM      9  C   UNL     1     -11.773 -11.599  -1.074  1.00  0.00     0.000 C 
BRANCH   9  10
ATOM     10  C   UNL     1     -11.353 -11.556  -2.554  1.00  0.00     0.000 C 
BRANCH  10  11
ATOM     11  C   UNL     1     -10.934 -10.165  -3.073  1.00  0.00     0.000 C 
BRANCH  11  12
ATOM     12  C   UNL     1      -9.431  -9.844  -2.946  1.00  0.00     0.006 C 
BRANCH  12  13
ATOM     13  C   UNL     1      -8.503 -10.909  -3.549  1.00  0.00     0.053 C 
BRANCH  13  14
ATOM     14  C   UNL     1      -8.302 -10.710  -5.020  1.00  0.00     0.041 C 
ATOM     15  O   UNL     1      -8.974 -11.381  -5.847  1.00  0.00    -0.550 OA
ATOM     16  O   UNL     1      -7.398  -9.759  -5.477  1.00  0.00    -0.550 OA
ENDBRANCH  13  14
ENDBRANCH  12  13
ENDBRANCH  11  12
ENDBRANCH  10  11
ENDBRANCH   9  10
ENDBRANCH   8   9
ENDBRANCH   7   8
ENDBRANCH   6   7
ENDBRANCH   5   6
ENDBRANCH   4   5
ENDBRANCH   3   4
ENDBRANCH   2   3
ENDBRANCH   1   2
BRANCH   1  17
ATOM     17  C   UNL     1      -5.358 -11.641   5.413  1.00  0.00     0.000 C 
BRANCH  17  18
ATOM     18  C   UNL     1      -6.436 -12.106   6.410  1.00  0.00     0.000 C 
BRANCH  18  19
ATOM     19  C   UNL     1      -7.878 -12.125   5.862  1.00  0.00     0.000 C 
BRANCH  19  20
ATOM     20  C   UNL     1      -8.988 -12.011   6.922  1.00  0.00     0.000 C 
BRANCH  20  21
ATOM     21  C   UNL     1      -8.439 -11.820   8.345  1.00  0.00     0.000 C 
BRANCH  21  22
ATOM     22  C   UNL     1      -9.513 -12.024   9.431  1.00  0.00    -0.000 C 
BRANCH  22  23
ATOM     23  C   UNL     1     -10.966 -11.821   8.959  1.00  0.00    -0.000 C 
BRANCH  23  24
ATOM     24  C   UNL     1     -11.654 -10.545   9.483  1.00  0.00    -0.000 C 
BRANCH  24  25
ATOM     25  C   UNL     1     -11.835 -10.484  11.010  1.00  0.00    -0.000 C 
BRANCH  25  26
ATOM     26  C   UNL     1     -11.096 -11.611  11.744  1.00  0.00    -0.000 C 
BRANCH  26  27
ATOM     27  C   UNL     1     -11.103 -11.377  13.260  1.00  0.00    -0.000 C 
BRANCH  27  28
ATOM     28  C   UNL     1     -11.905 -10.117  13.619  1.00  0.00    -0.000 C 
BRANCH  28  29
ATOM     29  C   UNL     1     -11.029  -8.856  13.675  1.00  0.00    -0.003 C 
ATOM     30  C   UNL     1     -11.827  -7.595  14.003  1.00  0.00     0.004 C 
ENDBRANCH  28  29
ENDBRANCH  27  28
ENDBRANCH  26  27
ENDBRANCH  25  26
ENDBRANCH  24  25
ENDBRANCH  23  24
ENDBRANCH  22  23
ENDBRANCH  21  22
ENDBRANCH  20  21
ENDBRANCH  19  20
ENDBRANCH  18  19
ENDBRANCH  17  18
ENDBRANCH   1  17
TORSDOF 26
ENDMDL
MODEL 2
REMARK VINA RESULT:    -0.163      1.343      2.399
REMARK INTER + INTRA:          -1.533
REMARK INTER:                  -0.194
REMARK INTRA:                  -1.339
REMARK UNBOUND:                -1.123
REMARK SMILES CCCCCCCCCCCCCCCCCCCCCCCCCCCC(=O)[O-]
REMARK SMILES IDX 15 1 16 2 17 3 18 4 19 5 20 6 21 7 22 8 23 9 24 10 25 11
REMARK SMILES IDX 26 12 27 13 28 14 29 15 30 16 14 17 13 18 12 19 11 20 10 21
REMARK SMILES IDX 9 22 8 23 7 24 6 25 5 26 4 27 3 28 2 29 1 30
REMARK H PARENT
REMARK Flexibility Score: inf
ROOT
ATOM      1  C   UNL     1      -7.779 -11.440   4.581  1.00  0.00     0.000 C 
ENDROOT
BRANCH   1   2
ATOM      2  C   UNL     1      -6.340 -11.354   4.038  1.00  0.00     0.000 C 
BRANCH   2   3
ATOM      3  C   UNL     1      -6.223 -11.193   2.508  1.00  0.00     0.000 C 
BRANCH   3   4
ATOM      4  C   UNL     1      -7.163 -12.085   1.677  1.00  0.00     0.000 C 
BRANCH   4   5
ATOM      5  C   UNL     1      -8.448 -11.358   1.249  1.00  0.00     0.000 C 
BRANCH   5   6
ATOM      6  C   UNL     1      -9.237 -12.119   0.167  1.00  0.00     0.000 C 
BRANCH   6   7
ATOM      7  C   UNL     1      -9.276 -11.441  -1.215  1.00  0.00     0.000 C 
BRANCH   7   8
ATOM      8  C   UNL     1      -9.858 -10.019  -1.172  1.00  0.00     0.000 C 
BRANCH   8   9
ATOM      9  C   UNL     1     -11.242  -9.971  -1.835  1.00  0.00     0.000 C 
BRANCH   9  10
ATOM     10  C   UNL     1     -11.362 -10.925  -3.037  1.00  0.00     0.000 C 
BRANCH  10  11
ATOM     11  C   UNL     1     -10.960 -10.315  -4.395  1.00  0.00     0.000 C 
BRANCH  11  12
ATOM     12  C   UNL     1     -10.375 -11.314  -5.414  1.00  0.00     0.006 C 
BRANCH  12  13
ATOM     13  C   UNL     1      -8.879 -11.605  -5.229  1.00  0.00     0.053 C 
BRANCH  13  14
ATOM     14  C   UNL     1      -8.132 -10.407  -4.729  1.00  0.00     0.041 C 
ATOM     15  O   UNL     1      -8.251  -9.298  -5.314  1.00  0.00    -0.550 OA
ATOM     16  O   UNL     1      -7.333 -10.507  -3.597  1.00  0.00    -0.550 OA
ENDBRANCH  13  14
ENDBRANCH  12  13
ENDBRANCH  11  12
ENDBRANCH  10  11
ENDBRANCH   9  10
ENDBRANCH   8   9
ENDBRANCH   7   8
ENDBRANCH   6   7
ENDBRANCH   5   6
ENDBRANCH   4   5
ENDBRANCH   3   4
ENDBRANCH   2   3
ENDBRANCH   1   2
BRANCH   1  17
ATOM     17  C   UNL     1      -7.856 -11.209   6.099  1.00  0.00     0.000 C 
BRANCH  17  18
ATOM     18  C   UNL     1      -8.881 -12.125   6.792  1.00  0.00     0.000 C 
BRANCH  18  19
ATOM     19  C   UNL     1     -10.351 -11.903   6.379  1.00  0.00     0.000 C 
BRANCH  19  20
ATOM     20  C   UNL     1     -11.373 -11.939   7.529  1.00  0.00     0.000 C 
BRANCH  20  21
ATOM     21  C   UNL     1     -10.711 -12.009   8.915  1.00  0.00     0.000 C 
BRANCH  21  22
ATOM     22  C   UNL     1     -11.734 -11.982  10.066  1.00  0.00    -0.000 C 
BRANCH  22  23
ATOM     23  C   UNL     1     -11.125 -11.998  11.482  1.00  0.00    -0.000 C 
BRANCH  23  24
ATOM     24  C   UNL     1     -12.119 -11.716  12.626  1.00  0.00    -0.000 C 
BRANCH  24  25
ATOM     25  C   UNL     1     -11.528 -10.956  13.828  1.00  0.00    -0.000 C 
BRANCH  25  26
ATOM     26  C   UNL     1     -10.423  -9.970  13.426  1.00  0.00    -0.000 C 
BRANCH  26  27
ATOM     27  C   UNL     1     -11.017  -8.617  13.015  1.00  0.00    -0.000 C 
BRANCH  27  28
ATOM     28  C   UNL     1     -11.671  -8.700  11.627  1.00  0.00    -0.000 C 
BRANCH  28  29
ATOM     29  C   UNL     1     -10.645  -8.619  10.487  1.00  0.00    -0.003 C 
ATOM     30  C   UNL     1     -11.288  -8.324   9.132  1.00  0.00     0.004 C 
ENDBRANCH  28  29
ENDBRANCH  27  28
ENDBRANCH  26  27
ENDBRANCH  25  26
ENDBRANCH  24  25
ENDBRANCH  23  24
ENDBRANCH  22  23
ENDBRANCH  21  22
ENDBRANCH  20  21
ENDBRANCH  19  20
ENDBRANCH  18  19
ENDBRANCH  17  18
ENDBRANCH   1  17
TORSDOF 26
ENDMDL
MODEL 3
REMARK VINA RESULT:     0.597      4.763     11.699
REMARK INTER + INTRA:           0.382
REMARK INTER:                  -0.333
REMARK INTRA:                   0.715
REMARK UNBOUND:                -1.123
REMARK SMILES CCCCCCCCCCCCCCCCCCCCCCCCCCCC(=O)[O-]
REMARK SMILES IDX 15 1 16 2 17 3 18 4 19 5 20 6 21 7 22 8 23 9 24 10 25 11
REMARK SMILES IDX 26 12 27 13 28 14 29 15 30 16 14 17 13 18 12 19 11 20 10 21
REMARK SMILES IDX 9 22 8 23 7 24 6 25 5 26 4 27 3 28 2 29 1 30
REMARK H PARENT
REMARK Flexibility Score: inf
ROOT
ATOM      1  C   UNL     1      -5.848 -10.515   3.773  1.00  0.00     0.000 C 
ENDROOT
BRANCH   1   2
ATOM      2  C   UNL     1      -6.214 -10.535   5.269  1.00  0.00     0.000 C 
BRANCH   2   3
ATOM      3  C   UNL     1      -6.901 -11.825   5.761  1.00  0.00     0.000 C 
BRANCH   3   4
ATOM      4  C   UNL     1      -7.931 -11.635   6.890  1.00  0.00     0.000 C 
BRANCH   4   5
ATOM      5  C   UNL     1      -9.336 -12.125   6.501  1.00  0.00     0.000 C 
BRANCH   5   6
ATOM      6  C   UNL     1      -9.811 -11.572   5.144  1.00  0.00     0.000 C 
BRANCH   6   7
ATOM      7  C   UNL     1     -11.338 -11.521   4.954  1.00  0.00     0.000 C 
BRANCH   7   8
ATOM      8  C   UNL     1     -12.116 -11.828   6.243  1.00  0.00     0.000 C 
BRANCH   8   9
ATOM      9  C   UNL     1     -11.404 -11.239   7.468  1.00  0.00     0.000 C 
BRANCH   9  10
ATOM     10  C   UNL     1     -12.060  -9.940   7.972  1.00  0.00     0.000 C 
BRANCH  10  11
ATOM     11  C   UNL     1     -11.190  -9.101   8.930  1.00  0.00     0.000 C 
BRANCH  11  12
ATOM     12  C   UNL     1      -9.871  -9.767   9.371  1.00  0.00     0.006 C 
BRANCH  12  13
ATOM     13  C   UNL     1      -9.987 -11.270   9.663  1.00  0.00     0.053 C 
BRANCH  13  14
ATOM     14  C   UNL     1     -10.667 -11.537  10.971  1.00  0.00     0.041 C 
ATOM     15  O   UNL     1      -9.984 -11.754  12.006  1.00  0.00    -0.550 OA
ATOM     16  O   UNL     1     -12.054 -11.512  11.052  1.00  0.00    -0.550 OA
ENDBRANCH  13  14
ENDBRANCH  12  13
ENDBRANCH  11  12
ENDBRANCH  10  11
ENDBRANCH   9  10
ENDBRANCH   8   9
ENDBRANCH   7   8
ENDBRANCH   6   7
ENDBRANCH   5   6
ENDBRANCH   4   5
ENDBRANCH   3   4
ENDBRANCH   2   3
ENDBRANCH   1   2
BRANCH   1  17
ATOM     17  C   UNL     1      -6.125 -11.857   3.075  1.00  0.00     0.000 C 
BRANCH  17  18
ATOM     18  C   UNL     1      -7.016 -11.709   1.828  1.00  0.00     0.000 C 
BRANCH  18  19
ATOM     19  C   UNL     1      -8.490 -12.124   2.016  1.00  0.00     0.000 C 
BRANCH  19  20
ATOM     20  C   UNL     1      -9.394 -11.925   0.786  1.00  0.00     0.000 C 
BRANCH  20  21
ATOM     21  C   UNL     1     -10.279 -10.672   0.891  1.00  0.00     0.000 C 
BRANCH  21  22
ATOM     22  C   UNL     1     -11.590 -10.800   0.094  1.00  0.00    -0.000 C 
BRANCH  22  23
ATOM     23  C   UNL     1     -11.703 -12.065  -0.779  1.00  0.00    -0.000 C 
BRANCH  23  24
ATOM     24  C   UNL     1     -11.014 -11.976  -2.155  1.00  0.00    -0.000 C 
BRANCH  24  25
ATOM     25  C   UNL     1     -10.039 -10.796  -2.319  1.00  0.00    -0.000 C 
BRANCH  25  26
ATOM     26  C   UNL     1     -10.094 -10.167  -3.718  1.00  0.00    -0.000 C 
BRANCH  26  27
ATOM     27  C   UNL     1     -10.601 -11.175  -4.755  1.00  0.00    -0.000 C 
BRANCH  27  28
ATOM     28  C   UNL     1      -9.864 -11.008  -6.093  1.00  0.00    -0.000 C 
BRANCH  28  29
ATOM     29  C   UNL     1      -8.548 -10.229  -5.947  1.00  0.00    -0.003 C 
ATOM     30  C   UNL     1      -7.333 -11.143  -5.788  1.00  0.00     0.004 C 
ENDBRANCH  28  29
ENDBRANCH  27  28
ENDBRANCH  26  27
ENDBRANCH  25  26
ENDBRANCH  24  25
ENDBRANCH  23  24
ENDBRANCH  22  23
ENDBRANCH  21  22
ENDBRANCH  20  21
ENDBRANCH  19  20
ENDBRANCH  18  19
ENDBRANCH  17  18
ENDBRANCH   1  17
TORSDOF 26
ENDMDL
