MODEL 1
REMARK VINA RESULT:    -5.568      0.000      0.000
REMARK INTER + INTRA:         -14.610
REMARK INTER:                 -12.079
REMARK INTRA:                  -2.530
REMARK UNBOUND:                -2.530
REMARK SMILES CCCCCCCCCCCCCCCCCCCCCC(=O)[O-]
REMARK SMILES IDX 12 1 11 2 10 3 9 4 8 5 7 6 6 7 5 8 4 9 3 10 2 11 1 12 13 13
REMARK SMILES IDX 14 14 15 15 16 16 17 17 18 18 19 19 20 20 21 21 22 22 23 23
REMARK SMILES IDX 24 24
REMARK H PARENT
REMARK Flexibility Score: inf
ROOT
ATOM      1  C   UNL     1     -19.745  40.197  -8.201  1.00  0.00     0.000 C 
ENDROOT
BRANCH   1   2
ATOM      2  C   UNL     1     -18.529  39.606  -8.932  1.00  0.00     0.000 C 
BRANCH   2   3
ATOM      3  C   UNL     1     -17.419  39.162  -7.968  1.00  0.00     0.000 C 
BRANCH   3   4
ATOM      4  C   UNL     1     -17.796  39.374  -6.491  1.00  0.00    -0.000 C 
BRANCH   4   5
ATOM      5  C   UNL     1     -16.729  40.185  -5.726  1.00  0.00    -0.000 C 
BRANCH   5   6
ATOM      6  C   UNL     1     -16.799  40.018  -4.198  1.00  0.00    -0.000 C 
BRANCH   6   7
ATOM      7  C   UNL     1     -16.204  41.214  -3.439  1.00  0.00    -0.000 C 
BRANCH   7   8
ATOM      8  C   UNL     1     -16.338  42.536  -4.215  1.00  0.00    -0.000 C 
BRANCH   8   9
ATOM      9  C   UNL     1     -17.731  43.169  -4.060  1.00  0.00    -0.000 C 
BRANCH   9  10
ATOM     10  C   UNL     1     -18.190  43.922  -5.324  1.00  0.00    -0.000 C 
BRANCH  10  11
ATOM     11  C   UNL     1     -18.769  43.031  -6.438  1.00  0.00    -0.003 C 
ATOM     12  C   UNL     1     -19.109  43.805  -7.710  1.00  0.00     0.004 C 
ENDBRANCH  10  11
ENDBRANCH   9  10
ENDBRANCH   8   9
ENDBRANCH   7   8
ENDBRANCH   6   7
ENDBRANCH   5   6
ENDBRANCH   4   5
ENDBRANCH   3   4
ENDBRANCH   2   3
ENDBRANCH   1   2
BRANCH   1  13
ATOM     13  C   UNL     1     -20.971  40.233  -9.125  1.00  0.00     0.000 C 
BRANCH  13  14
ATOM     14  C   UNL     1     -22.162  40.990  -8.510  1.00  0.00     0.000 C 
BRANCH  14  15
ATOM     15  C   UNL     1     -22.297  40.861  -6.980  1.00  0.00     0.000 C 
BRANCH  15  16
ATOM     16  C   UNL     1     -23.653  41.307  -6.401  1.00  0.00     0.000 C 
BRANCH  16  17
ATOM     17  C   UNL     1     -23.732  42.794  -6.005  1.00  0.00     0.000 C 
BRANCH  17  18
ATOM     18  C   UNL     1     -22.370  43.492  -5.812  1.00  0.00     0.000 C 
BRANCH  18  19
ATOM     19  C   UNL     1     -22.354  44.996  -6.141  1.00  0.00     0.000 C 
BRANCH  19  20
ATOM     20  C   UNL     1     -23.628  45.724  -5.679  1.00  0.00     0.006 C 
BRANCH  20  21
ATOM     21  C   UNL     1     -24.259  46.555  -6.804  1.00  0.00     0.053 C 
BRANCH  21  22
ATOM     22  C   UNL     1     -25.474  45.887  -7.371  1.00  0.00     0.041 C 
ATOM     23  O   UNL     1     -26.625  46.257  -7.015  1.00  0.00    -0.550 OA
ATOM     24  O   UNL     1     -25.335  44.837  -8.270  1.00  0.00    -0.550 OA
ENDBRANCH  21  22
ENDBRANCH  20  21
ENDBRANCH  19  20
ENDBRANCH  18  19
ENDBRANCH  17  18
ENDBRANCH  16  17
ENDBRANCH  15  16
ENDBRANCH  14  15
ENDBRANCH  13  14
ENDBRANCH   1  13
TORSDOF 20
ENDMDL
MODEL 2
REMARK VINA RESULT:    -5.507      3.110      7.132
REMARK INTER + INTRA:         -14.476
REMARK INTER:                 -11.385
REMARK INTRA:                  -3.091
REMARK UNBOUND:                -2.530
REMARK SMILES CCCCCCCCCCCCCCCCCCCCCC(=O)[O-]
REMARK SMILES IDX 12 1 11 2 10 3 9 4 8 5 7 6 6 7 5 8 4 9 3 10 2 11 1 12 13 13
REMARK SMILES IDX 14 14 15 15 16 16 17 17 18 18 19 19 20 20 21 21 22 22 23 23
REMARK SMILES IDX 24 24
REMARK H PARENT
REMARK Flexibility Score: inf
ROOT
ATOM      1  C   UNL     1     -21.544  41.117  -5.845  1.00  0.00     0.000 C 
ENDROOT
BRANCH   1   2
ATOM      2  C   UNL     1     -22.238  42.484  -5.755  1.00  0.00     0.000 C 
BRANCH   2   3
ATOM      3  C   UNL     1     -23.566  42.525  -6.526  1.00  0.00     0.000 C 
BRANCH   3   4
ATOM      4  C   UNL     1     -23.544  43.526  -7.694  1.00  0.00    -0.000 C 
BRANCH   4   5
ATOM      5  C   UNL     1     -24.741  44.500  -7.652  1.00  0.00    -0.000 C 
BRANCH   5   6
ATOM      6  C   UNL     1     -24.871  45.267  -6.325  1.00  0.00    -0.000 C 
BRANCH   6   7
ATOM      7  C   UNL     1     -23.588  46.021  -5.943  1.00  0.00    -0.000 C 
BRANCH   7   8
ATOM      8  C   UNL     1     -23.154  47.035  -7.015  1.00  0.00    -0.000 C 
BRANCH   8   9
ATOM      9  C   UNL     1     -21.657  46.928  -7.352  1.00  0.00    -0.000 C 
BRANCH   9  10
ATOM     10  C   UNL     1     -20.929  45.859  -6.514  1.00  0.00    -0.000 C 
BRANCH  10  11
ATOM     11  C   UNL     1     -19.875  45.039  -7.281  1.00  0.00    -0.003 C 
ATOM     12  C   UNL     1     -18.873  44.342  -6.362  1.00  0.00     0.004 C 
ENDBRANCH  10  11
ENDBRANCH   9  10
ENDBRANCH   8   9
ENDBRANCH   7   8
ENDBRANCH   6   7
ENDBRANCH   5   6
ENDBRANCH   4   5
ENDBRANCH   3   4
ENDBRANCH   2   3
ENDBRANCH   1   2
BRANCH   1  13
ATOM     13  C   UNL     1     -22.112  40.293  -7.010  1.00  0.00     0.000 C 
BRANCH  13  14
ATOM     14  C   UNL     1     -21.098  40.088  -8.149  1.00  0.00     0.000 C 
BRANCH  14  15
ATOM     15  C   UNL     1     -20.493  41.383  -8.724  1.00  0.00     0.000 C 
BRANCH  15  16
ATOM     16  C   UNL     1     -18.953  41.438  -8.735  1.00  0.00     0.000 C 
BRANCH  16  17
ATOM     17  C   UNL     1     -18.260  40.386  -7.847  1.00  0.00     0.000 C 
BRANCH  17  18
ATOM     18  C   UNL     1     -18.085  40.790  -6.369  1.00  0.00     0.000 C 
BRANCH  18  19
ATOM     19  C   UNL     1     -16.842  40.205  -5.675  1.00  0.00     0.000 C 
BRANCH  19  20
ATOM     20  C   UNL     1     -17.013  40.068  -4.153  1.00  0.00     0.006 C 
BRANCH  20  21
ATOM     21  C   UNL     1     -16.132  41.059  -3.380  1.00  0.00     0.053 C 
BRANCH  21  22
ATOM     22  C   UNL     1     -16.570  42.475  -3.597  1.00  0.00     0.041 C 
ATOM     23  O   UNL     1     -15.818  43.286  -4.201  1.00  0.00    -0.550 OA
ATOM     24  O   UNL     1     -17.796  42.907  -3.106  1.00  0.00    -0.550 OA
ENDBRANCH  21  22
ENDBRANCH  20  21
ENDBRANCH  19  20
ENDBRANCH  18  19
ENDBRANCH  17  18
ENDBRANCH  16  17
ENDBRANCH  15  16
ENDBRANCH  14  15
ENDBRANCH  13  14
ENDBRANCH   1  13
TORSDOF 20
ENDMDL
MODEL 3
REMARK VINA RESULT:    -5.491      2.938      7.136
REMARK INTER + INTRA:         -14.441
REMARK INTER:                 -11.443
REMARK INTRA:                  -2.998
REMARK UNBOUND:                -2.530
REMARK SMILES CCCCCCCCCCCCCCCCCCCCCC(=O)[O-]
REMARK SMILES IDX 12 1 11 2 10 3 9 4 8 5 7 6 6 7 5 8 4 9 3 10 2 11 1 12 13 13
REMARK SMILES IDX 14 14 15 15 16 16 17 17 18 18 19 19 20 20 21 21 22 22 23 23
REMARK SMILES IDX 24 24
REMARK H PARENT
REMARK Flexibility Score: inf
ROOT
ATOM      1  C   UNL     1     -21.298  41.394  -5.775  1.00  0.00     0.000 C 
ENDROOT
BRANCH   1   2
ATOM      2  C   UNL     1     -22.126  42.688  -5.792  1.00  0.00     0.000 C 
BRANCH   2   3
ATOM      3  C   UNL     1     -23.425  42.548  -6.600  1.00  0.00     0.000 C 
BRANCH   3   4
ATOM      4  C   UNL     1     -23.387  43.332  -7.924  1.00  0.00    -0.000 C 
BRANCH   4   5
ATOM      5  C   UNL     1     -22.170  44.277  -8.009  1.00  0.00    -0.000 C 
BRANCH   5   6
ATOM      6  C   UNL     1     -22.486  45.639  -8.651  1.00  0.00    -0.000 C 
BRANCH   6   7
ATOM      7  C   UNL     1     -22.422  46.801  -7.647  1.00  0.00    -0.000 C 
BRANCH   7   8
ATOM      8  C   UNL     1     -22.125  46.331  -6.213  1.00  0.00    -0.000 C 
BRANCH   8   9
ATOM      9  C   UNL     1     -23.403  46.170  -5.371  1.00  0.00    -0.000 C 
BRANCH   9  10
ATOM     10  C   UNL     1     -24.624  46.869  -5.998  1.00  0.00    -0.000 C 
BRANCH  10  11
ATOM     11  C   UNL     1     -25.799  45.936  -6.346  1.00  0.00    -0.003 C 
ATOM     12  C   UNL     1     -26.117  45.901  -7.840  1.00  0.00     0.004 C 
ENDBRANCH  10  11
ENDBRANCH   9  10
ENDBRANCH   8   9
ENDBRANCH   7   8
ENDBRANCH   6   7
ENDBRANCH   5   6
ENDBRANCH   4   5
ENDBRANCH   3   4
ENDBRANCH   2   3
ENDBRANCH   1   2
BRANCH   1  13
ATOM     13  C   UNL     1     -21.969  40.307  -6.628  1.00  0.00     0.000 C 
BRANCH  13  14
ATOM     14  C   UNL     1     -21.126  39.898  -7.849  1.00  0.00     0.000 C 
BRANCH  14  15
ATOM     15  C   UNL     1     -20.332  41.044  -8.507  1.00  0.00     0.000 C 
BRANCH  15  16
ATOM     16  C   UNL     1     -18.811  40.819  -8.599  1.00  0.00     0.000 C 
BRANCH  16  17
ATOM     17  C   UNL     1     -18.024  41.177  -7.323  1.00  0.00     0.000 C 
BRANCH  17  18
ATOM     18  C   UNL     1     -17.654  39.979  -6.426  1.00  0.00     0.000 C 
BRANCH  18  19
ATOM     19  C   UNL     1     -17.516  40.303  -4.927  1.00  0.00     0.000 C 
BRANCH  19  20
ATOM     20  C   UNL     1     -16.098  40.756  -4.539  1.00  0.00     0.006 C 
BRANCH  20  21
ATOM     21  C   UNL     1     -16.106  42.076  -3.757  1.00  0.00     0.053 C 
BRANCH  21  22
ATOM     22  C   UNL     1     -17.358  42.860  -4.006  1.00  0.00     0.041 C 
ATOM     23  O   UNL     1     -17.437  43.627  -5.003  1.00  0.00    -0.550 OA
ATOM     24  O   UNL     1     -18.426  42.766  -3.122  1.00  0.00    -0.550 OA
ENDBRANCH  21  22
ENDBRANCH  20  21
ENDBRANCH  19  20
ENDBRANCH  18  19
ENDBRANCH  17  18
ENDBRANCH  16  17
ENDBRANCH  15  16
ENDBRANCH  14  15
ENDBRANCH  13  14
ENDBRANCH   1  13
TORSDOF 20
ENDMDL
MODEL 4
REMARK VINA RESULT:    -5.437      3.211      6.876
REMARK INTER + INTRA:         -14.324
REMARK INTER:                 -10.906
REMARK INTRA:                  -3.418
REMARK UNBOUND:                -2.530
REMARK SMILES CCCCCCCCCCCCCCCCCCCCCC(=O)[O-]
REMARK SMILES IDX 12 1 11 2 10 3 9 4 8 5 7 6 6 7 5 8 4 9 3 10 2 11 1 12 13 13
REMARK SMILES IDX 14 14 15 15 16 16 17 17 18 18 19 19 20 20 21 21 22 22 23 23
REMARK SMILES IDX 24 24
REMARK H PARENT
REMARK Flexibility Score: inf
ROOT
ATOM      1  C   UNL     1     -22.045  40.877  -6.190  1.00  0.00     0.000 C 
ENDROOT
BRANCH   1   2
ATOM      2  C   UNL     1     -20.649  41.175  -5.623  1.00  0.00     0.000 C 
BRANCH   2   3
ATOM      3  C   UNL     1     -20.405  42.678  -5.416  1.00  0.00     0.000 C 
BRANCH   3   4
ATOM      4  C   UNL     1     -19.042  43.138  -5.962  1.00  0.00    -0.000 C 
BRANCH   4   5
ATOM      5  C   UNL     1     -19.185  44.029  -7.215  1.00  0.00    -0.000 C 
BRANCH   5   6
ATOM      6  C   UNL     1     -19.823  45.400  -6.931  1.00  0.00    -0.000 C 
BRANCH   6   7
ATOM      7  C   UNL     1     -20.886  45.791  -7.970  1.00  0.00    -0.000 C 
BRANCH   7   8
ATOM      8  C   UNL     1     -22.110  44.860  -7.945  1.00  0.00    -0.000 C 
BRANCH   8   9
ATOM      9  C   UNL     1     -22.820  44.860  -6.581  1.00  0.00    -0.000 C 
BRANCH   9  10
ATOM     10  C   UNL     1     -24.133  44.054  -6.589  1.00  0.00    -0.000 C 
BRANCH  10  11
ATOM     11  C   UNL     1     -25.359  44.817  -7.124  1.00  0.00    -0.003 C 
ATOM     12  C   UNL     1     -25.514  46.209  -6.514  1.00  0.00     0.004 C 
ENDBRANCH  10  11
ENDBRANCH   9  10
ENDBRANCH   8   9
ENDBRANCH   7   8
ENDBRANCH   6   7
ENDBRANCH   5   6
ENDBRANCH   4   5
ENDBRANCH   3   4
ENDBRANCH   2   3
ENDBRANCH   1   2
BRANCH   1  13
ATOM     13  C   UNL     1     -22.050  41.001  -7.721  1.00  0.00     0.000 C 
BRANCH  13  14
ATOM     14  C   UNL     1     -20.941  40.170  -8.393  1.00  0.00     0.000 C 
BRANCH  14  15
ATOM     15  C   UNL     1     -19.863  40.993  -9.125  1.00  0.00     0.000 C 
BRANCH  15  16
ATOM     16  C   UNL     1     -18.420  40.763  -8.638  1.00  0.00     0.000 C 
BRANCH  16  17
ATOM     17  C   UNL     1     -18.064  39.294  -8.336  1.00  0.00     0.000 C 
BRANCH  17  18
ATOM     18  C   UNL     1     -17.561  39.025  -6.903  1.00  0.00     0.000 C 
BRANCH  18  19
ATOM     19  C   UNL     1     -17.173  40.281  -6.101  1.00  0.00     0.000 C 
BRANCH  19  20
ATOM     20  C   UNL     1     -17.436  40.134  -4.592  1.00  0.00     0.006 C 
BRANCH  20  21
ATOM     21  C   UNL     1     -16.292  40.712  -3.747  1.00  0.00     0.053 C 
BRANCH  21  22
ATOM     22  C   UNL     1     -16.463  42.182  -3.516  1.00  0.00     0.041 C 
ATOM     23  O   UNL     1     -17.424  42.607  -2.821  1.00  0.00    -0.550 OA
ATOM     24  O   UNL     1     -15.576  43.085  -4.091  1.00  0.00    -0.550 OA
ENDBRANCH  21  22
ENDBRANCH  20  21
ENDBRANCH  19  20
ENDBRANCH  18  19
ENDBRANCH  17  18
ENDBRANCH  16  17
ENDBRANCH  15  16
ENDBRANCH  14  15
ENDBRANCH  13  14
ENDBRANCH   1  13
TORSDOF 20
ENDMDL
MODEL 5
REMARK VINA RESULT:    -5.402      1.245      4.400
REMARK INTER + INTRA:         -14.248
REMARK INTER:                 -11.249
REMARK INTRA:                  -2.999
REMARK UNBOUND:                -2.530
REMARK SMILES CCCCCCCCCCCCCCCCCCCCCC(=O)[O-]
REMARK SMILES IDX 12 1 11 2 10 3 9 4 8 5 7 6 6 7 5 8 4 9 3 10 2 11 1 12 13 13
REMARK SMILES IDX 14 14 15 15 16 16 17 17 18 18 19 19 20 20 21 21 22 22 23 23
REMARK SMILES IDX 24 24
REMARK H PARENT
REMARK Flexibility Score: inf
ROOT
ATOM      1  C   UNL     1     -16.343  40.861  -3.996  1.00  0.00     0.000 C 
ENDROOT
BRANCH   1   2
ATOM      2  C   UNL     1     -17.305  39.998  -4.828  1.00  0.00     0.000 C 
BRANCH   2   3
ATOM      3  C   UNL     1     -17.267  40.347  -6.324  1.00  0.00     0.000 C 
BRANCH   3   4
ATOM      4  C   UNL     1     -17.523  39.125  -7.224  1.00  0.00    -0.000 C 
BRANCH   4   5
ATOM      5  C   UNL     1     -18.455  39.457  -8.409  1.00  0.00    -0.000 C 
BRANCH   5   6
ATOM      6  C   UNL     1     -18.828  40.947  -8.506  1.00  0.00    -0.000 C 
BRANCH   6   7
ATOM      7  C   UNL     1     -20.323  41.206  -8.259  1.00  0.00    -0.000 C 
BRANCH   7   8
ATOM      8  C   UNL     1     -21.046  39.983  -7.668  1.00  0.00    -0.000 C 
BRANCH   8   9
ATOM      9  C   UNL     1     -21.942  40.352  -6.474  1.00  0.00    -0.000 C 
BRANCH   9  10
ATOM     10  C   UNL     1     -21.697  41.784  -5.961  1.00  0.00    -0.000 C 
BRANCH  10  11
ATOM     11  C   UNL     1     -22.968  42.633  -5.773  1.00  0.00    -0.003 C 
ATOM     12  C   UNL     1     -23.928  42.548  -6.959  1.00  0.00     0.004 C 
ENDBRANCH  10  11
ENDBRANCH   9  10
ENDBRANCH   8   9
ENDBRANCH   7   8
ENDBRANCH   6   7
ENDBRANCH   5   6
ENDBRANCH   4   5
ENDBRANCH   3   4
ENDBRANCH   2   3
ENDBRANCH   1   2
BRANCH   1  13
ATOM     13  C   UNL     1     -17.037  42.145  -3.520  1.00  0.00     0.000 C 
BRANCH  13  14
ATOM     14  C   UNL     1     -17.150  43.211  -4.625  1.00  0.00     0.000 C 
BRANCH  14  15
ATOM     15  C   UNL     1     -18.566  43.402  -5.203  1.00  0.00     0.000 C 
BRANCH  15  16
ATOM     16  C   UNL     1     -18.627  44.139  -6.555  1.00  0.00     0.000 C 
BRANCH  16  17
ATOM     17  C   UNL     1     -19.294  45.528  -6.507  1.00  0.00     0.000 C 
BRANCH  17  18
ATOM     18  C   UNL     1     -20.827  45.523  -6.674  1.00  0.00     0.000 C 
BRANCH  18  19
ATOM     19  C   UNL     1     -21.332  45.054  -8.050  1.00  0.00     0.000 C 
BRANCH  19  20
ATOM     20  C   UNL     1     -22.682  45.680  -8.440  1.00  0.00     0.006 C 
BRANCH  20  21
ATOM     21  C   UNL     1     -23.397  46.310  -7.236  1.00  0.00     0.053 C 
BRANCH  21  22
ATOM     22  C   UNL     1     -24.859  45.988  -7.229  1.00  0.00     0.041 C 
ATOM     23  O   UNL     1     -25.538  46.144  -6.179  1.00  0.00    -0.550 OA
ATOM     24  O   UNL     1     -25.468  45.488  -8.375  1.00  0.00    -0.550 OA
ENDBRANCH  21  22
ENDBRANCH  20  21
ENDBRANCH  19  20
ENDBRANCH  18  19
ENDBRANCH  17  18
ENDBRANCH  16  17
ENDBRANCH  15  16
ENDBRANCH  14  15
ENDBRANCH  13  14
ENDBRANCH   1  13
TORSDOF 20
ENDMDL
MODEL 6
REMARK VINA RESULT:    -4.866      1.880      5.534
REMARK INTER + INTRA:         -13.087
REMARK INTER:                 -10.232
REMARK INTRA:                  -2.855
REMARK UNBOUND:                -2.530
REMARK SMILES CCCCCCCCCCCCCCCCCCCCCC(=O)[O-]
REMARK SMILES IDX 12 1 11 2 10 3 9 4 8 5 7 6 6 7 5 8 4 9 3 10 2 11 1 12 13 13
REMARK SMILES IDX 14 14 15 15 16 16 17 17 18 18 19 19 20 20 21 21 22 22 23 23
REMARK SMILES IDX 24 24
REMARK H PARENT
REMARK Flexibility Score: inf
ROOT
ATOM      1  C   UNL     1     -17.542  40.206  -6.558  1.00  0.00     0.000 C 
ENDROOT
BRANCH   1   2
ATOM      2  C   UNL     1     -17.863  39.679  -7.965  1.00  0.00     0.000 C 
BRANCH   2   3
ATOM      3  C   UNL     1     -18.878  40.560  -8.708  1.00  0.00     0.000 C 
BRANCH   3   4
ATOM      4  C   UNL     1     -20.228  39.855  -8.925  1.00  0.00    -0.000 C 
BRANCH   4   5
ATOM      5  C   UNL     1     -21.417  40.700  -8.421  1.00  0.00    -0.000 C 
BRANCH   5   6
ATOM      6  C   UNL     1     -21.900  40.314  -7.012  1.00  0.00    -0.000 C 
BRANCH   6   7
ATOM      7  C   UNL     1     -22.326  41.530  -6.173  1.00  0.00    -0.000 C 
BRANCH   7   8
ATOM      8  C   UNL     1     -23.763  41.986  -6.476  1.00  0.00    -0.000 C 
BRANCH   8   9
ATOM      9  C   UNL     1     -23.806  43.311  -7.256  1.00  0.00    -0.000 C 
BRANCH   9  10
ATOM     10  C   UNL     1     -24.462  44.454  -6.458  1.00  0.00    -0.000 C 
BRANCH  10  11
ATOM     11  C   UNL     1     -25.496  45.284  -7.241  1.00  0.00    -0.003 C 
ATOM     12  C   UNL     1     -25.276  45.244  -8.753  1.00  0.00     0.004 C 
ENDBRANCH  10  11
ENDBRANCH   9  10
ENDBRANCH   8   9
ENDBRANCH   7   8
ENDBRANCH   6   7
ENDBRANCH   5   6
ENDBRANCH   4   5
ENDBRANCH   3   4
ENDBRANCH   2   3
ENDBRANCH   1   2
BRANCH   1  13
ATOM     13  C   UNL     1     -18.754  40.048  -5.627  1.00  0.00     0.000 C 
BRANCH  13  14
ATOM     14  C   UNL     1     -18.430  40.382  -4.160  1.00  0.00     0.000 C 
BRANCH  14  15
ATOM     15  C   UNL     1     -19.163  41.614  -3.595  1.00  0.00     0.000 C 
BRANCH  15  16
ATOM     16  C   UNL     1     -18.251  42.776  -3.159  1.00  0.00     0.000 C 
BRANCH  16  17
ATOM     17  C   UNL     1     -16.944  42.912  -3.964  1.00  0.00     0.000 C 
BRANCH  17  18
ATOM     18  C   UNL     1     -17.103  43.523  -5.372  1.00  0.00     0.000 C 
BRANCH  18  19
ATOM     19  C   UNL     1     -18.426  44.274  -5.611  1.00  0.00     0.000 C 
BRANCH  19  20
ATOM     20  C   UNL     1     -19.353  43.554  -6.605  1.00  0.00     0.006 C 
BRANCH  20  21
ATOM     21  C   UNL     1     -19.411  44.266  -7.963  1.00  0.00     0.053 C 
BRANCH  21  22
ATOM     22  C   UNL     1     -20.140  45.571  -7.873  1.00  0.00     0.041 C 
ATOM     23  O   UNL     1     -19.764  46.556  -8.564  1.00  0.00    -0.550 OA
ATOM     24  O   UNL     1     -21.217  45.709  -7.006  1.00  0.00    -0.550 OA
ENDBRANCH  21  22
ENDBRANCH  20  21
ENDBRANCH  19  20
ENDBRANCH  18  19
ENDBRANCH  17  18
ENDBRANCH  16  17
ENDBRANCH  15  16
ENDBRANCH  14  15
ENDBRANCH  13  14
ENDBRANCH   1  13
TORSDOF 20
ENDMDL
MODEL 7
REMARK VINA RESULT:    -4.598      1.675      2.054
REMARK INTER + INTRA:         -12.504
REMARK INTER:                  -9.870
REMARK INTRA:                  -2.634
REMARK UNBOUND:                -2.530
REMARK SMILES CCCCCCCCCCCCCCCCCCCCCC(=O)[O-]
REMARK SMILES IDX 12 1 11 2 10 3 9 4 8 5 7 6 6 7 5 8 4 9 3 10 2 11 1 12 13 13
REMARK SMILES IDX 14 14 15 15 16 16 17 17 18 18 19 19 20 20 21 21 22 22 23 23
REMARK SMILES IDX 24 24
REMARK H PARENT
REMARK Flexibility Score: inf
ROOT
ATOM      1  C   UNL     1     -20.284  39.572  -8.220  1.00  0.00     0.000 C 
ENDROOT
BRANCH   1   2
ATOM      2  C   UNL     1     -19.039  39.197  -9.038  1.00  0.00     0.000 C 
BRANCH   2   3
ATOM      3  C   UNL     1     -17.734  39.393  -8.252  1.00  0.00     0.000 C 
BRANCH   3   4
ATOM      4  C   UNL     1     -17.961  39.450  -6.732  1.00  0.00    -0.000 C 
BRANCH   4   5
ATOM      5  C   UNL     1     -16.872  40.272  -6.009  1.00  0.00    -0.000 C 
BRANCH   5   6
ATOM      6  C   UNL     1     -16.740  39.944  -4.511  1.00  0.00    -0.000 C 
BRANCH   6   7
ATOM      7  C   UNL     1     -16.992  41.163  -3.609  1.00  0.00    -0.000 C 
BRANCH   7   8
ATOM      8  C   UNL     1     -17.090  42.477  -4.402  1.00  0.00    -0.000 C 
BRANCH   8   9
ATOM      9  C   UNL     1     -18.491  43.107  -4.323  1.00  0.00    -0.000 C 
BRANCH   9  10
ATOM     10  C   UNL     1     -19.299  42.935  -5.623  1.00  0.00    -0.000 C 
BRANCH  10  11
ATOM     11  C   UNL     1     -18.479  43.061  -6.920  1.00  0.00    -0.003 C 
ATOM     12  C   UNL     1     -19.322  43.467  -8.127  1.00  0.00     0.004 C 
ENDBRANCH  10  11
ENDBRANCH   9  10
ENDBRANCH   8   9
ENDBRANCH   7   8
ENDBRANCH   6   7
ENDBRANCH   5   6
ENDBRANCH   4   5
ENDBRANCH   3   4
ENDBRANCH   2   3
ENDBRANCH   1   2
BRANCH   1  13
ATOM     13  C   UNL     1     -21.359  40.199  -9.120  1.00  0.00     0.000 C 
BRANCH  13  14
ATOM     14  C   UNL     1     -22.111  41.357  -8.438  1.00  0.00     0.000 C 
BRANCH  14  15
ATOM     15  C   UNL     1     -22.562  41.078  -6.991  1.00  0.00     0.000 C 
BRANCH  15  16
ATOM     16  C   UNL     1     -23.635  42.038  -6.442  1.00  0.00     0.000 C 
BRANCH  16  17
ATOM     17  C   UNL     1     -23.293  43.535  -6.572  1.00  0.00     0.000 C 
BRANCH  17  18
ATOM     18  C   UNL     1     -24.500  44.462  -6.820  1.00  0.00     0.000 C 
BRANCH  18  19
ATOM     19  C   UNL     1     -24.464  45.800  -6.059  1.00  0.00     0.000 C 
BRANCH  19  20
ATOM     20  C   UNL     1     -23.753  46.917  -6.842  1.00  0.00     0.006 C 
BRANCH  20  21
ATOM     21  C   UNL     1     -22.279  47.058  -6.439  1.00  0.00     0.053 C 
BRANCH  21  22
ATOM     22  C   UNL     1     -21.359  46.662  -7.553  1.00  0.00     0.041 C 
ATOM     23  O   UNL     1     -20.130  46.929  -7.485  1.00  0.00    -0.550 OA
ATOM     24  O   UNL     1     -21.865  46.023  -8.679  1.00  0.00    -0.550 OA
ENDBRANCH  21  22
ENDBRANCH  20  21
ENDBRANCH  19  20
ENDBRANCH  18  19
ENDBRANCH  17  18
ENDBRANCH  16  17
ENDBRANCH  15  16
ENDBRANCH  14  15
ENDBRANCH  13  14
ENDBRANCH   1  13
TORSDOF 20
ENDMDL
MODEL 8
REMARK VINA RESULT:    -4.504      1.426      2.681
REMARK INTER + INTRA:         -12.300
REMARK INTER:                  -9.704
REMARK INTRA:                  -2.596
REMARK UNBOUND:                -2.530
REMARK SMILES CCCCCCCCCCCCCCCCCCCCCC(=O)[O-]
REMARK SMILES IDX 12 1 11 2 10 3 9 4 8 5 7 6 6 7 5 8 4 9 3 10 2 11 1 12 13 13
REMARK SMILES IDX 14 14 15 15 16 16 17 17 18 18 19 19 20 20 21 21 22 22 23 23
REMARK SMILES IDX 24 24
REMARK H PARENT
REMARK Flexibility Score: inf
ROOT
ATOM      1  C   UNL     1     -21.673  40.697  -7.568  1.00  0.00     0.000 C 
ENDROOT
BRANCH   1   2
ATOM      2  C   UNL     1     -20.881  40.081  -8.731  1.00  0.00     0.000 C 
BRANCH   2   3
ATOM      3  C   UNL     1     -19.444  39.707  -8.335  1.00  0.00     0.000 C 
BRANCH   3   4
ATOM      4  C   UNL     1     -19.059  40.228  -6.940  1.00  0.00    -0.000 C 
BRANCH   4   5
ATOM      5  C   UNL     1     -17.533  40.390  -6.777  1.00  0.00    -0.000 C 
BRANCH   5   6
ATOM      6  C   UNL     1     -16.905  39.393  -5.786  1.00  0.00    -0.000 C 
BRANCH   6   7
ATOM      7  C   UNL     1     -16.909  39.908  -4.339  1.00  0.00    -0.000 C 
BRANCH   7   8
ATOM      8  C   UNL     1     -15.904  41.051  -4.113  1.00  0.00    -0.000 C 
BRANCH   8   9
ATOM      9  C   UNL     1     -16.561  42.296  -3.492  1.00  0.00    -0.000 C 
BRANCH   9  10
ATOM     10  C   UNL     1     -16.988  43.336  -4.545  1.00  0.00    -0.000 C 
BRANCH  10  11
ATOM     11  C   UNL     1     -18.455  43.232  -5.003  1.00  0.00    -0.003 C 
ATOM     12  C   UNL     1     -19.320  42.396  -4.062  1.00  0.00     0.004 C 
ENDBRANCH  10  11
ENDBRANCH   9  10
ENDBRANCH   8   9
ENDBRANCH   7   8
ENDBRANCH   6   7
ENDBRANCH   5   6
ENDBRANCH   4   5
ENDBRANCH   3   4
ENDBRANCH   2   3
ENDBRANCH   1   2
BRANCH   1  13
ATOM     13  C   UNL     1     -21.731  42.226  -7.698  1.00  0.00     0.000 C 
BRANCH  13  14
ATOM     14  C   UNL     1     -21.172  42.736  -9.039  1.00  0.00     0.000 C 
BRANCH  14  15
ATOM     15  C   UNL     1     -19.775  43.381  -8.959  1.00  0.00     0.000 C 
BRANCH  15  16
ATOM     16  C   UNL     1     -19.660  44.581  -8.000  1.00  0.00     0.000 C 
BRANCH  16  17
ATOM     17  C   UNL     1     -20.049  45.941  -8.613  1.00  0.00     0.000 C 
BRANCH  17  18
ATOM     18  C   UNL     1     -20.709  46.935  -7.635  1.00  0.00     0.000 C 
BRANCH  18  19
ATOM     19  C   UNL     1     -22.204  46.690  -7.365  1.00  0.00     0.000 C 
BRANCH  19  20
ATOM     20  C   UNL     1     -22.509  46.408  -5.884  1.00  0.00     0.006 C 
BRANCH  20  21
ATOM     21  C   UNL     1     -23.190  45.048  -5.682  1.00  0.00     0.053 C 
BRANCH  21  22
ATOM     22  C   UNL     1     -24.496  44.969  -6.411  1.00  0.00     0.041 C 
ATOM     23  O   UNL     1     -25.449  45.728  -6.089  1.00  0.00    -0.550 OA
ATOM     24  O   UNL     1     -24.671  44.037  -7.427  1.00  0.00    -0.550 OA
ENDBRANCH  21  22
ENDBRANCH  20  21
ENDBRANCH  19  20
ENDBRANCH  18  19
ENDBRANCH  17  18
ENDBRANCH  16  17
ENDBRANCH  15  16
ENDBRANCH  14  15
ENDBRANCH  13  14
ENDBRANCH   1  13
TORSDOF 20
ENDMDL
MODEL 9
REMARK VINA RESULT:    -4.257      1.694      5.043
REMARK INTER + INTRA:         -11.764
REMARK INTER:                  -9.423
REMARK INTRA:                  -2.341
REMARK UNBOUND:                -2.530
REMARK SMILES CCCCCCCCCCCCCCCCCCCCCC(=O)[O-]
REMARK SMILES IDX 12 1 11 2 10 3 9 4 8 5 7 6 6 7 5 8 4 9 3 10 2 11 1 12 13 13
REMARK SMILES IDX 14 14 15 15 16 16 17 17 18 18 19 19 20 20 21 21 22 22 23 23
REMARK SMILES IDX 24 24
REMARK H PARENT
REMARK Flexibility Score: inf
ROOT
ATOM      1  C   UNL     1     -16.882  39.725  -4.378  1.00  0.00     0.000 C 
ENDROOT
BRANCH   1   2
ATOM      2  C   UNL     1     -17.826  39.655  -5.588  1.00  0.00     0.000 C 
BRANCH   2   3
ATOM      3  C   UNL     1     -17.122  40.000  -6.908  1.00  0.00     0.000 C 
BRANCH   3   4
ATOM      4  C   UNL     1     -17.952  39.609  -8.143  1.00  0.00    -0.000 C 
BRANCH   4   5
ATOM      5  C   UNL     1     -19.467  39.798  -7.912  1.00  0.00    -0.000 C 
BRANCH   5   6
ATOM      6  C   UNL     1     -20.138  40.736  -8.931  1.00  0.00    -0.000 C 
BRANCH   6   7
ATOM      7  C   UNL     1     -21.552  41.164  -8.507  1.00  0.00    -0.000 C 
BRANCH   7   8
ATOM      8  C   UNL     1     -21.898  40.729  -7.072  1.00  0.00    -0.000 C 
BRANCH   8   9
ATOM      9  C   UNL     1     -23.356  41.045  -6.699  1.00  0.00    -0.000 C 
BRANCH   9  10
ATOM     10  C   UNL     1     -23.491  42.303  -5.820  1.00  0.00    -0.000 C 
BRANCH  10  11
ATOM     11  C   UNL     1     -23.656  43.623  -6.597  1.00  0.00    -0.003 C 
ATOM     12  C   UNL     1     -23.320  44.857  -5.761  1.00  0.00     0.004 C 
ENDBRANCH  10  11
ENDBRANCH   9  10
ENDBRANCH   8   9
ENDBRANCH   7   8
ENDBRANCH   6   7
ENDBRANCH   5   6
ENDBRANCH   4   5
ENDBRANCH   3   4
ENDBRANCH   2   3
ENDBRANCH   1   2
BRANCH   1  13
ATOM     13  C   UNL     1     -15.991  40.973  -4.453  1.00  0.00     0.000 C 
BRANCH  13  14
ATOM     14  C   UNL     1     -16.760  42.232  -4.894  1.00  0.00     0.000 C 
BRANCH  14  15
ATOM     15  C   UNL     1     -17.535  42.949  -3.771  1.00  0.00     0.000 C 
BRANCH  15  16
ATOM     16  C   UNL     1     -18.946  42.397  -3.493  1.00  0.00     0.000 C 
BRANCH  16  17
ATOM     17  C   UNL     1     -19.864  42.310  -4.728  1.00  0.00     0.000 C 
BRANCH  17  18
ATOM     18  C   UNL     1     -19.276  42.911  -6.022  1.00  0.00     0.000 C 
BRANCH  18  19
ATOM     19  C   UNL     1     -20.010  44.154  -6.556  1.00  0.00     0.000 C 
BRANCH  19  20
ATOM     20  C   UNL     1     -19.372  44.724  -7.835  1.00  0.00     0.006 C 
BRANCH  20  21
ATOM     21  C   UNL     1     -20.371  44.792  -8.998  1.00  0.00     0.053 C 
BRANCH  21  22
ATOM     22  C   UNL     1     -21.258  45.995  -8.897  1.00  0.00     0.041 C 
ATOM     23  O   UNL     1     -20.765  47.125  -8.634  1.00  0.00    -0.550 OA
ATOM     24  O   UNL     1     -22.631  45.863  -9.066  1.00  0.00    -0.550 OA
ENDBRANCH  21  22
ENDBRANCH  20  21
ENDBRANCH  19  20
ENDBRANCH  18  19
ENDBRANCH  17  18
ENDBRANCH  16  17
ENDBRANCH  15  16
ENDBRANCH  14  15
ENDBRANCH  13  14
ENDBRANCH   1  13
TORSDOF 20
ENDMDL
