MODEL 1
REMARK VINA RESULT:    -5.117      0.000      0.000
REMARK INTER + INTRA:          -6.283
REMARK INTER:                  -6.014
REMARK INTRA:                  -0.269
REMARK UNBOUND:                -0.269
REMARK SMILES O=c1c(O)c(-c2ccc(O)cc2)oc2cc(O)cc(O)c12
REMARK SMILES IDX 5 1 3 2 2 3 1 4 21 5 19 6 18 7 16 8 15 9 14 10 13 11 6 12
REMARK SMILES IDX 7 13 8 14 9 15 12 16 11 17 10 18 4 20 20 22 17 24
REMARK H PARENT 10 19 4 21 20 23 17 25
REMARK Flexibility Score: inf
ROOT
ATOM      1  C   UNL     1      93.408  99.597  77.600  1.00  0.00     0.180 A 
ATOM      2  C   UNL     1      94.566  99.376  76.834  1.00  0.00     0.208 A 
ATOM      3  C   UNL     1      95.749  98.991  77.484  1.00  0.00     0.238 A 
ATOM      4  O   UNL     1      96.795  98.848  76.798  1.00  0.00    -0.285 OA
ATOM      5  C   UNL     1      95.757  98.815  78.888  1.00  0.00     0.111 A 
ATOM      6  C   UNL     1      96.890  98.388  79.644  1.00  0.00     0.134 A 
ATOM      7  C   UNL     1      96.820  98.374  81.043  1.00  0.00     0.093 A 
ATOM      8  C   UNL     1      95.642  98.708  81.709  1.00  0.00     0.123 A 
ATOM      9  C   UNL     1      94.510  99.070  80.977  1.00  0.00     0.094 A 
ATOM     10  C   UNL     1      94.560  99.127  79.582  1.00  0.00     0.146 A 
ATOM     11  O   UNL     1      93.464  99.486  78.922  1.00  0.00    -0.452 OA
ENDROOT
BRANCH   1  12
ATOM     12  C   UNL     1      92.117  99.980  76.986  1.00  0.00     0.021 A 
ATOM     13  C   UNL     1      91.839 101.315  76.637  1.00  0.00     0.016 A 
ATOM     14  C   UNL     1      90.621 101.649  76.037  1.00  0.00     0.047 A 
ATOM     15  C   UNL     1      89.673 100.653  75.764  1.00  0.00     0.115 A 
ATOM     16  C   UNL     1      91.169  98.986  76.691  1.00  0.00     0.016 A 
ATOM     17  C   UNL     1      89.952  99.323  76.090  1.00  0.00     0.047 A 
BRANCH  15  18
ATOM     18  O   UNL     1      88.456 100.975  75.167  1.00  0.00    -0.508 OA
ATOM     19  H   UNL     1      87.597 101.018  75.705  1.00  0.00     0.293 HD
ENDBRANCH  15  18
ENDBRANCH   1  12
BRANCH   2  20
ATOM     20  O   UNL     1      94.541  99.577  75.451  1.00  0.00    -0.502 OA
ATOM     21  H   UNL     1      93.795 100.081  74.988  1.00  0.00     0.293 HD
ENDBRANCH   2  20
BRANCH   6  22
ATOM     22  O   UNL     1      98.087  97.944  79.075  1.00  0.00    -0.507 OA
ATOM     23  H   UNL     1      98.508  97.044  79.251  1.00  0.00     0.293 HD
ENDBRANCH   6  22
BRANCH   8  24
ATOM     24  O   UNL     1      95.604  98.667  83.101  1.00  0.00    -0.508 OA
ATOM     25  H   UNL     1      96.110  97.962  83.625  1.00  0.00     0.293 HD
ENDBRANCH   8  24
TORSDOF 5
ENDMDL
MODEL 2
REMARK VINA RESULT:    -5.057     12.156     13.334
REMARK INTER + INTRA:          -6.213
REMARK INTER:                  -5.922
REMARK INTRA:                  -0.291
REMARK UNBOUND:                -0.269
REMARK SMILES O=c1c(O)c(-c2ccc(O)cc2)oc2cc(O)cc(O)c12
REMARK SMILES IDX 5 1 3 2 2 3 1 4 21 5 19 6 18 7 16 8 15 9 14 10 13 11 6 12
REMARK SMILES IDX 7 13 8 14 9 15 12 16 11 17 10 18 4 20 20 22 17 24
REMARK H PARENT 10 19 4 21 20 23 17 25
REMARK Flexibility Score: inf
ROOT
ATOM      1  C   UNL     1      84.984  90.357  78.516  1.00  0.00     0.180 A 
ATOM      2  C   UNL     1      84.860  90.204  77.124  1.00  0.00     0.208 A 
ATOM      3  C   UNL     1      85.569  89.174  76.486  1.00  0.00     0.238 A 
ATOM      4  O   UNL     1      85.496  89.077  75.234  1.00  0.00    -0.285 OA
ATOM      5  C   UNL     1      86.378  88.298  77.249  1.00  0.00     0.111 A 
ATOM      6  C   UNL     1      87.108  87.196  76.712  1.00  0.00     0.134 A 
ATOM      7  C   UNL     1      87.979  86.476  77.540  1.00  0.00     0.093 A 
ATOM      8  C   UNL     1      88.099  86.777  78.895  1.00  0.00     0.123 A 
ATOM      9  C   UNL     1      87.344  87.816  79.444  1.00  0.00     0.094 A 
ATOM     10  C   UNL     1      86.494  88.574  78.636  1.00  0.00     0.146 A 
ATOM     11  O   UNL     1      85.802  89.561  79.194  1.00  0.00    -0.452 OA
ENDROOT
BRANCH   1  12
ATOM     12  C   UNL     1      84.250  91.403  79.263  1.00  0.00     0.021 A 
ATOM     13  C   UNL     1      82.921  91.207  79.684  1.00  0.00     0.016 A 
ATOM     14  C   UNL     1      82.256  92.200  80.409  1.00  0.00     0.047 A 
ATOM     15  C   UNL     1      82.913  93.395  80.735  1.00  0.00     0.115 A 
ATOM     16  C   UNL     1      84.907  92.595  79.612  1.00  0.00     0.016 A 
ATOM     17  C   UNL     1      84.239  93.587  80.337  1.00  0.00     0.047 A 
BRANCH  15  18
ATOM     18  O   UNL     1      82.260  94.391  81.456  1.00  0.00    -0.508 OA
ATOM     19  H   UNL     1      81.902  95.226  81.002  1.00  0.00     0.293 HD
ENDBRANCH  15  18
ENDBRANCH   1  12
BRANCH   2  20
ATOM     20  O   UNL     1      84.072  91.094  76.387  1.00  0.00    -0.502 OA
ATOM     21  H   UNL     1      83.867  90.953  75.406  1.00  0.00     0.293 HD
ENDBRANCH   2  20
BRANCH   6  22
ATOM     22  O   UNL     1      86.992  86.751  75.392  1.00  0.00    -0.507 OA
ATOM     23  H   UNL     1      87.407  87.208  74.593  1.00  0.00     0.293 HD
ENDBRANCH   6  22
BRANCH   8  24
ATOM     24  O   UNL     1      88.963  86.029  79.692  1.00  0.00    -0.508 OA
ATOM     25  H   UNL     1      89.511  86.460  80.428  1.00  0.00     0.293 HD
ENDBRANCH   8  24
TORSDOF 5
ENDMDL
MODEL 3
REMARK VINA RESULT:    -5.000      3.518      6.537
REMARK INTER + INTRA:          -6.146
REMARK INTER:                  -5.845
REMARK INTRA:                  -0.300
REMARK UNBOUND:                -0.269
REMARK SMILES O=c1c(O)c(-c2ccc(O)cc2)oc2cc(O)cc(O)c12
REMARK SMILES IDX 5 1 3 2 2 3 1 4 21 5 19 6 18 7 16 8 15 9 14 10 13 11 6 12
REMARK SMILES IDX 7 13 8 14 9 15 12 16 11 17 10 18 4 20 20 22 17 24
REMARK H PARENT 10 19 4 21 20 23 17 25
REMARK Flexibility Score: inf
ROOT
ATOM      1  C   UNL     1      97.717  97.496  76.736  1.00  0.00     0.180 A 
ATOM      2  C   UNL     1      96.723  98.407  76.339  1.00  0.00     0.208 A 
ATOM      3  C   UNL     1      95.886  98.970  77.316  1.00  0.00     0.238 A 
ATOM      4  O   UNL     1      94.963  99.741  76.947  1.00  0.00    -0.285 OA
ATOM      5  C   UNL     1      96.064  98.629  78.678  1.00  0.00     0.111 A 
ATOM      6  C   UNL     1      95.299  99.170  79.754  1.00  0.00     0.134 A 
ATOM      7  C   UNL     1      95.475  98.663  81.048  1.00  0.00     0.093 A 
ATOM      8  C   UNL     1      96.429  97.684  81.315  1.00  0.00     0.123 A 
ATOM      9  C   UNL     1      97.224  97.190  80.280  1.00  0.00     0.094 A 
ATOM     10  C   UNL     1      97.048  97.650  78.973  1.00  0.00     0.146 A 
ATOM     11  O   UNL     1      97.817  97.147  78.014  1.00  0.00    -0.452 OA
ENDROOT
BRANCH   1  12
ATOM     12  C   UNL     1      98.654  96.880  75.770  1.00  0.00     0.021 A 
ATOM     13  C   UNL     1      99.875  97.497  75.437  1.00  0.00     0.016 A 
ATOM     14  C   UNL     1     100.755  96.884  74.539  1.00  0.00     0.047 A 
ATOM     15  C   UNL     1     100.433  95.642  73.974  1.00  0.00     0.115 A 
ATOM     16  C   UNL     1      98.351  95.626  75.214  1.00  0.00     0.016 A 
ATOM     17  C   UNL     1      99.232  95.015  74.317  1.00  0.00     0.047 A 
BRANCH  15  18
ATOM     18  O   UNL     1     101.301  95.024  73.078  1.00  0.00    -0.508 OA
ATOM     19  H   UNL     1     101.871  95.562  72.434  1.00  0.00     0.293 HD
ENDBRANCH  15  18
ENDBRANCH   1  12
BRANCH   2  20
ATOM     20  O   UNL     1      96.550  98.712  74.986  1.00  0.00    -0.502 OA
ATOM     21  H   UNL     1      97.227  98.451  74.279  1.00  0.00     0.293 HD
ENDBRANCH   2  20
BRANCH   6  22
ATOM     22  O   UNL     1      94.383 100.217  79.613  1.00  0.00    -0.507 OA
ATOM     23  H   UNL     1      93.805 100.579  80.356  1.00  0.00     0.293 HD
ENDBRANCH   6  22
BRANCH   8  24
ATOM     24  O   UNL     1      96.587  97.215  82.618  1.00  0.00    -0.508 OA
ATOM     25  H   UNL     1      97.193  96.430  82.828  1.00  0.00     0.293 HD
ENDBRANCH   8  24
TORSDOF 5
ENDMDL
MODEL 4
REMARK VINA RESULT:    -4.943     13.380     13.740
REMARK INTER + INTRA:          -6.078
REMARK INTER:                  -5.931
REMARK INTRA:                  -0.147
REMARK UNBOUND:                -0.269
REMARK SMILES O=c1c(O)c(-c2ccc(O)cc2)oc2cc(O)cc(O)c12
REMARK SMILES IDX 5 1 3 2 2 3 1 4 21 5 19 6 18 7 16 8 15 9 14 10 13 11 6 12
REMARK SMILES IDX 7 13 8 14 9 15 12 16 11 17 10 18 4 20 20 22 17 24
REMARK H PARENT 10 19 4 21 20 23 17 25
REMARK Flexibility Score: inf
ROOT
ATOM      1  C   UNL     1      86.568  87.918  76.793  1.00  0.00     0.180 A 
ATOM      2  C   UNL     1      87.683  87.637  75.985  1.00  0.00     0.208 A 
ATOM      3  C   UNL     1      88.790  86.986  76.553  1.00  0.00     0.238 A 
ATOM      4  O   UNL     1      89.805  86.787  75.837  1.00  0.00    -0.285 OA
ATOM      5  C   UNL     1      88.761  86.608  77.917  1.00  0.00     0.111 A 
ATOM      6  C   UNL     1      89.810  85.907  78.585  1.00  0.00     0.134 A 
ATOM      7  C   UNL     1      89.729  85.701  79.968  1.00  0.00     0.093 A 
ATOM      8  C   UNL     1      88.612  86.110  80.694  1.00  0.00     0.123 A 
ATOM      9  C   UNL     1      87.554  86.743  80.040  1.00  0.00     0.094 A 
ATOM     10  C   UNL     1      87.621  86.995  78.668  1.00  0.00     0.146 A 
ATOM     11  O   UNL     1      86.598  87.610  78.084  1.00  0.00    -0.452 OA
ENDROOT
BRANCH   1  12
ATOM     12  C   UNL     1      85.355  88.580  76.262  1.00  0.00     0.021 A 
ATOM     13  C   UNL     1      84.568  87.974  75.264  1.00  0.00     0.016 A 
ATOM     14  C   UNL     1      83.413  88.607  74.794  1.00  0.00     0.047 A 
ATOM     15  C   UNL     1      83.023  89.845  75.324  1.00  0.00     0.115 A 
ATOM     16  C   UNL     1      84.944  89.810  76.801  1.00  0.00     0.016 A 
ATOM     17  C   UNL     1      83.789  90.441  76.330  1.00  0.00     0.047 A 
BRANCH  15  18
ATOM     18  O   UNL     1      81.875  90.485  74.863  1.00  0.00    -0.508 OA
ATOM     19  H   UNL     1      81.871  91.002  73.991  1.00  0.00     0.293 HD
ENDBRANCH  15  18
ENDBRANCH   1  12
BRANCH   2  20
ATOM     20  O   UNL     1      87.699  88.039  74.646  1.00  0.00    -0.502 OA
ATOM     21  H   UNL     1      88.036  88.949  74.356  1.00  0.00     0.293 HD
ENDBRANCH   2  20
BRANCH   6  22
ATOM     22  O   UNL     1      90.928  85.374  77.939  1.00  0.00    -0.507 OA
ATOM     23  H   UNL     1      91.202  85.588  76.992  1.00  0.00     0.293 HD
ENDBRANCH   6  22
BRANCH   8  24
ATOM     24  O   UNL     1      88.559  85.873  82.066  1.00  0.00    -0.508 OA
ATOM     25  H   UNL     1      89.377  85.573  82.584  1.00  0.00     0.293 HD
ENDBRANCH   8  24
TORSDOF 5
ENDMDL
MODEL 5
REMARK VINA RESULT:    -4.935     12.155     13.897
REMARK INTER + INTRA:          -6.069
REMARK INTER:                  -5.818
REMARK INTRA:                  -0.250
REMARK UNBOUND:                -0.269
REMARK SMILES O=c1c(O)c(-c2ccc(O)cc2)oc2cc(O)cc(O)c12
REMARK SMILES IDX 5 1 3 2 2 3 1 4 21 5 19 6 18 7 16 8 15 9 14 10 13 11 6 12
REMARK SMILES IDX 7 13 8 14 9 15 12 16 11 17 10 18 4 20 20 22 17 24
REMARK H PARENT 10 19 4 21 20 23 17 25
REMARK Flexibility Score: inf
ROOT
ATOM      1  C   UNL     1      84.801  90.371  78.503  1.00  0.00     0.180 A 
ATOM      2  C   UNL     1      85.773  89.498  79.020  1.00  0.00     0.208 A 
ATOM      3  C   UNL     1      86.344  88.535  78.172  1.00  0.00     0.238 A 
ATOM      4  O   UNL     1      87.173  87.722  78.656  1.00  0.00    -0.285 OA
ATOM      5  C   UNL     1      85.949  88.469  76.814  1.00  0.00     0.111 A 
ATOM      6  C   UNL     1      86.491  87.560  75.857  1.00  0.00     0.134 A 
ATOM      7  C   UNL     1      85.933  87.495  74.575  1.00  0.00     0.093 A 
ATOM      8  C   UNL     1      84.898  88.348  74.195  1.00  0.00     0.123 A 
ATOM      9  C   UNL     1      84.400  89.282  75.105  1.00  0.00     0.094 A 
ATOM     10  C   UNL     1      84.913  89.346  76.403  1.00  0.00     0.146 A 
ATOM     11  O   UNL     1      84.405  90.241  77.242  1.00  0.00    -0.452 OA
ENDROOT
BRANCH   1  12
ATOM     12  C   UNL     1      84.171  91.428  79.327  1.00  0.00     0.021 A 
ATOM     13  C   UNL     1      84.862  92.610  79.657  1.00  0.00     0.016 A 
ATOM     14  C   UNL     1      84.239  93.604  80.416  1.00  0.00     0.047 A 
ATOM     15  C   UNL     1      82.914  93.438  80.844  1.00  0.00     0.115 A 
ATOM     16  C   UNL     1      82.838  91.280  79.742  1.00  0.00     0.016 A 
ATOM     17  C   UNL     1      82.217  92.276  80.502  1.00  0.00     0.047 A 
BRANCH  15  18
ATOM     18  O   UNL     1      82.284  94.421  81.602  1.00  0.00    -0.508 OA
ATOM     19  H   UNL     1      81.848  94.206  82.492  1.00  0.00     0.293 HD
ENDBRANCH  15  18
ENDBRANCH   1  12
BRANCH   2  20
ATOM     20  O   UNL     1      86.133  89.567  80.370  1.00  0.00    -0.502 OA
ATOM     21  H   UNL     1      86.893  90.147  80.701  1.00  0.00     0.293 HD
ENDBRANCH   2  20
BRANCH   6  22
ATOM     22  O   UNL     1      87.587  86.728  76.104  1.00  0.00    -0.507 OA
ATOM     23  H   UNL     1      87.757  85.849  75.638  1.00  0.00     0.293 HD
ENDBRANCH   6  22
BRANCH   8  24
ATOM     24  O   UNL     1      84.378  88.266  72.905  1.00  0.00    -0.508 OA
ATOM     25  H   UNL     1      84.979  88.278  72.089  1.00  0.00     0.293 HD
ENDBRANCH   8  24
TORSDOF 5
ENDMDL
MODEL 6
REMARK VINA RESULT:    -4.930     12.479     13.695
REMARK INTER + INTRA:          -6.063
REMARK INTER:                  -5.775
REMARK INTRA:                  -0.288
REMARK UNBOUND:                -0.269
REMARK SMILES O=c1c(O)c(-c2ccc(O)cc2)oc2cc(O)cc(O)c12
REMARK SMILES IDX 5 1 3 2 2 3 1 4 21 5 19 6 18 7 16 8 15 9 14 10 13 11 6 12
REMARK SMILES IDX 7 13 8 14 9 15 12 16 11 17 10 18 4 20 20 22 17 24
REMARK H PARENT 10 19 4 21 20 23 17 25
REMARK Flexibility Score: inf
ROOT
ATOM      1  C   UNL     1      86.013  88.675  76.994  1.00  0.00     0.180 A 
ATOM      2  C   UNL     1      85.726  89.876  77.666  1.00  0.00     0.208 A 
ATOM      3  C   UNL     1      86.084  90.003  79.017  1.00  0.00     0.238 A 
ATOM      4  O   UNL     1      85.775  91.060  79.626  1.00  0.00    -0.285 OA
ATOM      5  C   UNL     1      86.742  88.936  79.675  1.00  0.00     0.111 A 
ATOM      6  C   UNL     1      87.186  88.972  81.031  1.00  0.00     0.134 A 
ATOM      7  C   UNL     1      87.707  87.812  81.617  1.00  0.00     0.093 A 
ATOM      8  C   UNL     1      87.860  86.639  80.880  1.00  0.00     0.123 A 
ATOM      9  C   UNL     1      87.483  86.610  79.536  1.00  0.00     0.094 A 
ATOM     10  C   UNL     1      86.927  87.740  78.934  1.00  0.00     0.146 A 
ATOM     11  O   UNL     1      86.571  87.669  77.657  1.00  0.00    -0.452 OA
ENDROOT
BRANCH   1  12
ATOM     12  C   UNL     1      85.688  88.474  75.564  1.00  0.00     0.021 A 
ATOM     13  C   UNL     1      86.542  88.940  74.546  1.00  0.00     0.016 A 
ATOM     14  C   UNL     1      86.226  88.718  73.202  1.00  0.00     0.047 A 
ATOM     15  C   UNL     1      85.063  88.015  72.858  1.00  0.00     0.115 A 
ATOM     16  C   UNL     1      84.536  87.753  75.210  1.00  0.00     0.016 A 
ATOM     17  C   UNL     1      84.222  87.533  73.865  1.00  0.00     0.047 A 
BRANCH  15  18
ATOM     18  O   UNL     1      84.738  87.789  71.523  1.00  0.00    -0.508 OA
ATOM     19  H   UNL     1      85.354  87.267  70.909  1.00  0.00     0.293 HD
ENDBRANCH  15  18
ENDBRANCH   1  12
BRANCH   2  20
ATOM     20  O   UNL     1      85.056  90.909  77.002  1.00  0.00    -0.502 OA
ATOM     21  H   UNL     1      84.475  90.746  76.189  1.00  0.00     0.293 HD
ENDBRANCH   2  20
BRANCH   6  22
ATOM     22  O   UNL     1      87.165  90.119  81.829  1.00  0.00    -0.507 OA
ATOM     23  H   UNL     1      87.312  91.058  81.491  1.00  0.00     0.293 HD
ENDBRANCH   6  22
BRANCH   8  24
ATOM     24  O   UNL     1      88.397  85.508  81.492  1.00  0.00    -0.508 OA
ATOM     25  H   UNL     1      87.946  85.071  82.287  1.00  0.00     0.293 HD
ENDBRANCH   8  24
TORSDOF 5
ENDMDL
MODEL 7
REMARK VINA RESULT:    -4.924      5.062      7.098
REMARK INTER + INTRA:          -6.056
REMARK INTER:                  -5.764
REMARK INTRA:                  -0.292
REMARK UNBOUND:                -0.269
REMARK SMILES O=c1c(O)c(-c2ccc(O)cc2)oc2cc(O)cc(O)c12
REMARK SMILES IDX 5 1 3 2 2 3 1 4 21 5 19 6 18 7 16 8 15 9 14 10 13 11 6 12
REMARK SMILES IDX 7 13 8 14 9 15 12 16 11 17 10 18 4 20 20 22 17 24
REMARK H PARENT 10 19 4 21 20 23 17 25
REMARK Flexibility Score: inf
ROOT
ATOM      1  C   UNL     1      98.776  96.197  76.971  1.00  0.00     0.180 A 
ATOM      2  C   UNL     1      99.075  95.033  77.701  1.00  0.00     0.208 A 
ATOM      3  C   UNL     1      98.695  94.959  79.050  1.00  0.00     0.238 A 
ATOM      4  O   UNL     1      99.015  93.937  79.711  1.00  0.00    -0.285 OA
ATOM      5  C   UNL     1      98.005  96.041  79.649  1.00  0.00     0.111 A 
ATOM      6  C   UNL     1      97.538  96.056  80.997  1.00  0.00     0.134 A 
ATOM      7  C   UNL     1      96.983  97.230  81.521  1.00  0.00     0.093 A 
ATOM      8  C   UNL     1      96.821  98.366  80.731  1.00  0.00     0.123 A 
ATOM      9  C   UNL     1      97.221  98.343  79.393  1.00  0.00     0.094 A 
ATOM     10  C   UNL     1      97.810  97.198  78.852  1.00  0.00     0.146 A 
ATOM     11  O   UNL     1      98.186  97.220  77.579  1.00  0.00    -0.452 OA
ENDROOT
BRANCH   1  12
ATOM     12  C   UNL     1      99.121  96.341  75.539  1.00  0.00     0.021 A 
ATOM     13  C   UNL     1      98.284  95.831  74.528  1.00  0.00     0.016 A 
ATOM     14  C   UNL     1      98.619  96.000  73.181  1.00  0.00     0.047 A 
ATOM     15  C   UNL     1      99.786  96.691  72.827  1.00  0.00     0.115 A 
ATOM     16  C   UNL     1     100.278  97.049  75.173  1.00  0.00     0.016 A 
ATOM     17  C   UNL     1     100.611  97.216  73.825  1.00  0.00     0.047 A 
BRANCH  15  18
ATOM     18  O   UNL     1     100.131  96.864  71.488  1.00  0.00    -0.508 OA
ATOM     19  H   UNL     1      99.947  96.145  70.797  1.00  0.00     0.293 HD
ENDBRANCH  15  18
ENDBRANCH   1  12
BRANCH   2  20
ATOM     20  O   UNL     1      99.776  93.986  77.096  1.00  0.00    -0.502 OA
ATOM     21  H   UNL     1     100.035  93.145  77.596  1.00  0.00     0.293 HD
ENDBRANCH   2  20
BRANCH   6  22
ATOM     22  O   UNL     1      97.568  94.946  81.847  1.00  0.00    -0.507 OA
ATOM     23  H   UNL     1      97.786  94.982  82.831  1.00  0.00     0.293 HD
ENDBRANCH   6  22
BRANCH   8  24
ATOM     24  O   UNL     1      96.251  99.512  81.282  1.00  0.00    -0.508 OA
ATOM     25  H   UNL     1      96.548  99.872  82.181  1.00  0.00     0.293 HD
ENDBRANCH   8  24
TORSDOF 5
ENDMDL
MODEL 8
REMARK VINA RESULT:    -4.896      1.320      3.138
REMARK INTER + INTRA:          -6.023
REMARK INTER:                  -5.724
REMARK INTRA:                  -0.299
REMARK UNBOUND:                -0.269
REMARK SMILES O=c1c(O)c(-c2ccc(O)cc2)oc2cc(O)cc(O)c12
REMARK SMILES IDX 5 1 3 2 2 3 1 4 21 5 19 6 18 7 16 8 15 9 14 10 13 11 6 12
REMARK SMILES IDX 7 13 8 14 9 15 12 16 11 17 10 18 4 20 20 22 17 24
REMARK H PARENT 10 19 4 21 20 23 17 25
REMARK Flexibility Score: inf
ROOT
ATOM      1  C   UNL     1      92.487  99.361  79.039  1.00  0.00     0.180 A 
ATOM      2  C   UNL     1      92.215  99.054  80.383  1.00  0.00     0.208 A 
ATOM      3  C   UNL     1      93.276  98.683  81.225  1.00  0.00     0.238 A 
ATOM      4  O   UNL     1      93.018  98.357  82.413  1.00  0.00    -0.285 OA
ATOM      5  C   UNL     1      94.597  98.640  80.718  1.00  0.00     0.111 A 
ATOM      6  C   UNL     1      95.751  98.317  81.491  1.00  0.00     0.134 A 
ATOM      7  C   UNL     1      96.991  98.177  80.855  1.00  0.00     0.093 A 
ATOM      8  C   UNL     1      97.130  98.412  79.489  1.00  0.00     0.123 A 
ATOM      9  C   UNL     1      96.018  98.787  78.733  1.00  0.00     0.094 A 
ATOM     10  C   UNL     1      94.762  98.899  79.332  1.00  0.00     0.146 A 
ATOM     11  O   UNL     1      93.727  99.248  78.577  1.00  0.00    -0.452 OA
ENDROOT
BRANCH   1  12
ATOM     12  C   UNL     1      91.427  99.784  78.096  1.00  0.00     0.021 A 
ATOM     13  C   UNL     1      91.059 101.136  77.966  1.00  0.00     0.016 A 
ATOM     14  C   UNL     1      90.071 101.515  77.052  1.00  0.00     0.047 A 
ATOM     15  C   UNL     1      89.448 100.550  76.247  1.00  0.00     0.115 A 
ATOM     16  C   UNL     1      90.812  98.827  77.271  1.00  0.00     0.016 A 
ATOM     17  C   UNL     1      89.824  99.208  76.358  1.00  0.00     0.047 A 
BRANCH  15  18
ATOM     18  O   UNL     1      88.462 100.916  75.334  1.00  0.00    -0.508 OA
ATOM     19  H   UNL     1      88.487 100.597  74.371  1.00  0.00     0.293 HD
ENDBRANCH  15  18
ENDBRANCH   1  12
BRANCH   2  20
ATOM     20  O   UNL     1      90.901  99.082  80.858  1.00  0.00    -0.502 OA
ATOM     21  H   UNL     1      90.670  99.361  81.804  1.00  0.00     0.293 HD
ENDBRANCH   2  20
BRANCH   6  22
ATOM     22  O   UNL     1      95.740  98.152  82.879  1.00  0.00    -0.507 OA
ATOM     23  H   UNL     1      95.701  98.907  83.548  1.00  0.00     0.293 HD
ENDBRANCH   6  22
BRANCH   8  24
ATOM     24  O   UNL     1      98.382  98.279  78.892  1.00  0.00    -0.508 OA
ATOM     25  H   UNL     1      98.548  98.575  77.937  1.00  0.00     0.293 HD
ENDBRANCH   8  24
TORSDOF 5
ENDMDL
MODEL 9
REMARK VINA RESULT:    -2.598     13.971     15.268
REMARK INTER + INTRA:          -3.322
REMARK INTER:                  -3.022
REMARK INTRA:                  -0.300
REMARK UNBOUND:                -0.269
REMARK SMILES O=c1c(O)c(-c2ccc(O)cc2)oc2cc(O)cc(O)c12
REMARK SMILES IDX 5 1 3 2 2 3 1 4 21 5 19 6 18 7 16 8 15 9 14 10 13 11 6 12
REMARK SMILES IDX 7 13 8 14 9 15 12 16 11 17 10 18 4 20 20 22 17 24
REMARK H PARENT 10 19 4 21 20 23 17 25
REMARK Flexibility Score: inf
ROOT
ATOM      1  C   UNL     1      91.541  85.374  78.001  1.00  0.00     0.180 A 
ATOM      2  C   UNL     1      90.506  85.600  77.078  1.00  0.00     0.208 A 
ATOM      3  C   UNL     1      89.252  86.021  77.549  1.00  0.00     0.238 A 
ATOM      4  O   UNL     1      88.315  86.168  76.722  1.00  0.00    -0.285 OA
ATOM      5  C   UNL     1      89.053  86.227  78.935  1.00  0.00     0.111 A 
ATOM      6  C   UNL     1      87.836  86.691  79.518  1.00  0.00     0.134 A 
ATOM      7  C   UNL     1      87.712  86.734  80.913  1.00  0.00     0.093 A 
ATOM      8  C   UNL     1      88.778  86.393  81.742  1.00  0.00     0.123 A 
ATOM      9  C   UNL     1      89.993  85.995  81.181  1.00  0.00     0.094 A 
ATOM     10  C   UNL     1      90.136  85.908  79.795  1.00  0.00     0.146 A 
ATOM     11  O   UNL     1      91.304  85.514  79.300  1.00  0.00    -0.452 OA
ENDROOT
BRANCH   1  12
ATOM     12  C   UNL     1      92.897  84.954  77.580  1.00  0.00     0.021 A 
ATOM     13  C   UNL     1      93.885  85.898  77.242  1.00  0.00     0.016 A 
ATOM     14  C   UNL     1      95.165  85.478  76.871  1.00  0.00     0.047 A 
ATOM     15  C   UNL     1      95.479  84.112  76.845  1.00  0.00     0.115 A 
ATOM     16  C   UNL     1      93.227  83.589  77.571  1.00  0.00     0.016 A 
ATOM     17  C   UNL     1      94.508  83.171  77.198  1.00  0.00     0.047 A 
BRANCH  15  18
ATOM     18  O   UNL     1      96.751  83.683  76.474  1.00  0.00    -0.508 OA
ATOM     19  H   UNL     1      96.883  82.933  75.804  1.00  0.00     0.293 HD
ENDBRANCH  15  18
ENDBRANCH   1  12
BRANCH   2  20
ATOM     20  O   UNL     1      90.718  85.369  75.715  1.00  0.00    -0.502 OA
ATOM     21  H   UNL     1      90.459  84.499  75.265  1.00  0.00     0.293 HD
ENDBRANCH   2  20
BRANCH   6  22
ATOM     22  O   UNL     1      86.739  87.145  78.780  1.00  0.00    -0.507 OA
ATOM     23  H   UNL     1      85.777  87.068  79.073  1.00  0.00     0.293 HD
ENDBRANCH   6  22
BRANCH   8  24
ATOM     24  O   UNL     1      88.624  86.463  83.125  1.00  0.00    -0.508 OA
ATOM     25  H   UNL     1      87.778  86.140  83.581  1.00  0.00     0.293 HD
ENDBRANCH   8  24
TORSDOF 5
ENDMDL
