MODEL 1
REMARK VINA RESULT:    -3.930      0.000      0.000
REMARK INTER + INTRA:         -10.148
REMARK INTER:                  -8.983
REMARK INTRA:                  -1.164
REMARK UNBOUND:                -1.164
REMARK SMILES CCCCCCCCCCCCCCCCCCCCCCCC(=O)[O-]
REMARK SMILES IDX 13 1 14 2 15 3 16 4 17 5 18 6 19 7 20 8 21 9 22 10 23 11
REMARK SMILES IDX 24 12 25 13 26 14 12 15 11 16 10 17 9 18 8 19 7 20 6 21 5 22
REMARK SMILES IDX 4 23 3 24 2 25 1 26
REMARK H PARENT
REMARK Flexibility Score: inf
ROOT
ATOM      1  C   UNL     1      43.824  30.125   1.327  1.00  0.00     0.000 C 
ENDROOT
BRANCH   1   2
ATOM      2  C   UNL     1      45.327  29.905   1.077  1.00  0.00     0.000 C 
BRANCH   2   3
ATOM      3  C   UNL     1      45.708  29.644  -0.395  1.00  0.00     0.000 C 
BRANCH   3   4
ATOM      4  C   UNL     1      46.545  28.372  -0.642  1.00  0.00     0.000 C 
BRANCH   4   5
ATOM      5  C   UNL     1      47.117  28.239  -2.064  1.00  0.00     0.000 C 
BRANCH   5   6
ATOM      6  C   UNL     1      47.004  29.540  -2.874  1.00  0.00     0.000 C 
BRANCH   6   7
ATOM      7  C   UNL     1      46.722  29.242  -4.355  1.00  0.00     0.000 C 
BRANCH   7   8
ATOM      8  C   UNL     1      45.701  28.108  -4.542  1.00  0.00     0.000 C 
BRANCH   8   9
ATOM      9  C   UNL     1      45.706  27.542  -5.969  1.00  0.00     0.000 C 
BRANCH   9  10
ATOM     10  C   UNL     1      44.287  27.504  -6.550  1.00  0.00     0.006 C 
BRANCH  10  11
ATOM     11  C   UNL     1      43.237  27.649  -5.444  1.00  0.00     0.053 C 
BRANCH  11  12
ATOM     12  C   UNL     1      42.510  28.950  -5.578  1.00  0.00     0.041 C 
ATOM     13  O   UNL     1      41.379  28.989  -6.131  1.00  0.00    -0.550 OA
ATOM     14  O   UNL     1      43.058  30.112  -5.051  1.00  0.00    -0.550 OA
ENDBRANCH  11  12
ENDBRANCH  10  11
ENDBRANCH   9  10
ENDBRANCH   8   9
ENDBRANCH   7   8
ENDBRANCH   6   7
ENDBRANCH   5   6
ENDBRANCH   4   5
ENDBRANCH   3   4
ENDBRANCH   2   3
ENDBRANCH   1   2
BRANCH   1  15
ATOM     15  C   UNL     1      43.361  29.564   2.683  1.00  0.00     0.000 C 
BRANCH  15  16
ATOM     16  C   UNL     1      42.567  28.257   2.537  1.00  0.00     0.000 C 
BRANCH  16  17
ATOM     17  C   UNL     1      43.411  27.123   1.928  1.00  0.00     0.000 C 
BRANCH  17  18
ATOM     18  C   UNL     1      44.327  26.450   2.963  1.00  0.00    -0.000 C 
BRANCH  18  19
ATOM     19  C   UNL     1      45.190  27.461   3.732  1.00  0.00    -0.000 C 
BRANCH  19  20
ATOM     20  C   UNL     1      46.646  26.986   3.819  1.00  0.00    -0.000 C 
BRANCH  20  21
ATOM     21  C   UNL     1      47.026  26.636   5.264  1.00  0.00    -0.000 C 
BRANCH  21  22
ATOM     22  C   UNL     1      46.559  27.693   6.281  1.00  0.00    -0.000 C 
BRANCH  22  23
ATOM     23  C   UNL     1      47.114  27.514   7.707  1.00  0.00    -0.000 C 
BRANCH  23  24
ATOM     24  C   UNL     1      46.666  26.201   8.364  1.00  0.00    -0.000 C 
BRANCH  24  25
ATOM     25  C   UNL     1      45.404  26.414   9.208  1.00  0.00    -0.003 C 
ATOM     26  C   UNL     1      45.291  27.862   9.677  1.00  0.00     0.004 C 
ENDBRANCH  24  25
ENDBRANCH  23  24
ENDBRANCH  22  23
ENDBRANCH  21  22
ENDBRANCH  20  21
ENDBRANCH  19  20
ENDBRANCH  18  19
ENDBRANCH  17  18
ENDBRANCH  16  17
ENDBRANCH  15  16
ENDBRANCH   1  15
TORSDOF 22
ENDMDL
MODEL 2
REMARK VINA RESULT:    -3.821      4.659     10.933
REMARK INTER + INTRA:          -9.899
REMARK INTER:                  -8.994
REMARK INTRA:                  -0.905
REMARK UNBOUND:                -1.164
REMARK SMILES CCCCCCCCCCCCCCCCCCCCCCCC(=O)[O-]
REMARK SMILES IDX 13 1 14 2 15 3 16 4 17 5 18 6 19 7 20 8 21 9 22 10 23 11
REMARK SMILES IDX 24 12 25 13 26 14 12 15 11 16 10 17 9 18 8 19 7 20 6 21 5 22
REMARK SMILES IDX 4 23 3 24 2 25 1 26
REMARK H PARENT
REMARK Flexibility Score: inf
ROOT
ATOM      1  C   UNL     1      42.945  27.890   2.374  1.00  0.00     0.000 C 
ENDROOT
BRANCH   1   2
ATOM      2  C   UNL     1      44.310  27.191   2.241  1.00  0.00     0.000 C 
BRANCH   2   3
ATOM      3  C   UNL     1      44.683  26.269   3.421  1.00  0.00     0.000 C 
BRANCH   3   4
ATOM      4  C   UNL     1      45.936  26.692   4.214  1.00  0.00     0.000 C 
BRANCH   4   5
ATOM      5  C   UNL     1      46.305  28.181   4.097  1.00  0.00     0.000 C 
BRANCH   5   6
ATOM      6  C   UNL     1      45.883  28.997   5.329  1.00  0.00     0.000 C 
BRANCH   6   7
ATOM      7  C   UNL     1      47.095  29.317   6.216  1.00  0.00     0.000 C 
BRANCH   7   8
ATOM      8  C   UNL     1      46.916  28.819   7.659  1.00  0.00     0.000 C 
BRANCH   8   9
ATOM      9  C   UNL     1      45.526  29.143   8.224  1.00  0.00     0.000 C 
BRANCH   9  10
ATOM     10  C   UNL     1      45.338  28.519   9.611  1.00  0.00     0.006 C 
BRANCH  10  11
ATOM     11  C   UNL     1      45.178  26.998   9.513  1.00  0.00     0.053 C 
BRANCH  11  12
ATOM     12  C   UNL     1      46.359  26.306  10.114  1.00  0.00     0.041 C 
ATOM     13  O   UNL     1      46.643  26.477  11.330  1.00  0.00    -0.550 OA
ATOM     14  O   UNL     1      47.121  25.434   9.347  1.00  0.00    -0.550 OA
ENDBRANCH  11  12
ENDBRANCH  10  11
ENDBRANCH   9  10
ENDBRANCH   8   9
ENDBRANCH   7   8
ENDBRANCH   6   7
ENDBRANCH   5   6
ENDBRANCH   4   5
ENDBRANCH   3   4
ENDBRANCH   2   3
ENDBRANCH   1   2
BRANCH   1  15
ATOM     15  C   UNL     1      43.075  29.404   2.615  1.00  0.00     0.000 C 
BRANCH  15  16
ATOM     16  C   UNL     1      43.832  30.116   1.483  1.00  0.00     0.000 C 
BRANCH  16  17
ATOM     17  C   UNL     1      45.225  29.509   1.237  1.00  0.00     0.000 C 
BRANCH  17  18
ATOM     18  C   UNL     1      45.605  29.490  -0.252  1.00  0.00    -0.000 C 
BRANCH  18  19
ATOM     19  C   UNL     1      46.930  28.759  -0.513  1.00  0.00    -0.000 C 
BRANCH  19  20
ATOM     20  C   UNL     1      47.010  28.270  -1.964  1.00  0.00    -0.000 C 
BRANCH  20  21
ATOM     21  C   UNL     1      45.922  28.922  -2.828  1.00  0.00    -0.000 C 
BRANCH  21  22
ATOM     22  C   UNL     1      45.934  28.428  -4.286  1.00  0.00    -0.000 C 
BRANCH  22  23
ATOM     23  C   UNL     1      45.008  27.233  -4.575  1.00  0.00    -0.000 C 
BRANCH  23  24
ATOM     24  C   UNL     1      43.977  27.524  -5.674  1.00  0.00    -0.000 C 
BRANCH  24  25
ATOM     25  C   UNL     1      42.968  28.583  -5.212  1.00  0.00    -0.003 C 
ATOM     26  C   UNL     1      42.946  29.775  -6.165  1.00  0.00     0.004 C 
ENDBRANCH  24  25
ENDBRANCH  23  24
ENDBRANCH  22  23
ENDBRANCH  21  22
ENDBRANCH  20  21
ENDBRANCH  19  20
ENDBRANCH  18  19
ENDBRANCH  17  18
ENDBRANCH  16  17
ENDBRANCH  15  16
ENDBRANCH   1  15
TORSDOF 22
ENDMDL
MODEL 3
REMARK VINA RESULT:    -3.786      1.308      2.187
REMARK INTER + INTRA:          -9.820
REMARK INTER:                  -8.459
REMARK INTRA:                  -1.361
REMARK UNBOUND:                -1.164
REMARK SMILES CCCCCCCCCCCCCCCCCCCCCCCC(=O)[O-]
REMARK SMILES IDX 13 1 14 2 15 3 16 4 17 5 18 6 19 7 20 8 21 9 22 10 23 11
REMARK SMILES IDX 24 12 25 13 26 14 12 15 11 16 10 17 9 18 8 19 7 20 6 21 5 22
REMARK SMILES IDX 4 23 3 24 2 25 1 26
REMARK H PARENT
REMARK Flexibility Score: inf
ROOT
ATOM      1  C   UNL     1      44.687  29.869   2.510  1.00  0.00     0.000 C 
ENDROOT
BRANCH   1   2
ATOM      2  C   UNL     1      43.934  28.578   2.140  1.00  0.00     0.000 C 
BRANCH   2   3
ATOM      3  C   UNL     1      44.524  27.805   0.943  1.00  0.00     0.000 C 
BRANCH   3   4
ATOM      4  C   UNL     1      45.906  28.293   0.461  1.00  0.00     0.000 C 
BRANCH   4   5
ATOM      5  C   UNL     1      45.919  29.711  -0.136  1.00  0.00     0.000 C 
BRANCH   5   6
ATOM      6  C   UNL     1      46.217  29.717  -1.643  1.00  0.00     0.000 C 
BRANCH   6   7
ATOM      7  C   UNL     1      46.057  28.311  -2.240  1.00  0.00     0.000 C 
BRANCH   7   8
ATOM      8  C   UNL     1      46.060  28.321  -3.777  1.00  0.00     0.000 C 
BRANCH   8   9
ATOM      9  C   UNL     1      45.344  27.101  -4.375  1.00  0.00     0.000 C 
BRANCH   9  10
ATOM     10  C   UNL     1      44.786  27.419  -5.767  1.00  0.00     0.006 C 
BRANCH  10  11
ATOM     11  C   UNL     1      43.254  27.446  -5.751  1.00  0.00     0.053 C 
BRANCH  11  12
ATOM     12  C   UNL     1      42.753  28.855  -5.771  1.00  0.00     0.041 C 
ATOM     13  O   UNL     1      41.517  29.090  -5.698  1.00  0.00    -0.550 OA
ATOM     14  O   UNL     1      43.652  29.914  -5.821  1.00  0.00    -0.550 OA
ENDBRANCH  11  12
ENDBRANCH  10  11
ENDBRANCH   9  10
ENDBRANCH   8   9
ENDBRANCH   7   8
ENDBRANCH   6   7
ENDBRANCH   5   6
ENDBRANCH   4   5
ENDBRANCH   3   4
ENDBRANCH   2   3
ENDBRANCH   1   2
BRANCH   1  15
ATOM     15  C   UNL     1      44.752  30.101   4.030  1.00  0.00     0.000 C 
BRANCH  15  16
ATOM     16  C   UNL     1      46.125  29.746   4.620  1.00  0.00     0.000 C 
BRANCH  16  17
ATOM     17  C   UNL     1      47.033  29.032   3.603  1.00  0.00     0.000 C 
BRANCH  17  18
ATOM     18  C   UNL     1      47.124  27.518   3.856  1.00  0.00    -0.000 C 
BRANCH  18  19
ATOM     19  C   UNL     1      46.205  27.054   4.995  1.00  0.00    -0.000 C 
BRANCH  19  20
ATOM     20  C   UNL     1      46.916  26.034   5.893  1.00  0.00    -0.000 C 
BRANCH  20  21
ATOM     21  C   UNL     1      46.817  26.437   7.371  1.00  0.00    -0.000 C 
BRANCH  21  22
ATOM     22  C   UNL     1      46.464  27.922   7.567  1.00  0.00    -0.000 C 
BRANCH  22  23
ATOM     23  C   UNL     1      45.412  28.202   8.656  1.00  0.00    -0.000 C 
BRANCH  23  24
ATOM     24  C   UNL     1      45.209  27.019   9.613  1.00  0.00    -0.000 C 
BRANCH  24  25
ATOM     25  C   UNL     1      46.252  27.037  10.736  1.00  0.00    -0.003 C 
ATOM     26  C   UNL     1      46.883  25.660  10.926  1.00  0.00     0.004 C 
ENDBRANCH  24  25
ENDBRANCH  23  24
ENDBRANCH  22  23
ENDBRANCH  21  22
ENDBRANCH  20  21
ENDBRANCH  19  20
ENDBRANCH  18  19
ENDBRANCH  17  18
ENDBRANCH  16  17
ENDBRANCH  15  16
ENDBRANCH   1  15
TORSDOF 22
ENDMDL
MODEL 4
REMARK VINA RESULT:    -3.762      1.265      2.067
REMARK INTER + INTRA:          -9.765
REMARK INTER:                  -8.870
REMARK INTRA:                  -0.895
REMARK UNBOUND:                -1.164
REMARK SMILES CCCCCCCCCCCCCCCCCCCCCCCC(=O)[O-]
REMARK SMILES IDX 13 1 14 2 15 3 16 4 17 5 18 6 19 7 20 8 21 9 22 10 23 11
REMARK SMILES IDX 24 12 25 13 26 14 12 15 11 16 10 17 9 18 8 19 7 20 6 21 5 22
REMARK SMILES IDX 4 23 3 24 2 25 1 26
REMARK H PARENT
REMARK Flexibility Score: inf
ROOT
ATOM      1  C   UNL     1      45.509  27.682   1.377  1.00  0.00     0.000 C 
ENDROOT
BRANCH   1   2
ATOM      2  C   UNL     1      45.374  28.570   0.127  1.00  0.00     0.000 C 
BRANCH   2   3
ATOM      3  C   UNL     1      46.620  28.604  -0.782  1.00  0.00     0.000 C 
BRANCH   3   4
ATOM      4  C   UNL     1      46.331  28.779  -2.287  1.00  0.00     0.000 C 
BRANCH   4   5
ATOM      5  C   UNL     1      46.525  27.510  -3.136  1.00  0.00     0.000 C 
BRANCH   5   6
ATOM      6  C   UNL     1      46.879  27.821  -4.598  1.00  0.00     0.000 C 
BRANCH   6   7
ATOM      7  C   UNL     1      46.208  29.124  -5.059  1.00  0.00     0.000 C 
BRANCH   7   8
ATOM      8  C   UNL     1      46.039  29.189  -6.585  1.00  0.00     0.000 C 
BRANCH   8   9
ATOM      9  C   UNL     1      44.572  29.056  -7.021  1.00  0.00     0.000 C 
BRANCH   9  10
ATOM     10  C   UNL     1      44.052  27.636  -6.768  1.00  0.00     0.006 C 
BRANCH  10  11
ATOM     11  C   UNL     1      43.057  27.614  -5.603  1.00  0.00     0.053 C 
BRANCH  11  12
ATOM     12  C   UNL     1      42.216  28.851  -5.608  1.00  0.00     0.041 C 
ATOM     13  O   UNL     1      41.309  28.997  -6.470  1.00  0.00    -0.550 OA
ATOM     14  O   UNL     1      42.400  29.823  -4.632  1.00  0.00    -0.550 OA
ENDBRANCH  11  12
ENDBRANCH  10  11
ENDBRANCH   9  10
ENDBRANCH   8   9
ENDBRANCH   7   8
ENDBRANCH   6   7
ENDBRANCH   5   6
ENDBRANCH   4   5
ENDBRANCH   3   4
ENDBRANCH   2   3
ENDBRANCH   1   2
BRANCH   1  15
ATOM     15  C   UNL     1      44.243  27.693   2.251  1.00  0.00     0.000 C 
BRANCH  15  16
ATOM     16  C   UNL     1      43.752  29.117   2.555  1.00  0.00     0.000 C 
BRANCH  16  17
ATOM     17  C   UNL     1      44.798  29.948   3.321  1.00  0.00     0.000 C 
BRANCH  17  18
ATOM     18  C   UNL     1      45.746  29.074   4.158  1.00  0.00    -0.000 C 
BRANCH  18  19
ATOM     19  C   UNL     1      46.517  29.883   5.210  1.00  0.00    -0.000 C 
BRANCH  19  20
ATOM     20  C   UNL     1      47.125  28.960   6.274  1.00  0.00    -0.000 C 
BRANCH  20  21
ATOM     21  C   UNL     1      46.315  27.663   6.407  1.00  0.00    -0.000 C 
BRANCH  21  22
ATOM     22  C   UNL     1      46.744  26.807   7.613  1.00  0.00    -0.000 C 
BRANCH  22  23
ATOM     23  C   UNL     1      45.625  26.501   8.624  1.00  0.00    -0.000 C 
BRANCH  23  24
ATOM     24  C   UNL     1      45.489  27.575   9.713  1.00  0.00    -0.000 C 
BRANCH  24  25
ATOM     25  C   UNL     1      44.931  28.878   9.129  1.00  0.00    -0.003 C 
ATOM     26  C   UNL     1      45.048  30.026  10.129  1.00  0.00     0.004 C 
ENDBRANCH  24  25
ENDBRANCH  23  24
ENDBRANCH  22  23
ENDBRANCH  21  22
ENDBRANCH  20  21
ENDBRANCH  19  20
ENDBRANCH  18  19
ENDBRANCH  17  18
ENDBRANCH  16  17
ENDBRANCH  15  16
ENDBRANCH   1  15
TORSDOF 22
ENDMDL
MODEL 5
REMARK VINA RESULT:    -3.719      4.875     11.431
REMARK INTER + INTRA:          -9.665
REMARK INTER:                  -7.975
REMARK INTRA:                  -1.690
REMARK UNBOUND:                -1.164
REMARK SMILES CCCCCCCCCCCCCCCCCCCCCCCC(=O)[O-]
REMARK SMILES IDX 13 1 14 2 15 3 16 4 17 5 18 6 19 7 20 8 21 9 22 10 23 11
REMARK SMILES IDX 24 12 25 13 26 14 12 15 11 16 10 17 9 18 8 19 7 20 6 21 5 22
REMARK SMILES IDX 4 23 3 24 2 25 1 26
REMARK H PARENT
REMARK Flexibility Score: inf
ROOT
ATOM      1  C   UNL     1      43.283  28.121   2.631  1.00  0.00     0.000 C 
ENDROOT
BRANCH   1   2
ATOM      2  C   UNL     1      43.926  26.726   2.538  1.00  0.00     0.000 C 
BRANCH   2   3
ATOM      3  C   UNL     1      44.725  26.296   3.787  1.00  0.00     0.000 C 
BRANCH   3   4
ATOM      4  C   UNL     1      46.258  26.412   3.658  1.00  0.00     0.000 C 
BRANCH   4   5
ATOM      5  C   UNL     1      46.841  27.774   4.075  1.00  0.00     0.000 C 
BRANCH   5   6
ATOM      6  C   UNL     1      46.793  28.001   5.593  1.00  0.00     0.000 C 
BRANCH   6   7
ATOM      7  C   UNL     1      47.033  26.687   6.352  1.00  0.00     0.000 C 
BRANCH   7   8
ATOM      8  C   UNL     1      45.988  26.445   7.453  1.00  0.00     0.000 C 
BRANCH   8   9
ATOM      9  C   UNL     1      46.622  26.295   8.843  1.00  0.00     0.000 C 
BRANCH   9  10
ATOM     10  C   UNL     1      46.010  27.289   9.837  1.00  0.00     0.006 C 
BRANCH  10  11
ATOM     11  C   UNL     1      47.007  27.643  10.945  1.00  0.00     0.053 C 
BRANCH  11  12
ATOM     12  C   UNL     1      46.858  29.076  11.347  1.00  0.00     0.041 C 
ATOM     13  O   UNL     1      46.518  29.941  10.496  1.00  0.00    -0.550 OA
ATOM     14  O   UNL     1      47.047  29.452  12.671  1.00  0.00    -0.550 OA
ENDBRANCH  11  12
ENDBRANCH  10  11
ENDBRANCH   9  10
ENDBRANCH   8   9
ENDBRANCH   7   8
ENDBRANCH   6   7
ENDBRANCH   5   6
ENDBRANCH   4   5
ENDBRANCH   3   4
ENDBRANCH   2   3
ENDBRANCH   1   2
BRANCH   1  15
ATOM     15  C   UNL     1      44.104  29.201   1.905  1.00  0.00     0.000 C 
BRANCH  15  16
ATOM     16  C   UNL     1      44.884  28.639   0.706  1.00  0.00     0.000 C 
BRANCH  16  17
ATOM     17  C   UNL     1      46.290  29.252   0.582  1.00  0.00     0.000 C 
BRANCH  17  18
ATOM     18  C   UNL     1      47.125  28.592  -0.528  1.00  0.00    -0.000 C 
BRANCH  18  19
ATOM     19  C   UNL     1      47.068  29.370  -1.850  1.00  0.00    -0.000 C 
BRANCH  19  20
ATOM     20  C   UNL     1      45.971  28.813  -2.767  1.00  0.00    -0.000 C 
BRANCH  20  21
ATOM     21  C   UNL     1      46.343  27.419  -3.289  1.00  0.00    -0.000 C 
BRANCH  21  22
ATOM     22  C   UNL     1      45.952  27.204  -4.762  1.00  0.00    -0.000 C 
BRANCH  22  23
ATOM     23  C   UNL     1      45.207  28.382  -5.416  1.00  0.00    -0.000 C 
BRANCH  23  24
ATOM     24  C   UNL     1      43.681  28.280  -5.276  1.00  0.00    -0.000 C 
BRANCH  24  25
ATOM     25  C   UNL     1      42.988  29.461  -5.965  1.00  0.00    -0.003 C 
ATOM     26  C   UNL     1      41.612  29.062  -6.492  1.00  0.00     0.004 C 
ENDBRANCH  24  25
ENDBRANCH  23  24
ENDBRANCH  22  23
ENDBRANCH  21  22
ENDBRANCH  20  21
ENDBRANCH  19  20
ENDBRANCH  18  19
ENDBRANCH  17  18
ENDBRANCH  16  17
ENDBRANCH  15  16
ENDBRANCH   1  15
TORSDOF 22
ENDMDL
MODEL 6
REMARK VINA RESULT:    -3.589      4.505     10.532
REMARK INTER + INTRA:          -9.368
REMARK INTER:                  -7.916
REMARK INTRA:                  -1.453
REMARK UNBOUND:                -1.164
REMARK SMILES CCCCCCCCCCCCCCCCCCCCCCCC(=O)[O-]
REMARK SMILES IDX 13 1 14 2 15 3 16 4 17 5 18 6 19 7 20 8 21 9 22 10 23 11
REMARK SMILES IDX 24 12 25 13 26 14 12 15 11 16 10 17 9 18 8 19 7 20 6 21 5 22
REMARK SMILES IDX 4 23 3 24 2 25 1 26
REMARK H PARENT
REMARK Flexibility Score: inf
ROOT
ATOM      1  C   UNL     1      43.144  27.088   1.509  1.00  0.00     0.000 C 
ENDROOT
BRANCH   1   2
ATOM      2  C   UNL     1      42.551  27.992   2.604  1.00  0.00     0.000 C 
BRANCH   2   3
ATOM      3  C   UNL     1      42.712  29.505   2.353  1.00  0.00     0.000 C 
BRANCH   3   4
ATOM      4  C   UNL     1      44.022  30.124   2.883  1.00  0.00     0.000 C 
BRANCH   4   5
ATOM      5  C   UNL     1      44.954  29.140   3.612  1.00  0.00     0.000 C 
BRANCH   5   6
ATOM      6  C   UNL     1      46.180  29.830   4.228  1.00  0.00     0.000 C 
BRANCH   6   7
ATOM      7  C   UNL     1      46.972  28.853   5.111  1.00  0.00     0.000 C 
BRANCH   7   8
ATOM      8  C   UNL     1      46.680  27.383   4.770  1.00  0.00     0.000 C 
BRANCH   8   9
ATOM      9  C   UNL     1      47.118  26.422   5.884  1.00  0.00     0.000 C 
BRANCH   9  10
ATOM     10  C   UNL     1      46.164  26.496   7.081  1.00  0.00     0.006 C 
BRANCH  10  11
ATOM     11  C   UNL     1      46.786  27.292   8.232  1.00  0.00     0.053 C 
BRANCH  11  12
ATOM     12  C   UNL     1      45.870  27.308   9.414  1.00  0.00     0.041 C 
ATOM     13  O   UNL     1      45.316  28.382   9.772  1.00  0.00    -0.550 OA
ATOM     14  O   UNL     1      45.589  26.130  10.095  1.00  0.00    -0.550 OA
ENDBRANCH  11  12
ENDBRANCH  10  11
ENDBRANCH   9  10
ENDBRANCH   8   9
ENDBRANCH   7   8
ENDBRANCH   6   7
ENDBRANCH   5   6
ENDBRANCH   4   5
ENDBRANCH   3   4
ENDBRANCH   2   3
ENDBRANCH   1   2
BRANCH   1  15
ATOM     15  C   UNL     1      44.679  27.165   1.444  1.00  0.00     0.000 C 
BRANCH  15  16
ATOM     16  C   UNL     1      45.185  27.675   0.086  1.00  0.00     0.000 C 
BRANCH  16  17
ATOM     17  C   UNL     1      46.484  28.490   0.213  1.00  0.00     0.000 C 
BRANCH  17  18
ATOM     18  C   UNL     1      47.067  28.887  -1.153  1.00  0.00    -0.000 C 
BRANCH  18  19
ATOM     19  C   UNL     1      46.131  29.810  -1.947  1.00  0.00    -0.000 C 
BRANCH  19  20
ATOM     20  C   UNL     1      45.961  29.310  -3.388  1.00  0.00    -0.000 C 
BRANCH  20  21
ATOM     21  C   UNL     1      46.283  27.813  -3.494  1.00  0.00    -0.000 C 
BRANCH  21  22
ATOM     22  C   UNL     1      45.290  27.046  -4.386  1.00  0.00    -0.000 C 
BRANCH  22  23
ATOM     23  C   UNL     1      45.307  27.449  -5.872  1.00  0.00    -0.000 C 
BRANCH  23  24
ATOM     24  C   UNL     1      43.900  27.609  -6.467  1.00  0.00    -0.000 C 
BRANCH  24  25
ATOM     25  C   UNL     1      43.467  29.080  -6.459  1.00  0.00    -0.003 C 
ATOM     26  C   UNL     1      42.661  29.411  -5.206  1.00  0.00     0.004 C 
ENDBRANCH  24  25
ENDBRANCH  23  24
ENDBRANCH  22  23
ENDBRANCH  21  22
ENDBRANCH  20  21
ENDBRANCH  19  20
ENDBRANCH  18  19
ENDBRANCH  17  18
ENDBRANCH  16  17
ENDBRANCH  15  16
ENDBRANCH   1  15
TORSDOF 22
ENDMDL
MODEL 7
REMARK VINA RESULT:    -3.536      4.644     11.257
REMARK INTER + INTRA:          -9.247
REMARK INTER:                  -7.923
REMARK INTRA:                  -1.324
REMARK UNBOUND:                -1.164
REMARK SMILES CCCCCCCCCCCCCCCCCCCCCCCC(=O)[O-]
REMARK SMILES IDX 13 1 14 2 15 3 16 4 17 5 18 6 19 7 20 8 21 9 22 10 23 11
REMARK SMILES IDX 24 12 25 13 26 14 12 15 11 16 10 17 9 18 8 19 7 20 6 21 5 22
REMARK SMILES IDX 4 23 3 24 2 25 1 26
REMARK H PARENT
REMARK Flexibility Score: inf
ROOT
ATOM      1  C   UNL     1      44.981  27.576   1.081  1.00  0.00     0.000 C 
ENDROOT
BRANCH   1   2
ATOM      2  C   UNL     1      44.047  28.036   2.215  1.00  0.00     0.000 C 
BRANCH   2   3
ATOM      3  C   UNL     1      43.947  29.565   2.392  1.00  0.00     0.000 C 
BRANCH   3   4
ATOM      4  C   UNL     1      44.568  30.118   3.691  1.00  0.00     0.000 C 
BRANCH   4   5
ATOM      5  C   UNL     1      46.085  29.899   3.827  1.00  0.00     0.000 C 
BRANCH   5   6
ATOM      6  C   UNL     1      46.438  28.776   4.813  1.00  0.00     0.000 C 
BRANCH   6   7
ATOM      7  C   UNL     1      46.661  29.337   6.226  1.00  0.00     0.000 C 
BRANCH   7   8
ATOM      8  C   UNL     1      45.937  28.516   7.305  1.00  0.00     0.000 C 
BRANCH   8   9
ATOM      9  C   UNL     1      46.243  29.012   8.726  1.00  0.00     0.000 C 
BRANCH   9  10
ATOM     10  C   UNL     1      45.425  28.238   9.766  1.00  0.00     0.006 C 
BRANCH  10  11
ATOM     11  C   UNL     1      45.147  26.808   9.293  1.00  0.00     0.053 C 
BRANCH  11  12
ATOM     12  C   UNL     1      46.304  25.915   9.611  1.00  0.00     0.041 C 
ATOM     13  O   UNL     1      47.125  25.597   8.709  1.00  0.00    -0.550 OA
ATOM     14  O   UNL     1      46.506  25.471  10.911  1.00  0.00    -0.550 OA
ENDBRANCH  11  12
ENDBRANCH  10  11
ENDBRANCH   9  10
ENDBRANCH   8   9
ENDBRANCH   7   8
ENDBRANCH   6   7
ENDBRANCH   5   6
ENDBRANCH   4   5
ENDBRANCH   3   4
ENDBRANCH   2   3
ENDBRANCH   1   2
BRANCH   1  15
ATOM     15  C   UNL     1      46.352  28.272   1.124  1.00  0.00     0.000 C 
BRANCH  15  16
ATOM     16  C   UNL     1      46.981  28.418  -0.271  1.00  0.00     0.000 C 
BRANCH  16  17
ATOM     17  C   UNL     1      46.780  29.826  -0.860  1.00  0.00     0.000 C 
BRANCH  17  18
ATOM     18  C   UNL     1      45.932  29.813  -2.142  1.00  0.00    -0.000 C 
BRANCH  18  19
ATOM     19  C   UNL     1      46.427  28.781  -3.165  1.00  0.00    -0.000 C 
BRANCH  19  20
ATOM     20  C   UNL     1      45.629  27.476  -3.058  1.00  0.00    -0.000 C 
BRANCH  20  21
ATOM     21  C   UNL     1      45.429  26.836  -4.439  1.00  0.00    -0.000 C 
BRANCH  21  22
ATOM     22  C   UNL     1      45.657  27.824  -5.598  1.00  0.00    -0.000 C 
BRANCH  22  23
ATOM     23  C   UNL     1      44.372  28.387  -6.233  1.00  0.00    -0.000 C 
BRANCH  23  24
ATOM     24  C   UNL     1      44.053  29.816  -5.776  1.00  0.00    -0.000 C 
BRANCH  24  25
ATOM     25  C   UNL     1      42.551  29.985  -5.515  1.00  0.00    -0.003 C 
ATOM     26  C   UNL     1      41.729  29.055  -6.402  1.00  0.00     0.004 C 
ENDBRANCH  24  25
ENDBRANCH  23  24
ENDBRANCH  22  23
ENDBRANCH  21  22
ENDBRANCH  20  21
ENDBRANCH  19  20
ENDBRANCH  18  19
ENDBRANCH  17  18
ENDBRANCH  16  17
ENDBRANCH  15  16
ENDBRANCH   1  15
TORSDOF 22
ENDMDL
MODEL 8
REMARK VINA RESULT:    -3.264      4.051     11.351
REMARK INTER + INTRA:          -8.626
REMARK INTER:                  -7.552
REMARK INTRA:                  -1.074
REMARK UNBOUND:                -1.164
REMARK SMILES CCCCCCCCCCCCCCCCCCCCCCCC(=O)[O-]
REMARK SMILES IDX 13 1 14 2 15 3 16 4 17 5 18 6 19 7 20 8 21 9 22 10 23 11
REMARK SMILES IDX 24 12 25 13 26 14 12 15 11 16 10 17 9 18 8 19 7 20 6 21 5 22
REMARK SMILES IDX 4 23 3 24 2 25 1 26
REMARK H PARENT
REMARK Flexibility Score: inf
ROOT
ATOM      1  C   UNL     1      45.338  29.789   0.261  1.00  0.00     0.000 C 
ENDROOT
BRANCH   1   2
ATOM      2  C   UNL     1      45.390  28.902   1.517  1.00  0.00     0.000 C 
BRANCH   2   3
ATOM      3  C   UNL     1      45.366  29.671   2.855  1.00  0.00     0.000 C 
BRANCH   3   4
ATOM      4  C   UNL     1      45.507  28.797   4.118  1.00  0.00     0.000 C 
BRANCH   4   5
ATOM      5  C   UNL     1      46.940  28.326   4.422  1.00  0.00     0.000 C 
BRANCH   5   6
ATOM      6  C   UNL     1      47.048  26.800   4.557  1.00  0.00     0.000 C 
BRANCH   6   7
ATOM      7  C   UNL     1      46.231  26.297   5.757  1.00  0.00     0.000 C 
BRANCH   7   8
ATOM      8  C   UNL     1      46.784  26.804   7.099  1.00  0.00     0.000 C 
BRANCH   8   9
ATOM      9  C   UNL     1      45.847  26.495   8.276  1.00  0.00     0.000 C 
BRANCH   9  10
ATOM     10  C   UNL     1      46.234  27.311   9.514  1.00  0.00     0.006 C 
BRANCH  10  11
ATOM     11  C   UNL     1      46.605  28.747   9.133  1.00  0.00     0.053 C 
BRANCH  11  12
ATOM     12  C   UNL     1      45.377  29.545   8.829  1.00  0.00     0.041 C 
ATOM     13  O   UNL     1      45.216  30.051   7.687  1.00  0.00    -0.550 OA
ATOM     14  O   UNL     1      44.386  29.691   9.791  1.00  0.00    -0.550 OA
ENDBRANCH  11  12
ENDBRANCH  10  11
ENDBRANCH   9  10
ENDBRANCH   8   9
ENDBRANCH   7   8
ENDBRANCH   6   7
ENDBRANCH   5   6
ENDBRANCH   4   5
ENDBRANCH   3   4
ENDBRANCH   2   3
ENDBRANCH   1   2
BRANCH   1  15
ATOM     15  C   UNL     1      46.313  29.322  -0.835  1.00  0.00     0.000 C 
BRANCH  15  16
ATOM     16  C   UNL     1      45.894  27.982  -1.461  1.00  0.00     0.000 C 
BRANCH  16  17
ATOM     17  C   UNL     1      46.213  27.913  -2.965  1.00  0.00     0.000 C 
BRANCH  17  18
ATOM     18  C   UNL     1      45.471  28.989  -3.775  1.00  0.00    -0.000 C 
BRANCH  18  19
ATOM     19  C   UNL     1      46.358  29.638  -4.846  1.00  0.00    -0.000 C 
BRANCH  19  20
ATOM     20  C   UNL     1      45.696  29.560  -6.228  1.00  0.00    -0.000 C 
BRANCH  20  21
ATOM     21  C   UNL     1      46.313  28.437  -7.073  1.00  0.00    -0.000 C 
BRANCH  21  22
ATOM     22  C   UNL     1      45.435  27.173  -7.125  1.00  0.00    -0.000 C 
BRANCH  22  23
ATOM     23  C   UNL     1      43.919  27.432  -7.072  1.00  0.00    -0.000 C 
BRANCH  23  24
ATOM     24  C   UNL     1      43.398  27.661  -5.646  1.00  0.00    -0.000 C 
BRANCH  24  25
ATOM     25  C   UNL     1      42.093  28.467  -5.662  1.00  0.00    -0.003 C 
ATOM     26  C   UNL     1      42.036  29.400  -6.870  1.00  0.00     0.004 C 
ENDBRANCH  24  25
ENDBRANCH  23  24
ENDBRANCH  22  23
ENDBRANCH  21  22
ENDBRANCH  20  21
ENDBRANCH  19  20
ENDBRANCH  18  19
ENDBRANCH  17  18
ENDBRANCH  16  17
ENDBRANCH  15  16
ENDBRANCH   1  15
TORSDOF 22
ENDMDL
MODEL 9
REMARK VINA RESULT:    -3.091      1.547      3.088
REMARK INTER + INTRA:          -8.230
REMARK INTER:                  -6.819
REMARK INTRA:                  -1.412
REMARK UNBOUND:                -1.164
REMARK SMILES CCCCCCCCCCCCCCCCCCCCCCCC(=O)[O-]
REMARK SMILES IDX 13 1 14 2 15 3 16 4 17 5 18 6 19 7 20 8 21 9 22 10 23 11
REMARK SMILES IDX 24 12 25 13 26 14 12 15 11 16 10 17 9 18 8 19 7 20 6 21 5 22
REMARK SMILES IDX 4 23 3 24 2 25 1 26
REMARK H PARENT
REMARK Flexibility Score: inf
ROOT
ATOM      1  C   UNL     1      44.695  29.744   2.860  1.00  0.00     0.000 C 
ENDROOT
BRANCH   1   2
ATOM      2  C   UNL     1      44.040  28.771   1.864  1.00  0.00     0.000 C 
BRANCH   2   3
ATOM      3  C   UNL     1      45.014  27.783   1.188  1.00  0.00     0.000 C 
BRANCH   3   4
ATOM      4  C   UNL     1      45.597  28.254  -0.160  1.00  0.00     0.000 C 
BRANCH   4   5
ATOM      5  C   UNL     1      45.951  29.750  -0.225  1.00  0.00     0.000 C 
BRANCH   5   6
ATOM      6  C   UNL     1      46.991  30.068  -1.310  1.00  0.00     0.000 C 
BRANCH   6   7
ATOM      7  C   UNL     1      47.070  28.935  -2.344  1.00  0.00     0.000 C 
BRANCH   7   8
ATOM      8  C   UNL     1      47.125  29.459  -3.787  1.00  0.00     0.000 C 
BRANCH   8   9
ATOM      9  C   UNL     1      45.802  30.101  -4.231  1.00  0.00     0.000 C 
BRANCH   9  10
ATOM     10  C   UNL     1      44.812  29.037  -4.718  1.00  0.00     0.006 C 
BRANCH  10  11
ATOM     11  C   UNL     1      43.370  29.549  -4.635  1.00  0.00     0.053 C 
BRANCH  11  12
ATOM     12  C   UNL     1      42.489  28.791  -5.576  1.00  0.00     0.041 C 
ATOM     13  O   UNL     1      42.678  27.560  -5.768  1.00  0.00    -0.550 OA
ATOM     14  O   UNL     1      41.429  29.430  -6.206  1.00  0.00    -0.550 OA
ENDBRANCH  11  12
ENDBRANCH  10  11
ENDBRANCH   9  10
ENDBRANCH   8   9
ENDBRANCH   7   8
ENDBRANCH   6   7
ENDBRANCH   5   6
ENDBRANCH   4   5
ENDBRANCH   3   4
ENDBRANCH   2   3
ENDBRANCH   1   2
BRANCH   1  15
ATOM     15  C   UNL     1      45.489  29.020   3.961  1.00  0.00     0.000 C 
BRANCH  15  16
ATOM     16  C   UNL     1      45.914  29.965   5.097  1.00  0.00     0.000 C 
BRANCH  16  17
ATOM     17  C   UNL     1      46.352  29.203   6.360  1.00  0.00     0.000 C 
BRANCH  17  18
ATOM     18  C   UNL     1      46.948  27.823   6.038  1.00  0.00    -0.000 C 
BRANCH  18  19
ATOM     19  C   UNL     1      46.139  26.673   6.656  1.00  0.00    -0.000 C 
BRANCH  19  20
ATOM     20  C   UNL     1      46.876  26.067   7.856  1.00  0.00    -0.000 C 
BRANCH  20  21
ATOM     21  C   UNL     1      47.125  27.123   8.942  1.00  0.00    -0.000 C 
BRANCH  21  22
ATOM     22  C   UNL     1      46.621  26.688  10.331  1.00  0.00    -0.000 C 
BRANCH  22  23
ATOM     23  C   UNL     1      46.719  27.766  11.425  1.00  0.00    -0.000 C 
BRANCH  23  24
ATOM     24  C   UNL     1      46.991  29.169  10.863  1.00  0.00    -0.000 C 
BRANCH  24  25
ATOM     25  C   UNL     1      45.728  30.037  10.922  1.00  0.00    -0.003 C 
ATOM     26  C   UNL     1      45.048  30.115   9.558  1.00  0.00     0.004 C 
ENDBRANCH  24  25
ENDBRANCH  23  24
ENDBRANCH  22  23
ENDBRANCH  21  22
ENDBRANCH  20  21
ENDBRANCH  19  20
ENDBRANCH  18  19
ENDBRANCH  17  18
ENDBRANCH  16  17
ENDBRANCH  15  16
ENDBRANCH   1  15
TORSDOF 22
ENDMDL
