MODEL 1
REMARK VINA RESULT:    -8.026      0.000      0.000
REMARK INTER + INTRA:          -9.713
REMARK INTER:                  -9.434
REMARK INTRA:                  -0.280
REMARK UNBOUND:                -0.280
REMARK SMILES O=c1cc(-c2ccc(O)c(O)c2)oc2cc(O)cc(O)c12
REMARK SMILES IDX 4 1 3 2 2 3 1 4 21 5 19 6 18 7 16 8 15 9 14 10 13 11 5 12
REMARK SMILES IDX 6 13 7 14 8 15 12 16 10 17 9 18 11 20 20 22 17 24
REMARK H PARENT 9 19 11 21 20 23 17 25
REMARK Flexibility Score: inf
ROOT
ATOM      1  C   UNL     1      13.216  45.462   6.305  1.00  0.00     0.138 A 
ATOM      2  C   UNL     1      13.594  45.127   4.994  1.00  0.00     0.100 A 
ATOM      3  C   UNL     1      14.850  44.565   4.764  1.00  0.00     0.197 A 
ATOM      4  O   UNL     1      15.180  44.269   3.584  1.00  0.00    -0.289 OA
ATOM      5  C   UNL     1      15.723  44.346   5.848  1.00  0.00     0.107 A 
ATOM      6  C   UNL     1      17.012  43.781   5.702  1.00  0.00     0.134 A 
ATOM      7  C   UNL     1      17.823  43.600   6.832  1.00  0.00     0.093 A 
ATOM      8  C   UNL     1      17.370  43.973   8.102  1.00  0.00     0.123 A 
ATOM      9  C   UNL     1      16.099  44.531   8.251  1.00  0.00     0.094 A 
ATOM     10  C   UNL     1      15.274  44.719   7.138  1.00  0.00     0.146 A 
ATOM     11  O   UNL     1      14.068  45.251   7.306  1.00  0.00    -0.456 OA
ENDROOT
BRANCH   1  12
ATOM     12  C   UNL     1      11.893  46.063   6.610  1.00  0.00     0.021 A 
ATOM     13  C   UNL     1      11.164  45.603   7.720  1.00  0.00     0.016 A 
ATOM     14  C   UNL     1       9.914  46.147   8.025  1.00  0.00     0.051 A 
ATOM     15  C   UNL     1       9.364  47.152   7.219  1.00  0.00     0.157 A 
ATOM     16  C   UNL     1      11.330  47.066   5.796  1.00  0.00     0.062 A 
ATOM     17  C   UNL     1      10.075  47.611   6.098  1.00  0.00     0.158 A 
BRANCH  15  18
ATOM     18  O   UNL     1       8.117  47.694   7.526  1.00  0.00    -0.504 OA
ATOM     19  H   UNL     1       8.012  48.666   7.793  1.00  0.00     0.293 HD
ENDBRANCH  15  18
BRANCH  17  20
ATOM     20  O   UNL     1       9.551  48.602   5.270  1.00  0.00    -0.504 OA
ATOM     21  H   UNL     1      10.127  49.112   4.611  1.00  0.00     0.293 HD
ENDBRANCH  17  20
ENDBRANCH   1  12
BRANCH   6  22
ATOM     22  O   UNL     1      17.490  43.399   4.448  1.00  0.00    -0.507 OA
ATOM     23  H   UNL     1      18.453  43.558   4.174  1.00  0.00     0.293 HD
ENDBRANCH   6  22
BRANCH   8  24
ATOM     24  O   UNL     1      18.176  43.794   9.225  1.00  0.00    -0.508 OA
ATOM     25  H   UNL     1      19.187  43.818   9.161  1.00  0.00     0.293 HD
ENDBRANCH   8  24
TORSDOF 5
ENDMDL
MODEL 2
REMARK VINA RESULT:    -8.013      2.151      2.922
REMARK INTER + INTRA:          -9.698
REMARK INTER:                  -9.433
REMARK INTRA:                  -0.265
REMARK UNBOUND:                -0.280
REMARK SMILES O=c1cc(-c2ccc(O)c(O)c2)oc2cc(O)cc(O)c12
REMARK SMILES IDX 4 1 3 2 2 3 1 4 21 5 19 6 18 7 16 8 15 9 14 10 13 11 5 12
REMARK SMILES IDX 6 13 7 14 8 15 12 16 10 17 9 18 11 20 20 22 17 24
REMARK H PARENT 9 19 11 21 20 23 17 25
REMARK Flexibility Score: inf
ROOT
ATOM      1  C   UNL     1      14.015  45.030   6.783  1.00  0.00     0.138 A 
ATOM      2  C   UNL     1      15.324  45.541   6.814  1.00  0.00     0.100 A 
ATOM      3  C   UNL     1      16.353  44.759   7.339  1.00  0.00     0.197 A 
ATOM      4  O   UNL     1      17.523  45.226   7.364  1.00  0.00    -0.289 OA
ATOM      5  C   UNL     1      16.066  43.471   7.834  1.00  0.00     0.107 A 
ATOM      6  C   UNL     1      17.050  42.614   8.381  1.00  0.00     0.134 A 
ATOM      7  C   UNL     1      16.681  41.348   8.857  1.00  0.00     0.093 A 
ATOM      8  C   UNL     1      15.349  40.924   8.797  1.00  0.00     0.123 A 
ATOM      9  C   UNL     1      14.374  41.766   8.258  1.00  0.00     0.094 A 
ATOM     10  C   UNL     1      14.721  43.032   7.777  1.00  0.00     0.146 A 
ATOM     11  O   UNL     1      13.775  43.813   7.268  1.00  0.00    -0.456 OA
ENDROOT
BRANCH   1  12
ATOM     12  C   UNL     1      12.880  45.817   6.237  1.00  0.00     0.021 A 
ATOM     13  C   UNL     1      11.925  46.354   7.118  1.00  0.00     0.016 A 
ATOM     14  C   UNL     1      10.844  47.092   6.630  1.00  0.00     0.051 A 
ATOM     15  C   UNL     1      10.692  47.298   5.253  1.00  0.00     0.157 A 
ATOM     16  C   UNL     1      12.715  46.017   4.853  1.00  0.00     0.062 A 
ATOM     17  C   UNL     1      11.630  46.754   4.361  1.00  0.00     0.158 A 
BRANCH  15  18
ATOM     18  O   UNL     1       9.613  48.036   4.769  1.00  0.00    -0.504 OA
ATOM     19  H   UNL     1       9.524  48.262   3.785  1.00  0.00     0.293 HD
ENDBRANCH  15  18
BRANCH  17  20
ATOM     20  O   UNL     1      11.501  46.931   2.984  1.00  0.00    -0.504 OA
ATOM     21  H   UNL     1      11.290  46.162   2.361  1.00  0.00     0.293 HD
ENDBRANCH  17  20
ENDBRANCH   1  12
BRANCH   6  22
ATOM     22  O   UNL     1      18.386  43.011   8.454  1.00  0.00    -0.507 OA
ATOM     23  H   UNL     1      18.664  43.975   8.309  1.00  0.00     0.293 HD
ENDBRANCH   6  22
BRANCH   8  24
ATOM     24  O   UNL     1      14.982  39.665   9.271  1.00  0.00    -0.508 OA
ATOM     25  H   UNL     1      14.052  39.484   9.630  1.00  0.00     0.293 HD
ENDBRANCH   8  24
TORSDOF 5
ENDMDL
MODEL 3
REMARK VINA RESULT:    -7.739      1.703      6.948
REMARK INTER + INTRA:          -9.375
REMARK INTER:                  -9.076
REMARK INTRA:                  -0.299
REMARK UNBOUND:                -0.280
REMARK SMILES O=c1cc(-c2ccc(O)c(O)c2)oc2cc(O)cc(O)c12
REMARK SMILES IDX 4 1 3 2 2 3 1 4 21 5 19 6 18 7 16 8 15 9 14 10 13 11 5 12
REMARK SMILES IDX 6 13 7 14 8 15 12 16 10 17 9 18 11 20 20 22 17 24
REMARK H PARENT 9 19 11 21 20 23 17 25
REMARK Flexibility Score: inf
ROOT
ATOM      1  C   UNL     1      13.523  45.516   6.753  1.00  0.00     0.138 A 
ATOM      2  C   UNL     1      13.448  45.978   5.427  1.00  0.00     0.100 A 
ATOM      3  C   UNL     1      12.273  46.579   4.976  1.00  0.00     0.197 A 
ATOM      4  O   UNL     1      12.215  46.989   3.785  1.00  0.00    -0.289 OA
ATOM      5  C   UNL     1      11.177  46.710   5.852  1.00  0.00     0.107 A 
ATOM      6  C   UNL     1       9.950  47.307   5.474  1.00  0.00     0.134 A 
ATOM      7  C   UNL     1       8.905  47.394   6.405  1.00  0.00     0.093 A 
ATOM      8  C   UNL     1       9.063  46.897   7.703  1.00  0.00     0.123 A 
ATOM      9  C   UNL     1      10.271  46.307   8.081  1.00  0.00     0.094 A 
ATOM     10  C   UNL     1      11.326  46.211   7.168  1.00  0.00     0.146 A 
ATOM     11  O   UNL     1      12.466  45.646   7.552  1.00  0.00    -0.456 OA
ENDROOT
BRANCH   1  12
ATOM     12  C   UNL     1      14.747  44.869   7.288  1.00  0.00     0.021 A 
ATOM     13  C   UNL     1      16.009  45.346   6.895  1.00  0.00     0.016 A 
ATOM     14  C   UNL     1      17.177  44.750   7.379  1.00  0.00     0.051 A 
ATOM     15  C   UNL     1      17.104  43.660   8.255  1.00  0.00     0.157 A 
ATOM     16  C   UNL     1      14.680  43.764   8.160  1.00  0.00     0.062 A 
ATOM     17  C   UNL     1      15.849  43.163   8.644  1.00  0.00     0.158 A 
BRANCH  15  18
ATOM     18  O   UNL     1      18.270  43.067   8.737  1.00  0.00    -0.504 OA
ATOM     19  H   UNL     1      18.630  42.206   8.341  1.00  0.00     0.293 HD
ENDBRANCH  15  18
BRANCH  17  20
ATOM     20  O   UNL     1      15.742  42.072   9.505  1.00  0.00    -0.504 OA
ATOM     21  H   UNL     1      16.524  41.745  10.059  1.00  0.00     0.293 HD
ENDBRANCH  17  20
ENDBRANCH   1  12
BRANCH   6  22
ATOM     22  O   UNL     1       9.765  47.811   4.186  1.00  0.00    -0.507 OA
ATOM     23  H   UNL     1      10.523  48.242   3.668  1.00  0.00     0.293 HD
ENDBRANCH   6  22
BRANCH   8  24
ATOM     24  O   UNL     1       8.024  46.984   8.628  1.00  0.00    -0.508 OA
ATOM     25  H   UNL     1       8.028  46.439   9.483  1.00  0.00     0.293 HD
ENDBRANCH   8  24
TORSDOF 5
ENDMDL
MODEL 4
REMARK VINA RESULT:    -7.690      1.752      1.963
REMARK INTER + INTRA:          -9.318
REMARK INTER:                  -9.030
REMARK INTRA:                  -0.288
REMARK UNBOUND:                -0.280
REMARK SMILES O=c1cc(-c2ccc(O)c(O)c2)oc2cc(O)cc(O)c12
REMARK SMILES IDX 4 1 3 2 2 3 1 4 21 5 19 6 18 7 16 8 15 9 14 10 13 11 5 12
REMARK SMILES IDX 6 13 7 14 8 15 12 16 10 17 9 18 11 20 20 22 17 24
REMARK H PARENT 9 19 11 21 20 23 17 25
REMARK Flexibility Score: inf
ROOT
ATOM      1  C   UNL     1      11.748  45.750   6.538  1.00  0.00     0.138 A 
ATOM      2  C   UNL     1      12.331  45.604   5.268  1.00  0.00     0.100 A 
ATOM      3  C   UNL     1      13.409  44.732   5.103  1.00  0.00     0.197 A 
ATOM      4  O   UNL     1      13.926  44.609   3.960  1.00  0.00    -0.289 OA
ATOM      5  C   UNL     1      13.900  44.016   6.213  1.00  0.00     0.107 A 
ATOM      6  C   UNL     1      14.987  43.113   6.133  1.00  0.00     0.134 A 
ATOM      7  C   UNL     1      15.419  42.442   7.286  1.00  0.00     0.093 A 
ATOM      8  C   UNL     1      14.786  42.657   8.515  1.00  0.00     0.123 A 
ATOM      9  C   UNL     1      13.713  43.547   8.599  1.00  0.00     0.094 A 
ATOM     10  C   UNL     1      13.266  44.225   7.461  1.00  0.00     0.146 A 
ATOM     11  O   UNL     1      12.243  45.066   7.568  1.00  0.00    -0.456 OA
ENDROOT
BRANCH   1  12
ATOM     12  C   UNL     1      10.601  46.662   6.772  1.00  0.00     0.021 A 
ATOM     13  C   UNL     1       9.670  46.356   7.781  1.00  0.00     0.016 A 
ATOM     14  C   UNL     1       8.577  47.194   8.017  1.00  0.00     0.051 A 
ATOM     15  C   UNL     1       8.389  48.346   7.244  1.00  0.00     0.157 A 
ATOM     16  C   UNL     1      10.399  47.816   5.990  1.00  0.00     0.062 A 
ATOM     17  C   UNL     1       9.303  48.656   6.224  1.00  0.00     0.158 A 
BRANCH  15  18
ATOM     18  O   UNL     1       7.299  49.181   7.483  1.00  0.00    -0.504 OA
ATOM     19  H   UNL     1       6.346  48.859   7.356  1.00  0.00     0.293 HD
ENDBRANCH  15  18
BRANCH  17  20
ATOM     20  O   UNL     1       9.138  49.789   5.428  1.00  0.00    -0.504 OA
ATOM     21  H   UNL     1       9.800  50.556   5.441  1.00  0.00     0.293 HD
ENDBRANCH  17  20
ENDBRANCH   1  12
BRANCH   6  22
ATOM     22  O   UNL     1      15.637  42.880   4.920  1.00  0.00    -0.507 OA
ATOM     23  H   UNL     1      15.502  42.020   4.400  1.00  0.00     0.293 HD
ENDBRANCH   6  22
BRANCH   8  24
ATOM     24  O   UNL     1      15.215  41.990   9.661  1.00  0.00    -0.508 OA
ATOM     25  H   UNL     1      14.643  41.285  10.110  1.00  0.00     0.293 HD
ENDBRANCH   8  24
TORSDOF 5
ENDMDL
MODEL 5
REMARK VINA RESULT:    -7.589      1.845      7.417
REMARK INTER + INTRA:          -9.199
REMARK INTER:                  -8.902
REMARK INTRA:                  -0.297
REMARK UNBOUND:                -0.280
REMARK SMILES O=c1cc(-c2ccc(O)c(O)c2)oc2cc(O)cc(O)c12
REMARK SMILES IDX 4 1 3 2 2 3 1 4 21 5 19 6 18 7 16 8 15 9 14 10 13 11 5 12
REMARK SMILES IDX 6 13 7 14 8 15 12 16 10 17 9 18 11 20 20 22 17 24
REMARK H PARENT 9 19 11 21 20 23 17 25
REMARK Flexibility Score: inf
ROOT
ATOM      1  C   UNL     1      12.541  45.172   6.429  1.00  0.00     0.138 A 
ATOM      2  C   UNL     1      11.922  44.488   7.489  1.00  0.00     0.100 A 
ATOM      3  C   UNL     1      10.738  44.989   8.031  1.00  0.00     0.197 A 
ATOM      4  O   UNL     1      10.190  44.369   8.982  1.00  0.00    -0.289 OA
ATOM      5  C   UNL     1      10.183  46.176   7.512  1.00  0.00     0.107 A 
ATOM      6  C   UNL     1       8.986  46.751   8.002  1.00  0.00     0.134 A 
ATOM      7  C   UNL     1       8.502  47.938   7.434  1.00  0.00     0.093 A 
ATOM      8  C   UNL     1       9.191  48.560   6.387  1.00  0.00     0.123 A 
ATOM      9  C   UNL     1      10.372  47.996   5.899  1.00  0.00     0.094 A 
ATOM     10  C   UNL     1      10.871  46.813   6.451  1.00  0.00     0.146 A 
ATOM     11  O   UNL     1      11.996  46.296   5.968  1.00  0.00    -0.456 OA
ENDROOT
BRANCH   1  12
ATOM     12  C   UNL     1      13.802  44.686   5.814  1.00  0.00     0.021 A 
ATOM     13  C   UNL     1      14.326  45.354   4.693  1.00  0.00     0.016 A 
ATOM     14  C   UNL     1      15.507  44.913   4.091  1.00  0.00     0.051 A 
ATOM     15  C   UNL     1      16.180  43.791   4.592  1.00  0.00     0.157 A 
ATOM     16  C   UNL     1      14.477  43.552   6.305  1.00  0.00     0.062 A 
ATOM     17  C   UNL     1      15.659  43.106   5.702  1.00  0.00     0.158 A 
BRANCH  15  18
ATOM     18  O   UNL     1      17.359  43.354   3.990  1.00  0.00    -0.504 OA
ATOM     19  H   UNL     1      18.097  44.001   3.737  1.00  0.00     0.293 HD
ENDBRANCH  15  18
BRANCH  17  20
ATOM     20  O   UNL     1      16.299  41.979   6.217  1.00  0.00    -0.504 OA
ATOM     21  H   UNL     1      16.056  41.041   5.922  1.00  0.00     0.293 HD
ENDBRANCH  17  20
ENDBRANCH   1  12
BRANCH   6  22
ATOM     22  O   UNL     1       8.279  46.153   9.046  1.00  0.00    -0.507 OA
ATOM     23  H   UNL     1       7.680  46.692   9.662  1.00  0.00     0.293 HD
ENDBRANCH   6  22
BRANCH   8  24
ATOM     24  O   UNL     1       8.710  49.739   5.822  1.00  0.00    -0.508 OA
ATOM     25  H   UNL     1       8.022  50.313   6.297  1.00  0.00     0.293 HD
ENDBRANCH   8  24
TORSDOF 5
ENDMDL
MODEL 6
REMARK VINA RESULT:    -7.525      1.530      7.323
REMARK INTER + INTRA:          -9.124
REMARK INTER:                  -8.856
REMARK INTRA:                  -0.268
REMARK UNBOUND:                -0.280
REMARK SMILES O=c1cc(-c2ccc(O)c(O)c2)oc2cc(O)cc(O)c12
REMARK SMILES IDX 4 1 3 2 2 3 1 4 21 5 19 6 18 7 16 8 15 9 14 10 13 11 5 12
REMARK SMILES IDX 6 13 7 14 8 15 12 16 10 17 9 18 11 20 20 22 17 24
REMARK H PARENT 9 19 11 21 20 23 17 25
REMARK Flexibility Score: inf
ROOT
ATOM      1  C   UNL     1      13.274  44.990   7.605  1.00  0.00     0.138 A 
ATOM      2  C   UNL     1      12.525  44.430   8.654  1.00  0.00     0.100 A 
ATOM      3  C   UNL     1      11.223  44.874   8.881  1.00  0.00     0.197 A 
ATOM      4  O   UNL     1      10.561  44.366   9.826  1.00  0.00    -0.289 OA
ATOM      5  C   UNL     1      10.677  45.881   8.060  1.00  0.00     0.107 A 
ATOM      6  C   UNL     1       9.365  46.386   8.222  1.00  0.00     0.134 A 
ATOM      7  C   UNL     1       8.898  47.393   7.365  1.00  0.00     0.093 A 
ATOM      8  C   UNL     1       9.717  47.903   6.351  1.00  0.00     0.123 A 
ATOM      9  C   UNL     1      11.012  47.407   6.187  1.00  0.00     0.094 A 
ATOM     10  C   UNL     1      11.496  46.402   7.031  1.00  0.00     0.146 A 
ATOM     11  O   UNL     1      12.732  45.947   6.853  1.00  0.00    -0.456 OA
ENDROOT
BRANCH   1  12
ATOM     12  C   UNL     1      14.664  44.558   7.316  1.00  0.00     0.021 A 
ATOM     13  C   UNL     1      15.704  44.961   8.172  1.00  0.00     0.016 A 
ATOM     14  C   UNL     1      17.023  44.573   7.919  1.00  0.00     0.051 A 
ATOM     15  C   UNL     1      17.327  43.786   6.801  1.00  0.00     0.157 A 
ATOM     16  C   UNL     1      14.978  43.776   6.187  1.00  0.00     0.062 A 
ATOM     17  C   UNL     1      16.299  43.389   5.930  1.00  0.00     0.158 A 
BRANCH  15  18
ATOM     18  O   UNL     1      18.643  43.400   6.552  1.00  0.00    -0.504 OA
ATOM     19  H   UNL     1      18.887  42.432   6.377  1.00  0.00     0.293 HD
ENDBRANCH  15  18
BRANCH  17  20
ATOM     20  O   UNL     1      16.570  42.615   4.803  1.00  0.00    -0.504 OA
ATOM     21  H   UNL     1      15.976  42.633   3.982  1.00  0.00     0.293 HD
ENDBRANCH  17  20
ENDBRANCH   1  12
BRANCH   6  22
ATOM     22  O   UNL     1       8.527  45.897   9.225  1.00  0.00    -0.507 OA
ATOM     23  H   UNL     1       7.601  45.540   9.018  1.00  0.00     0.293 HD
ENDBRANCH   6  22
BRANCH   8  24
ATOM     24  O   UNL     1       9.253  48.903   5.500  1.00  0.00    -0.508 OA
ATOM     25  H   UNL     1       9.890  49.502   4.988  1.00  0.00     0.293 HD
ENDBRANCH   8  24
TORSDOF 5
ENDMDL
MODEL 7
REMARK VINA RESULT:    -7.433      1.118      2.620
REMARK INTER + INTRA:          -9.016
REMARK INTER:                  -8.716
REMARK INTRA:                  -0.300
REMARK UNBOUND:                -0.280
REMARK SMILES O=c1cc(-c2ccc(O)c(O)c2)oc2cc(O)cc(O)c12
REMARK SMILES IDX 4 1 3 2 2 3 1 4 21 5 19 6 18 7 16 8 15 9 14 10 13 11 5 12
REMARK SMILES IDX 6 13 7 14 8 15 12 16 10 17 9 18 11 20 20 22 17 24
REMARK H PARENT 9 19 11 21 20 23 17 25
REMARK Flexibility Score: inf
ROOT
ATOM      1  C   UNL     1      13.189  45.579   6.792  1.00  0.00     0.138 A 
ATOM      2  C   UNL     1      13.926  45.613   7.988  1.00  0.00     0.100 A 
ATOM      3  C   UNL     1      15.210  45.067   8.020  1.00  0.00     0.197 A 
ATOM      4  O   UNL     1      15.862  45.101   9.098  1.00  0.00    -0.289 OA
ATOM      5  C   UNL     1      15.747  44.485   6.854  1.00  0.00     0.107 A 
ATOM      6  C   UNL     1      17.039  43.910   6.800  1.00  0.00     0.134 A 
ATOM      7  C   UNL     1      17.499  43.347   5.601  1.00  0.00     0.093 A 
ATOM      8  C   UNL     1      16.692  43.347   4.458  1.00  0.00     0.123 A 
ATOM      9  C   UNL     1      15.416  43.912   4.506  1.00  0.00     0.094 A 
ATOM     10  C   UNL     1      14.939  44.480   5.692  1.00  0.00     0.146 A 
ATOM     11  O   UNL     1      13.723  45.013   5.711  1.00  0.00    -0.456 OA
ENDROOT
BRANCH   1  12
ATOM     12  C   UNL     1      11.820  46.144   6.700  1.00  0.00     0.021 A 
ATOM     13  C   UNL     1      10.942  46.008   7.790  1.00  0.00     0.016 A 
ATOM     14  C   UNL     1       9.645  46.525   7.726  1.00  0.00     0.051 A 
ATOM     15  C   UNL     1       9.199  47.176   6.569  1.00  0.00     0.157 A 
ATOM     16  C   UNL     1      11.361  46.789   5.535  1.00  0.00     0.062 A 
ATOM     17  C   UNL     1      10.061  47.305   5.468  1.00  0.00     0.158 A 
BRANCH  15  18
ATOM     18  O   UNL     1       7.905  47.691   6.509  1.00  0.00    -0.504 OA
ATOM     19  H   UNL     1       7.323  47.762   7.336  1.00  0.00     0.293 HD
ENDBRANCH  15  18
BRANCH  17  20
ATOM     20  O   UNL     1       9.644  47.938   4.298  1.00  0.00    -0.504 OA
ATOM     21  H   UNL     1       9.899  47.594   3.380  1.00  0.00     0.293 HD
ENDBRANCH  17  20
ENDBRANCH   1  12
BRANCH   6  22
ATOM     22  O   UNL     1      17.865  43.896   7.925  1.00  0.00    -0.507 OA
ATOM     23  H   UNL     1      18.650  44.532   8.017  1.00  0.00     0.293 HD
ENDBRANCH   6  22
BRANCH   8  24
ATOM     24  O   UNL     1      17.149  42.786   3.266  1.00  0.00    -0.508 OA
ATOM     25  H   UNL     1      16.913  43.188   2.366  1.00  0.00     0.293 HD
ENDBRANCH   8  24
TORSDOF 5
ENDMDL
MODEL 8
REMARK VINA RESULT:    -7.421      2.358      3.140
REMARK INTER + INTRA:          -9.002
REMARK INTER:                  -8.717
REMARK INTRA:                  -0.286
REMARK UNBOUND:                -0.280
REMARK SMILES O=c1cc(-c2ccc(O)c(O)c2)oc2cc(O)cc(O)c12
REMARK SMILES IDX 4 1 3 2 2 3 1 4 21 5 19 6 18 7 16 8 15 9 14 10 13 11 5 12
REMARK SMILES IDX 6 13 7 14 8 15 12 16 10 17 9 18 11 20 20 22 17 24
REMARK H PARENT 9 19 11 21 20 23 17 25
REMARK Flexibility Score: inf
ROOT
ATOM      1  C   UNL     1      12.247  44.543   8.471  1.00  0.00     0.138 A 
ATOM      2  C   UNL     1      12.529  45.445   7.431  1.00  0.00     0.100 A 
ATOM      3  C   UNL     1      13.833  45.546   6.945  1.00  0.00     0.197 A 
ATOM      4  O   UNL     1      14.076  46.358   6.013  1.00  0.00    -0.289 OA
ATOM      5  C   UNL     1      14.849  44.748   7.508  1.00  0.00     0.107 A 
ATOM      6  C   UNL     1      16.195  44.788   7.074  1.00  0.00     0.134 A 
ATOM      7  C   UNL     1      17.148  43.964   7.690  1.00  0.00     0.093 A 
ATOM      8  C   UNL     1      16.781  43.103   8.729  1.00  0.00     0.123 A 
ATOM      9  C   UNL     1      15.454  43.059   9.161  1.00  0.00     0.094 A 
ATOM     10  C   UNL     1      14.488  43.872   8.560  1.00  0.00     0.146 A 
ATOM     11  O   UNL     1      13.232  43.811   8.988  1.00  0.00    -0.456 OA
ENDROOT
BRANCH   1  12
ATOM     12  C   UNL     1      10.879  44.394   9.028  1.00  0.00     0.021 A 
ATOM     13  C   UNL     1      10.717  44.113  10.396  1.00  0.00     0.016 A 
ATOM     14  C   UNL     1       9.440  43.960  10.943  1.00  0.00     0.051 A 
ATOM     15  C   UNL     1       8.304  44.074  10.133  1.00  0.00     0.157 A 
ATOM     16  C   UNL     1       9.733  44.495   8.215  1.00  0.00     0.062 A 
ATOM     17  C   UNL     1       8.453  44.340   8.762  1.00  0.00     0.158 A 
BRANCH  15  18
ATOM     18  O   UNL     1       7.032  43.922  10.682  1.00  0.00    -0.504 OA
ATOM     19  H   UNL     1       6.781  44.352  11.565  1.00  0.00     0.293 HD
ENDBRANCH  15  18
BRANCH  17  20
ATOM     20  O   UNL     1       7.343  44.448   7.925  1.00  0.00    -0.504 OA
ATOM     21  H   UNL     1       7.341  44.078   6.982  1.00  0.00     0.293 HD
ENDBRANCH  17  20
ENDBRANCH   1  12
BRANCH   6  22
ATOM     22  O   UNL     1      16.590  45.638   6.040  1.00  0.00    -0.507 OA
ATOM     23  H   UNL     1      16.185  46.560   5.924  1.00  0.00     0.293 HD
ENDBRANCH   6  22
BRANCH   8  24
ATOM     24  O   UNL     1      17.728  42.284   9.341  1.00  0.00    -0.508 OA
ATOM     25  H   UNL     1      18.111  42.506  10.253  1.00  0.00     0.293 HD
ENDBRANCH   8  24
TORSDOF 5
ENDMDL
MODEL 9
REMARK VINA RESULT:    -7.415      1.969      7.206
REMARK INTER + INTRA:          -8.995
REMARK INTER:                  -8.680
REMARK INTRA:                  -0.314
REMARK UNBOUND:                -0.280
REMARK SMILES O=c1cc(-c2ccc(O)c(O)c2)oc2cc(O)cc(O)c12
REMARK SMILES IDX 4 1 3 2 2 3 1 4 21 5 19 6 18 7 16 8 15 9 14 10 13 11 5 12
REMARK SMILES IDX 6 13 7 14 8 15 12 16 10 17 9 18 11 20 20 22 17 24
REMARK H PARENT 9 19 11 21 20 23 17 25
REMARK Flexibility Score: inf
ROOT
ATOM      1  C   UNL     1      11.966  45.655   5.992  1.00  0.00     0.138 A 
ATOM      2  C   UNL     1      11.519  46.886   5.483  1.00  0.00     0.100 A 
ATOM      3  C   UNL     1      10.401  47.498   6.050  1.00  0.00     0.197 A 
ATOM      4  O   UNL     1      10.007  48.601   5.585  1.00  0.00    -0.289 OA
ATOM      5  C   UNL     1       9.733  46.872   7.121  1.00  0.00     0.107 A 
ATOM      6  C   UNL     1       8.594  47.424   7.753  1.00  0.00     0.134 A 
ATOM      7  C   UNL     1       7.983  46.735   8.811  1.00  0.00     0.093 A 
ATOM      8  C   UNL     1       8.490  45.505   9.247  1.00  0.00     0.123 A 
ATOM      9  C   UNL     1       9.614  44.956   8.627  1.00  0.00     0.094 A 
ATOM     10  C   UNL     1      10.238  45.628   7.571  1.00  0.00     0.146 A 
ATOM     11  O   UNL     1      11.306  45.085   6.999  1.00  0.00    -0.456 OA
ENDROOT
BRANCH   1  12
ATOM     12  C   UNL     1      13.149  44.957   5.428  1.00  0.00     0.021 A 
ATOM     13  C   UNL     1      13.624  45.321   4.156  1.00  0.00     0.016 A 
ATOM     14  C   UNL     1      14.731  44.676   3.600  1.00  0.00     0.051 A 
ATOM     15  C   UNL     1      15.377  43.648   4.299  1.00  0.00     0.157 A 
ATOM     16  C   UNL     1      13.795  43.915   6.122  1.00  0.00     0.062 A 
ATOM     17  C   UNL     1      14.903  43.265   5.564  1.00  0.00     0.158 A 
BRANCH  15  18
ATOM     18  O   UNL     1      16.482  43.007   3.742  1.00  0.00    -0.504 OA
ATOM     19  H   UNL     1      16.662  43.031   2.745  1.00  0.00     0.293 HD
ENDBRANCH  15  18
BRANCH  17  20
ATOM     20  O   UNL     1      15.516  42.238   6.282  1.00  0.00    -0.504 OA
ATOM     21  H   UNL     1      15.552  42.236   7.294  1.00  0.00     0.293 HD
ENDBRANCH  17  20
ENDBRANCH   1  12
BRANCH   6  22
ATOM     22  O   UNL     1       8.067  48.648   7.339  1.00  0.00    -0.507 OA
ATOM     23  H   UNL     1       8.648  49.362   6.914  1.00  0.00     0.293 HD
ENDBRANCH   6  22
BRANCH   8  24
ATOM     24  O   UNL     1       7.883  44.820  10.298  1.00  0.00    -0.508 OA
ATOM     25  H   UNL     1       8.288  43.976  10.685  1.00  0.00     0.293 HD
ENDBRANCH   8  24
TORSDOF 5
ENDMDL
