MODEL 1
REMARK VINA RESULT:    -5.762      0.000      0.000
REMARK INTER + INTRA:          -7.262
REMARK INTER:                  -6.941
REMARK INTRA:                  -0.321
REMARK UNBOUND:                -0.321
REMARK SMILES O=c1c(O)c(-c2ccc(O)c(O)c2)oc2cc(O)cc(O)c12
REMARK SMILES IDX 5 1 3 2 2 3 1 4 22 5 20 6 19 7 17 8 16 9 15 10 14 11 6 12
REMARK SMILES IDX 7 13 8 14 9 15 13 16 11 17 10 18 12 20 4 22 21 24 18 26
REMARK H PARENT 10 19 12 21 4 23 21 25 18 27
REMARK Flexibility Score: inf
ROOT
ATOM      1  C   UNL     1       9.333  19.804  23.928  1.00  0.00     0.180 A 
ATOM      2  C   UNL     1      10.293  20.355  23.062  1.00  0.00     0.208 A 
ATOM      3  C   UNL     1      11.590  20.591  23.546  1.00  0.00     0.238 A 
ATOM      4  O   UNL     1      12.460  21.033  22.751  1.00  0.00    -0.285 OA
ATOM      5  C   UNL     1      11.906  20.289  24.892  1.00  0.00     0.111 A 
ATOM      6  C   UNL     1      13.176  20.524  25.498  1.00  0.00     0.134 A 
ATOM      7  C   UNL     1      13.415  20.065  26.800  1.00  0.00     0.093 A 
ATOM      8  C   UNL     1      12.412  19.438  27.538  1.00  0.00     0.123 A 
ATOM      9  C   UNL     1      11.148  19.256  26.976  1.00  0.00     0.094 A 
ATOM     10  C   UNL     1      10.889  19.671  25.666  1.00  0.00     0.146 A 
ATOM     11  O   UNL     1       9.677  19.470  25.166  1.00  0.00    -0.452 OA
ENDROOT
BRANCH   1  12
ATOM     12  C   UNL     1       7.938  19.550  23.498  1.00  0.00     0.025 A 
ATOM     13  C   UNL     1       7.613  18.324  22.898  1.00  0.00     0.016 A 
ATOM     14  C   UNL     1       6.299  18.055  22.502  1.00  0.00     0.051 A 
ATOM     15  C   UNL     1       5.290  19.002  22.718  1.00  0.00     0.157 A 
ATOM     16  C   UNL     1       6.918  20.490  23.729  1.00  0.00     0.062 A 
ATOM     17  C   UNL     1       5.599  20.220  23.336  1.00  0.00     0.158 A 
BRANCH  15  18
ATOM     18  O   UNL     1       3.980  18.739  22.324  1.00  0.00    -0.504 OA
ATOM     19  H   UNL     1       3.623  17.792  22.268  1.00  0.00     0.293 HD
ENDBRANCH  15  18
BRANCH  17  20
ATOM     20  O   UNL     1       4.590  21.155  23.560  1.00  0.00    -0.504 OA
ATOM     21  H   UNL     1       4.682  22.118  23.256  1.00  0.00     0.293 HD
ENDBRANCH  17  20
ENDBRANCH   1  12
BRANCH   2  22
ATOM     22  O   UNL     1       9.966  20.626  21.730  1.00  0.00    -0.502 OA
ATOM     23  H   UNL     1       9.224  21.265  21.471  1.00  0.00     0.293 HD
ENDBRANCH   2  22
BRANCH   6  24
ATOM     24  O   UNL     1      14.218  21.221  24.882  1.00  0.00    -0.507 OA
ATOM     25  H   UNL     1      15.186  21.180  25.167  1.00  0.00     0.293 HD
ENDBRANCH   6  24
BRANCH   8  26
ATOM     26  O   UNL     1      12.680  19.009  28.836  1.00  0.00    -0.508 OA
ATOM     27  H   UNL     1      12.862  19.667  29.586  1.00  0.00     0.293 HD
ENDBRANCH   8  26
TORSDOF 6
ENDMDL
MODEL 2
REMARK VINA RESULT:    -5.655      2.123      7.538
REMARK INTER + INTRA:          -7.133
REMARK INTER:                  -6.837
REMARK INTRA:                  -0.296
REMARK UNBOUND:                -0.321
REMARK SMILES O=c1c(O)c(-c2ccc(O)c(O)c2)oc2cc(O)cc(O)c12
REMARK SMILES IDX 5 1 3 2 2 3 1 4 22 5 20 6 19 7 17 8 16 9 15 10 14 11 6 12
REMARK SMILES IDX 7 13 8 14 9 15 13 16 11 17 10 18 12 20 4 22 21 24 18 26
REMARK H PARENT 10 19 12 21 4 23 21 25 18 27
REMARK Flexibility Score: inf
ROOT
ATOM      1  C   UNL     1       6.991  20.150  24.743  1.00  0.00     0.180 A 
ATOM      2  C   UNL     1       6.196  21.259  25.082  1.00  0.00     0.208 A 
ATOM      3  C   UNL     1       5.091  21.576  24.277  1.00  0.00     0.238 A 
ATOM      4  O   UNL     1       4.351  22.537  24.616  1.00  0.00    -0.285 OA
ATOM      5  C   UNL     1       4.803  20.792  23.134  1.00  0.00     0.111 A 
ATOM      6  C   UNL     1       3.733  21.046  22.225  1.00  0.00     0.134 A 
ATOM      7  C   UNL     1       3.463  20.129  21.201  1.00  0.00     0.093 A 
ATOM      8  C   UNL     1       4.263  19.002  21.015  1.00  0.00     0.123 A 
ATOM      9  C   UNL     1       5.349  18.775  21.862  1.00  0.00     0.094 A 
ATOM     10  C   UNL     1       5.622  19.654  22.914  1.00  0.00     0.146 A 
ATOM     11  O   UNL     1       6.657  19.395  23.702  1.00  0.00    -0.452 OA
ENDROOT
BRANCH   1  12
ATOM     12  C   UNL     1       8.187  19.768  25.529  1.00  0.00     0.025 A 
ATOM     13  C   UNL     1       8.031  19.004  26.696  1.00  0.00     0.016 A 
ATOM     14  C   UNL     1       9.147  18.615  27.442  1.00  0.00     0.051 A 
ATOM     15  C   UNL     1      10.435  18.971  27.022  1.00  0.00     0.157 A 
ATOM     16  C   UNL     1       9.483  20.107  25.101  1.00  0.00     0.062 A 
ATOM     17  C   UNL     1      10.604  19.714  25.848  1.00  0.00     0.158 A 
BRANCH  15  18
ATOM     18  O   UNL     1      11.550  18.587  27.764  1.00  0.00    -0.504 OA
ATOM     19  H   UNL     1      12.366  19.183  27.843  1.00  0.00     0.293 HD
ENDBRANCH  15  18
BRANCH  17  20
ATOM     20  O   UNL     1      11.887  20.056  25.426  1.00  0.00    -0.504 OA
ATOM     21  H   UNL     1      12.046  20.806  24.763  1.00  0.00     0.293 HD
ENDBRANCH  17  20
ENDBRANCH   1  12
BRANCH   2  22
ATOM     22  O   UNL     1       6.485  22.007  26.227  1.00  0.00    -0.502 OA
ATOM     23  H   UNL     1       6.821  22.961  26.183  1.00  0.00     0.293 HD
ENDBRANCH   2  22
BRANCH   6  24
ATOM     24  O   UNL     1       2.929  22.189  22.265  1.00  0.00    -0.507 OA
ATOM     25  H   UNL     1       2.648  22.723  21.457  1.00  0.00     0.293 HD
ENDBRANCH   6  24
BRANCH   8  26
ATOM     26  O   UNL     1       3.976  18.119  19.976  1.00  0.00    -0.508 OA
ATOM     27  H   UNL     1       4.701  17.771  19.360  1.00  0.00     0.293 HD
ENDBRANCH   8  26
TORSDOF 6
ENDMDL
MODEL 3
REMARK VINA RESULT:    -5.359      1.463      6.843
REMARK INTER + INTRA:          -6.777
REMARK INTER:                  -6.552
REMARK INTRA:                  -0.225
REMARK UNBOUND:                -0.321
REMARK SMILES O=c1c(O)c(-c2ccc(O)c(O)c2)oc2cc(O)cc(O)c12
REMARK SMILES IDX 5 1 3 2 2 3 1 4 22 5 20 6 19 7 17 8 16 9 15 10 14 11 6 12
REMARK SMILES IDX 7 13 8 14 9 15 13 16 11 17 10 18 12 20 4 22 21 24 18 26
REMARK H PARENT 10 19 12 21 4 23 21 25 18 27
REMARK Flexibility Score: inf
ROOT
ATOM      1  C   UNL     1      10.008  19.955  24.677  1.00  0.00     0.180 A 
ATOM      2  C   UNL     1       9.889  19.204  23.495  1.00  0.00     0.208 A 
ATOM      3  C   UNL     1       8.648  19.160  22.839  1.00  0.00     0.238 A 
ATOM      4  O   UNL     1       8.561  18.531  21.752  1.00  0.00    -0.285 OA
ATOM      5  C   UNL     1       7.539  19.853  23.382  1.00  0.00     0.111 A 
ATOM      6  C   UNL     1       6.226  19.845  22.822  1.00  0.00     0.134 A 
ATOM      7  C   UNL     1       5.238  20.673  23.370  1.00  0.00     0.093 A 
ATOM      8  C   UNL     1       5.496  21.457  24.494  1.00  0.00     0.123 A 
ATOM      9  C   UNL     1       6.760  21.428  25.085  1.00  0.00     0.094 A 
ATOM     10  C   UNL     1       7.777  20.639  24.539  1.00  0.00     0.146 A 
ATOM     11  O   UNL     1       8.968  20.648  25.125  1.00  0.00    -0.452 OA
ENDROOT
BRANCH   1  12
ATOM     12  C   UNL     1      11.277  20.028  25.439  1.00  0.00     0.025 A 
ATOM     13  C   UNL     1      12.345  20.784  24.929  1.00  0.00     0.016 A 
ATOM     14  C   UNL     1      13.544  20.884  25.641  1.00  0.00     0.051 A 
ATOM     15  C   UNL     1      13.686  20.243  26.878  1.00  0.00     0.157 A 
ATOM     16  C   UNL     1      11.417  19.403  26.690  1.00  0.00     0.062 A 
ATOM     17  C   UNL     1      12.619  19.505  27.406  1.00  0.00     0.158 A 
BRANCH  15  18
ATOM     18  O   UNL     1      14.880  20.339  27.589  1.00  0.00    -0.504 OA
ATOM     19  H   UNL     1      15.324  19.522  27.992  1.00  0.00     0.293 HD
ENDBRANCH  15  18
BRANCH  17  20
ATOM     20  O   UNL     1      12.759  18.879  28.643  1.00  0.00    -0.504 OA
ATOM     21  H   UNL     1      13.505  19.128  29.283  1.00  0.00     0.293 HD
ENDBRANCH  17  20
ENDBRANCH   1  12
BRANCH   2  22
ATOM     22  O   UNL     1      11.001  18.544  22.965  1.00  0.00    -0.502 OA
ATOM     23  H   UNL     1      11.286  17.623  23.275  1.00  0.00     0.293 HD
ENDBRANCH   2  22
BRANCH   6  24
ATOM     24  O   UNL     1       5.837  19.030  21.757  1.00  0.00    -0.507 OA
ATOM     25  H   UNL     1       5.966  18.030  21.721  1.00  0.00     0.293 HD
ENDBRANCH   6  24
BRANCH   8  26
ATOM     26  O   UNL     1       4.484  22.256  25.022  1.00  0.00    -0.508 OA
ATOM     27  H   UNL     1       3.510  22.103  24.786  1.00  0.00     0.293 HD
ENDBRANCH   8  26
TORSDOF 6
ENDMDL
MODEL 4
REMARK VINA RESULT:    -5.300      2.210      2.874
REMARK INTER + INTRA:          -6.706
REMARK INTER:                  -6.418
REMARK INTRA:                  -0.288
REMARK UNBOUND:                -0.321
REMARK SMILES O=c1c(O)c(-c2ccc(O)c(O)c2)oc2cc(O)cc(O)c12
REMARK SMILES IDX 5 1 3 2 2 3 1 4 22 5 20 6 19 7 17 8 16 9 15 10 14 11 6 12
REMARK SMILES IDX 7 13 8 14 9 15 13 16 11 17 10 18 12 20 4 22 21 24 18 26
REMARK H PARENT 10 19 12 21 4 23 21 25 18 27
REMARK Flexibility Score: inf
ROOT
ATOM      1  C   UNL     1       7.082  20.066  23.278  1.00  0.00     0.180 A 
ATOM      2  C   UNL     1       8.210  19.467  22.691  1.00  0.00     0.208 A 
ATOM      3  C   UNL     1       9.416  19.436  23.411  1.00  0.00     0.238 A 
ATOM      4  O   UNL     1      10.408  18.850  22.903  1.00  0.00    -0.285 OA
ATOM      5  C   UNL     1       9.483  20.018  24.699  1.00  0.00     0.111 A 
ATOM      6  C   UNL     1      10.662  20.078  25.501  1.00  0.00     0.134 A 
ATOM      7  C   UNL     1      10.581  20.561  26.813  1.00  0.00     0.093 A 
ATOM      8  C   UNL     1       9.379  21.044  27.330  1.00  0.00     0.123 A 
ATOM      9  C   UNL     1       8.232  21.044  26.535  1.00  0.00     0.094 A 
ATOM     10  C   UNL     1       8.274  20.536  25.233  1.00  0.00     0.146 A 
ATOM     11  O   UNL     1       7.159  20.545  24.514  1.00  0.00    -0.452 OA
ENDROOT
BRANCH   1  12
ATOM     12  C   UNL     1       5.783  20.160  22.571  1.00  0.00     0.025 A 
ATOM     13  C   UNL     1       4.932  19.045  22.542  1.00  0.00     0.016 A 
ATOM     14  C   UNL     1       3.693  19.117  21.898  1.00  0.00     0.051 A 
ATOM     15  C   UNL     1       3.282  20.310  21.290  1.00  0.00     0.157 A 
ATOM     16  C   UNL     1       5.359  21.362  21.976  1.00  0.00     0.062 A 
ATOM     17  C   UNL     1       4.114  21.435  21.333  1.00  0.00     0.158 A 
BRANCH  15  18
ATOM     18  O   UNL     1       2.049  20.386  20.646  1.00  0.00    -0.504 OA
ATOM     19  H   UNL     1       1.281  20.924  21.031  1.00  0.00     0.293 HD
ENDBRANCH  15  18
BRANCH  17  20
ATOM     20  O   UNL     1       3.697  22.625  20.738  1.00  0.00    -0.504 OA
ATOM     21  H   UNL     1       3.436  23.432  21.293  1.00  0.00     0.293 HD
ENDBRANCH  17  20
ENDBRANCH   1  12
BRANCH   2  22
ATOM     22  O   UNL     1       8.117  18.880  21.426  1.00  0.00    -0.502 OA
ATOM     23  H   UNL     1       8.895  18.857  20.778  1.00  0.00     0.293 HD
ENDBRANCH   2  22
BRANCH   6  24
ATOM     24  O   UNL     1      11.931  19.707  25.050  1.00  0.00    -0.507 OA
ATOM     25  H   UNL     1      12.108  19.100  24.263  1.00  0.00     0.293 HD
ENDBRANCH   6  24
BRANCH   8  26
ATOM     26  O   UNL     1       9.338  21.531  28.635  1.00  0.00    -0.508 OA
ATOM     27  H   UNL     1       8.808  22.361  28.874  1.00  0.00     0.293 HD
ENDBRANCH   8  26
TORSDOF 6
ENDMDL
MODEL 5
REMARK VINA RESULT:    -5.274      1.332      2.881
REMARK INTER + INTRA:          -6.674
REMARK INTER:                  -6.388
REMARK INTRA:                  -0.287
REMARK UNBOUND:                -0.321
REMARK SMILES O=c1c(O)c(-c2ccc(O)c(O)c2)oc2cc(O)cc(O)c12
REMARK SMILES IDX 5 1 3 2 2 3 1 4 22 5 20 6 19 7 17 8 16 9 15 10 14 11 6 12
REMARK SMILES IDX 7 13 8 14 9 15 13 16 11 17 10 18 12 20 4 22 21 24 18 26
REMARK H PARENT 10 19 12 21 4 23 21 25 18 27
REMARK Flexibility Score: inf
ROOT
ATOM      1  C   UNL     1       9.109  19.642  23.951  1.00  0.00     0.180 A 
ATOM      2  C   UNL     1       9.337  19.720  25.336  1.00  0.00     0.208 A 
ATOM      3  C   UNL     1      10.652  19.876  25.802  1.00  0.00     0.238 A 
ATOM      4  O   UNL     1      10.845  20.001  27.039  1.00  0.00    -0.285 OA
ATOM      5  C   UNL     1      11.724  19.934  24.879  1.00  0.00     0.111 A 
ATOM      6  C   UNL     1      13.100  20.050  25.241  1.00  0.00     0.134 A 
ATOM      7  C   UNL     1      14.064  20.230  24.242  1.00  0.00     0.093 A 
ATOM      8  C   UNL     1      13.712  20.234  22.893  1.00  0.00     0.123 A 
ATOM      9  C   UNL     1      12.376  20.062  22.524  1.00  0.00     0.094 A 
ATOM     10  C   UNL     1      11.386  19.915  23.501  1.00  0.00     0.146 A 
ATOM     11  O   UNL     1      10.128  19.765  23.108  1.00  0.00    -0.452 OA
ENDROOT
BRANCH   1  12
ATOM     12  C   UNL     1       7.753  19.452  23.386  1.00  0.00     0.025 A 
ATOM     13  C   UNL     1       7.342  18.168  22.994  1.00  0.00     0.016 A 
ATOM     14  C   UNL     1       6.060  17.962  22.477  1.00  0.00     0.051 A 
ATOM     15  C   UNL     1       5.166  19.034  22.360  1.00  0.00     0.157 A 
ATOM     16  C   UNL     1       6.846  20.521  23.284  1.00  0.00     0.062 A 
ATOM     17  C   UNL     1       5.558  20.315  22.768  1.00  0.00     0.158 A 
BRANCH  15  18
ATOM     18  O   UNL     1       3.887  18.833  21.843  1.00  0.00    -0.504 OA
ATOM     19  H   UNL     1       3.741  18.583  20.872  1.00  0.00     0.293 HD
ENDBRANCH  15  18
BRANCH  17  20
ATOM     20  O   UNL     1       4.662  21.377  22.662  1.00  0.00    -0.504 OA
ATOM     21  H   UNL     1       4.430  21.957  23.460  1.00  0.00     0.293 HD
ENDBRANCH  17  20
ENDBRANCH   1  12
BRANCH   2  22
ATOM     22  O   UNL     1       8.262  19.682  26.229  1.00  0.00    -0.502 OA
ATOM     23  H   UNL     1       7.776  18.824  26.459  1.00  0.00     0.293 HD
ENDBRANCH   2  22
BRANCH   6  24
ATOM     24  O   UNL     1      13.571  19.967  26.554  1.00  0.00    -0.507 OA
ATOM     25  H   UNL     1      13.035  20.210  27.374  1.00  0.00     0.293 HD
ENDBRANCH   6  24
BRANCH   8  26
ATOM     26  O   UNL     1      14.699  20.400  21.925  1.00  0.00    -0.508 OA
ATOM     27  H   UNL     1      15.500  19.779  21.871  1.00  0.00     0.293 HD
ENDBRANCH   8  26
TORSDOF 6
ENDMDL
MODEL 6
REMARK VINA RESULT:    -5.271      1.687      3.488
REMARK INTER + INTRA:          -6.670
REMARK INTER:                  -6.415
REMARK INTRA:                  -0.256
REMARK UNBOUND:                -0.321
REMARK SMILES O=c1c(O)c(-c2ccc(O)c(O)c2)oc2cc(O)cc(O)c12
REMARK SMILES IDX 5 1 3 2 2 3 1 4 22 5 20 6 19 7 17 8 16 9 15 10 14 11 6 12
REMARK SMILES IDX 7 13 8 14 9 15 13 16 11 17 10 18 12 20 4 22 21 24 18 26
REMARK H PARENT 10 19 12 21 4 23 21 25 18 27
REMARK Flexibility Score: inf
ROOT
ATOM      1  C   UNL     1       7.848  20.045  23.633  1.00  0.00     0.180 A 
ATOM      2  C   UNL     1       7.892  19.907  25.031  1.00  0.00     0.208 A 
ATOM      3  C   UNL     1       9.139  19.766  25.662  1.00  0.00     0.238 A 
ATOM      4  O   UNL     1       9.175  19.697  26.918  1.00  0.00    -0.285 OA
ATOM      5  C   UNL     1      10.323  19.746  24.887  1.00  0.00     0.111 A 
ATOM      6  C   UNL     1      11.636  19.568  25.418  1.00  0.00     0.134 A 
ATOM      7  C   UNL     1      12.745  19.697  24.573  1.00  0.00     0.093 A 
ATOM      8  C   UNL     1      12.588  19.934  23.208  1.00  0.00     0.123 A 
ATOM      9  C   UNL     1      11.306  20.051  22.668  1.00  0.00     0.094 A 
ATOM     10  C   UNL     1      10.180  19.962  23.492  1.00  0.00     0.146 A 
ATOM     11  O   UNL     1       8.980  20.090  22.940  1.00  0.00    -0.452 OA
ENDROOT
BRANCH   1  12
ATOM     12  C   UNL     1       6.571  20.174  22.894  1.00  0.00     0.025 A 
ATOM     13  C   UNL     1       5.885  21.398  22.909  1.00  0.00     0.016 A 
ATOM     14  C   UNL     1       4.688  21.549  22.202  1.00  0.00     0.051 A 
ATOM     15  C   UNL     1       4.171  20.481  21.458  1.00  0.00     0.157 A 
ATOM     16  C   UNL     1       6.057  19.111  22.129  1.00  0.00     0.062 A 
ATOM     17  C   UNL     1       4.858  19.262  21.418  1.00  0.00     0.158 A 
BRANCH  15  18
ATOM     18  O   UNL     1       2.977  20.626  20.753  1.00  0.00    -0.504 OA
ATOM     19  H   UNL     1       2.958  20.648  19.740  1.00  0.00     0.293 HD
ENDBRANCH  15  18
BRANCH  17  20
ATOM     20  O   UNL     1       4.346  18.206  20.665  1.00  0.00    -0.504 OA
ATOM     21  H   UNL     1       4.857  17.337  20.555  1.00  0.00     0.293 HD
ENDBRANCH  17  20
ENDBRANCH   1  12
BRANCH   2  22
ATOM     22  O   UNL     1       6.713  19.950  25.779  1.00  0.00    -0.502 OA
ATOM     23  H   UNL     1       6.362  19.148  26.288  1.00  0.00     0.293 HD
ENDBRANCH   2  22
BRANCH   6  24
ATOM     24  O   UNL     1      11.901  19.238  26.749  1.00  0.00    -0.507 OA
ATOM     25  H   UNL     1      12.315  18.370  27.055  1.00  0.00     0.293 HD
ENDBRANCH   6  24
BRANCH   8  26
ATOM     26  O   UNL     1      13.714  20.041  22.394  1.00  0.00    -0.508 OA
ATOM     27  H   UNL     1      14.303  20.865  22.410  1.00  0.00     0.293 HD
ENDBRANCH   8  26
TORSDOF 6
ENDMDL
MODEL 7
REMARK VINA RESULT:    -5.259      2.180      3.875
REMARK INTER + INTRA:          -6.656
REMARK INTER:                  -6.337
REMARK INTRA:                  -0.319
REMARK UNBOUND:                -0.321
REMARK SMILES O=c1c(O)c(-c2ccc(O)c(O)c2)oc2cc(O)cc(O)c12
REMARK SMILES IDX 5 1 3 2 2 3 1 4 22 5 20 6 19 7 17 8 16 9 15 10 14 11 6 12
REMARK SMILES IDX 7 13 8 14 9 15 13 16 11 17 10 18 12 20 4 22 21 24 18 26
REMARK H PARENT 10 19 12 21 4 23 21 25 18 27
REMARK Flexibility Score: inf
ROOT
ATOM      1  C   UNL     1       6.606  20.399  23.649  1.00  0.00     0.180 A 
ATOM      2  C   UNL     1       6.675  20.871  24.971  1.00  0.00     0.208 A 
ATOM      3  C   UNL     1       7.868  20.704  25.692  1.00  0.00     0.238 A 
ATOM      4  O   UNL     1       7.942  21.177  26.856  1.00  0.00    -0.285 OA
ATOM      5  C   UNL     1       8.971  20.052  25.089  1.00  0.00     0.111 A 
ATOM      6  C   UNL     1      10.214  19.794  25.740  1.00  0.00     0.134 A 
ATOM      7  C   UNL     1      11.280  19.260  25.006  1.00  0.00     0.093 A 
ATOM      8  C   UNL     1      11.129  18.916  23.663  1.00  0.00     0.123 A 
ATOM      9  C   UNL     1       9.899  19.110  23.031  1.00  0.00     0.094 A 
ATOM     10  C   UNL     1       8.827  19.674  23.729  1.00  0.00     0.146 A 
ATOM     11  O   UNL     1       7.678  19.851  23.089  1.00  0.00    -0.452 OA
ENDROOT
BRANCH   1  12
ATOM     12  C   UNL     1       5.374  20.516  22.834  1.00  0.00     0.025 A 
ATOM     13  C   UNL     1       4.440  19.469  22.843  1.00  0.00     0.016 A 
ATOM     14  C   UNL     1       3.261  19.566  22.097  1.00  0.00     0.051 A 
ATOM     15  C   UNL     1       2.994  20.718  21.347  1.00  0.00     0.157 A 
ATOM     16  C   UNL     1       5.093  21.678  22.095  1.00  0.00     0.062 A 
ATOM     17  C   UNL     1       3.909  21.778  21.349  1.00  0.00     0.158 A 
BRANCH  15  18
ATOM     18  O   UNL     1       1.821  20.818  20.602  1.00  0.00    -0.504 OA
ATOM     19  H   UNL     1       1.247  20.007  20.404  1.00  0.00     0.293 HD
ENDBRANCH  15  18
BRANCH  17  20
ATOM     20  O   UNL     1       3.634  22.928  20.612  1.00  0.00    -0.504 OA
ATOM     21  H   UNL     1       3.381  23.800  21.064  1.00  0.00     0.293 HD
ENDBRANCH  17  20
ENDBRANCH   1  12
BRANCH   2  22
ATOM     22  O   UNL     1       5.582  21.530  25.540  1.00  0.00    -0.502 OA
ATOM     23  H   UNL     1       5.515  21.715  26.534  1.00  0.00     0.293 HD
ENDBRANCH   2  22
BRANCH   6  24
ATOM     24  O   UNL     1      10.443  20.015  27.101  1.00  0.00    -0.507 OA
ATOM     25  H   UNL     1      11.312  20.350  27.491  1.00  0.00     0.293 HD
ENDBRANCH   6  24
BRANCH   8  26
ATOM     26  O   UNL     1      12.206  18.371  22.967  1.00  0.00    -0.508 OA
ATOM     27  H   UNL     1      12.323  18.520  21.971  1.00  0.00     0.293 HD
ENDBRANCH   8  26
TORSDOF 6
ENDMDL
MODEL 8
REMARK VINA RESULT:    -5.225      1.586      7.091
REMARK INTER + INTRA:          -6.616
REMARK INTER:                  -6.294
REMARK INTRA:                  -0.322
REMARK UNBOUND:                -0.321
REMARK SMILES O=c1c(O)c(-c2ccc(O)c(O)c2)oc2cc(O)cc(O)c12
REMARK SMILES IDX 5 1 3 2 2 3 1 4 22 5 20 6 19 7 17 8 16 9 15 10 14 11 6 12
REMARK SMILES IDX 7 13 8 14 9 15 13 16 11 17 10 18 12 20 4 22 21 24 18 26
REMARK H PARENT 10 19 12 21 4 23 21 25 18 27
REMARK Flexibility Score: inf
ROOT
ATOM      1  C   UNL     1       9.103  20.466  25.093  1.00  0.00     0.180 A 
ATOM      2  C   UNL     1       8.343  21.597  25.439  1.00  0.00     0.208 A 
ATOM      3  C   UNL     1       7.047  21.732  24.914  1.00  0.00     0.238 A 
ATOM      4  O   UNL     1       6.351  22.719  25.271  1.00  0.00    -0.285 OA
ATOM      5  C   UNL     1       6.535  20.746  24.037  1.00  0.00     0.111 A 
ATOM      6  C   UNL     1       5.252  20.803  23.416  1.00  0.00     0.134 A 
ATOM      7  C   UNL     1       4.797  19.708  22.670  1.00  0.00     0.093 A 
ATOM      8  C   UNL     1       5.603  18.588  22.470  1.00  0.00     0.123 A 
ATOM      9  C   UNL     1       6.884  18.547  23.025  1.00  0.00     0.094 A 
ATOM     10  C   UNL     1       7.352  19.609  23.803  1.00  0.00     0.146 A 
ATOM     11  O   UNL     1       8.571  19.526  24.321  1.00  0.00    -0.452 OA
ENDROOT
BRANCH   1  12
ATOM     12  C   UNL     1      10.486  20.266  25.586  1.00  0.00     0.025 A 
ATOM     13  C   UNL     1      11.563  20.771  24.843  1.00  0.00     0.016 A 
ATOM     14  C   UNL     1      12.875  20.612  25.299  1.00  0.00     0.051 A 
ATOM     15  C   UNL     1      13.125  19.959  26.513  1.00  0.00     0.157 A 
ATOM     16  C   UNL     1      10.740  19.628  26.814  1.00  0.00     0.062 A 
ATOM     17  C   UNL     1      12.056  19.471  27.273  1.00  0.00     0.158 A 
BRANCH  15  18
ATOM     18  O   UNL     1      14.431  19.797  26.971  1.00  0.00    -0.504 OA
ATOM     19  H   UNL     1      14.651  19.799  27.960  1.00  0.00     0.293 HD
ENDBRANCH  15  18
BRANCH  17  20
ATOM     20  O   UNL     1      12.307  18.833  28.487  1.00  0.00    -0.504 OA
ATOM     21  H   UNL     1      11.927  19.184  29.359  1.00  0.00     0.293 HD
ENDBRANCH  17  20
ENDBRANCH   1  12
BRANCH   2  22
ATOM     22  O   UNL     1       8.859  22.548  26.323  1.00  0.00    -0.502 OA
ATOM     23  H   UNL     1       8.628  23.531  26.261  1.00  0.00     0.293 HD
ENDBRANCH   2  22
BRANCH   6  24
ATOM     24  O   UNL     1       4.404  21.912  23.475  1.00  0.00    -0.507 OA
ATOM     25  H   UNL     1       4.509  22.683  24.118  1.00  0.00     0.293 HD
ENDBRANCH   6  24
BRANCH   8  26
ATOM     26  O   UNL     1       5.125  17.523  21.709  1.00  0.00    -0.508 OA
ATOM     27  H   UNL     1       4.213  17.116  21.882  1.00  0.00     0.293 HD
ENDBRANCH   8  26
TORSDOF 6
ENDMDL
MODEL 9
REMARK VINA RESULT:    -5.178      2.704      7.475
REMARK INTER + INTRA:          -6.559
REMARK INTER:                  -6.227
REMARK INTRA:                  -0.332
REMARK UNBOUND:                -0.321
REMARK SMILES O=c1c(O)c(-c2ccc(O)c(O)c2)oc2cc(O)cc(O)c12
REMARK SMILES IDX 5 1 3 2 2 3 1 4 22 5 20 6 19 7 17 8 16 9 15 10 14 11 6 12
REMARK SMILES IDX 7 13 8 14 9 15 13 16 11 17 10 18 12 20 4 22 21 24 18 26
REMARK H PARENT 10 19 12 21 4 23 21 25 18 27
REMARK Flexibility Score: inf
ROOT
ATOM      1  C   UNL     1      13.501  20.132  23.966  1.00  0.00     0.180 A 
ATOM      2  C   UNL     1      12.926  20.495  22.735  1.00  0.00     0.208 A 
ATOM      3  C   UNL     1      11.528  20.483  22.607  1.00  0.00     0.238 A 
ATOM      4  O   UNL     1      11.017  20.862  21.521  1.00  0.00    -0.285 OA
ATOM      5  C   UNL     1      10.723  20.092  23.704  1.00  0.00     0.111 A 
ATOM      6  C   UNL     1       9.299  20.005  23.674  1.00  0.00     0.134 A 
ATOM      7  C   UNL     1       8.598  19.733  24.856  1.00  0.00     0.093 A 
ATOM      8  C   UNL     1       9.271  19.483  26.051  1.00  0.00     0.123 A 
ATOM      9  C   UNL     1      10.667  19.507  26.079  1.00  0.00     0.094 A 
ATOM     10  C   UNL     1      11.393  19.811  24.923  1.00  0.00     0.146 A 
ATOM     11  O   UNL     1      12.717  19.834  24.995  1.00  0.00    -0.452 OA
ENDROOT
BRANCH   1  12
ATOM     12  C   UNL     1      14.968  20.097  24.170  1.00  0.00     0.025 A 
ATOM     13  C   UNL     1      15.612  21.207  24.736  1.00  0.00     0.016 A 
ATOM     14  C   UNL     1      16.993  21.188  24.957  1.00  0.00     0.051 A 
ATOM     15  C   UNL     1      17.743  20.051  24.629  1.00  0.00     0.157 A 
ATOM     16  C   UNL     1      15.722  18.951  23.860  1.00  0.00     0.062 A 
ATOM     17  C   UNL     1      17.107  18.930  24.083  1.00  0.00     0.158 A 
BRANCH  15  18
ATOM     18  O   UNL     1      19.120  20.028  24.845  1.00  0.00    -0.504 OA
ATOM     19  H   UNL     1      19.517  20.226  25.757  1.00  0.00     0.293 HD
ENDBRANCH  15  18
BRANCH  17  20
ATOM     20  O   UNL     1      17.855  17.796  23.770  1.00  0.00    -0.504 OA
ATOM     21  H   UNL     1      18.793  17.663  24.131  1.00  0.00     0.293 HD
ENDBRANCH  17  20
ENDBRANCH   1  12
BRANCH   2  22
ATOM     22  O   UNL     1      13.738  20.899  21.672  1.00  0.00    -0.502 OA
ATOM     23  H   UNL     1      14.660  21.295  21.810  1.00  0.00     0.293 HD
ENDBRANCH   2  22
BRANCH   6  24
ATOM     24  O   UNL     1       8.533  20.147  22.514  1.00  0.00    -0.507 OA
ATOM     25  H   UNL     1       7.539  19.979  22.456  1.00  0.00     0.293 HD
ENDBRANCH   6  24
BRANCH   8  26
ATOM     26  O   UNL     1       8.543  19.200  27.204  1.00  0.00    -0.508 OA
ATOM     27  H   UNL     1       8.049  18.322  27.317  1.00  0.00     0.293 HD
ENDBRANCH   8  26
TORSDOF 6
ENDMDL
