MODEL 1
REMARK VINA RESULT:    -5.972      0.000      0.000
REMARK INTER + INTRA:         -14.602
REMARK INTER:                 -12.955
REMARK INTRA:                  -1.647
REMARK UNBOUND:                -1.647
REMARK SMILES CCCCCCCCCCCCCCCCCCCCCC(=O)[O-]
REMARK SMILES IDX 12 1 11 2 10 3 9 4 8 5 7 6 6 7 5 8 4 9 3 10 2 11 1 12 13 13
REMARK SMILES IDX 14 14 15 15 16 16 17 17 18 18 19 19 20 20 21 21 22 22 23 23
REMARK SMILES IDX 24 24
REMARK H PARENT
REMARK Flexibility Score: inf
ROOT
ATOM      1  C   UNL     1      97.960 125.101 126.359  1.00  0.00     0.000 C 
ENDROOT
BRANCH   1   2
ATOM      2  C   UNL     1      98.048 126.378 125.510  1.00  0.00     0.000 C 
BRANCH   2   3
ATOM      3  C   UNL     1      99.454 127.003 125.526  1.00  0.00     0.000 C 
BRANCH   3   4
ATOM      4  C   UNL     1      99.462 128.438 126.081  1.00  0.00    -0.000 C 
BRANCH   4   5
ATOM      5  C   UNL     1     100.864 129.034 126.310  1.00  0.00    -0.000 C 
BRANCH   5   6
ATOM      6  C   UNL     1     101.048 129.780 127.647  1.00  0.00    -0.000 C 
BRANCH   6   7
ATOM      7  C   UNL     1     100.923 128.873 128.889  1.00  0.00    -0.000 C 
BRANCH   7   8
ATOM      8  C   UNL     1     100.480 129.650 130.143  1.00  0.00    -0.000 C 
BRANCH   8   9
ATOM      9  C   UNL     1      99.065 129.269 130.606  1.00  0.00    -0.000 C 
BRANCH   9  10
ATOM     10  C   UNL     1      98.423 128.188 129.718  1.00  0.00    -0.000 C 
BRANCH  10  11
ATOM     11  C   UNL     1      97.167 128.690 128.990  1.00  0.00    -0.003 C 
ATOM     12  C   UNL     1      97.160 130.209 128.805  1.00  0.00     0.004 C 
ENDBRANCH  10  11
ENDBRANCH   9  10
ENDBRANCH   8   9
ENDBRANCH   7   8
ENDBRANCH   6   7
ENDBRANCH   5   6
ENDBRANCH   4   5
ENDBRANCH   3   4
ENDBRANCH   2   3
ENDBRANCH   1   2
BRANCH   1  13
ATOM     13  C   UNL     1      96.948 124.090 125.801  1.00  0.00     0.000 C 
BRANCH  13  14
ATOM     14  C   UNL     1      96.418 124.537 124.433  1.00  0.00     0.000 C 
BRANCH  14  15
ATOM     15  C   UNL     1      95.216 123.684 124.002  1.00  0.00     0.000 C 
BRANCH  15  16
ATOM     16  C   UNL     1      95.565 122.699 122.866  1.00  0.00     0.000 C 
BRANCH  16  17
ATOM     17  C   UNL     1      94.525 121.579 122.674  1.00  0.00     0.000 C 
BRANCH  17  18
ATOM     18  C   UNL     1      93.901 121.505 121.268  1.00  0.00     0.000 C 
BRANCH  18  19
ATOM     19  C   UNL     1      94.890 121.177 120.129  1.00  0.00     0.000 C 
BRANCH  19  20
ATOM     20  C   UNL     1      94.250 121.006 118.739  1.00  0.00     0.006 C 
BRANCH  20  21
ATOM     21  C   UNL     1      92.843 121.611 118.652  1.00  0.00     0.053 C 
BRANCH  21  22
ATOM     22  C   UNL     1      92.623 122.224 117.305  1.00  0.00     0.041 C 
ATOM     23  O   UNL     1      92.366 121.495 116.310  1.00  0.00    -0.550 OA
ATOM     24  O   UNL     1      92.654 123.606 117.157  1.00  0.00    -0.550 OA
ENDBRANCH  21  22
ENDBRANCH  20  21
ENDBRANCH  19  20
ENDBRANCH  18  19
ENDBRANCH  17  18
ENDBRANCH  16  17
ENDBRANCH  15  16
ENDBRANCH  14  15
ENDBRANCH  13  14
ENDBRANCH   1  13
TORSDOF 20
ENDMDL
MODEL 2
REMARK VINA RESULT:    -5.920      3.875     10.876
REMARK INTER + INTRA:         -14.488
REMARK INTER:                 -12.938
REMARK INTRA:                  -1.550
REMARK UNBOUND:                -1.647
REMARK SMILES CCCCCCCCCCCCCCCCCCCCCC(=O)[O-]
REMARK SMILES IDX 12 1 11 2 10 3 9 4 8 5 7 6 6 7 5 8 4 9 3 10 2 11 1 12 13 13
REMARK SMILES IDX 14 14 15 15 16 16 17 17 18 18 19 19 20 20 21 21 22 22 23 23
REMARK SMILES IDX 24 24
REMARK H PARENT
REMARK Flexibility Score: inf
ROOT
ATOM      1  C   UNL     1      97.262 124.962 125.764  1.00  0.00     0.000 C 
ENDROOT
BRANCH   1   2
ATOM      2  C   UNL     1      96.597 124.949 124.379  1.00  0.00     0.000 C 
BRANCH   2   3
ATOM      3  C   UNL     1      95.713 123.709 124.161  1.00  0.00     0.000 C 
BRANCH   3   4
ATOM      4  C   UNL     1      96.449 122.573 123.428  1.00  0.00    -0.000 C 
BRANCH   4   5
ATOM      5  C   UNL     1      95.762 122.084 122.139  1.00  0.00    -0.000 C 
BRANCH   5   6
ATOM      6  C   UNL     1      94.221 122.088 122.177  1.00  0.00    -0.000 C 
BRANCH   6   7
ATOM      7  C   UNL     1      93.565 121.383 120.971  1.00  0.00    -0.000 C 
BRANCH   7   8
ATOM      8  C   UNL     1      94.587 121.004 119.883  1.00  0.00    -0.000 C 
BRANCH   8   9
ATOM      9  C   UNL     1      94.054 121.243 118.461  1.00  0.00    -0.000 C 
BRANCH   9  10
ATOM     10  C   UNL     1      92.645 121.864 118.455  1.00  0.00    -0.000 C 
BRANCH  10  11
ATOM     11  C   UNL     1      92.103 122.083 117.034  1.00  0.00    -0.003 C 
ATOM     12  C   UNL     1      92.666 121.080 116.026  1.00  0.00     0.004 C 
ENDBRANCH  10  11
ENDBRANCH   9  10
ENDBRANCH   8   9
ENDBRANCH   7   8
ENDBRANCH   6   7
ENDBRANCH   5   6
ENDBRANCH   4   5
ENDBRANCH   3   4
ENDBRANCH   2   3
ENDBRANCH   1   2
BRANCH   1  13
ATOM     13  C   UNL     1      97.656 123.557 126.243  1.00  0.00     0.000 C 
BRANCH  13  14
ATOM     14  C   UNL     1      98.979 123.589 127.019  1.00  0.00     0.000 C 
BRANCH  14  15
ATOM     15  C   UNL     1      99.239 124.985 127.606  1.00  0.00     0.000 C 
BRANCH  15  16
ATOM     16  C   UNL     1      98.755 125.113 129.066  1.00  0.00     0.000 C 
BRANCH  16  17
ATOM     17  C   UNL     1      97.533 126.036 129.236  1.00  0.00     0.000 C 
BRANCH  17  18
ATOM     18  C   UNL     1      97.848 127.543 129.207  1.00  0.00     0.000 C 
BRANCH  18  19
ATOM     19  C   UNL     1      97.710 128.215 127.824  1.00  0.00     0.000 C 
BRANCH  19  20
ATOM     20  C   UNL     1      99.033 128.679 127.188  1.00  0.00     0.006 C 
BRANCH  20  21
ATOM     21  C   UNL     1      99.250 128.108 125.781  1.00  0.00     0.053 C 
BRANCH  21  22
ATOM     22  C   UNL     1     100.704 127.845 125.545  1.00  0.00     0.041 C 
ATOM     23  O   UNL     1     101.555 128.151 126.421  1.00  0.00    -0.550 OA
ATOM     24  O   UNL     1     101.115 127.218 124.374  1.00  0.00    -0.550 OA
ENDBRANCH  21  22
ENDBRANCH  20  21
ENDBRANCH  19  20
ENDBRANCH  18  19
ENDBRANCH  17  18
ENDBRANCH  16  17
ENDBRANCH  15  16
ENDBRANCH  14  15
ENDBRANCH  13  14
ENDBRANCH   1  13
TORSDOF 20
ENDMDL
MODEL 3
REMARK VINA RESULT:    -5.900      4.605     11.570
REMARK INTER + INTRA:         -14.445
REMARK INTER:                 -12.926
REMARK INTRA:                  -1.519
REMARK UNBOUND:                -1.647
REMARK SMILES CCCCCCCCCCCCCCCCCCCCCC(=O)[O-]
REMARK SMILES IDX 12 1 11 2 10 3 9 4 8 5 7 6 6 7 5 8 4 9 3 10 2 11 1 12 13 13
REMARK SMILES IDX 14 14 15 15 16 16 17 17 18 18 19 19 20 20 21 21 22 22 23 23
REMARK SMILES IDX 24 24
REMARK H PARENT
REMARK Flexibility Score: inf
ROOT
ATOM      1  C   UNL     1      97.397 124.090 126.389  1.00  0.00     0.000 C 
ENDROOT
BRANCH   1   2
ATOM      2  C   UNL     1      96.839 124.754 125.121  1.00  0.00     0.000 C 
BRANCH   2   3
ATOM      3  C   UNL     1      95.824 123.862 124.386  1.00  0.00     0.000 C 
BRANCH   3   4
ATOM      4  C   UNL     1      96.489 122.690 123.642  1.00  0.00    -0.000 C 
BRANCH   4   5
ATOM      5  C   UNL     1      95.862 122.354 122.275  1.00  0.00    -0.000 C 
BRANCH   5   6
ATOM      6  C   UNL     1      94.392 121.895 122.325  1.00  0.00    -0.000 C 
BRANCH   6   7
ATOM      7  C   UNL     1      93.954 121.069 121.097  1.00  0.00    -0.000 C 
BRANCH   7   8
ATOM      8  C   UNL     1      94.943 121.189 119.923  1.00  0.00    -0.000 C 
BRANCH   8   9
ATOM      9  C   UNL     1      94.277 120.943 118.560  1.00  0.00    -0.000 C 
BRANCH   9  10
ATOM     10  C   UNL     1      92.891 121.603 118.452  1.00  0.00    -0.000 C 
BRANCH  10  11
ATOM     11  C   UNL     1      92.554 122.038 117.018  1.00  0.00    -0.003 C 
ATOM     12  C   UNL     1      92.593 120.876 116.024  1.00  0.00     0.004 C 
ENDBRANCH  10  11
ENDBRANCH   9  10
ENDBRANCH   8   9
ENDBRANCH   7   8
ENDBRANCH   6   7
ENDBRANCH   5   6
ENDBRANCH   4   5
ENDBRANCH   3   4
ENDBRANCH   2   3
ENDBRANCH   1   2
BRANCH   1  13
ATOM     13  C   UNL     1      98.930 124.157 126.465  1.00  0.00     0.000 C 
BRANCH  13  14
ATOM     14  C   UNL     1      99.389 125.362 127.295  1.00  0.00     0.000 C 
BRANCH  14  15
ATOM     15  C   UNL     1     100.489 126.148 126.565  1.00  0.00     0.000 C 
BRANCH  15  16
ATOM     16  C   UNL     1      99.921 127.118 125.508  1.00  0.00     0.000 C 
BRANCH  16  17
ATOM     17  C   UNL     1     100.187 128.603 125.822  1.00  0.00     0.000 C 
BRANCH  17  18
ATOM     18  C   UNL     1     100.903 128.866 127.160  1.00  0.00     0.000 C 
BRANCH  18  19
ATOM     19  C   UNL     1     100.051 129.579 128.230  1.00  0.00     0.000 C 
BRANCH  19  20
ATOM     20  C   UNL     1      98.840 128.777 128.742  1.00  0.00     0.006 C 
BRANCH  20  21
ATOM     21  C   UNL     1      97.504 129.482 128.478  1.00  0.00     0.053 C 
BRANCH  21  22
ATOM     22  C   UNL     1      96.884 129.924 129.766  1.00  0.00     0.041 C 
ATOM     23  O   UNL     1      95.699 130.349 129.787  1.00  0.00    -0.550 OA
ATOM     24  O   UNL     1      97.601 129.824 130.952  1.00  0.00    -0.550 OA
ENDBRANCH  21  22
ENDBRANCH  20  21
ENDBRANCH  19  20
ENDBRANCH  18  19
ENDBRANCH  17  18
ENDBRANCH  16  17
ENDBRANCH  15  16
ENDBRANCH  14  15
ENDBRANCH  13  14
ENDBRANCH   1  13
TORSDOF 20
ENDMDL
MODEL 4
REMARK VINA RESULT:    -5.865      4.228     11.364
REMARK INTER + INTRA:         -14.369
REMARK INTER:                 -12.874
REMARK INTRA:                  -1.496
REMARK UNBOUND:                -1.647
REMARK SMILES CCCCCCCCCCCCCCCCCCCCCC(=O)[O-]
REMARK SMILES IDX 12 1 11 2 10 3 9 4 8 5 7 6 6 7 5 8 4 9 3 10 2 11 1 12 13 13
REMARK SMILES IDX 14 14 15 15 16 16 17 17 18 18 19 19 20 20 21 21 22 22 23 23
REMARK SMILES IDX 24 24
REMARK H PARENT
REMARK Flexibility Score: inf
ROOT
ATOM      1  C   UNL     1      97.995 126.780 125.428  1.00  0.00     0.000 C 
ENDROOT
BRANCH   1   2
ATOM      2  C   UNL     1      97.535 125.315 125.469  1.00  0.00     0.000 C 
BRANCH   2   3
ATOM      3  C   UNL     1      96.539 124.978 124.345  1.00  0.00     0.000 C 
BRANCH   3   4
ATOM      4  C   UNL     1      95.903 123.586 124.510  1.00  0.00    -0.000 C 
BRANCH   4   5
ATOM      5  C   UNL     1      96.429 122.515 123.535  1.00  0.00    -0.000 C 
BRANCH   5   6
ATOM      6  C   UNL     1      95.659 122.407 122.205  1.00  0.00    -0.000 C 
BRANCH   6   7
ATOM      7  C   UNL     1      94.242 121.815 122.350  1.00  0.00    -0.000 C 
BRANCH   7   8
ATOM      8  C   UNL     1      93.694 121.266 121.020  1.00  0.00    -0.000 C 
BRANCH   8   9
ATOM      9  C   UNL     1      94.792 121.073 119.963  1.00  0.00    -0.000 C 
BRANCH   9  10
ATOM     10  C   UNL     1      94.261 121.215 118.525  1.00  0.00    -0.000 C 
BRANCH  10  11
ATOM     11  C   UNL     1      92.776 121.610 118.481  1.00  0.00    -0.003 C 
ATOM     12  C   UNL     1      92.396 122.334 117.189  1.00  0.00     0.004 C 
ENDBRANCH  10  11
ENDBRANCH   9  10
ENDBRANCH   8   9
ENDBRANCH   7   8
ENDBRANCH   6   7
ENDBRANCH   5   6
ENDBRANCH   4   5
ENDBRANCH   3   4
ENDBRANCH   2   3
ENDBRANCH   1   2
BRANCH   1  13
ATOM     13  C   UNL     1      99.523 126.921 125.496  1.00  0.00     0.000 C 
BRANCH  13  14
ATOM     14  C   UNL     1      99.928 128.302 126.026  1.00  0.00     0.000 C 
BRANCH  14  15
ATOM     15  C   UNL     1     101.400 128.315 126.462  1.00  0.00     0.000 C 
BRANCH  15  16
ATOM     16  C   UNL     1     101.565 128.437 127.991  1.00  0.00     0.000 C 
BRANCH  16  17
ATOM     17  C   UNL     1     101.141 129.808 128.554  1.00  0.00     0.000 C 
BRANCH  17  18
ATOM     18  C   UNL     1     100.520 129.768 129.962  1.00  0.00     0.000 C 
BRANCH  18  19
ATOM     19  C   UNL     1      99.025 129.388 130.008  1.00  0.00     0.000 C 
BRANCH  19  20
ATOM     20  C   UNL     1      98.184 129.900 128.825  1.00  0.00     0.006 C 
BRANCH  20  21
ATOM     21  C   UNL     1      97.108 128.900 128.382  1.00  0.00     0.053 C 
BRANCH  21  22
ATOM     22  C   UNL     1      96.186 128.591 129.518  1.00  0.00     0.041 C 
ATOM     23  O   UNL     1      95.955 127.395 129.841  1.00  0.00    -0.550 OA
ATOM     24  O   UNL     1      95.616 129.624 130.253  1.00  0.00    -0.550 OA
ENDBRANCH  21  22
ENDBRANCH  20  21
ENDBRANCH  19  20
ENDBRANCH  18  19
ENDBRANCH  17  18
ENDBRANCH  16  17
ENDBRANCH  15  16
ENDBRANCH  14  15
ENDBRANCH  13  14
ENDBRANCH   1  13
TORSDOF 20
ENDMDL
MODEL 5
REMARK VINA RESULT:    -5.839      4.485     11.005
REMARK INTER + INTRA:         -14.312
REMARK INTER:                 -12.233
REMARK INTRA:                  -2.079
REMARK UNBOUND:                -1.647
REMARK SMILES CCCCCCCCCCCCCCCCCCCCCC(=O)[O-]
REMARK SMILES IDX 12 1 11 2 10 3 9 4 8 5 7 6 6 7 5 8 4 9 3 10 2 11 1 12 13 13
REMARK SMILES IDX 14 14 15 15 16 16 17 17 18 18 19 19 20 20 21 21 22 22 23 23
REMARK SMILES IDX 24 24
REMARK H PARENT
REMARK Flexibility Score: inf
ROOT
ATOM      1  C   UNL     1      97.770 126.187 126.037  1.00  0.00     0.000 C 
ENDROOT
BRANCH   1   2
ATOM      2  C   UNL     1      97.882 124.731 126.513  1.00  0.00     0.000 C 
BRANCH   2   3
ATOM      3  C   UNL     1      97.169 123.746 125.571  1.00  0.00     0.000 C 
BRANCH   3   4
ATOM      4  C   UNL     1      96.199 124.444 124.601  1.00  0.00    -0.000 C 
BRANCH   4   5
ATOM      5  C   UNL     1      95.393 123.492 123.697  1.00  0.00    -0.000 C 
BRANCH   5   6
ATOM      6  C   UNL     1      96.222 122.401 122.992  1.00  0.00    -0.000 C 
BRANCH   6   7
ATOM      7  C   UNL     1      95.437 121.616 121.919  1.00  0.00    -0.000 C 
BRANCH   7   8
ATOM      8  C   UNL     1      93.949 122.010 121.872  1.00  0.00    -0.000 C 
BRANCH   8   9
ATOM      9  C   UNL     1      93.249 121.525 120.593  1.00  0.00    -0.000 C 
BRANCH   9  10
ATOM     10  C   UNL     1      94.244 121.155 119.478  1.00  0.00    -0.000 C 
BRANCH  10  11
ATOM     11  C   UNL     1      93.600 121.168 118.084  1.00  0.00    -0.003 C 
ATOM     12  C   UNL     1      92.583 122.298 117.913  1.00  0.00     0.004 C 
ENDBRANCH  10  11
ENDBRANCH   9  10
ENDBRANCH   8   9
ENDBRANCH   7   8
ENDBRANCH   6   7
ENDBRANCH   5   6
ENDBRANCH   4   5
ENDBRANCH   3   4
ENDBRANCH   2   3
ENDBRANCH   1   2
BRANCH   1  13
ATOM     13  C   UNL     1      99.110 126.750 125.537  1.00  0.00     0.000 C 
BRANCH  13  14
ATOM     14  C   UNL     1     100.290 126.080 126.252  1.00  0.00     0.000 C 
BRANCH  14  15
ATOM     15  C   UNL     1     101.625 126.490 125.612  1.00  0.00     0.000 C 
BRANCH  15  16
ATOM     16  C   UNL     1     101.436 127.366 124.356  1.00  0.00     0.000 C 
BRANCH  16  17
ATOM     17  C   UNL     1     101.985 128.797 124.508  1.00  0.00     0.000 C 
BRANCH  17  18
ATOM     18  C   UNL     1     101.990 129.341 125.948  1.00  0.00     0.000 C 
BRANCH  18  19
ATOM     19  C   UNL     1     100.687 130.040 126.389  1.00  0.00     0.000 C 
BRANCH  19  20
ATOM     20  C   UNL     1     100.310 129.844 127.869  1.00  0.00     0.006 C 
BRANCH  20  21
ATOM     21  C   UNL     1      98.835 129.469 128.063  1.00  0.00     0.053 C 
BRANCH  21  22
ATOM     22  C   UNL     1      98.686 128.515 129.205  1.00  0.00     0.041 C 
ATOM     23  O   UNL     1      99.322 127.428 129.211  1.00  0.00    -0.550 OA
ATOM     24  O   UNL     1      97.878 128.846 130.287  1.00  0.00    -0.550 OA
ENDBRANCH  21  22
ENDBRANCH  20  21
ENDBRANCH  19  20
ENDBRANCH  18  19
ENDBRANCH  17  18
ENDBRANCH  16  17
ENDBRANCH  15  16
ENDBRANCH  14  15
ENDBRANCH  13  14
ENDBRANCH   1  13
TORSDOF 20
ENDMDL
MODEL 6
REMARK VINA RESULT:    -5.770      2.075      4.179
REMARK INTER + INTRA:         -14.164
REMARK INTER:                 -11.290
REMARK INTRA:                  -2.874
REMARK UNBOUND:                -1.647
REMARK SMILES CCCCCCCCCCCCCCCCCCCCCC(=O)[O-]
REMARK SMILES IDX 12 1 11 2 10 3 9 4 8 5 7 6 6 7 5 8 4 9 3 10 2 11 1 12 13 13
REMARK SMILES IDX 14 14 15 15 16 16 17 17 18 18 19 19 20 20 21 21 22 22 23 23
REMARK SMILES IDX 24 24
REMARK H PARENT
REMARK Flexibility Score: inf
ROOT
ATOM      1  C   UNL     1      98.065 127.622 127.384  1.00  0.00     0.000 C 
ENDROOT
BRANCH   1   2
ATOM      2  C   UNL     1      98.515 128.880 128.143  1.00  0.00     0.000 C 
BRANCH   2   3
ATOM      3  C   UNL     1     100.046 128.995 128.241  1.00  0.00     0.000 C 
BRANCH   3   4
ATOM      4  C   UNL     1     100.592 130.270 127.575  1.00  0.00    -0.000 C 
BRANCH   4   5
ATOM      5  C   UNL     1     101.070 130.087 126.121  1.00  0.00    -0.000 C 
BRANCH   5   6
ATOM      6  C   UNL     1     101.986 128.871 125.883  1.00  0.00    -0.000 C 
BRANCH   6   7
ATOM      7  C   UNL     1     101.696 128.120 124.566  1.00  0.00    -0.000 C 
BRANCH   7   8
ATOM      8  C   UNL     1     101.746 126.591 124.737  1.00  0.00    -0.000 C 
BRANCH   8   9
ATOM      9  C   UNL     1     101.744 126.160 126.212  1.00  0.00    -0.000 C 
BRANCH   9  10
ATOM     10  C   UNL     1     101.729 124.631 126.382  1.00  0.00    -0.000 C 
BRANCH  10  11
ATOM     11  C   UNL     1     101.042 124.188 127.683  1.00  0.00    -0.003 C 
ATOM     12  C   UNL     1     100.735 125.360 128.617  1.00  0.00     0.004 C 
ENDBRANCH  10  11
ENDBRANCH   9  10
ENDBRANCH   8   9
ENDBRANCH   7   8
ENDBRANCH   6   7
ENDBRANCH   5   6
ENDBRANCH   4   5
ENDBRANCH   3   4
ENDBRANCH   2   3
ENDBRANCH   1   2
BRANCH   1  13
ATOM     13  C   UNL     1      98.332 127.717 125.874  1.00  0.00     0.000 C 
BRANCH  13  14
ATOM     14  C   UNL     1      97.911 126.428 125.157  1.00  0.00     0.000 C 
BRANCH  14  15
ATOM     15  C   UNL     1      97.821 125.254 126.143  1.00  0.00     0.000 C 
BRANCH  15  16
ATOM     16  C   UNL     1      96.837 124.161 125.676  1.00  0.00     0.000 C 
BRANCH  16  17
ATOM     17  C   UNL     1      96.145 124.481 124.336  1.00  0.00     0.000 C 
BRANCH  17  18
ATOM     18  C   UNL     1      95.537 123.265 123.613  1.00  0.00     0.000 C 
BRANCH  18  19
ATOM     19  C   UNL     1      94.021 123.069 123.823  1.00  0.00     0.000 C 
BRANCH  19  20
ATOM     20  C   UNL     1      93.315 122.231 122.741  1.00  0.00     0.006 C 
BRANCH  20  21
ATOM     21  C   UNL     1      94.259 121.248 122.038  1.00  0.00     0.053 C 
BRANCH  21  22
ATOM     22  C   UNL     1      94.039 121.282 120.559  1.00  0.00     0.041 C 
ATOM     23  O   UNL     1      92.936 121.670 120.090  1.00  0.00    -0.550 OA
ATOM     24  O   UNL     1      95.068 120.928 119.694  1.00  0.00    -0.550 OA
ENDBRANCH  21  22
ENDBRANCH  20  21
ENDBRANCH  19  20
ENDBRANCH  18  19
ENDBRANCH  17  18
ENDBRANCH  16  17
ENDBRANCH  15  16
ENDBRANCH  14  15
ENDBRANCH  13  14
ENDBRANCH   1  13
TORSDOF 20
ENDMDL
MODEL 7
REMARK VINA RESULT:    -5.622      1.008      2.160
REMARK INTER + INTRA:         -13.842
REMARK INTER:                 -12.014
REMARK INTRA:                  -1.828
REMARK UNBOUND:                -1.647
REMARK SMILES CCCCCCCCCCCCCCCCCCCCCC(=O)[O-]
REMARK SMILES IDX 12 1 11 2 10 3 9 4 8 5 7 6 6 7 5 8 4 9 3 10 2 11 1 12 13 13
REMARK SMILES IDX 14 14 15 15 16 16 17 17 18 18 19 19 20 20 21 21 22 22 23 23
REMARK SMILES IDX 24 24
REMARK H PARENT
REMARK Flexibility Score: inf
ROOT
ATOM      1  C   UNL     1      99.786 126.840 125.825  1.00  0.00     0.000 C 
ENDROOT
BRANCH   1   2
ATOM      2  C   UNL     1     100.426 127.708 124.730  1.00  0.00     0.000 C 
BRANCH   2   3
ATOM      3  C   UNL     1     101.091 128.975 125.294  1.00  0.00     0.000 C 
BRANCH   3   4
ATOM      4  C   UNL     1     100.304 129.591 126.465  1.00  0.00    -0.000 C 
BRANCH   4   5
ATOM      5  C   UNL     1     101.175 130.136 127.613  1.00  0.00    -0.000 C 
BRANCH   5   6
ATOM      6  C   UNL     1     101.819 129.063 128.511  1.00  0.00    -0.000 C 
BRANCH   6   7
ATOM      7  C   UNL     1     100.866 128.492 129.582  1.00  0.00    -0.000 C 
BRANCH   7   8
ATOM      8  C   UNL     1     100.179 129.595 130.408  1.00  0.00    -0.000 C 
BRANCH   8   9
ATOM      9  C   UNL     1      98.673 129.346 130.590  1.00  0.00    -0.000 C 
BRANCH   9  10
ATOM     10  C   UNL     1      98.052 128.589 129.403  1.00  0.00    -0.000 C 
BRANCH  10  11
ATOM     11  C   UNL     1      97.101 129.467 128.575  1.00  0.00    -0.003 C 
ATOM     12  C   UNL     1      96.242 130.388 129.442  1.00  0.00     0.004 C 
ENDBRANCH  10  11
ENDBRANCH   9  10
ENDBRANCH   8   9
ENDBRANCH   7   8
ENDBRANCH   6   7
ENDBRANCH   5   6
ENDBRANCH   4   5
ENDBRANCH   3   4
ENDBRANCH   2   3
ENDBRANCH   1   2
BRANCH   1  13
ATOM     13  C   UNL     1      98.317 126.504 125.528  1.00  0.00     0.000 C 
BRANCH  13  14
ATOM     14  C   UNL     1      97.781 125.460 126.515  1.00  0.00     0.000 C 
BRANCH  14  15
ATOM     15  C   UNL     1      97.203 124.246 125.772  1.00  0.00     0.000 C 
BRANCH  15  16
ATOM     16  C   UNL     1      96.508 124.636 124.450  1.00  0.00     0.000 C 
BRANCH  16  17
ATOM     17  C   UNL     1      95.243 123.810 124.146  1.00  0.00     0.000 C 
BRANCH  17  18
ATOM     18  C   UNL     1      95.455 122.627 123.184  1.00  0.00     0.000 C 
BRANCH  18  19
ATOM     19  C   UNL     1      94.165 121.909 122.734  1.00  0.00     0.000 C 
BRANCH  19  20
ATOM     20  C   UNL     1      94.166 121.418 121.275  1.00  0.00     0.006 C 
BRANCH  20  21
ATOM     21  C   UNL     1      92.911 121.840 120.503  1.00  0.00     0.053 C 
BRANCH  21  22
ATOM     22  C   UNL     1      93.060 121.519 119.049  1.00  0.00     0.041 C 
ATOM     23  O   UNL     1      92.056 121.531 118.290  1.00  0.00    -0.550 OA
ATOM     24  O   UNL     1      94.319 121.252 118.522  1.00  0.00    -0.550 OA
ENDBRANCH  21  22
ENDBRANCH  20  21
ENDBRANCH  19  20
ENDBRANCH  18  19
ENDBRANCH  17  18
ENDBRANCH  16  17
ENDBRANCH  15  16
ENDBRANCH  14  15
ENDBRANCH  13  14
ENDBRANCH   1  13
TORSDOF 20
ENDMDL
MODEL 8
REMARK VINA RESULT:    -5.603      1.205      2.259
REMARK INTER + INTRA:         -13.800
REMARK INTER:                 -12.300
REMARK INTRA:                  -1.500
REMARK UNBOUND:                -1.647
REMARK SMILES CCCCCCCCCCCCCCCCCCCCCC(=O)[O-]
REMARK SMILES IDX 12 1 11 2 10 3 9 4 8 5 7 6 6 7 5 8 4 9 3 10 2 11 1 12 13 13
REMARK SMILES IDX 14 14 15 15 16 16 17 17 18 18 19 19 20 20 21 21 22 22 23 23
REMARK SMILES IDX 24 24
REMARK H PARENT
REMARK Flexibility Score: inf
ROOT
ATOM      1  C   UNL     1      97.100 125.382 124.896  1.00  0.00     0.000 C 
ENDROOT
BRANCH   1   2
ATOM      2  C   UNL     1      97.996 125.995 125.983  1.00  0.00     0.000 C 
BRANCH   2   3
ATOM      3  C   UNL     1      99.319 126.541 125.419  1.00  0.00     0.000 C 
BRANCH   3   4
ATOM      4  C   UNL     1     100.550 126.040 126.196  1.00  0.00    -0.000 C 
BRANCH   4   5
ATOM      5  C   UNL     1     101.822 126.889 126.007  1.00  0.00    -0.000 C 
BRANCH   5   6
ATOM      6  C   UNL     1     101.924 127.622 124.655  1.00  0.00    -0.000 C 
BRANCH   6   7
ATOM      7  C   UNL     1     101.668 129.141 124.748  1.00  0.00    -0.000 C 
BRANCH   7   8
ATOM      8  C   UNL     1     102.111 129.731 126.100  1.00  0.00    -0.000 C 
BRANCH   8   9
ATOM      9  C   UNL     1     100.965 130.442 126.838  1.00  0.00    -0.000 C 
BRANCH   9  10
ATOM     10  C   UNL     1     100.406 129.609 128.005  1.00  0.00    -0.000 C 
BRANCH  10  11
ATOM     11  C   UNL     1      98.965 129.138 127.757  1.00  0.00    -0.003 C 
ATOM     12  C   UNL     1      97.986 129.654 128.813  1.00  0.00     0.004 C 
ENDBRANCH  10  11
ENDBRANCH   9  10
ENDBRANCH   8   9
ENDBRANCH   7   8
ENDBRANCH   6   7
ENDBRANCH   5   6
ENDBRANCH   4   5
ENDBRANCH   3   4
ENDBRANCH   2   3
ENDBRANCH   1   2
BRANCH   1  13
ATOM     13  C   UNL     1      96.726 123.922 125.192  1.00  0.00     0.000 C 
BRANCH  13  14
ATOM     14  C   UNL     1      95.972 123.295 124.013  1.00  0.00     0.000 C 
BRANCH  14  15
ATOM     15  C   UNL     1      94.497 123.723 124.014  1.00  0.00     0.000 C 
BRANCH  15  16
ATOM     16  C   UNL     1      93.542 122.557 123.678  1.00  0.00     0.000 C 
BRANCH  16  17
ATOM     17  C   UNL     1      93.352 122.325 122.167  1.00  0.00     0.000 C 
BRANCH  17  18
ATOM     18  C   UNL     1      94.224 121.207 121.567  1.00  0.00     0.000 C 
BRANCH  18  19
ATOM     19  C   UNL     1      94.725 121.467 120.130  1.00  0.00     0.000 C 
BRANCH  19  20
ATOM     20  C   UNL     1      93.826 120.906 119.013  1.00  0.00     0.006 C 
BRANCH  20  21
ATOM     21  C   UNL     1      92.623 121.806 118.708  1.00  0.00     0.053 C 
BRANCH  21  22
ATOM     22  C   UNL     1      92.623 122.205 117.266  1.00  0.00     0.041 C 
ATOM     23  O   UNL     1      92.642 123.422 116.944  1.00  0.00    -0.550 OA
ATOM     24  O   UNL     1      92.651 121.230 116.275  1.00  0.00    -0.550 OA
ENDBRANCH  21  22
ENDBRANCH  20  21
ENDBRANCH  19  20
ENDBRANCH  18  19
ENDBRANCH  17  18
ENDBRANCH  16  17
ENDBRANCH  15  16
ENDBRANCH  14  15
ENDBRANCH  13  14
ENDBRANCH   1  13
TORSDOF 20
ENDMDL
MODEL 9
REMARK VINA RESULT:    -5.544      4.577     11.141
REMARK INTER + INTRA:         -13.673
REMARK INTER:                 -11.911
REMARK INTRA:                  -1.762
REMARK UNBOUND:                -1.647
REMARK SMILES CCCCCCCCCCCCCCCCCCCCCC(=O)[O-]
REMARK SMILES IDX 12 1 11 2 10 3 9 4 8 5 7 6 6 7 5 8 4 9 3 10 2 11 1 12 13 13
REMARK SMILES IDX 14 14 15 15 16 16 17 17 18 18 19 19 20 20 21 21 22 22 23 23
REMARK SMILES IDX 24 24
REMARK H PARENT
REMARK Flexibility Score: inf
ROOT
ATOM      1  C   UNL     1      97.747 126.256 125.475  1.00  0.00     0.000 C 
ENDROOT
BRANCH   1   2
ATOM      2  C   UNL     1      97.711 124.933 126.255  1.00  0.00     0.000 C 
BRANCH   2   3
ATOM      3  C   UNL     1      96.983 123.816 125.490  1.00  0.00     0.000 C 
BRANCH   3   4
ATOM      4  C   UNL     1      96.201 124.339 124.271  1.00  0.00    -0.000 C 
BRANCH   4   5
ATOM      5  C   UNL     1      94.924 123.547 123.934  1.00  0.00    -0.000 C 
BRANCH   5   6
ATOM      6  C   UNL     1      95.024 122.646 122.688  1.00  0.00    -0.000 C 
BRANCH   6   7
ATOM      7  C   UNL     1      93.843 121.664 122.531  1.00  0.00    -0.000 C 
BRANCH   7   8
ATOM      8  C   UNL     1      93.592 121.275 121.063  1.00  0.00    -0.000 C 
BRANCH   8   9
ATOM      9  C   UNL     1      94.883 121.241 120.230  1.00  0.00    -0.000 C 
BRANCH   9  10
ATOM     10  C   UNL     1      94.628 120.875 118.757  1.00  0.00    -0.000 C 
BRANCH  10  11
ATOM     11  C   UNL     1      93.283 121.409 118.241  1.00  0.00    -0.003 C 
ATOM     12  C   UNL     1      93.001 120.999 116.795  1.00  0.00     0.004 C 
ENDBRANCH  10  11
ENDBRANCH   9  10
ENDBRANCH   8   9
ENDBRANCH   7   8
ENDBRANCH   6   7
ENDBRANCH   5   6
ENDBRANCH   4   5
ENDBRANCH   3   4
ENDBRANCH   2   3
ENDBRANCH   1   2
BRANCH   1  13
ATOM     13  C   UNL     1      99.071 127.014 125.658  1.00  0.00     0.000 C 
BRANCH  13  14
ATOM     14  C   UNL     1     100.144 126.108 126.275  1.00  0.00     0.000 C 
BRANCH  14  15
ATOM     15  C   UNL     1     101.080 126.909 127.193  1.00  0.00     0.000 C 
BRANCH  15  16
ATOM     16  C   UNL     1     101.089 126.376 128.641  1.00  0.00     0.000 C 
BRANCH  16  17
ATOM     17  C   UNL     1      99.903 126.871 129.492  1.00  0.00     0.000 C 
BRANCH  17  18
ATOM     18  C   UNL     1      98.729 125.882 129.606  1.00  0.00     0.000 C 
BRANCH  18  19
ATOM     19  C   UNL     1      97.441 126.463 130.226  1.00  0.00     0.000 C 
BRANCH  19  20
ATOM     20  C   UNL     1      96.614 127.364 129.290  1.00  0.00     0.006 C 
BRANCH  20  21
ATOM     21  C   UNL     1      96.133 128.651 129.972  1.00  0.00     0.053 C 
BRANCH  21  22
ATOM     22  C   UNL     1      97.081 129.773 129.693  1.00  0.00     0.041 C 
ATOM     23  O   UNL     1      98.152 129.878 130.347  1.00  0.00    -0.550 OA
ATOM     24  O   UNL     1      96.805 130.680 128.676  1.00  0.00    -0.550 OA
ENDBRANCH  21  22
ENDBRANCH  20  21
ENDBRANCH  19  20
ENDBRANCH  18  19
ENDBRANCH  17  18
ENDBRANCH  16  17
ENDBRANCH  15  16
ENDBRANCH  14  15
ENDBRANCH  13  14
ENDBRANCH   1  13
TORSDOF 20
ENDMDL
