MODEL 1
REMARK VINA RESULT:    -4.566      0.000      0.000
REMARK INTER + INTRA:         -15.374
REMARK INTER:                 -12.041
REMARK INTRA:                  -3.333
REMARK UNBOUND:                -3.333
REMARK SMILES CCCCCCCCCCCCCCCCCCCCCCCCCCCCCC(=O)[O-]
REMARK SMILES IDX 16 1 17 2 18 3 19 4 20 5 21 6 22 7 23 8 24 9 25 10 26 11
REMARK SMILES IDX 27 12 28 13 29 14 30 15 31 16 32 17 15 18 14 19 13 20 12 21
REMARK SMILES IDX 11 22 10 23 9 24 8 25 7 26 6 27 5 28 4 29 3 30 2 31 1 32
REMARK H PARENT
REMARK Flexibility Score: inf
ROOT
ATOM      1  C   UNL     1      58.188 154.230   5.861  1.00  0.00     0.000 C 
ENDROOT
BRANCH   1   2
ATOM      2  C   UNL     1      58.592 153.977   4.398  1.00  0.00     0.000 C 
BRANCH   2   3
ATOM      3  C   UNL     1      58.345 155.191   3.486  1.00  0.00     0.000 C 
BRANCH   3   4
ATOM      4  C   UNL     1      57.875 154.784   2.080  1.00  0.00     0.000 C 
BRANCH   4   5
ATOM      5  C   UNL     1      58.822 155.280   0.975  1.00  0.00     0.000 C 
BRANCH   5   6
ATOM      6  C   UNL     1      59.278 154.152   0.033  1.00  0.00     0.000 C 
BRANCH   6   7
ATOM      7  C   UNL     1      60.789 153.840   0.069  1.00  0.00     0.000 C 
BRANCH   7   8
ATOM      8  C   UNL     1      61.346 153.476   1.458  1.00  0.00     0.000 C 
BRANCH   8   9
ATOM      9  C   UNL     1      60.571 152.334   2.129  1.00  0.00     0.000 C 
BRANCH   9  10
ATOM     10  C   UNL     1      61.437 151.632   3.188  1.00  0.00     0.000 C 
BRANCH  10  11
ATOM     11  C   UNL     1      62.943 151.772   2.912  1.00  0.00     0.000 C 
BRANCH  11  12
ATOM     12  C   UNL     1      63.836 151.756   4.167  1.00  0.00     0.000 C 
BRANCH  12  13
ATOM     13  C   UNL     1      64.832 150.575   4.216  1.00  0.00     0.006 C 
BRANCH  13  14
ATOM     14  C   UNL     1      64.882 149.863   5.579  1.00  0.00     0.053 C 
BRANCH  14  15
ATOM     15  C   UNL     1      63.527 149.425   6.047  1.00  0.00     0.041 C 
ATOM     16  O   UNL     1      63.281 149.313   7.278  1.00  0.00    -0.550 OA
ATOM     17  O   UNL     1      62.546 149.098   5.117  1.00  0.00    -0.550 OA
ENDBRANCH  14  15
ENDBRANCH  13  14
ENDBRANCH  12  13
ENDBRANCH  11  12
ENDBRANCH  10  11
ENDBRANCH   9  10
ENDBRANCH   8   9
ENDBRANCH   7   8
ENDBRANCH   6   7
ENDBRANCH   5   6
ENDBRANCH   4   5
ENDBRANCH   3   4
ENDBRANCH   2   3
ENDBRANCH   1   2
BRANCH   1  18
ATOM     18  C   UNL     1      58.621 155.610   6.398  1.00  0.00     0.000 C 
BRANCH  18  19
ATOM     19  C   UNL     1      60.129 155.858   6.237  1.00  0.00     0.000 C 
BRANCH  19  20
ATOM     20  C   UNL     1      60.851 155.732   7.586  1.00  0.00     0.000 C 
BRANCH  20  21
ATOM     21  C   UNL     1      61.607 154.400   7.748  1.00  0.00     0.000 C 
BRANCH  21  22
ATOM     22  C   UNL     1      61.563 153.465   6.523  1.00  0.00     0.000 C 
BRANCH  22  23
ATOM     23  C   UNL     1      61.196 151.999   6.822  1.00  0.00     0.000 C 
BRANCH  23  24
ATOM     24  C   UNL     1      60.159 151.829   7.953  1.00  0.00    -0.000 C 
BRANCH  24  25
ATOM     25  C   UNL     1      58.773 151.435   7.417  1.00  0.00    -0.000 C 
BRANCH  25  26
ATOM     26  C   UNL     1      58.382 149.982   7.750  1.00  0.00    -0.000 C 
BRANCH  26  27
ATOM     27  C   UNL     1      59.333 148.909   7.190  1.00  0.00    -0.000 C 
BRANCH  27  28
ATOM     28  C   UNL     1      60.235 148.219   8.232  1.00  0.00    -0.000 C 
BRANCH  28  29
ATOM     29  C   UNL     1      59.733 146.825   8.680  1.00  0.00    -0.000 C 
BRANCH  29  30
ATOM     30  C   UNL     1      59.633 145.787   7.548  1.00  0.00    -0.000 C 
BRANCH  30  31
ATOM     31  C   UNL     1      59.190 144.402   8.045  1.00  0.00    -0.003 C 
ATOM     32  C   UNL     1      57.888 144.495   8.837  1.00  0.00     0.004 C 
ENDBRANCH  30  31
ENDBRANCH  29  30
ENDBRANCH  28  29
ENDBRANCH  27  28
ENDBRANCH  26  27
ENDBRANCH  25  26
ENDBRANCH  24  25
ENDBRANCH  23  24
ENDBRANCH  22  23
ENDBRANCH  21  22
ENDBRANCH  20  21
ENDBRANCH  19  20
ENDBRANCH  18  19
ENDBRANCH   1  18
TORSDOF 28
ENDMDL
MODEL 2
REMARK VINA RESULT:    -4.479      2.479      7.324
REMARK INTER + INTRA:         -15.144
REMARK INTER:                 -10.782
REMARK INTRA:                  -4.362
REMARK UNBOUND:                -3.333
REMARK SMILES CCCCCCCCCCCCCCCCCCCCCCCCCCCCCC(=O)[O-]
REMARK SMILES IDX 16 1 17 2 18 3 19 4 20 5 21 6 22 7 23 8 24 9 25 10 26 11
REMARK SMILES IDX 27 12 28 13 29 14 30 15 31 16 32 17 15 18 14 19 13 20 12 21
REMARK SMILES IDX 11 22 10 23 9 24 8 25 7 26 6 27 5 28 4 29 3 30 2 31 1 32
REMARK H PARENT
REMARK Flexibility Score: inf
ROOT
ATOM      1  C   UNL     1      63.090 149.503   6.864  1.00  0.00     0.000 C 
ENDROOT
BRANCH   1   2
ATOM      2  C   UNL     1      63.576 148.964   5.508  1.00  0.00     0.000 C 
BRANCH   2   3
ATOM      3  C   UNL     1      64.997 149.430   5.147  1.00  0.00     0.000 C 
BRANCH   3   4
ATOM      4  C   UNL     1      65.014 150.381   3.940  1.00  0.00     0.000 C 
BRANCH   4   5
ATOM      5  C   UNL     1      63.752 151.255   3.859  1.00  0.00     0.000 C 
BRANCH   5   6
ATOM      6  C   UNL     1      63.912 152.599   4.590  1.00  0.00     0.000 C 
BRANCH   6   7
ATOM      7  C   UNL     1      63.083 152.743   5.884  1.00  0.00     0.000 C 
BRANCH   7   8
ATOM      8  C   UNL     1      63.258 154.081   6.626  1.00  0.00     0.000 C 
BRANCH   8   9
ATOM      9  C   UNL     1      61.961 154.573   7.281  1.00  0.00     0.000 C 
BRANCH   9  10
ATOM     10  C   UNL     1      61.180 153.402   7.898  1.00  0.00     0.000 C 
BRANCH  10  11
ATOM     11  C   UNL     1      60.234 153.846   9.025  1.00  0.00     0.000 C 
BRANCH  11  12
ATOM     12  C   UNL     1      60.013 155.368   9.125  1.00  0.00     0.000 C 
BRANCH  12  13
ATOM     13  C   UNL     1      58.656 155.846   8.559  1.00  0.00     0.006 C 
BRANCH  13  14
ATOM     14  C   UNL     1      58.353 155.314   7.147  1.00  0.00     0.053 C 
BRANCH  14  15
ATOM     15  C   UNL     1      59.051 156.098   6.077  1.00  0.00     0.041 C 
ATOM     16  O   UNL     1      59.778 157.083   6.376  1.00  0.00    -0.550 OA
ATOM     17  O   UNL     1      58.862 155.764   4.740  1.00  0.00    -0.550 OA
ENDBRANCH  14  15
ENDBRANCH  13  14
ENDBRANCH  12  13
ENDBRANCH  11  12
ENDBRANCH  10  11
ENDBRANCH   9  10
ENDBRANCH   8   9
ENDBRANCH   7   8
ENDBRANCH   6   7
ENDBRANCH   5   6
ENDBRANCH   4   5
ENDBRANCH   3   4
ENDBRANCH   2   3
ENDBRANCH   1   2
BRANCH   1  18
ATOM     18  C   UNL     1      61.555 149.489   7.027  1.00  0.00     0.000 C 
BRANCH  18  19
ATOM     19  C   UNL     1      60.872 148.495   6.076  1.00  0.00     0.000 C 
BRANCH  19  20
ATOM     20  C   UNL     1      60.492 147.203   6.815  1.00  0.00     0.000 C 
BRANCH  20  21
ATOM     21  C   UNL     1      60.171 147.429   8.304  1.00  0.00     0.000 C 
BRANCH  21  22
ATOM     22  C   UNL     1      58.716 147.130   8.716  1.00  0.00     0.000 C 
BRANCH  22  23
ATOM     23  C   UNL     1      57.876 148.360   9.115  1.00  0.00     0.000 C 
BRANCH  23  24
ATOM     24  C   UNL     1      58.478 149.707   8.657  1.00  0.00    -0.000 C 
BRANCH  24  25
ATOM     25  C   UNL     1      57.957 150.137   7.276  1.00  0.00    -0.000 C 
BRANCH  25  26
ATOM     26  C   UNL     1      58.046 151.657   7.039  1.00  0.00    -0.000 C 
BRANCH  26  27
ATOM     27  C   UNL     1      58.246 152.077   5.571  1.00  0.00    -0.000 C 
BRANCH  27  28
ATOM     28  C   UNL     1      59.672 151.889   5.021  1.00  0.00    -0.000 C 
BRANCH  28  29
ATOM     29  C   UNL     1      60.111 152.979   4.014  1.00  0.00    -0.000 C 
BRANCH  29  30
ATOM     30  C   UNL     1      59.277 153.030   2.721  1.00  0.00    -0.000 C 
BRANCH  30  31
ATOM     31  C   UNL     1      60.135 153.252   1.466  1.00  0.00    -0.003 C 
ATOM     32  C   UNL     1      59.405 154.127   0.451  1.00  0.00     0.004 C 
ENDBRANCH  30  31
ENDBRANCH  29  30
ENDBRANCH  28  29
ENDBRANCH  27  28
ENDBRANCH  26  27
ENDBRANCH  25  26
ENDBRANCH  24  25
ENDBRANCH  23  24
ENDBRANCH  22  23
ENDBRANCH  21  22
ENDBRANCH  20  21
ENDBRANCH  19  20
ENDBRANCH  18  19
ENDBRANCH   1  18
TORSDOF 28
ENDMDL
MODEL 3
REMARK VINA RESULT:    -4.057      2.061      7.677
REMARK INTER + INTRA:         -14.032
REMARK INTER:                 -10.910
REMARK INTRA:                  -3.122
REMARK UNBOUND:                -3.333
REMARK SMILES CCCCCCCCCCCCCCCCCCCCCCCCCCCCCC(=O)[O-]
REMARK SMILES IDX 16 1 17 2 18 3 19 4 20 5 21 6 22 7 23 8 24 9 25 10 26 11
REMARK SMILES IDX 27 12 28 13 29 14 30 15 31 16 32 17 15 18 14 19 13 20 12 21
REMARK SMILES IDX 11 22 10 23 9 24 8 25 7 26 6 27 5 28 4 29 3 30 2 31 1 32
REMARK H PARENT
REMARK Flexibility Score: inf
ROOT
ATOM      1  C   UNL     1      63.870 148.775   5.764  1.00  0.00     0.000 C 
ENDROOT
BRANCH   1   2
ATOM      2  C   UNL     1      63.123 147.566   5.176  1.00  0.00     0.000 C 
BRANCH   2   3
ATOM      3  C   UNL     1      61.712 147.385   5.763  1.00  0.00     0.000 C 
BRANCH   3   4
ATOM      4  C   UNL     1      61.007 148.725   6.023  1.00  0.00     0.000 C 
BRANCH   4   5
ATOM      5  C   UNL     1      60.770 148.985   7.520  1.00  0.00     0.000 C 
BRANCH   5   6
ATOM      6  C   UNL     1      60.085 147.802   8.228  1.00  0.00     0.000 C 
BRANCH   6   7
ATOM      7  C   UNL     1      58.617 148.045   8.636  1.00  0.00     0.000 C 
BRANCH   7   8
ATOM      8  C   UNL     1      58.017 149.378   8.149  1.00  0.00     0.000 C 
BRANCH   8   9
ATOM      9  C   UNL     1      58.550 150.589   8.926  1.00  0.00     0.000 C 
BRANCH   9  10
ATOM     10  C   UNL     1      57.907 151.890   8.421  1.00  0.00     0.000 C 
BRANCH  10  11
ATOM     11  C   UNL     1      58.012 152.052   6.896  1.00  0.00     0.000 C 
BRANCH  11  12
ATOM     12  C   UNL     1      59.434 151.895   6.323  1.00  0.00     0.000 C 
BRANCH  12  13
ATOM     13  C   UNL     1      59.571 152.341   4.849  1.00  0.00     0.006 C 
BRANCH  13  14
ATOM     14  C   UNL     1      60.819 151.780   4.146  1.00  0.00     0.053 C 
BRANCH  14  15
ATOM     15  C   UNL     1      60.925 152.228   2.720  1.00  0.00     0.041 C 
ATOM     16  O   UNL     1      59.897 152.584   2.083  1.00  0.00    -0.550 OA
ATOM     17  O   UNL     1      62.159 152.211   2.079  1.00  0.00    -0.550 OA
ENDBRANCH  14  15
ENDBRANCH  13  14
ENDBRANCH  12  13
ENDBRANCH  11  12
ENDBRANCH  10  11
ENDBRANCH   9  10
ENDBRANCH   8   9
ENDBRANCH   7   8
ENDBRANCH   6   7
ENDBRANCH   5   6
ENDBRANCH   4   5
ENDBRANCH   3   4
ENDBRANCH   2   3
ENDBRANCH   1   2
BRANCH   1  18
ATOM     18  C   UNL     1      65.022 149.290   4.876  1.00  0.00     0.000 C 
BRANCH  18  19
ATOM     19  C   UNL     1      64.563 150.371   3.885  1.00  0.00     0.000 C 
BRANCH  19  20
ATOM     20  C   UNL     1      65.146 151.741   4.261  1.00  0.00     0.000 C 
BRANCH  20  21
ATOM     21  C   UNL     1      64.634 152.267   5.614  1.00  0.00     0.000 C 
BRANCH  21  22
ATOM     22  C   UNL     1      63.533 153.342   5.529  1.00  0.00     0.000 C 
BRANCH  22  23
ATOM     23  C   UNL     1      63.139 153.994   6.869  1.00  0.00     0.000 C 
BRANCH  23  24
ATOM     24  C   UNL     1      61.615 154.074   7.105  1.00  0.00    -0.000 C 
BRANCH  24  25
ATOM     25  C   UNL     1      61.231 155.241   8.030  1.00  0.00    -0.000 C 
BRANCH  25  26
ATOM     26  C   UNL     1      59.775 155.167   8.528  1.00  0.00    -0.000 C 
BRANCH  26  27
ATOM     27  C   UNL     1      58.738 155.843   7.612  1.00  0.00    -0.000 C 
BRANCH  27  28
ATOM     28  C   UNL     1      59.217 156.131   6.176  1.00  0.00    -0.000 C 
BRANCH  28  29
ATOM     29  C   UNL     1      58.082 156.159   5.124  1.00  0.00    -0.000 C 
BRANCH  29  30
ATOM     30  C   UNL     1      58.382 155.368   3.837  1.00  0.00    -0.000 C 
BRANCH  30  31
ATOM     31  C   UNL     1      57.877 156.075   2.570  1.00  0.00    -0.003 C 
ATOM     32  C   UNL     1      58.115 155.217   1.331  1.00  0.00     0.004 C 
ENDBRANCH  30  31
ENDBRANCH  29  30
ENDBRANCH  28  29
ENDBRANCH  27  28
ENDBRANCH  26  27
ENDBRANCH  25  26
ENDBRANCH  24  25
ENDBRANCH  23  24
ENDBRANCH  22  23
ENDBRANCH  21  22
ENDBRANCH  20  21
ENDBRANCH  19  20
ENDBRANCH  18  19
ENDBRANCH   1  18
TORSDOF 28
ENDMDL
MODEL 4
REMARK VINA RESULT:    -4.000      1.677      3.226
REMARK INTER + INTRA:         -13.882
REMARK INTER:                 -11.673
REMARK INTRA:                  -2.209
REMARK UNBOUND:                -3.333
REMARK SMILES CCCCCCCCCCCCCCCCCCCCCCCCCCCCCC(=O)[O-]
REMARK SMILES IDX 16 1 17 2 18 3 19 4 20 5 21 6 22 7 23 8 24 9 25 10 26 11
REMARK SMILES IDX 27 12 28 13 29 14 30 15 31 16 32 17 15 18 14 19 13 20 12 21
REMARK SMILES IDX 11 22 10 23 9 24 8 25 7 26 6 27 5 28 4 29 3 30 2 31 1 32
REMARK H PARENT
REMARK Flexibility Score: inf
ROOT
ATOM      1  C   UNL     1      58.723 153.874   3.507  1.00  0.00     0.000 C 
ENDROOT
BRANCH   1   2
ATOM      2  C   UNL     1      58.268 153.753   2.043  1.00  0.00     0.000 C 
BRANCH   2   3
ATOM      3  C   UNL     1      59.377 154.106   1.036  1.00  0.00     0.000 C 
BRANCH   3   4
ATOM      4  C   UNL     1      60.651 153.273   1.249  1.00  0.00     0.000 C 
BRANCH   4   5
ATOM      5  C   UNL     1      60.394 152.004   2.078  1.00  0.00     0.000 C 
BRANCH   5   6
ATOM      6  C   UNL     1      61.616 151.582   2.913  1.00  0.00     0.000 C 
BRANCH   6   7
ATOM      7  C   UNL     1      61.505 151.869   4.425  1.00  0.00     0.000 C 
BRANCH   7   8
ATOM      8  C   UNL     1      60.988 150.694   5.276  1.00  0.00     0.000 C 
BRANCH   8   9
ATOM      9  C   UNL     1      61.603 149.349   4.868  1.00  0.00     0.000 C 
BRANCH   9  10
ATOM     10  C   UNL     1      62.510 148.800   5.981  1.00  0.00     0.000 C 
BRANCH  10  11
ATOM     11  C   UNL     1      63.693 149.730   6.297  1.00  0.00     0.000 C 
BRANCH  11  12
ATOM     12  C   UNL     1      65.035 149.307   5.669  1.00  0.00     0.000 C 
BRANCH  12  13
ATOM     13  C   UNL     1      65.260 149.849   4.239  1.00  0.00     0.006 C 
BRANCH  13  14
ATOM     14  C   UNL     1      64.528 151.171   3.956  1.00  0.00     0.053 C 
BRANCH  14  15
ATOM     15  C   UNL     1      65.156 152.337   4.659  1.00  0.00     0.041 C 
ATOM     16  O   UNL     1      66.350 152.662   4.418  1.00  0.00    -0.550 OA
ATOM     17  O   UNL     1      64.433 153.039   5.617  1.00  0.00    -0.550 OA
ENDBRANCH  14  15
ENDBRANCH  13  14
ENDBRANCH  12  13
ENDBRANCH  11  12
ENDBRANCH  10  11
ENDBRANCH   9  10
ENDBRANCH   8   9
ENDBRANCH   7   8
ENDBRANCH   6   7
ENDBRANCH   5   6
ENDBRANCH   4   5
ENDBRANCH   3   4
ENDBRANCH   2   3
ENDBRANCH   1   2
BRANCH   1  18
ATOM     18  C   UNL     1      58.866 155.331   3.998  1.00  0.00     0.000 C 
BRANCH  18  19
ATOM     19  C   UNL     1      57.903 155.661   5.149  1.00  0.00     0.000 C 
BRANCH  19  20
ATOM     20  C   UNL     1      58.562 156.614   6.157  1.00  0.00     0.000 C 
BRANCH  20  21
ATOM     21  C   UNL     1      58.853 155.952   7.516  1.00  0.00     0.000 C 
BRANCH  21  22
ATOM     22  C   UNL     1      58.991 154.417   7.485  1.00  0.00     0.000 C 
BRANCH  22  23
ATOM     23  C   UNL     1      60.256 153.881   6.788  1.00  0.00     0.000 C 
BRANCH  23  24
ATOM     24  C   UNL     1      61.451 153.655   7.740  1.00  0.00    -0.000 C 
BRANCH  24  25
ATOM     25  C   UNL     1      61.016 153.050   9.086  1.00  0.00    -0.000 C 
BRANCH  25  26
ATOM     26  C   UNL     1      60.794 151.527   9.024  1.00  0.00    -0.000 C 
BRANCH  26  27
ATOM     27  C   UNL     1      59.320 151.084   8.998  1.00  0.00    -0.000 C 
BRANCH  27  28
ATOM     28  C   UNL     1      59.021 149.838   8.143  1.00  0.00    -0.000 C 
BRANCH  28  29
ATOM     29  C   UNL     1      58.617 148.590   8.964  1.00  0.00    -0.000 C 
BRANCH  29  30
ATOM     30  C   UNL     1      59.471 147.338   8.687  1.00  0.00    -0.000 C 
BRANCH  30  31
ATOM     31  C   UNL     1      58.671 146.032   8.808  1.00  0.00    -0.003 C 
ATOM     32  C   UNL     1      59.344 144.904   8.030  1.00  0.00     0.004 C 
ENDBRANCH  30  31
ENDBRANCH  29  30
ENDBRANCH  28  29
ENDBRANCH  27  28
ENDBRANCH  26  27
ENDBRANCH  25  26
ENDBRANCH  24  25
ENDBRANCH  23  24
ENDBRANCH  22  23
ENDBRANCH  21  22
ENDBRANCH  20  21
ENDBRANCH  19  20
ENDBRANCH  18  19
ENDBRANCH   1  18
TORSDOF 28
ENDMDL
MODEL 5
REMARK VINA RESULT:    -3.966      1.421      6.729
REMARK INTER + INTRA:         -13.791
REMARK INTER:                 -10.108
REMARK INTRA:                  -3.684
REMARK UNBOUND:                -3.333
REMARK SMILES CCCCCCCCCCCCCCCCCCCCCCCCCCCCCC(=O)[O-]
REMARK SMILES IDX 16 1 17 2 18 3 19 4 20 5 21 6 22 7 23 8 24 9 25 10 26 11
REMARK SMILES IDX 27 12 28 13 29 14 30 15 31 16 32 17 15 18 14 19 13 20 12 21
REMARK SMILES IDX 11 22 10 23 9 24 8 25 7 26 6 27 5 28 4 29 3 30 2 31 1 32
REMARK H PARENT
REMARK Flexibility Score: inf
ROOT
ATOM      1  C   UNL     1      61.764 151.773   2.510  1.00  0.00     0.000 C 
ENDROOT
BRANCH   1   2
ATOM      2  C   UNL     1      61.644 152.064   4.015  1.00  0.00     0.000 C 
BRANCH   2   3
ATOM      3  C   UNL     1      60.775 151.036   4.761  1.00  0.00     0.000 C 
BRANCH   3   4
ATOM      4  C   UNL     1      60.085 151.635   5.996  1.00  0.00     0.000 C 
BRANCH   4   5
ATOM      5  C   UNL     1      60.977 151.592   7.249  1.00  0.00     0.000 C 
BRANCH   5   6
ATOM      6  C   UNL     1      60.254 151.002   8.472  1.00  0.00     0.000 C 
BRANCH   6   7
ATOM      7  C   UNL     1      58.734 151.260   8.522  1.00  0.00     0.000 C 
BRANCH   7   8
ATOM      8  C   UNL     1      57.875 150.030   8.872  1.00  0.00     0.000 C 
BRANCH   8   9
ATOM      9  C   UNL     1      58.308 148.768   8.116  1.00  0.00     0.000 C 
BRANCH   9  10
ATOM     10  C   UNL     1      58.836 147.700   9.087  1.00  0.00     0.000 C 
BRANCH  10  11
ATOM     11  C   UNL     1      60.025 146.912   8.514  1.00  0.00     0.000 C 
BRANCH  11  12
ATOM     12  C   UNL     1      60.207 147.029   6.989  1.00  0.00     0.000 C 
BRANCH  12  13
ATOM     13  C   UNL     1      61.159 148.166   6.553  1.00  0.00     0.006 C 
BRANCH  13  14
ATOM     14  C   UNL     1      62.211 147.732   5.519  1.00  0.00     0.053 C 
BRANCH  14  15
ATOM     15  C   UNL     1      63.424 148.613   5.529  1.00  0.00     0.041 C 
ATOM     16  O   UNL     1      64.297 148.510   4.626  1.00  0.00    -0.550 OA
ATOM     17  O   UNL     1      63.611 149.521   6.566  1.00  0.00    -0.550 OA
ENDBRANCH  14  15
ENDBRANCH  13  14
ENDBRANCH  12  13
ENDBRANCH  11  12
ENDBRANCH  10  11
ENDBRANCH   9  10
ENDBRANCH   8   9
ENDBRANCH   7   8
ENDBRANCH   6   7
ENDBRANCH   5   6
ENDBRANCH   4   5
ENDBRANCH   3   4
ENDBRANCH   2   3
ENDBRANCH   1   2
BRANCH   1  18
ATOM     18  C   UNL     1      61.037 152.800   1.616  1.00  0.00     0.000 C 
BRANCH  18  19
ATOM     19  C   UNL     1      59.623 153.123   2.121  1.00  0.00     0.000 C 
BRANCH  19  20
ATOM     20  C   UNL     1      58.946 154.168   1.222  1.00  0.00     0.000 C 
BRANCH  20  21
ATOM     21  C   UNL     1      58.050 155.150   2.001  1.00  0.00     0.000 C 
BRANCH  21  22
ATOM     22  C   UNL     1      58.204 155.106   3.534  1.00  0.00     0.000 C 
BRANCH  22  23
ATOM     23  C   UNL     1      58.056 156.462   4.251  1.00  0.00     0.000 C 
BRANCH  23  24
ATOM     24  C   UNL     1      58.631 156.481   5.685  1.00  0.00    -0.000 C 
BRANCH  24  25
ATOM     25  C   UNL     1      59.327 155.160   6.050  1.00  0.00    -0.000 C 
BRANCH  25  26
ATOM     26  C   UNL     1      60.262 155.283   7.268  1.00  0.00    -0.000 C 
BRANCH  26  27
ATOM     27  C   UNL     1      61.739 155.560   6.929  1.00  0.00    -0.000 C 
BRANCH  27  28
ATOM     28  C   UNL     1      62.729 154.455   7.344  1.00  0.00    -0.000 C 
BRANCH  28  29
ATOM     29  C   UNL     1      63.463 153.785   6.158  1.00  0.00    -0.000 C 
BRANCH  29  30
ATOM     30  C   UNL     1      64.799 153.116   6.528  1.00  0.00    -0.000 C 
BRANCH  30  31
ATOM     31  C   UNL     1      65.339 152.205   5.414  1.00  0.00    -0.003 C 
ATOM     32  C   UNL     1      64.942 152.729   4.037  1.00  0.00     0.004 C 
ENDBRANCH  30  31
ENDBRANCH  29  30
ENDBRANCH  28  29
ENDBRANCH  27  28
ENDBRANCH  26  27
ENDBRANCH  25  26
ENDBRANCH  24  25
ENDBRANCH  23  24
ENDBRANCH  22  23
ENDBRANCH  21  22
ENDBRANCH  20  21
ENDBRANCH  19  20
ENDBRANCH  18  19
ENDBRANCH   1  18
TORSDOF 28
ENDMDL
MODEL 6
REMARK VINA RESULT:    -3.943      1.888      5.681
REMARK INTER + INTRA:         -13.731
REMARK INTER:                 -10.777
REMARK INTRA:                  -2.954
REMARK UNBOUND:                -3.333
REMARK SMILES CCCCCCCCCCCCCCCCCCCCCCCCCCCCCC(=O)[O-]
REMARK SMILES IDX 16 1 17 2 18 3 19 4 20 5 21 6 22 7 23 8 24 9 25 10 26 11
REMARK SMILES IDX 27 12 28 13 29 14 30 15 31 16 32 17 15 18 14 19 13 20 12 21
REMARK SMILES IDX 11 22 10 23 9 24 8 25 7 26 6 27 5 28 4 29 3 30 2 31 1 32
REMARK H PARENT
REMARK Flexibility Score: inf
ROOT
ATOM      1  C   UNL     1      63.725 151.401   4.006  1.00  0.00     0.000 C 
ENDROOT
BRANCH   1   2
ATOM      2  C   UNL     1      63.969 152.867   4.402  1.00  0.00     0.000 C 
BRANCH   2   3
ATOM      3  C   UNL     1      63.851 153.111   5.917  1.00  0.00     0.000 C 
BRANCH   3   4
ATOM      4  C   UNL     1      62.565 153.865   6.292  1.00  0.00     0.000 C 
BRANCH   4   5
ATOM      5  C   UNL     1      62.815 154.986   7.313  1.00  0.00     0.000 C 
BRANCH   5   6
ATOM      6  C   UNL     1      61.569 155.313   8.155  1.00  0.00     0.000 C 
BRANCH   6   7
ATOM      7  C   UNL     1      60.249 154.710   7.630  1.00  0.00     0.000 C 
BRANCH   7   8
ATOM      8  C   UNL     1      58.976 155.222   8.330  1.00  0.00     0.000 C 
BRANCH   8   9
ATOM      9  C   UNL     1      57.956 155.815   7.349  1.00  0.00     0.000 C 
BRANCH   9  10
ATOM     10  C   UNL     1      58.577 155.998   5.955  1.00  0.00     0.000 C 
BRANCH  10  11
ATOM     11  C   UNL     1      58.222 154.854   4.991  1.00  0.00     0.000 C 
BRANCH  11  12
ATOM     12  C   UNL     1      58.828 153.485   5.357  1.00  0.00     0.000 C 
BRANCH  12  13
ATOM     13  C   UNL     1      58.954 152.513   4.161  1.00  0.00     0.006 C 
BRANCH  13  14
ATOM     14  C   UNL     1      59.039 153.218   2.797  1.00  0.00     0.053 C 
BRANCH  14  15
ATOM     15  C   UNL     1      60.279 152.851   2.038  1.00  0.00     0.041 C 
ATOM     16  O   UNL     1      60.839 151.738   2.227  1.00  0.00    -0.550 OA
ATOM     17  O   UNL     1      60.842 153.763   1.151  1.00  0.00    -0.550 OA
ENDBRANCH  14  15
ENDBRANCH  13  14
ENDBRANCH  12  13
ENDBRANCH  11  12
ENDBRANCH  10  11
ENDBRANCH   9  10
ENDBRANCH   8   9
ENDBRANCH   7   8
ENDBRANCH   6   7
ENDBRANCH   5   6
ENDBRANCH   4   5
ENDBRANCH   3   4
ENDBRANCH   2   3
ENDBRANCH   1   2
BRANCH   1  18
ATOM     18  C   UNL     1      65.019 150.599   3.755  1.00  0.00     0.000 C 
BRANCH  18  19
ATOM     19  C   UNL     1      64.967 149.191   4.368  1.00  0.00     0.000 C 
BRANCH  19  20
ATOM     20  C   UNL     1      64.878 149.264   5.899  1.00  0.00     0.000 C 
BRANCH  20  21
ATOM     21  C   UNL     1      63.489 148.882   6.445  1.00  0.00     0.000 C 
BRANCH  21  22
ATOM     22  C   UNL     1      62.557 150.067   6.762  1.00  0.00     0.000 C 
BRANCH  22  23
ATOM     23  C   UNL     1      61.875 150.021   8.143  1.00  0.00     0.000 C 
BRANCH  23  24
ATOM     24  C   UNL     1      61.066 151.290   8.489  1.00  0.00    -0.000 C 
BRANCH  24  25
ATOM     25  C   UNL     1      59.635 151.239   7.929  1.00  0.00    -0.000 C 
BRANCH  25  26
ATOM     26  C   UNL     1      58.640 150.534   8.871  1.00  0.00    -0.000 C 
BRANCH  26  27
ATOM     27  C   UNL     1      57.875 149.354   8.243  1.00  0.00    -0.000 C 
BRANCH  27  28
ATOM     28  C   UNL     1      57.890 148.049   9.062  1.00  0.00    -0.000 C 
BRANCH  28  29
ATOM     29  C   UNL     1      59.272 147.357   9.125  1.00  0.00    -0.000 C 
BRANCH  29  30
ATOM     30  C   UNL     1      59.992 147.239   7.769  1.00  0.00    -0.000 C 
BRANCH  30  31
ATOM     31  C   UNL     1      60.142 145.785   7.297  1.00  0.00    -0.003 C 
ATOM     32  C   UNL     1      59.137 144.875   7.997  1.00  0.00     0.004 C 
ENDBRANCH  30  31
ENDBRANCH  29  30
ENDBRANCH  28  29
ENDBRANCH  27  28
ENDBRANCH  26  27
ENDBRANCH  25  26
ENDBRANCH  24  25
ENDBRANCH  23  24
ENDBRANCH  22  23
ENDBRANCH  21  22
ENDBRANCH  20  21
ENDBRANCH  19  20
ENDBRANCH  18  19
ENDBRANCH   1  18
TORSDOF 28
ENDMDL
MODEL 7
REMARK VINA RESULT:    -3.940      1.645      2.097
REMARK INTER + INTRA:         -13.722
REMARK INTER:                 -10.895
REMARK INTRA:                  -2.827
REMARK UNBOUND:                -3.333
REMARK SMILES CCCCCCCCCCCCCCCCCCCCCCCCCCCCCC(=O)[O-]
REMARK SMILES IDX 16 1 17 2 18 3 19 4 20 5 21 6 22 7 23 8 24 9 25 10 26 11
REMARK SMILES IDX 27 12 28 13 29 14 30 15 31 16 32 17 15 18 14 19 13 20 12 21
REMARK SMILES IDX 11 22 10 23 9 24 8 25 7 26 6 27 5 28 4 29 3 30 2 31 1 32
REMARK H PARENT
REMARK Flexibility Score: inf
ROOT
ATOM      1  C   UNL     1      58.479 153.677   6.046  1.00  0.00     0.000 C 
ENDROOT
BRANCH   1   2
ATOM      2  C   UNL     1      58.649 153.104   4.629  1.00  0.00     0.000 C 
BRANCH   2   3
ATOM      3  C   UNL     1      58.892 154.189   3.564  1.00  0.00     0.000 C 
BRANCH   3   4
ATOM      4  C   UNL     1      58.438 153.749   2.163  1.00  0.00     0.000 C 
BRANCH   4   5
ATOM      5  C   UNL     1      58.777 154.787   1.081  1.00  0.00     0.000 C 
BRANCH   5   6
ATOM      6  C   UNL     1      59.388 154.152  -0.181  1.00  0.00     0.000 C 
BRANCH   6   7
ATOM      7  C   UNL     1      60.911 153.912  -0.121  1.00  0.00     0.000 C 
BRANCH   7   8
ATOM      8  C   UNL     1      61.459 153.547   1.271  1.00  0.00     0.000 C 
BRANCH   8   9
ATOM      9  C   UNL     1      61.200 152.082   1.647  1.00  0.00     0.000 C 
BRANCH   9  10
ATOM     10  C   UNL     1      62.270 151.569   2.624  1.00  0.00     0.000 C 
BRANCH  10  11
ATOM     11  C   UNL     1      61.757 151.472   4.070  1.00  0.00     0.000 C 
BRANCH  11  12
ATOM     12  C   UNL     1      62.815 151.754   5.155  1.00  0.00     0.000 C 
BRANCH  12  13
ATOM     13  C   UNL     1      64.234 152.008   4.598  1.00  0.00     0.006 C 
BRANCH  13  14
ATOM     14  C   UNL     1      65.332 151.199   5.309  1.00  0.00     0.053 C 
BRANCH  14  15
ATOM     15  C   UNL     1      65.208 149.725   5.065  1.00  0.00     0.041 C 
ATOM     16  O   UNL     1      64.989 148.934   6.022  1.00  0.00    -0.550 OA
ATOM     17  O   UNL     1      65.379 149.219   3.781  1.00  0.00    -0.550 OA
ENDBRANCH  14  15
ENDBRANCH  13  14
ENDBRANCH  12  13
ENDBRANCH  11  12
ENDBRANCH  10  11
ENDBRANCH   9  10
ENDBRANCH   8   9
ENDBRANCH   7   8
ENDBRANCH   6   7
ENDBRANCH   5   6
ENDBRANCH   4   5
ENDBRANCH   3   4
ENDBRANCH   2   3
ENDBRANCH   1   2
BRANCH   1  18
ATOM     18  C   UNL     1      58.467 155.219   6.098  1.00  0.00     0.000 C 
BRANCH  18  19
ATOM     19  C   UNL     1      59.603 155.787   6.963  1.00  0.00     0.000 C 
BRANCH  19  20
ATOM     20  C   UNL     1      59.359 155.489   8.450  1.00  0.00     0.000 C 
BRANCH  20  21
ATOM     21  C   UNL     1      60.161 154.279   8.965  1.00  0.00     0.000 C 
BRANCH  21  22
ATOM     22  C   UNL     1      60.934 153.495   7.887  1.00  0.00     0.000 C 
BRANCH  22  23
ATOM     23  C   UNL     1      60.730 151.967   7.906  1.00  0.00     0.000 C 
BRANCH  23  24
ATOM     24  C   UNL     1      59.931 151.456   9.125  1.00  0.00    -0.000 C 
BRANCH  24  25
ATOM     25  C   UNL     1      58.426 151.347   8.830  1.00  0.00    -0.000 C 
BRANCH  25  26
ATOM     26  C   UNL     1      57.913 149.894   8.812  1.00  0.00    -0.000 C 
BRANCH  26  27
ATOM     27  C   UNL     1      58.994 148.826   8.562  1.00  0.00    -0.000 C 
BRANCH  27  28
ATOM     28  C   UNL     1      59.158 148.384   7.096  1.00  0.00    -0.000 C 
BRANCH  28  29
ATOM     29  C   UNL     1      60.361 149.032   6.370  1.00  0.00    -0.000 C 
BRANCH  29  30
ATOM     30  C   UNL     1      61.659 148.205   6.418  1.00  0.00    -0.000 C 
BRANCH  30  31
ATOM     31  C   UNL     1      62.103 147.710   5.033  1.00  0.00    -0.003 C 
ATOM     32  C   UNL     1      62.121 146.185   4.976  1.00  0.00     0.004 C 
ENDBRANCH  30  31
ENDBRANCH  29  30
ENDBRANCH  28  29
ENDBRANCH  27  28
ENDBRANCH  26  27
ENDBRANCH  25  26
ENDBRANCH  24  25
ENDBRANCH  23  24
ENDBRANCH  22  23
ENDBRANCH  21  22
ENDBRANCH  20  21
ENDBRANCH  19  20
ENDBRANCH  18  19
ENDBRANCH   1  18
TORSDOF 28
ENDMDL
MODEL 8
REMARK VINA RESULT:    -3.845      1.941      6.519
REMARK INTER + INTRA:         -13.471
REMARK INTER:                  -9.921
REMARK INTRA:                  -3.550
REMARK UNBOUND:                -3.333
REMARK SMILES CCCCCCCCCCCCCCCCCCCCCCCCCCCCCC(=O)[O-]
REMARK SMILES IDX 16 1 17 2 18 3 19 4 20 5 21 6 22 7 23 8 24 9 25 10 26 11
REMARK SMILES IDX 27 12 28 13 29 14 30 15 31 16 32 17 15 18 14 19 13 20 12 21
REMARK SMILES IDX 11 22 10 23 9 24 8 25 7 26 6 27 5 28 4 29 3 30 2 31 1 32
REMARK H PARENT
REMARK Flexibility Score: inf
ROOT
ATOM      1  C   UNL     1      61.406 151.823   1.477  1.00  0.00     0.000 C 
ENDROOT
BRANCH   1   2
ATOM      2  C   UNL     1      62.354 151.991   2.676  1.00  0.00     0.000 C 
BRANCH   2   3
ATOM      3  C   UNL     1      61.720 151.564   4.012  1.00  0.00     0.000 C 
BRANCH   3   4
ATOM      4  C   UNL     1      62.643 151.827   5.212  1.00  0.00     0.000 C 
BRANCH   4   5
ATOM      5  C   UNL     1      64.131 151.815   4.824  1.00  0.00     0.000 C 
BRANCH   5   6
ATOM      6  C   UNL     1      64.850 150.529   5.270  1.00  0.00     0.000 C 
BRANCH   6   7
ATOM      7  C   UNL     1      64.382 149.239   4.563  1.00  0.00     0.000 C 
BRANCH   7   8
ATOM      8  C   UNL     1      63.297 148.444   5.312  1.00  0.00     0.000 C 
BRANCH   8   9
ATOM      9  C   UNL     1      63.252 148.765   6.812  1.00  0.00     0.000 C 
BRANCH   9  10
ATOM     10  C   UNL     1      61.902 149.391   7.198  1.00  0.00     0.000 C 
BRANCH  10  11
ATOM     11  C   UNL     1      60.746 148.908   6.308  1.00  0.00     0.000 C 
BRANCH  11  12
ATOM     12  C   UNL     1      59.498 148.425   7.071  1.00  0.00     0.000 C 
BRANCH  12  13
ATOM     13  C   UNL     1      59.795 147.892   8.492  1.00  0.00     0.006 C 
BRANCH  13  14
ATOM     14  C   UNL     1      58.780 146.848   8.986  1.00  0.00     0.053 C 
BRANCH  14  15
ATOM     15  C   UNL     1      59.007 145.495   8.382  1.00  0.00     0.041 C 
ATOM     16  O   UNL     1      59.855 145.339   7.463  1.00  0.00    -0.550 OA
ATOM     17  O   UNL     1      58.247 144.410   8.807  1.00  0.00    -0.550 OA
ENDBRANCH  14  15
ENDBRANCH  13  14
ENDBRANCH  12  13
ENDBRANCH  11  12
ENDBRANCH  10  11
ENDBRANCH   9  10
ENDBRANCH   8   9
ENDBRANCH   7   8
ENDBRANCH   6   7
ENDBRANCH   5   6
ENDBRANCH   4   5
ENDBRANCH   3   4
ENDBRANCH   2   3
ENDBRANCH   1   2
BRANCH   1  18
ATOM     18  C   UNL     1      60.888 153.156   0.899  1.00  0.00     0.000 C 
BRANCH  18  19
ATOM     19  C   UNL     1      59.825 153.812   1.794  1.00  0.00     0.000 C 
BRANCH  19  20
ATOM     20  C   UNL     1      58.752 154.511   0.946  1.00  0.00     0.000 C 
BRANCH  20  21
ATOM     21  C   UNL     1      57.943 155.558   1.734  1.00  0.00     0.000 C 
BRANCH  21  22
ATOM     22  C   UNL     1      58.716 156.280   2.854  1.00  0.00     0.000 C 
BRANCH  22  23
ATOM     23  C   UNL     1      57.879 156.678   4.085  1.00  0.00     0.000 C 
BRANCH  23  24
ATOM     24  C   UNL     1      58.128 155.795   5.328  1.00  0.00    -0.000 C 
BRANCH  24  25
ATOM     25  C   UNL     1      59.286 154.806   5.115  1.00  0.00    -0.000 C 
BRANCH  25  26
ATOM     26  C   UNL     1      59.026 153.422   5.742  1.00  0.00    -0.000 C 
BRANCH  26  27
ATOM     27  C   UNL     1      58.036 153.418   6.921  1.00  0.00    -0.000 C 
BRANCH  27  28
ATOM     28  C   UNL     1      58.548 152.744   8.209  1.00  0.00    -0.000 C 
BRANCH  28  29
ATOM     29  C   UNL     1      59.963 152.130   8.083  1.00  0.00    -0.000 C 
BRANCH  29  30
ATOM     30  C   UNL     1      61.094 153.006   8.653  1.00  0.00    -0.000 C 
BRANCH  30  31
ATOM     31  C   UNL     1      61.827 153.813   7.571  1.00  0.00    -0.003 C 
ATOM     32  C   UNL     1      61.873 155.296   7.930  1.00  0.00     0.004 C 
ENDBRANCH  30  31
ENDBRANCH  29  30
ENDBRANCH  28  29
ENDBRANCH  27  28
ENDBRANCH  26  27
ENDBRANCH  25  26
ENDBRANCH  24  25
ENDBRANCH  23  24
ENDBRANCH  22  23
ENDBRANCH  21  22
ENDBRANCH  20  21
ENDBRANCH  19  20
ENDBRANCH  18  19
ENDBRANCH   1  18
TORSDOF 28
ENDMDL
MODEL 9
REMARK VINA RESULT:    -3.772      2.411      6.528
REMARK INTER + INTRA:         -13.279
REMARK INTER:                 -11.280
REMARK INTRA:                  -1.999
REMARK UNBOUND:                -3.333
REMARK SMILES CCCCCCCCCCCCCCCCCCCCCCCCCCCCCC(=O)[O-]
REMARK SMILES IDX 16 1 17 2 18 3 19 4 20 5 21 6 22 7 23 8 24 9 25 10 26 11
REMARK SMILES IDX 27 12 28 13 29 14 30 15 31 16 32 17 15 18 14 19 13 20 12 21
REMARK SMILES IDX 11 22 10 23 9 24 8 25 7 26 6 27 5 28 4 29 3 30 2 31 1 32
REMARK H PARENT
REMARK Flexibility Score: inf
ROOT
ATOM      1  C   UNL     1      60.808 150.898   6.327  1.00  0.00     0.000 C 
ENDROOT
BRANCH   1   2
ATOM      2  C   UNL     1      61.728 151.626   7.321  1.00  0.00     0.000 C 
BRANCH   2   3
ATOM      3  C   UNL     1      61.204 153.016   7.722  1.00  0.00     0.000 C 
BRANCH   3   4
ATOM      4  C   UNL     1      61.732 154.130   6.804  1.00  0.00     0.000 C 
BRANCH   4   5
ATOM      5  C   UNL     1      61.331 155.533   7.288  1.00  0.00     0.000 C 
BRANCH   5   6
ATOM      6  C   UNL     1      60.107 156.092   6.542  1.00  0.00     0.000 C 
BRANCH   6   7
ATOM      7  C   UNL     1      58.764 155.949   7.288  1.00  0.00     0.000 C 
BRANCH   7   8
ATOM      8  C   UNL     1      58.087 154.572   7.150  1.00  0.00     0.000 C 
BRANCH   8   9
ATOM      9  C   UNL     1      57.895 154.147   5.688  1.00  0.00     0.000 C 
BRANCH   9  10
ATOM     10  C   UNL     1      58.038 155.350   4.744  1.00  0.00     0.000 C 
BRANCH  10  11
ATOM     11  C   UNL     1      58.568 154.957   3.355  1.00  0.00     0.000 C 
BRANCH  11  12
ATOM     12  C   UNL     1      58.700 153.440   3.117  1.00  0.00     0.000 C 
BRANCH  12  13
ATOM     13  C   UNL     1      60.147 152.909   3.231  1.00  0.00     0.006 C 
BRANCH  13  14
ATOM     14  C   UNL     1      60.824 152.660   1.873  1.00  0.00     0.053 C 
BRANCH  14  15
ATOM     15  C   UNL     1      60.398 153.649   0.830  1.00  0.00     0.041 C 
ATOM     16  O   UNL     1      59.182 153.772   0.523  1.00  0.00    -0.550 OA
ATOM     17  O   UNL     1      61.355 154.406   0.163  1.00  0.00    -0.550 OA
ENDBRANCH  14  15
ENDBRANCH  13  14
ENDBRANCH  12  13
ENDBRANCH  11  12
ENDBRANCH  10  11
ENDBRANCH   9  10
ENDBRANCH   8   9
ENDBRANCH   7   8
ENDBRANCH   6   7
ENDBRANCH   5   6
ENDBRANCH   4   5
ENDBRANCH   3   4
ENDBRANCH   2   3
ENDBRANCH   1   2
BRANCH   1  18
ATOM     18  C   UNL     1      59.372 150.680   6.850  1.00  0.00     0.000 C 
BRANCH  18  19
ATOM     19  C   UNL     1      59.285 150.759   8.382  1.00  0.00     0.000 C 
BRANCH  19  20
ATOM     20  C   UNL     1      59.711 149.430   9.023  1.00  0.00     0.000 C 
BRANCH  20  21
ATOM     21  C   UNL     1      58.565 148.405   9.112  1.00  0.00     0.000 C 
BRANCH  21  22
ATOM     22  C   UNL     1      58.767 147.120   8.285  1.00  0.00     0.000 C 
BRANCH  22  23
ATOM     23  C   UNL     1      60.205 146.870   7.791  1.00  0.00     0.000 C 
BRANCH  23  24
ATOM     24  C   UNL     1      60.482 147.402   6.368  1.00  0.00    -0.000 C 
BRANCH  24  25
ATOM     25  C   UNL     1      61.703 146.728   5.721  1.00  0.00    -0.000 C 
BRANCH  25  26
ATOM     26  C   UNL     1      62.657 147.725   5.037  1.00  0.00    -0.000 C 
BRANCH  26  27
ATOM     27  C   UNL     1      63.339 148.728   5.986  1.00  0.00    -0.000 C 
BRANCH  27  28
ATOM     28  C   UNL     1      64.866 148.854   5.824  1.00  0.00    -0.000 C 
BRANCH  28  29
ATOM     29  C   UNL     1      65.337 150.239   5.320  1.00  0.00    -0.000 C 
BRANCH  29  30
ATOM     30  C   UNL     1      65.034 150.518   3.836  1.00  0.00    -0.000 C 
BRANCH  30  31
ATOM     31  C   UNL     1      63.749 151.335   3.633  1.00  0.00    -0.003 C 
ATOM     32  C   UNL     1      63.807 152.649   4.407  1.00  0.00     0.004 C 
ENDBRANCH  30  31
ENDBRANCH  29  30
ENDBRANCH  28  29
ENDBRANCH  27  28
ENDBRANCH  26  27
ENDBRANCH  25  26
ENDBRANCH  24  25
ENDBRANCH  23  24
ENDBRANCH  22  23
ENDBRANCH  21  22
ENDBRANCH  20  21
ENDBRANCH  19  20
ENDBRANCH  18  19
ENDBRANCH   1  18
TORSDOF 28
ENDMDL
