MODEL 1
REMARK VINA RESULT:    -4.033      0.000      0.000
REMARK INTER + INTRA:          -4.995
REMARK INTER:                  -4.741
REMARK INTRA:                  -0.254
REMARK UNBOUND:                -0.254
REMARK SMILES O=C([O-])C=Cc1ccc(O)c(O)c1
REMARK SMILES IDX 6 1 13 2 7 3 11 4 8 5 9 6 5 7 4 8 2 9 1 10 3 11 12 12 10 14
REMARK H PARENT 12 13 10 15
REMARK Flexibility Score: inf
ROOT
ATOM      1  C   UNL     1      -4.629  91.782 -16.214  1.00  0.00    -0.022 A 
ATOM      2  C   UNL     1      -4.970  91.138 -17.412  1.00  0.00     0.058 A 
ATOM      3  C   UNL     1      -5.343  92.925 -15.819  1.00  0.00     0.012 A 
ATOM      4  C   UNL     1      -5.977  91.654 -18.236  1.00  0.00     0.157 A 
ATOM      5  C   UNL     1      -6.348  93.444 -16.638  1.00  0.00     0.051 A 
ATOM      6  C   UNL     1      -6.668  92.816 -17.850  1.00  0.00     0.157 A 
ENDROOT
BRANCH   1   7
ATOM      7  C   UNL     1      -3.597  91.183 -15.340  1.00  0.00     0.010 C 
ATOM      8  C   UNL     1      -3.825  90.276 -14.377  1.00  0.00     0.025 C 
BRANCH   8   9
ATOM      9  C   UNL     1      -5.152  89.846 -13.894  1.00  0.00     0.064 C 
ATOM     10  O   UNL     1      -5.602  90.226 -12.782  1.00  0.00    -0.545 OA
ATOM     11  O   UNL     1      -5.889  88.947 -14.654  1.00  0.00    -0.545 OA
ENDBRANCH   8   9
ENDBRANCH   1   7
BRANCH   4  12
ATOM     12  O   UNL     1      -6.278  91.000 -19.429  1.00  0.00    -0.504 OA
ATOM     13  H   UNL     1      -6.573  90.032 -19.453  1.00  0.00     0.293 HD
ENDBRANCH   4  12
BRANCH   6  14
ATOM     14  O   UNL     1      -7.669  93.338 -18.667  1.00  0.00    -0.504 OA
ATOM     15  H   UNL     1      -7.965  94.305 -18.593  1.00  0.00     0.293 HD
ENDBRANCH   6  14
TORSDOF 4
ENDMDL
MODEL 2
REMARK VINA RESULT:    -3.996     10.013     11.255
REMARK INTER + INTRA:          -4.951
REMARK INTER:                  -4.667
REMARK INTRA:                  -0.284
REMARK UNBOUND:                -0.254
REMARK SMILES O=C([O-])C=Cc1ccc(O)c(O)c1
REMARK SMILES IDX 6 1 13 2 7 3 11 4 8 5 9 6 5 7 4 8 2 9 1 10 3 11 12 12 10 14
REMARK H PARENT 12 13 10 15
REMARK Flexibility Score: inf
ROOT
ATOM      1  C   UNL     1      -5.558  84.468  -9.707  1.00  0.00    -0.022 A 
ATOM      2  C   UNL     1      -4.547  85.107  -8.974  1.00  0.00     0.058 A 
ATOM      3  C   UNL     1      -5.426  83.105 -10.017  1.00  0.00     0.012 A 
ATOM      4  C   UNL     1      -3.393  84.411  -8.597  1.00  0.00     0.157 A 
ATOM      5  C   UNL     1      -4.275  82.406  -9.644  1.00  0.00     0.051 A 
ATOM      6  C   UNL     1      -3.253  83.054  -8.937  1.00  0.00     0.157 A 
ENDROOT
BRANCH   1   7
ATOM      7  C   UNL     1      -6.788  85.215 -10.044  1.00  0.00     0.010 C 
ATOM      8  C   UNL     1      -7.878  85.311  -9.265  1.00  0.00     0.025 C 
BRANCH   8   9
ATOM      9  C   UNL     1      -8.120  84.552  -8.023  1.00  0.00     0.064 C 
ATOM     10  O   UNL     1      -7.864  85.041  -6.892  1.00  0.00    -0.545 OA
ATOM     11  O   UNL     1      -8.577  83.243  -8.109  1.00  0.00    -0.545 OA
ENDBRANCH   8   9
ENDBRANCH   1   7
BRANCH   4  12
ATOM     12  O   UNL     1      -2.399  85.081  -7.886  1.00  0.00    -0.504 OA
ATOM     13  H   UNL     1      -2.185  84.860  -6.921  1.00  0.00     0.293 HD
ENDBRANCH   4  12
BRANCH   6  14
ATOM     14  O   UNL     1      -2.103  82.356  -8.569  1.00  0.00    -0.504 OA
ATOM     15  H   UNL     1      -1.765  82.358  -7.613  1.00  0.00     0.293 HD
ENDBRANCH   6  14
TORSDOF 4
ENDMDL
MODEL 3
REMARK VINA RESULT:    -3.993     10.937     11.596
REMARK INTER + INTRA:          -4.947
REMARK INTER:                  -4.670
REMARK INTRA:                  -0.278
REMARK UNBOUND:                -0.254
REMARK SMILES O=C([O-])C=Cc1ccc(O)c(O)c1
REMARK SMILES IDX 6 1 13 2 7 3 11 4 8 5 9 6 5 7 4 8 2 9 1 10 3 11 12 12 10 14
REMARK H PARENT 12 13 10 15
REMARK Flexibility Score: inf
ROOT
ATOM      1  C   UNL     1      -3.594  83.701  -7.254  1.00  0.00    -0.022 A 
ATOM      2  C   UNL     1      -3.443  83.348  -8.603  1.00  0.00     0.058 A 
ATOM      3  C   UNL     1      -4.880  83.736  -6.692  1.00  0.00     0.012 A 
ATOM      4  C   UNL     1      -4.564  83.082  -9.398  1.00  0.00     0.157 A 
ATOM      5  C   UNL     1      -6.002  83.472  -7.482  1.00  0.00     0.051 A 
ATOM      6  C   UNL     1      -5.851  83.148  -8.837  1.00  0.00     0.157 A 
ENDROOT
BRANCH   1   7
ATOM      7  C   UNL     1      -2.390  83.925  -6.426  1.00  0.00     0.010 C 
ATOM      8  C   UNL     1      -1.877  85.124  -6.108  1.00  0.00     0.025 C 
BRANCH   8   9
ATOM      9  C   UNL     1      -2.305  86.421  -6.666  1.00  0.00     0.064 C 
ATOM     10  O   UNL     1      -1.955  86.790  -7.818  1.00  0.00    -0.545 OA
ATOM     11  O   UNL     1      -3.055  87.282  -5.875  1.00  0.00    -0.545 OA
ENDBRANCH   8   9
ENDBRANCH   1   7
BRANCH   4  12
ATOM     12  O   UNL     1      -4.380  82.752 -10.740  1.00  0.00    -0.504 OA
ATOM     13  H   UNL     1      -4.938  82.045 -11.202  1.00  0.00     0.293 HD
ENDBRANCH   4  12
BRANCH   6  14
ATOM     14  O   UNL     1      -6.972  82.888  -9.625  1.00  0.00    -0.504 OA
ATOM     15  H   UNL     1      -7.722  82.290  -9.299  1.00  0.00     0.293 HD
ENDBRANCH   6  14
TORSDOF 4
ENDMDL
MODEL 4
REMARK VINA RESULT:    -3.916      8.824     10.798
REMARK INTER + INTRA:          -4.856
REMARK INTER:                  -4.570
REMARK INTRA:                  -0.287
REMARK UNBOUND:                -0.254
REMARK SMILES O=C([O-])C=Cc1ccc(O)c(O)c1
REMARK SMILES IDX 6 1 13 2 7 3 11 4 8 5 9 6 5 7 4 8 2 9 1 10 3 11 12 12 10 14
REMARK H PARENT 12 13 10 15
REMARK Flexibility Score: inf
ROOT
ATOM      1  C   UNL     1      -5.026  83.521  -9.432  1.00  0.00    -0.022 A 
ATOM      2  C   UNL     1      -6.383  83.190  -9.557  1.00  0.00     0.058 A 
ATOM      3  C   UNL     1      -4.639  84.870  -9.475  1.00  0.00     0.012 A 
ATOM      4  C   UNL     1      -7.341  84.187  -9.775  1.00  0.00     0.157 A 
ATOM      5  C   UNL     1      -5.592  85.869  -9.693  1.00  0.00     0.051 A 
ATOM      6  C   UNL     1      -6.944  85.533  -9.847  1.00  0.00     0.157 A 
ENDROOT
BRANCH   1   7
ATOM      7  C   UNL     1      -4.044  82.452  -9.150  1.00  0.00     0.010 C 
ATOM      8  C   UNL     1      -3.721  81.994  -7.930  1.00  0.00     0.025 C 
BRANCH   8   9
ATOM      9  C   UNL     1      -4.145  82.587  -6.647  1.00  0.00     0.064 C 
ATOM     10  O   UNL     1      -5.159  82.167  -6.030  1.00  0.00    -0.545 OA
ATOM     11  O   UNL     1      -3.447  83.678  -6.144  1.00  0.00    -0.545 OA
ENDBRANCH   8   9
ENDBRANCH   1   7
BRANCH   4  12
ATOM     12  O   UNL     1      -8.679  83.822  -9.914  1.00  0.00    -0.504 OA
ATOM     13  H   UNL     1      -9.353  83.952  -9.169  1.00  0.00     0.293 HD
ENDBRANCH   4  12
BRANCH   6  14
ATOM     14  O   UNL     1      -7.893  86.531 -10.068  1.00  0.00    -0.504 OA
ATOM     15  H   UNL     1      -8.838  86.309 -10.357  1.00  0.00     0.293 HD
ENDBRANCH   6  14
TORSDOF 4
ENDMDL
MODEL 5
REMARK VINA RESULT:    -3.900     10.721     12.049
REMARK INTER + INTRA:          -4.837
REMARK INTER:                  -4.617
REMARK INTRA:                  -0.220
REMARK UNBOUND:                -0.254
REMARK SMILES O=C([O-])C=Cc1ccc(O)c(O)c1
REMARK SMILES IDX 6 1 13 2 7 3 11 4 8 5 9 6 5 7 4 8 2 9 1 10 3 11 12 12 10 14
REMARK H PARENT 12 13 10 15
REMARK Flexibility Score: inf
ROOT
ATOM      1  C   UNL     1      -6.171  83.651  -8.983  1.00  0.00    -0.022 A 
ATOM      2  C   UNL     1      -5.364  83.179 -10.029  1.00  0.00     0.058 A 
ATOM      3  C   UNL     1      -5.785  83.413  -7.655  1.00  0.00     0.012 A 
ATOM      4  C   UNL     1      -4.212  82.432  -9.757  1.00  0.00     0.157 A 
ATOM      5  C   UNL     1      -4.636  82.667  -7.378  1.00  0.00     0.051 A 
ATOM      6  C   UNL     1      -3.847  82.170  -8.425  1.00  0.00     0.157 A 
ENDROOT
BRANCH   1   7
ATOM      7  C   UNL     1      -7.352  84.482  -9.301  1.00  0.00     0.010 C 
ATOM      8  C   UNL     1      -8.631  84.108  -9.138  1.00  0.00     0.025 C 
BRANCH   8   9
ATOM      9  C   UNL     1      -9.096  82.752  -8.788  1.00  0.00     0.064 C 
ATOM     10  O   UNL     1      -9.534  81.959  -9.663  1.00  0.00    -0.545 OA
ATOM     11  O   UNL     1      -9.115  82.367  -7.454  1.00  0.00    -0.545 OA
ENDBRANCH   8   9
ENDBRANCH   1   7
BRANCH   4  12
ATOM     12  O   UNL     1      -3.443  81.961 -10.820  1.00  0.00    -0.504 OA
ATOM     13  H   UNL     1      -3.860  81.637 -11.684  1.00  0.00     0.293 HD
ENDBRANCH   4  12
BRANCH   6  14
ATOM     14  O   UNL     1      -2.703  81.424  -8.147  1.00  0.00    -0.504 OA
ATOM     15  H   UNL     1      -2.740  80.417  -8.038  1.00  0.00     0.293 HD
ENDBRANCH   6  14
TORSDOF 4
ENDMDL
MODEL 6
REMARK VINA RESULT:    -3.895      1.414      4.830
REMARK INTER + INTRA:          -4.832
REMARK INTER:                  -4.600
REMARK INTRA:                  -0.232
REMARK UNBOUND:                -0.254
REMARK SMILES O=C([O-])C=Cc1ccc(O)c(O)c1
REMARK SMILES IDX 6 1 13 2 7 3 11 4 8 5 9 6 5 7 4 8 2 9 1 10 3 11 12 12 10 14
REMARK H PARENT 12 13 10 15
REMARK Flexibility Score: inf
ROOT
ATOM      1  C   UNL     1      -5.905  92.240 -16.017  1.00  0.00    -0.022 A 
ATOM      2  C   UNL     1      -6.152  90.884 -15.759  1.00  0.00     0.058 A 
ATOM      3  C   UNL     1      -4.643  92.778 -15.715  1.00  0.00     0.012 A 
ATOM      4  C   UNL     1      -5.173  90.083 -15.159  1.00  0.00     0.157 A 
ATOM      5  C   UNL     1      -3.663  91.984 -15.116  1.00  0.00     0.051 A 
ATOM      6  C   UNL     1      -3.923  90.636 -14.831  1.00  0.00     0.157 A 
ENDROOT
BRANCH   1   7
ATOM      7  C   UNL     1      -6.939  93.047 -16.699  1.00  0.00     0.010 C 
ATOM      8  C   UNL     1      -7.069  93.181 -18.028  1.00  0.00     0.025 C 
BRANCH   8   9
ATOM      9  C   UNL     1      -6.108  92.702 -19.042  1.00  0.00     0.064 C 
ATOM     10  O   UNL     1      -5.406  93.503 -19.713  1.00  0.00    -0.545 OA
ATOM     11  O   UNL     1      -6.028  91.342 -19.307  1.00  0.00    -0.545 OA
ENDBRANCH   8   9
ENDBRANCH   1   7
BRANCH   4  12
ATOM     12  O   UNL     1      -5.459  88.744 -14.898  1.00  0.00    -0.504 OA
ATOM     13  H   UNL     1      -5.987  88.170 -15.545  1.00  0.00     0.293 HD
ENDBRANCH   4  12
BRANCH   6  14
ATOM     14  O   UNL     1      -2.945  89.845 -14.230  1.00  0.00    -0.504 OA
ATOM     15  H   UNL     1      -2.424  89.154 -14.757  1.00  0.00     0.293 HD
ENDBRANCH   6  14
TORSDOF 4
ENDMDL
MODEL 7
REMARK VINA RESULT:    -3.835      2.872      4.434
REMARK INTER + INTRA:          -4.761
REMARK INTER:                  -4.499
REMARK INTRA:                  -0.262
REMARK UNBOUND:                -0.254
REMARK SMILES O=C([O-])C=Cc1ccc(O)c(O)c1
REMARK SMILES IDX 6 1 13 2 7 3 11 4 8 5 9 6 5 7 4 8 2 9 1 10 3 11 12 12 10 14
REMARK H PARENT 12 13 10 15
REMARK Flexibility Score: inf
ROOT
ATOM      1  C   UNL     1      -6.827  91.024 -14.100  1.00  0.00    -0.022 A 
ATOM      2  C   UNL     1      -6.324  90.669 -15.360  1.00  0.00     0.058 A 
ATOM      3  C   UNL     1      -5.959  91.062 -12.998  1.00  0.00     0.012 A 
ATOM      4  C   UNL     1      -4.981  90.304 -15.513  1.00  0.00     0.157 A 
ATOM      5  C   UNL     1      -4.618  90.698 -13.145  1.00  0.00     0.051 A 
ATOM      6  C   UNL     1      -4.124  90.315 -14.399  1.00  0.00     0.157 A 
ENDROOT
BRANCH   1   7
ATOM      7  C   UNL     1      -8.237  91.455 -13.980  1.00  0.00     0.010 C 
ATOM      8  C   UNL     1      -9.255  90.680 -13.574  1.00  0.00     0.025 C 
BRANCH   8   9
ATOM      9  C   UNL     1      -9.193  89.222 -13.348  1.00  0.00     0.064 C 
ATOM     10  O   UNL     1      -9.723  88.409 -14.149  1.00  0.00    -0.545 OA
ATOM     11  O   UNL     1      -8.594  88.743 -12.190  1.00  0.00    -0.545 OA
ENDBRANCH   8   9
ENDBRANCH   1   7
BRANCH   4  12
ATOM     12  O   UNL     1      -4.517  89.938 -16.775  1.00  0.00    -0.504 OA
ATOM     13  H   UNL     1      -4.475  88.971 -17.073  1.00  0.00     0.293 HD
ENDBRANCH   4  12
BRANCH   6  14
ATOM     14  O   UNL     1      -2.786  89.949 -14.543  1.00  0.00    -0.504 OA
ATOM     15  H   UNL     1      -2.178  89.834 -13.740  1.00  0.00     0.293 HD
ENDBRANCH   6  14
TORSDOF 4
ENDMDL
MODEL 8
REMARK VINA RESULT:    -3.802      2.052      4.913
REMARK INTER + INTRA:          -4.722
REMARK INTER:                  -4.437
REMARK INTRA:                  -0.286
REMARK UNBOUND:                -0.254
REMARK SMILES O=C([O-])C=Cc1ccc(O)c(O)c1
REMARK SMILES IDX 6 1 13 2 7 3 11 4 8 5 9 6 5 7 4 8 2 9 1 10 3 11 12 12 10 14
REMARK H PARENT 12 13 10 15
REMARK Flexibility Score: inf
ROOT
ATOM      1  C   UNL     1      -5.394  91.584 -16.742  1.00  0.00    -0.022 A 
ATOM      2  C   UNL     1      -4.479  90.650 -16.237  1.00  0.00     0.058 A 
ATOM      3  C   UNL     1      -5.701  92.726 -15.985  1.00  0.00     0.012 A 
ATOM      4  C   UNL     1      -3.914  90.821 -14.968  1.00  0.00     0.157 A 
ATOM      5  C   UNL     1      -5.140  92.902 -14.717  1.00  0.00     0.051 A 
ATOM      6  C   UNL     1      -4.248  91.951 -14.201  1.00  0.00     0.157 A 
ENDROOT
BRANCH   1   7
ATOM      7  C   UNL     1      -5.933  91.402 -18.107  1.00  0.00     0.010 C 
ATOM      8  C   UNL     1      -5.320  91.775 -19.241  1.00  0.00     0.025 C 
BRANCH   8   9
ATOM      9  C   UNL     1      -4.092  92.589 -19.331  1.00  0.00     0.064 C 
ATOM     10  O   UNL     1      -2.963  92.060 -19.506  1.00  0.00    -0.545 OA
ATOM     11  O   UNL     1      -4.178  93.964 -19.151  1.00  0.00    -0.545 OA
ENDBRANCH   8   9
ENDBRANCH   1   7
BRANCH   4  12
ATOM     12  O   UNL     1      -3.022  89.864 -14.487  1.00  0.00    -0.504 OA
ATOM     13  H   UNL     1      -2.034  89.891 -14.705  1.00  0.00     0.293 HD
ENDBRANCH   4  12
BRANCH   6  14
ATOM     14  O   UNL     1      -3.692  92.127 -12.935  1.00  0.00    -0.504 OA
ATOM     15  H   UNL     1      -4.053  92.819 -12.289  1.00  0.00     0.293 HD
ENDBRANCH   6  14
TORSDOF 4
ENDMDL
MODEL 9
REMARK VINA RESULT:    -3.780      1.620      2.326
REMARK INTER + INTRA:          -4.697
REMARK INTER:                  -4.414
REMARK INTRA:                  -0.283
REMARK UNBOUND:                -0.254
REMARK SMILES O=C([O-])C=Cc1ccc(O)c(O)c1
REMARK SMILES IDX 6 1 13 2 7 3 11 4 8 5 9 6 5 7 4 8 2 9 1 10 3 11 12 12 10 14
REMARK H PARENT 12 13 10 15
REMARK Flexibility Score: inf
ROOT
ATOM      1  C   UNL     1      -4.546  92.321 -16.388  1.00  0.00    -0.022 A 
ATOM      2  C   UNL     1      -5.587  91.892 -17.223  1.00  0.00     0.058 A 
ATOM      3  C   UNL     1      -3.256  92.474 -16.921  1.00  0.00     0.012 A 
ATOM      4  C   UNL     1      -5.339  91.568 -18.562  1.00  0.00     0.157 A 
ATOM      5  C   UNL     1      -3.003  92.152 -18.257  1.00  0.00     0.051 A 
ATOM      6  C   UNL     1      -4.039  91.695 -19.082  1.00  0.00     0.157 A 
ENDROOT
BRANCH   1   7
ATOM      7  C   UNL     1      -4.849  92.705 -14.993  1.00  0.00     0.010 C 
ATOM      8  C   UNL     1      -4.793  91.885 -13.931  1.00  0.00     0.025 C 
BRANCH   8   9
ATOM      9  C   UNL     1      -4.598  90.423 -13.979  1.00  0.00     0.064 C 
ATOM     10  O   UNL     1      -3.447  89.914 -14.031  1.00  0.00    -0.545 OA
ATOM     11  O   UNL     1      -5.710  89.594 -14.037  1.00  0.00    -0.545 OA
ENDBRANCH   8   9
ENDBRANCH   1   7
BRANCH   4  12
ATOM     12  O   UNL     1      -6.394  91.127 -19.360  1.00  0.00    -0.504 OA
ATOM     13  H   UNL     1      -6.244  90.553 -20.181  1.00  0.00     0.293 HD
ENDBRANCH   4  12
BRANCH   6  14
ATOM     14  O   UNL     1      -3.784  91.371 -20.414  1.00  0.00    -0.504 OA
ATOM     15  H   UNL     1      -3.674  90.409 -20.714  1.00  0.00     0.293 HD
ENDBRANCH   6  14
TORSDOF 4
ENDMDL
