MODEL 1
REMARK VINA RESULT:    -4.614      0.000      0.000
REMARK INTER + INTRA:          -4.614
REMARK INTER:                  -4.614
REMARK INTRA:                   0.000
REMARK UNBOUND:                 0.000
REMARK SMILES C=C1CC[C@H]2C[C@@H]1C2(C)C
REMARK SMILES IDX 9 1 8 2 5 3 4 4 3 5 2 6 1 7 7 8 6 9 10 10
REMARK H PARENT
REMARK Flexibility Score: inf
ROOT
ATOM      1  C   UNL     1     182.654 182.607 176.287  1.00  0.00     0.012 C 
ATOM      2  C   UNL     1     181.974 181.355 175.678  1.00  0.00    -0.026 C 
ATOM      3  C   UNL     1     180.805 181.732 174.735  1.00  0.00    -0.004 C 
ATOM      4  C   UNL     1     180.399 180.524 173.831  1.00  0.00     0.008 C 
ATOM      5  C   UNL     1     180.144 179.208 174.659  1.00  0.00     0.031 C 
ATOM      6  C   UNL     1     180.514 179.370 176.142  1.00  0.00    -0.074 C 
ATOM      7  C   UNL     1     180.502 178.328 176.980  1.00  0.00     0.008 C 
ATOM      8  C   UNL     1     180.890 180.770 176.615  1.00  0.00     0.021 C 
ATOM      9  C   UNL     1     179.864 181.703 175.952  1.00  0.00     0.012 C 
ATOM     10  C   UNL     1     183.082 180.404 175.149  1.00  0.00     0.012 C 
ENDROOT
TORSDOF 0
ENDMDL
MODEL 2
REMARK VINA RESULT:    -4.476      6.275      7.783
REMARK INTER + INTRA:          -4.476
REMARK INTER:                  -4.476
REMARK INTRA:                   0.000
REMARK UNBOUND:                 0.000
REMARK SMILES C=C1CC[C@H]2C[C@@H]1C2(C)C
REMARK SMILES IDX 9 1 8 2 5 3 4 4 3 5 2 6 1 7 7 8 6 9 10 10
REMARK H PARENT
REMARK Flexibility Score: inf
ROOT
ATOM      1  C   UNL     1     172.548 178.560 176.378  1.00  0.00     0.012 C 
ATOM      2  C   UNL     1     173.353 179.869 176.183  1.00  0.00    -0.026 C 
ATOM      3  C   UNL     1     172.551 180.930 175.388  1.00  0.00    -0.004 C 
ATOM      4  C   UNL     1     173.186 182.349 175.545  1.00  0.00     0.008 C 
ATOM      5  C   UNL     1     174.731 182.358 175.231  1.00  0.00     0.031 C 
ATOM      6  C   UNL     1     175.290 180.944 175.008  1.00  0.00    -0.074 C 
ATOM      7  C   UNL     1     176.602 180.729 174.868  1.00  0.00     0.008 C 
ATOM      8  C   UNL     1     174.283 179.800 174.948  1.00  0.00     0.021 C 
ATOM      9  C   UNL     1     173.124 180.334 174.090  1.00  0.00     0.012 C 
ATOM     10  C   UNL     1     173.971 180.272 177.549  1.00  0.00     0.012 C 
ENDROOT
TORSDOF 0
ENDMDL
MODEL 3
REMARK VINA RESULT:    -4.473      5.256      7.198
REMARK INTER + INTRA:          -4.473
REMARK INTER:                  -4.473
REMARK INTRA:                   0.000
REMARK UNBOUND:                 0.000
REMARK SMILES C=C1CC[C@H]2C[C@@H]1C2(C)C
REMARK SMILES IDX 9 1 8 2 5 3 4 4 3 5 2 6 1 7 7 8 6 9 10 10
REMARK H PARENT
REMARK Flexibility Score: inf
ROOT
ATOM      1  C   UNL     1     181.865 175.831 176.450  1.00  0.00     0.012 C 
ATOM      2  C   UNL     1     181.047 174.534 176.228  1.00  0.00    -0.026 C 
ATOM      3  C   UNL     1     181.846 173.473 175.432  1.00  0.00    -0.004 C 
ATOM      4  C   UNL     1     181.191 172.060 175.563  1.00  0.00     0.008 C 
ATOM      5  C   UNL     1     179.651 172.074 175.228  1.00  0.00     0.031 C 
ATOM      6  C   UNL     1     179.113 173.497 175.015  1.00  0.00    -0.074 C 
ATOM      7  C   UNL     1     177.805 173.731 174.860  1.00  0.00     0.008 C 
ATOM      8  C   UNL     1     180.135 174.629 174.982  1.00  0.00     0.021 C 
ATOM      9  C   UNL     1     181.298 174.090 174.134  1.00  0.00     0.012 C 
ATOM     10  C   UNL     1     180.405 174.123 177.581  1.00  0.00     0.012 C 
ENDROOT
TORSDOF 0
ENDMDL
MODEL 4
REMARK VINA RESULT:    -4.470      1.174      2.520
REMARK INTER + INTRA:          -4.470
REMARK INTER:                  -4.470
REMARK INTRA:                   0.000
REMARK UNBOUND:                 0.000
REMARK SMILES C=C1CC[C@H]2C[C@@H]1C2(C)C
REMARK SMILES IDX 9 1 8 2 5 3 4 4 3 5 2 6 1 7 7 8 6 9 10 10
REMARK H PARENT
REMARK Flexibility Score: inf
ROOT
ATOM      1  C   UNL     1     178.564 181.856 176.389  1.00  0.00     0.012 C 
ATOM      2  C   UNL     1     179.871 181.048 176.188  1.00  0.00    -0.026 C 
ATOM      3  C   UNL     1     180.934 181.852 175.399  1.00  0.00    -0.004 C 
ATOM      4  C   UNL     1     182.351 181.212 175.552  1.00  0.00     0.008 C 
ATOM      5  C   UNL     1     182.356 179.669 175.228  1.00  0.00     0.031 C 
ATOM      6  C   UNL     1     180.941 179.116 175.002  1.00  0.00    -0.074 C 
ATOM      7  C   UNL     1     180.721 177.805 174.854  1.00  0.00     0.008 C 
ATOM      8  C   UNL     1     179.799 180.126 174.948  1.00  0.00     0.021 C 
ATOM      9  C   UNL     1     180.337 181.289 174.098  1.00  0.00     0.012 C 
ATOM     10  C   UNL     1     180.272 180.420 177.551  1.00  0.00     0.012 C 
ENDROOT
TORSDOF 0
ENDMDL
MODEL 5
REMARK VINA RESULT:    -4.441      8.479     10.209
REMARK INTER + INTRA:          -4.441
REMARK INTER:                  -4.441
REMARK INTRA:                   0.000
REMARK UNBOUND:                 0.000
REMARK SMILES C=C1CC[C@H]2C[C@@H]1C2(C)C
REMARK SMILES IDX 9 1 8 2 5 3 4 4 3 5 2 6 1 7 7 8 6 9 10 10
REMARK H PARENT
REMARK Flexibility Score: inf
ROOT
ATOM      1  C   UNL     1     175.868 172.548 176.364  1.00  0.00     0.012 C 
ATOM      2  C   UNL     1     174.587 173.392 176.150  1.00  0.00    -0.026 C 
ATOM      3  C   UNL     1     173.519 172.627 175.329  1.00  0.00    -0.004 C 
ATOM      4  C   UNL     1     172.116 173.301 175.463  1.00  0.00     0.008 C 
ATOM      5  C   UNL     1     172.157 174.848 175.161  1.00  0.00     0.031 C 
ATOM      6  C   UNL     1     173.591 175.367 174.970  1.00  0.00    -0.074 C 
ATOM      7  C   UNL     1     173.847 176.674 174.844  1.00  0.00     0.008 C 
ATOM      8  C   UNL     1     174.707 174.328 174.924  1.00  0.00     0.021 C 
ATOM      9  C   UNL     1     174.155 173.191 174.047  1.00  0.00     0.012 C 
ATOM     10  C   UNL     1     174.176 174.012 177.513  1.00  0.00     0.012 C 
ENDROOT
TORSDOF 0
ENDMDL
MODEL 6
REMARK VINA RESULT:    -4.437      8.546     10.127
REMARK INTER + INTRA:          -4.437
REMARK INTER:                  -4.437
REMARK INTRA:                   0.000
REMARK UNBOUND:                 0.000
REMARK SMILES C=C1CC[C@H]2C[C@@H]1C2(C)C
REMARK SMILES IDX 9 1 8 2 5 3 4 4 3 5 2 6 1 7 7 8 6 9 10 10
REMARK H PARENT
REMARK Flexibility Score: inf
ROOT
ATOM      1  C   UNL     1     171.432 174.281 175.038  1.00  0.00     0.012 C 
ATOM      2  C   UNL     1     172.909 174.459 175.473  1.00  0.00    -0.026 C 
ATOM      3  C   UNL     1     173.875 173.617 174.603  1.00  0.00    -0.004 C 
ATOM      4  C   UNL     1     175.351 174.101 174.771  1.00  0.00     0.008 C 
ATOM      5  C   UNL     1     175.785 174.200 176.283  1.00  0.00     0.031 C 
ATOM      6  C   UNL     1     174.611 173.962 177.245  1.00  0.00    -0.074 C 
ATOM      7  C   UNL     1     174.744 174.140 178.564  1.00  0.00     0.008 C 
ATOM      8  C   UNL     1     173.291 173.507 176.631  1.00  0.00     0.021 C 
ATOM      9  C   UNL     1     173.682 172.450 175.586  1.00  0.00     0.012 C 
ATOM     10  C   UNL     1     173.190 175.977 175.643  1.00  0.00     0.012 C 
ENDROOT
TORSDOF 0
ENDMDL
MODEL 7
REMARK VINA RESULT:    -4.421      6.137      7.178
REMARK INTER + INTRA:          -4.421
REMARK INTER:                  -4.421
REMARK INTRA:                   0.000
REMARK UNBOUND:                 0.000
REMARK SMILES C=C1CC[C@H]2C[C@@H]1C2(C)C
REMARK SMILES IDX 9 1 8 2 5 3 4 4 3 5 2 6 1 7 7 8 6 9 10 10
REMARK H PARENT
REMARK Flexibility Score: inf
ROOT
ATOM      1  C   UNL     1     174.335 182.962 174.926  1.00  0.00     0.012 C 
ATOM      2  C   UNL     1     174.478 181.508 175.442  1.00  0.00    -0.026 C 
ATOM      3  C   UNL     1     173.599 180.518 174.638  1.00  0.00    -0.004 C 
ATOM      4  C   UNL     1     174.046 179.041 174.885  1.00  0.00     0.008 C 
ATOM      5  C   UNL     1     174.153 178.690 176.418  1.00  0.00     0.031 C 
ATOM      6  C   UNL     1     173.959 179.923 177.314  1.00  0.00    -0.074 C 
ATOM      7  C   UNL     1     174.152 179.860 178.636  1.00  0.00     0.008 C 
ATOM      8  C   UNL     1     173.532 181.219 176.632  1.00  0.00     0.021 C 
ATOM      9  C   UNL     1     172.451 180.798 175.622  1.00  0.00     0.012 C 
ATOM     10  C   UNL     1     175.990 181.196 175.610  1.00  0.00     0.012 C 
ENDROOT
TORSDOF 0
ENDMDL
MODEL 8
REMARK VINA RESULT:    -4.393      5.233      7.396
REMARK INTER + INTRA:          -4.393
REMARK INTER:                  -4.393
REMARK INTRA:                   0.000
REMARK UNBOUND:                 0.000
REMARK SMILES C=C1CC[C@H]2C[C@@H]1C2(C)C
REMARK SMILES IDX 9 1 8 2 5 3 4 4 3 5 2 6 1 7 7 8 6 9 10 10
REMARK H PARENT
REMARK Flexibility Score: inf
ROOT
ATOM      1  C   UNL     1     180.046 171.449 174.995  1.00  0.00     0.012 C 
ATOM      2  C   UNL     1     179.915 172.935 175.412  1.00  0.00    -0.026 C 
ATOM      3  C   UNL     1     180.748 173.869 174.500  1.00  0.00    -0.004 C 
ATOM      4  C   UNL     1     180.302 175.358 174.661  1.00  0.00     0.008 C 
ATOM      5  C   UNL     1     180.262 175.818 176.168  1.00  0.00     0.031 C 
ATOM      6  C   UNL     1     180.505 174.653 177.140  1.00  0.00    -0.074 C 
ATOM      7  C   UNL     1     180.373 174.810 178.462  1.00  0.00     0.008 C 
ATOM      8  C   UNL     1     180.912 173.314 176.533  1.00  0.00     0.021 C 
ATOM      9  C   UNL     1     181.943 173.665 175.448  1.00  0.00     0.012 C 
ATOM     10  C   UNL     1     178.409 173.252 175.626  1.00  0.00     0.012 C 
ENDROOT
TORSDOF 0
ENDMDL
MODEL 9
REMARK VINA RESULT:    -4.381      1.349      2.032
REMARK INTER + INTRA:          -4.381
REMARK INTER:                  -4.381
REMARK INTRA:                   0.000
REMARK UNBOUND:                 0.000
REMARK SMILES C=C1CC[C@H]2C[C@@H]1C2(C)C
REMARK SMILES IDX 9 1 8 2 5 3 4 4 3 5 2 6 1 7 7 8 6 9 10 10
REMARK H PARENT
REMARK Flexibility Score: inf
ROOT
ATOM      1  C   UNL     1     182.918 180.026 174.913  1.00  0.00     0.012 C 
ATOM      2  C   UNL     1     181.466 179.928 175.445  1.00  0.00    -0.026 C 
ATOM      3  C   UNL     1     180.489 180.808 174.627  1.00  0.00    -0.004 C 
ATOM      4  C   UNL     1     179.005 180.401 174.897  1.00  0.00     0.008 C 
ATOM      5  C   UNL     1     178.665 180.340 176.434  1.00  0.00     0.031 C 
ATOM      6  C   UNL     1     179.909 180.530 177.316  1.00  0.00    -0.074 C 
ATOM      7  C   UNL     1     179.853 180.372 178.643  1.00  0.00     0.008 C 
ATOM      8  C   UNL     1     181.208 180.911 176.612  1.00  0.00     0.021 C 
ATOM      9  C   UNL     1     180.803 181.975 175.579  1.00  0.00     0.012 C 
ATOM     10  C   UNL     1     181.122 178.428 175.654  1.00  0.00     0.012 C 
ENDROOT
TORSDOF 0
ENDMDL
