MODEL 1
REMARK VINA RESULT:    -5.452      0.000      0.000
REMARK INTER + INTRA:         -12.102
REMARK INTER:                 -10.551
REMARK INTRA:                  -1.551
REMARK UNBOUND:                -1.551
REMARK SMILES CCCCCCCCCCCCCCCCCC(=O)[O-]
REMARK SMILES IDX 10 1 11 2 12 3 13 4 14 5 15 6 16 7 17 8 18 9 19 10 20 11
REMARK SMILES IDX 9 12 8 13 7 14 6 15 5 16 4 17 3 18 2 19 1 20
REMARK H PARENT
REMARK Flexibility Score: inf
ROOT
ATOM      1  C   UNL     1     -10.323  14.026   9.341  1.00  0.00     0.000 C 
ENDROOT
BRANCH   1   2
ATOM      2  C   UNL     1     -10.872  12.615   9.082  1.00  0.00     0.000 C 
BRANCH   2   3
ATOM      3  C   UNL     1     -12.382  12.607   8.790  1.00  0.00     0.000 C 
BRANCH   3   4
ATOM      4  C   UNL     1     -12.756  11.660   7.639  1.00  0.00     0.000 C 
BRANCH   4   5
ATOM      5  C   UNL     1     -11.521  11.086   6.924  1.00  0.00     0.000 C 
BRANCH   5   6
ATOM      6  C   UNL     1     -11.799  10.729   5.452  1.00  0.00     0.000 C 
BRANCH   6   7
ATOM      7  C   UNL     1     -10.765  11.326   4.482  1.00  0.00     0.006 C 
BRANCH   7   8
ATOM      8  C   UNL     1     -10.032  12.562   5.034  1.00  0.00     0.053 C 
BRANCH   8   9
ATOM      9  C   UNL     1      -9.187  13.244   4.002  1.00  0.00     0.041 C 
ATOM     10  O   UNL     1      -9.724  13.930   3.093  1.00  0.00    -0.550 OA
ATOM     11  O   UNL     1      -7.802  13.147   4.062  1.00  0.00    -0.550 OA
ENDBRANCH   8   9
ENDBRANCH   7   8
ENDBRANCH   6   7
ENDBRANCH   5   6
ENDBRANCH   4   5
ENDBRANCH   3   4
ENDBRANCH   2   3
ENDBRANCH   1   2
BRANCH   1  12
ATOM     12  C   UNL     1      -9.151  14.340   8.404  1.00  0.00     0.000 C 
BRANCH  12  13
ATOM     13  C   UNL     1      -7.841  14.492   9.193  1.00  0.00    -0.000 C 
BRANCH  13  14
ATOM     14  C   UNL     1      -8.040  15.207  10.540  1.00  0.00    -0.000 C 
BRANCH  14  15
ATOM     15  C   UNL     1      -7.314  14.499  11.697  1.00  0.00    -0.000 C 
BRANCH  15  16
ATOM     16  C   UNL     1      -8.244  13.596  12.526  1.00  0.00    -0.000 C 
BRANCH  16  17
ATOM     17  C   UNL     1      -8.217  12.102  12.151  1.00  0.00    -0.000 C 
BRANCH  17  18
ATOM     18  C   UNL     1      -9.095  11.237  13.071  1.00  0.00    -0.000 C 
BRANCH  18  19
ATOM     19  C   UNL     1      -9.003   9.741  12.735  1.00  0.00    -0.003 C 
ATOM     20  C   UNL     1      -7.562   9.245  12.620  1.00  0.00     0.004 C 
ENDBRANCH  18  19
ENDBRANCH  17  18
ENDBRANCH  16  17
ENDBRANCH  15  16
ENDBRANCH  14  15
ENDBRANCH  13  14
ENDBRANCH  12  13
ENDBRANCH   1  12
TORSDOF 16
ENDMDL
MODEL 2
REMARK VINA RESULT:    -5.370      3.117      6.008
REMARK INTER + INTRA:         -11.945
REMARK INTER:                 -10.942
REMARK INTRA:                  -1.002
REMARK UNBOUND:                -1.551
REMARK SMILES CCCCCCCCCCCCCCCCCC(=O)[O-]
REMARK SMILES IDX 10 1 11 2 12 3 13 4 14 5 15 6 16 7 17 8 18 9 19 10 20 11
REMARK SMILES IDX 9 12 8 13 7 14 6 15 5 16 4 17 3 18 2 19 1 20
REMARK H PARENT
REMARK Flexibility Score: inf
ROOT
ATOM      1  C   UNL     1     -10.787  11.205   3.989  1.00  0.00     0.000 C 
ENDROOT
BRANCH   1   2
ATOM      2  C   UNL     1     -10.174  12.464   3.356  1.00  0.00     0.000 C 
BRANCH   2   3
ATOM      3  C   UNL     1      -8.994  13.023   4.167  1.00  0.00     0.000 C 
BRANCH   3   4
ATOM      4  C   UNL     1      -7.853  13.536   3.271  1.00  0.00     0.000 C 
BRANCH   4   5
ATOM      5  C   UNL     1      -7.163  12.404   2.491  1.00  0.00     0.000 C 
BRANCH   5   6
ATOM      6  C   UNL     1      -6.042  11.724   3.298  1.00  0.00     0.000 C 
BRANCH   6   7
ATOM      7  C   UNL     1      -6.103  10.188   3.237  1.00  0.00     0.006 C 
BRANCH   7   8
ATOM      8  C   UNL     1      -4.748   9.499   3.484  1.00  0.00     0.053 C 
BRANCH   8   9
ATOM      9  C   UNL     1      -4.681   8.816   4.816  1.00  0.00     0.041 C 
ATOM     10  O   UNL     1      -4.156   9.396   5.802  1.00  0.00    -0.550 OA
ATOM     11  O   UNL     1      -5.226   7.548   4.975  1.00  0.00    -0.550 OA
ENDBRANCH   8   9
ENDBRANCH   7   8
ENDBRANCH   6   7
ENDBRANCH   5   6
ENDBRANCH   4   5
ENDBRANCH   3   4
ENDBRANCH   2   3
ENDBRANCH   1   2
BRANCH   1  12
ATOM     12  C   UNL     1     -11.229  11.475   5.432  1.00  0.00     0.000 C 
BRANCH  12  13
ATOM     13  C   UNL     1     -12.032  10.291   5.992  1.00  0.00    -0.000 C 
BRANCH  13  14
ATOM     14  C   UNL     1     -12.198  10.355   7.519  1.00  0.00    -0.000 C 
BRANCH  14  15
ATOM     15  C   UNL     1     -12.272  11.799   8.044  1.00  0.00    -0.000 C 
BRANCH  15  16
ATOM     16  C   UNL     1     -11.117  12.150   8.999  1.00  0.00    -0.000 C 
BRANCH  16  17
ATOM     17  C   UNL     1     -10.916  13.654   9.264  1.00  0.00    -0.000 C 
BRANCH  17  18
ATOM     18  C   UNL     1      -9.504  14.142   8.899  1.00  0.00    -0.000 C 
BRANCH  18  19
ATOM     19  C   UNL     1      -8.831  14.909  10.048  1.00  0.00    -0.003 C 
ATOM     20  C   UNL     1      -7.688  14.127  10.694  1.00  0.00     0.004 C 
ENDBRANCH  18  19
ENDBRANCH  17  18
ENDBRANCH  16  17
ENDBRANCH  15  16
ENDBRANCH  14  15
ENDBRANCH  13  14
ENDBRANCH  12  13
ENDBRANCH   1  12
TORSDOF 16
ENDMDL
MODEL 3
REMARK VINA RESULT:    -5.365      4.285      5.184
REMARK INTER + INTRA:         -11.935
REMARK INTER:                 -10.660
REMARK INTRA:                  -1.275
REMARK UNBOUND:                -1.551
REMARK SMILES CCCCCCCCCCCCCCCCCC(=O)[O-]
REMARK SMILES IDX 10 1 11 2 12 3 13 4 14 5 15 6 16 7 17 8 18 9 19 10 20 11
REMARK SMILES IDX 9 12 8 13 7 14 6 15 5 16 4 17 3 18 2 19 1 20
REMARK H PARENT
REMARK Flexibility Score: inf
ROOT
ATOM      1  C   UNL     1     -11.563  13.477   8.913  1.00  0.00     0.000 C 
ENDROOT
BRANCH   1   2
ATOM      2  C   UNL     1     -11.263  11.977   8.766  1.00  0.00     0.000 C 
BRANCH   2   3
ATOM      3  C   UNL     1     -11.276  11.508   7.303  1.00  0.00     0.000 C 
BRANCH   3   4
ATOM      4  C   UNL     1     -12.663  11.018   6.852  1.00  0.00     0.000 C 
BRANCH   4   5
ATOM      5  C   UNL     1     -12.792   9.487   6.907  1.00  0.00     0.000 C 
BRANCH   5   6
ATOM      6  C   UNL     1     -13.044   8.963   8.333  1.00  0.00     0.000 C 
BRANCH   6   7
ATOM      7  C   UNL     1     -14.210   7.961   8.409  1.00  0.00     0.006 C 
BRANCH   7   8
ATOM      8  C   UNL     1     -13.840   6.539   7.951  1.00  0.00     0.053 C 
BRANCH   8   9
ATOM      9  C   UNL     1     -15.041   5.664   7.751  1.00  0.00     0.041 C 
ATOM     10  O   UNL     1     -15.020   4.743   6.893  1.00  0.00    -0.550 OA
ATOM     11  O   UNL     1     -16.172   5.847   8.536  1.00  0.00    -0.550 OA
ENDBRANCH   8   9
ENDBRANCH   7   8
ENDBRANCH   6   7
ENDBRANCH   5   6
ENDBRANCH   4   5
ENDBRANCH   3   4
ENDBRANCH   2   3
ENDBRANCH   1   2
BRANCH   1  12
ATOM     12  C   UNL     1     -10.394  14.208   9.585  1.00  0.00     0.000 C 
BRANCH  12  13
ATOM     13  C   UNL     1      -9.172  14.264   8.654  1.00  0.00    -0.000 C 
BRANCH  13  14
ATOM     14  C   UNL     1      -7.877  14.631   9.397  1.00  0.00    -0.000 C 
BRANCH  14  15
ATOM     15  C   UNL     1      -8.067  15.806  10.371  1.00  0.00    -0.000 C 
BRANCH  15  16
ATOM     16  C   UNL     1      -7.550  15.501  11.788  1.00  0.00    -0.000 C 
BRANCH  16  17
ATOM     17  C   UNL     1      -7.108  14.046  12.029  1.00  0.00    -0.000 C 
BRANCH  17  18
ATOM     18  C   UNL     1      -8.092  13.258  12.910  1.00  0.00    -0.000 C 
BRANCH  18  19
ATOM     19  C   UNL     1      -8.063  11.749  12.619  1.00  0.00    -0.003 C 
ATOM     20  C   UNL     1      -9.401  11.218  12.105  1.00  0.00     0.004 C 
ENDBRANCH  18  19
ENDBRANCH  17  18
ENDBRANCH  16  17
ENDBRANCH  15  16
ENDBRANCH  14  15
ENDBRANCH  13  14
ENDBRANCH  12  13
ENDBRANCH   1  12
TORSDOF 16
ENDMDL
MODEL 4
REMARK VINA RESULT:    -5.354      4.945      7.052
REMARK INTER + INTRA:         -11.913
REMARK INTER:                 -10.641
REMARK INTRA:                  -1.272
REMARK UNBOUND:                -1.551
REMARK SMILES CCCCCCCCCCCCCCCCCC(=O)[O-]
REMARK SMILES IDX 10 1 11 2 12 3 13 4 14 5 15 6 16 7 17 8 18 9 19 10 20 11
REMARK SMILES IDX 9 12 8 13 7 14 6 15 5 16 4 17 3 18 2 19 1 20
REMARK H PARENT
REMARK Flexibility Score: inf
ROOT
ATOM      1  C   UNL     1      -6.194  11.733   2.764  1.00  0.00     0.000 C 
ENDROOT
BRANCH   1   2
ATOM      2  C   UNL     1      -7.191  12.901   2.705  1.00  0.00     0.000 C 
BRANCH   2   3
ATOM      3  C   UNL     1      -8.068  12.998   3.964  1.00  0.00     0.000 C 
BRANCH   3   4
ATOM      4  C   UNL     1      -9.479  13.527   3.660  1.00  0.00     0.000 C 
BRANCH   4   5
ATOM      5  C   UNL     1     -10.408  12.437   3.099  1.00  0.00     0.000 C 
BRANCH   5   6
ATOM      6  C   UNL     1     -10.501  11.205   4.018  1.00  0.00     0.000 C 
BRANCH   6   7
ATOM      7  C   UNL     1     -11.184  11.507   5.364  1.00  0.00     0.006 C 
BRANCH   7   8
ATOM      8  C   UNL     1     -12.018  10.338   5.916  1.00  0.00     0.053 C 
BRANCH   8   9
ATOM      9  C   UNL     1     -12.518  10.588   7.306  1.00  0.00     0.041 C 
ATOM     10  O   UNL     1     -12.994  11.710   7.618  1.00  0.00    -0.550 OA
ATOM     11  O   UNL     1     -12.485   9.569   8.250  1.00  0.00    -0.550 OA
ENDBRANCH   8   9
ENDBRANCH   7   8
ENDBRANCH   6   7
ENDBRANCH   5   6
ENDBRANCH   4   5
ENDBRANCH   3   4
ENDBRANCH   2   3
ENDBRANCH   1   2
BRANCH   1  12
ATOM     12  C   UNL     1      -6.922  10.385   2.696  1.00  0.00     0.000 C 
BRANCH  12  13
ATOM     13  C   UNL     1      -5.920   9.220   2.682  1.00  0.00    -0.000 C 
BRANCH  13  14
ATOM     14  C   UNL     1      -5.199   9.040   4.028  1.00  0.00    -0.000 C 
BRANCH  14  15
ATOM     15  C   UNL     1      -5.597   7.736   4.740  1.00  0.00    -0.000 C 
BRANCH  15  16
ATOM     16  C   UNL     1      -4.453   7.137   5.579  1.00  0.00    -0.000 C 
BRANCH  16  17
ATOM     17  C   UNL     1      -3.550   8.164   6.288  1.00  0.00    -0.000 C 
BRANCH  17  18
ATOM     18  C   UNL     1      -4.138   8.661   7.620  1.00  0.00    -0.000 C 
BRANCH  18  19
ATOM     19  C   UNL     1      -3.621  10.055   8.007  1.00  0.00    -0.003 C 
ATOM     20  C   UNL     1      -3.659  11.047   6.844  1.00  0.00     0.004 C 
ENDBRANCH  18  19
ENDBRANCH  17  18
ENDBRANCH  16  17
ENDBRANCH  15  16
ENDBRANCH  14  15
ENDBRANCH  13  14
ENDBRANCH  12  13
ENDBRANCH   1  12
TORSDOF 16
ENDMDL
MODEL 5
REMARK VINA RESULT:    -5.328      1.363      2.730
REMARK INTER + INTRA:         -11.862
REMARK INTER:                 -10.490
REMARK INTRA:                  -1.372
REMARK UNBOUND:                -1.551
REMARK SMILES CCCCCCCCCCCCCCCCCC(=O)[O-]
REMARK SMILES IDX 10 1 11 2 12 3 13 4 14 5 15 6 16 7 17 8 18 9 19 10 20 11
REMARK SMILES IDX 9 12 8 13 7 14 6 15 5 16 4 17 3 18 2 19 1 20
REMARK H PARENT
REMARK Flexibility Score: inf
ROOT
ATOM      1  C   UNL     1     -12.068  12.285   8.841  1.00  0.00     0.000 C 
ENDROOT
BRANCH   1   2
ATOM      2  C   UNL     1     -12.103  11.033   7.952  1.00  0.00     0.000 C 
BRANCH   2   3
ATOM      3  C   UNL     1     -12.613  11.324   6.532  1.00  0.00     0.000 C 
BRANCH   3   4
ATOM      4  C   UNL     1     -11.649  10.822   5.444  1.00  0.00     0.000 C 
BRANCH   4   5
ATOM      5  C   UNL     1     -10.608  11.882   5.046  1.00  0.00     0.000 C 
BRANCH   5   6
ATOM      6  C   UNL     1     -10.514  12.079   3.522  1.00  0.00     0.000 C 
BRANCH   6   7
ATOM      7  C   UNL     1      -9.485  11.147   2.856  1.00  0.00     0.006 C 
BRANCH   7   8
ATOM      8  C   UNL     1      -8.044  11.687   2.884  1.00  0.00     0.053 C 
BRANCH   8   9
ATOM      9  C   UNL     1      -7.849  12.864   1.977  1.00  0.00     0.041 C 
ATOM     10  O   UNL     1      -7.875  12.715   0.728  1.00  0.00    -0.550 OA
ATOM     11  O   UNL     1      -7.668  14.132   2.514  1.00  0.00    -0.550 OA
ENDBRANCH   8   9
ENDBRANCH   7   8
ENDBRANCH   6   7
ENDBRANCH   5   6
ENDBRANCH   4   5
ENDBRANCH   3   4
ENDBRANCH   2   3
ENDBRANCH   1   2
BRANCH   1  12
ATOM     12  C   UNL     1     -10.637  12.596   9.296  1.00  0.00     0.000 C 
BRANCH  12  13
ATOM     13  C   UNL     1     -10.370  14.109   9.276  1.00  0.00    -0.000 C 
BRANCH  13  14
ATOM     14  C   UNL     1      -9.071  14.473   8.537  1.00  0.00    -0.000 C 
BRANCH  14  15
ATOM     15  C   UNL     1      -7.845  14.472   9.465  1.00  0.00    -0.000 C 
BRANCH  15  16
ATOM     16  C   UNL     1      -7.814  15.678  10.421  1.00  0.00    -0.000 C 
BRANCH  16  17
ATOM     17  C   UNL     1      -7.970  15.338  11.915  1.00  0.00    -0.000 C 
BRANCH  17  18
ATOM     18  C   UNL     1      -7.085  14.160  12.358  1.00  0.00    -0.000 C 
BRANCH  18  19
ATOM     19  C   UNL     1      -7.861  13.115  13.173  1.00  0.00    -0.003 C 
ATOM     20  C   UNL     1      -8.575  12.087  12.295  1.00  0.00     0.004 C 
ENDBRANCH  18  19
ENDBRANCH  17  18
ENDBRANCH  16  17
ENDBRANCH  15  16
ENDBRANCH  14  15
ENDBRANCH  13  14
ENDBRANCH  12  13
ENDBRANCH   1  12
TORSDOF 16
ENDMDL
MODEL 6
REMARK VINA RESULT:    -5.304      2.408      5.174
REMARK INTER + INTRA:         -11.816
REMARK INTER:                 -10.557
REMARK INTRA:                  -1.258
REMARK UNBOUND:                -1.551
REMARK SMILES CCCCCCCCCCCCCCCCCC(=O)[O-]
REMARK SMILES IDX 10 1 11 2 12 3 13 4 14 5 15 6 16 7 17 8 18 9 19 10 20 11
REMARK SMILES IDX 9 12 8 13 7 14 6 15 5 16 4 17 3 18 2 19 1 20
REMARK H PARENT
REMARK Flexibility Score: inf
ROOT
ATOM      1  C   UNL     1     -10.911  11.687   5.381  1.00  0.00     0.000 C 
ENDROOT
BRANCH   1   2
ATOM      2  C   UNL     1     -10.688  11.273   3.918  1.00  0.00     0.000 C 
BRANCH   2   3
ATOM      3  C   UNL     1     -10.516  12.477   2.978  1.00  0.00     0.000 C 
BRANCH   3   4
ATOM      4  C   UNL     1      -9.636  13.581   3.588  1.00  0.00     0.000 C 
BRANCH   4   5
ATOM      5  C   UNL     1      -8.227  13.617   2.972  1.00  0.00     0.000 C 
BRANCH   5   6
ATOM      6  C   UNL     1      -7.239  12.681   3.692  1.00  0.00     0.000 C 
BRANCH   6   7
ATOM      7  C   UNL     1      -6.435  11.795   2.725  1.00  0.00     0.006 C 
BRANCH   7   8
ATOM      8  C   UNL     1      -7.090  10.432   2.436  1.00  0.00     0.053 C 
BRANCH   8   9
ATOM      9  C   UNL     1      -7.548  10.299   1.016  1.00  0.00     0.041 C 
ATOM     10  O   UNL     1      -6.789   9.795   0.148  1.00  0.00    -0.550 OA
ATOM     11  O   UNL     1      -8.828  10.703   0.658  1.00  0.00    -0.550 OA
ENDBRANCH   8   9
ENDBRANCH   7   8
ENDBRANCH   6   7
ENDBRANCH   5   6
ENDBRANCH   4   5
ENDBRANCH   3   4
ENDBRANCH   2   3
ENDBRANCH   1   2
BRANCH   1  12
ATOM     12  C   UNL     1     -12.029  10.857   6.022  1.00  0.00     0.000 C 
BRANCH  12  13
ATOM     13  C   UNL     1     -12.454  11.456   7.372  1.00  0.00    -0.000 C 
BRANCH  13  14
ATOM     14  C   UNL     1     -11.255  11.819   8.264  1.00  0.00    -0.000 C 
BRANCH  14  15
ATOM     15  C   UNL     1     -11.445  13.162   8.989  1.00  0.00    -0.000 C 
BRANCH  15  16
ATOM     16  C   UNL     1     -10.126  13.932   9.182  1.00  0.00    -0.000 C 
BRANCH  16  17
ATOM     17  C   UNL     1      -9.312  13.541  10.429  1.00  0.00    -0.000 C 
BRANCH  17  18
ATOM     18  C   UNL     1      -7.878  14.097  10.406  1.00  0.00    -0.000 C 
BRANCH  18  19
ATOM     19  C   UNL     1      -7.680  15.255  11.397  1.00  0.00    -0.003 C 
ATOM     20  C   UNL     1      -8.152  16.599  10.843  1.00  0.00     0.004 C 
ENDBRANCH  18  19
ENDBRANCH  17  18
ENDBRANCH  16  17
ENDBRANCH  15  16
ENDBRANCH  14  15
ENDBRANCH  13  14
ENDBRANCH  12  13
ENDBRANCH   1  12
TORSDOF 16
ENDMDL
MODEL 7
REMARK VINA RESULT:    -5.225      2.006      3.793
REMARK INTER + INTRA:         -11.663
REMARK INTER:                 -10.437
REMARK INTRA:                  -1.226
REMARK UNBOUND:                -1.551
REMARK SMILES CCCCCCCCCCCCCCCCCC(=O)[O-]
REMARK SMILES IDX 10 1 11 2 12 3 13 4 14 5 15 6 16 7 17 8 18 9 19 10 20 11
REMARK SMILES IDX 9 12 8 13 7 14 6 15 5 16 4 17 3 18 2 19 1 20
REMARK H PARENT
REMARK Flexibility Score: inf
ROOT
ATOM      1  C   UNL     1     -12.008  10.699   7.673  1.00  0.00     0.000 C 
ENDROOT
BRANCH   1   2
ATOM      2  C   UNL     1     -11.942  10.713   6.138  1.00  0.00     0.000 C 
BRANCH   2   3
ATOM      3  C   UNL     1     -10.885  11.691   5.598  1.00  0.00     0.000 C 
BRANCH   3   4
ATOM      4  C   UNL     1     -10.786  11.663   4.063  1.00  0.00     0.000 C 
BRANCH   4   5
ATOM      5  C   UNL     1     -10.134  12.933   3.493  1.00  0.00     0.000 C 
BRANCH   5   6
ATOM      6  C   UNL     1      -8.622  13.002   3.774  1.00  0.00     0.000 C 
BRANCH   6   7
ATOM      7  C   UNL     1      -7.855  11.775   3.250  1.00  0.00     0.006 C 
BRANCH   7   8
ATOM      8  C   UNL     1      -6.327  11.959   3.224  1.00  0.00     0.053 C 
BRANCH   8   9
ATOM      9  C   UNL     1      -5.589  10.662   3.083  1.00  0.00     0.041 C 
ATOM     10  O   UNL     1      -5.538  10.077   1.970  1.00  0.00    -0.550 OA
ATOM     11  O   UNL     1      -4.932  10.114   4.178  1.00  0.00    -0.550 OA
ENDBRANCH   8   9
ENDBRANCH   7   8
ENDBRANCH   6   7
ENDBRANCH   5   6
ENDBRANCH   4   5
ENDBRANCH   3   4
ENDBRANCH   2   3
ENDBRANCH   1   2
BRANCH   1  12
ATOM     12  C   UNL     1     -12.099  12.124   8.233  1.00  0.00     0.000 C 
BRANCH  12  13
ATOM     13  C   UNL     1     -10.950  12.404   9.214  1.00  0.00    -0.000 C 
BRANCH  13  14
ATOM     14  C   UNL     1     -10.570  13.893   9.274  1.00  0.00    -0.000 C 
BRANCH  14  15
ATOM     15  C   UNL     1      -9.326  14.218   8.430  1.00  0.00    -0.000 C 
BRANCH  15  16
ATOM     16  C   UNL     1      -8.106  14.606   9.285  1.00  0.00    -0.000 C 
BRANCH  16  17
ATOM     17  C   UNL     1      -8.350  14.636  10.806  1.00  0.00    -0.000 C 
BRANCH  17  18
ATOM     18  C   UNL     1      -7.611  13.514  11.554  1.00  0.00    -0.000 C 
BRANCH  18  19
ATOM     19  C   UNL     1      -8.559  12.404  12.035  1.00  0.00    -0.003 C 
ATOM     20  C   UNL     1      -7.821  11.232  12.682  1.00  0.00     0.004 C 
ENDBRANCH  18  19
ENDBRANCH  17  18
ENDBRANCH  16  17
ENDBRANCH  15  16
ENDBRANCH  14  15
ENDBRANCH  13  14
ENDBRANCH  12  13
ENDBRANCH   1  12
TORSDOF 16
ENDMDL
MODEL 8
REMARK VINA RESULT:    -5.213      5.249      7.577
REMARK INTER + INTRA:         -11.640
REMARK INTER:                 -10.741
REMARK INTRA:                  -0.899
REMARK UNBOUND:                -1.551
REMARK SMILES CCCCCCCCCCCCCCCCCC(=O)[O-]
REMARK SMILES IDX 10 1 11 2 12 3 13 4 14 5 15 6 16 7 17 8 18 9 19 10 20 11
REMARK SMILES IDX 9 12 8 13 7 14 6 15 5 16 4 17 3 18 2 19 1 20
REMARK H PARENT
REMARK Flexibility Score: inf
ROOT
ATOM      1  C   UNL     1     -10.676  11.129   3.134  1.00  0.00     0.000 C 
ENDROOT
BRANCH   1   2
ATOM      2  C   UNL     1     -10.953  11.867   4.453  1.00  0.00     0.000 C 
BRANCH   2   3
ATOM      3  C   UNL     1     -11.595  10.962   5.517  1.00  0.00     0.000 C 
BRANCH   3   4
ATOM      4  C   UNL     1     -11.325  11.453   6.950  1.00  0.00     0.000 C 
BRANCH   4   5
ATOM      5  C   UNL     1     -12.038  10.597   8.009  1.00  0.00     0.000 C 
BRANCH   5   6
ATOM      6  C   UNL     1     -12.775   9.390   7.400  1.00  0.00     0.000 C 
BRANCH   6   7
ATOM      7  C   UNL     1     -13.467   8.510   8.457  1.00  0.00     0.006 C 
BRANCH   7   8
ATOM      8  C   UNL     1     -14.549   7.579   7.882  1.00  0.00     0.053 C 
BRANCH   8   9
ATOM      9  C   UNL     1     -14.099   6.153   7.793  1.00  0.00     0.041 C 
ATOM     10  O   UNL     1     -13.062   5.775   8.397  1.00  0.00    -0.550 OA
ATOM     11  O   UNL     1     -14.846   5.233   7.067  1.00  0.00    -0.550 OA
ENDBRANCH   8   9
ENDBRANCH   7   8
ENDBRANCH   6   7
ENDBRANCH   5   6
ENDBRANCH   4   5
ENDBRANCH   3   4
ENDBRANCH   2   3
ENDBRANCH   1   2
BRANCH   1  12
ATOM     12  C   UNL     1      -9.255  11.414   2.633  1.00  0.00     0.000 C 
BRANCH  12  13
ATOM     13  C   UNL     1      -8.588  12.518   3.468  1.00  0.00    -0.000 C 
BRANCH  13  14
ATOM     14  C   UNL     1      -7.268  13.010   2.854  1.00  0.00    -0.000 C 
BRANCH  14  15
ATOM     15  C   UNL     1      -6.330  11.855   2.465  1.00  0.00    -0.000 C 
BRANCH  15  16
ATOM     16  C   UNL     1      -5.524  11.309   3.658  1.00  0.00    -0.000 C 
BRANCH  16  17
ATOM     17  C   UNL     1      -4.816   9.963   3.413  1.00  0.00    -0.000 C 
BRANCH  17  18
ATOM     18  C   UNL     1      -5.571   8.770   4.022  1.00  0.00    -0.000 C 
BRANCH  18  19
ATOM     19  C   UNL     1      -4.748   8.039   5.095  1.00  0.00    -0.003 C 
ATOM     20  C   UNL     1      -5.580   7.050   5.911  1.00  0.00     0.004 C 
ENDBRANCH  18  19
ENDBRANCH  17  18
ENDBRANCH  16  17
ENDBRANCH  15  16
ENDBRANCH  14  15
ENDBRANCH  13  14
ENDBRANCH  12  13
ENDBRANCH   1  12
TORSDOF 16
ENDMDL
MODEL 9
REMARK VINA RESULT:    -5.194      3.520      8.033
REMARK INTER + INTRA:         -11.604
REMARK INTER:                 -10.634
REMARK INTRA:                  -0.971
REMARK UNBOUND:                -1.551
REMARK SMILES CCCCCCCCCCCCCCCCCC(=O)[O-]
REMARK SMILES IDX 10 1 11 2 12 3 13 4 14 5 15 6 16 7 17 8 18 9 19 10 20 11
REMARK SMILES IDX 9 12 8 13 7 14 6 15 5 16 4 17 3 18 2 19 1 20
REMARK H PARENT
REMARK Flexibility Score: inf
ROOT
ATOM      1  C   UNL     1     -10.888  12.348   9.218  1.00  0.00     0.000 C 
ENDROOT
BRANCH   1   2
ATOM      2  C   UNL     1     -10.580  13.853   9.178  1.00  0.00     0.000 C 
BRANCH   2   3
ATOM      3  C   UNL     1      -9.154  14.155   8.691  1.00  0.00     0.000 C 
BRANCH   3   4
ATOM      4  C   UNL     1      -8.272  14.766   9.793  1.00  0.00     0.000 C 
BRANCH   4   5
ATOM      5  C   UNL     1      -8.239  13.905  11.066  1.00  0.00     0.000 C 
BRANCH   5   6
ATOM      6  C   UNL     1      -7.068  14.266  11.998  1.00  0.00     0.000 C 
BRANCH   6   7
ATOM      7  C   UNL     1      -6.595  13.081  12.859  1.00  0.00     0.006 C 
BRANCH   7   8
ATOM      8  C   UNL     1      -6.768  11.710  12.182  1.00  0.00     0.053 C 
BRANCH   8   9
ATOM      9  C   UNL     1      -7.121  10.625  13.153  1.00  0.00     0.041 C 
ATOM     10  O   UNL     1      -7.844  10.876  14.152  1.00  0.00    -0.550 OA
ATOM     11  O   UNL     1      -6.677   9.326  12.935  1.00  0.00    -0.550 OA
ENDBRANCH   8   9
ENDBRANCH   7   8
ENDBRANCH   6   7
ENDBRANCH   5   6
ENDBRANCH   4   5
ENDBRANCH   3   4
ENDBRANCH   2   3
ENDBRANCH   1   2
BRANCH   1  12
ATOM     12  C   UNL     1     -12.121  12.017   8.368  1.00  0.00     0.000 C 
BRANCH  12  13
ATOM     13  C   UNL     1     -12.058  10.573   7.847  1.00  0.00    -0.000 C 
BRANCH  13  14
ATOM     14  C   UNL     1     -12.099  10.494   6.311  1.00  0.00    -0.000 C 
BRANCH  14  15
ATOM     15  C   UNL     1     -11.156  11.509   5.643  1.00  0.00    -0.000 C 
BRANCH  15  16
ATOM     16  C   UNL     1     -10.902  11.204   4.156  1.00  0.00    -0.000 C 
BRANCH  16  17
ATOM     17  C   UNL     1     -10.432  12.401   3.309  1.00  0.00    -0.000 C 
BRANCH  17  18
ATOM     18  C   UNL     1      -9.212  12.072   2.432  1.00  0.00    -0.000 C 
BRANCH  18  19
ATOM     19  C   UNL     1      -8.039  13.036   2.671  1.00  0.00    -0.003 C 
ATOM     20  C   UNL     1      -7.791  13.313   4.153  1.00  0.00     0.004 C 
ENDBRANCH  18  19
ENDBRANCH  17  18
ENDBRANCH  16  17
ENDBRANCH  15  16
ENDBRANCH  14  15
ENDBRANCH  13  14
ENDBRANCH  12  13
ENDBRANCH   1  12
TORSDOF 16
ENDMDL
