MODEL 1
REMARK VINA RESULT:    -5.692      0.000      0.000
REMARK INTER + INTRA:         -18.271
REMARK INTER:                 -15.010
REMARK INTRA:                  -3.261
REMARK UNBOUND:                -3.261
REMARK SMILES CCCCCCCCCCCCCCCCCCCCCCCCCCCCCC(=O)[O-]
REMARK SMILES IDX 16 1 17 2 18 3 19 4 20 5 21 6 22 7 23 8 24 9 25 10 26 11
REMARK SMILES IDX 27 12 28 13 29 14 30 15 31 16 32 17 15 18 14 19 13 20 12 21
REMARK SMILES IDX 11 22 10 23 9 24 8 25 7 26 6 27 5 28 4 29 3 30 2 31 1 32
REMARK H PARENT
REMARK Flexibility Score: inf
ROOT
ATOM      1  C   UNL     1      27.244  15.011   7.411  1.00  0.00     0.000 C 
ENDROOT
BRANCH   1   2
ATOM      2  C   UNL     1      26.491  16.190   8.046  1.00  0.00     0.000 C 
BRANCH   2   3
ATOM      3  C   UNL     1      27.326  17.480   8.080  1.00  0.00     0.000 C 
BRANCH   3   4
ATOM      4  C   UNL     1      26.460  18.739   8.261  1.00  0.00     0.000 C 
BRANCH   4   5
ATOM      5  C   UNL     1      26.431  19.629   7.005  1.00  0.00     0.000 C 
BRANCH   5   6
ATOM      6  C   UNL     1      25.323  19.294   5.985  1.00  0.00     0.000 C 
BRANCH   6   7
ATOM      7  C   UNL     1      24.040  18.693   6.585  1.00  0.00     0.000 C 
BRANCH   7   8
ATOM      8  C   UNL     1      22.820  18.858   5.662  1.00  0.00     0.000 C 
BRANCH   8   9
ATOM      9  C   UNL     1      22.314  20.309   5.597  1.00  0.00     0.000 C 
BRANCH   9  10
ATOM     10  C   UNL     1      22.698  21.078   4.316  1.00  0.00     0.000 C 
BRANCH  10  11
ATOM     11  C   UNL     1      23.646  22.271   4.566  1.00  0.00     0.000 C 
BRANCH  11  12
ATOM     12  C   UNL     1      23.674  22.690   6.046  1.00  0.00     0.000 C 
BRANCH  12  13
ATOM     13  C   UNL     1      24.870  23.597   6.387  1.00  0.00     0.006 C 
BRANCH  13  14
ATOM     14  C   UNL     1      24.579  24.646   7.472  1.00  0.00     0.053 C 
BRANCH  14  15
ATOM     15  C   UNL     1      25.424  25.872   7.312  1.00  0.00     0.041 C 
ATOM     16  O   UNL     1      26.253  25.952   6.368  1.00  0.00    -0.550 OA
ATOM     17  O   UNL     1      25.266  26.943   8.184  1.00  0.00    -0.550 OA
ENDBRANCH  14  15
ENDBRANCH  13  14
ENDBRANCH  12  13
ENDBRANCH  11  12
ENDBRANCH  10  11
ENDBRANCH   9  10
ENDBRANCH   8   9
ENDBRANCH   7   8
ENDBRANCH   6   7
ENDBRANCH   5   6
ENDBRANCH   4   5
ENDBRANCH   3   4
ENDBRANCH   2   3
ENDBRANCH   1   2
BRANCH   1  18
ATOM     18  C   UNL     1      27.961  14.182   8.487  1.00  0.00     0.000 C 
BRANCH  18  19
ATOM     19  C   UNL     1      27.189  14.134   9.818  1.00  0.00     0.000 C 
BRANCH  19  20
ATOM     20  C   UNL     1      26.219  12.944   9.965  1.00  0.00     0.000 C 
BRANCH  20  21
ATOM     21  C   UNL     1      24.725  13.317  10.018  1.00  0.00     0.000 C 
BRANCH  21  22
ATOM     22  C   UNL     1      23.992  13.261   8.665  1.00  0.00     0.000 C 
BRANCH  22  23
ATOM     23  C   UNL     1      22.539  12.783   8.792  1.00  0.00     0.000 C 
BRANCH  23  24
ATOM     24  C   UNL     1      22.240  12.316  10.225  1.00  0.00    -0.000 C 
BRANCH  24  25
ATOM     25  C   UNL     1      21.648  10.899  10.276  1.00  0.00    -0.000 C 
BRANCH  25  26
ATOM     26  C   UNL     1      21.303  10.451  11.708  1.00  0.00    -0.000 C 
BRANCH  26  27
ATOM     27  C   UNL     1      22.252   9.359  12.228  1.00  0.00    -0.000 C 
BRANCH  27  28
ATOM     28  C   UNL     1      23.011   9.790  13.495  1.00  0.00    -0.000 C 
BRANCH  28  29
ATOM     29  C   UNL     1      24.448  10.260  13.181  1.00  0.00    -0.000 C 
BRANCH  29  30
ATOM     30  C   UNL     1      24.629  11.785  13.271  1.00  0.00    -0.000 C 
BRANCH  30  31
ATOM     31  C   UNL     1      26.057  12.194  13.658  1.00  0.00    -0.003 C 
ATOM     32  C   UNL     1      27.079  11.200  13.117  1.00  0.00     0.004 C 
ENDBRANCH  30  31
ENDBRANCH  29  30
ENDBRANCH  28  29
ENDBRANCH  27  28
ENDBRANCH  26  27
ENDBRANCH  25  26
ENDBRANCH  24  25
ENDBRANCH  23  24
ENDBRANCH  22  23
ENDBRANCH  21  22
ENDBRANCH  20  21
ENDBRANCH  19  20
ENDBRANCH  18  19
ENDBRANCH   1  18
TORSDOF 28
ENDMDL
MODEL 2
REMARK VINA RESULT:    -5.572      2.519      4.071
REMARK INTER + INTRA:         -17.953
REMARK INTER:                 -15.099
REMARK INTRA:                  -2.854
REMARK UNBOUND:                -3.261
REMARK SMILES CCCCCCCCCCCCCCCCCCCCCCCCCCCCCC(=O)[O-]
REMARK SMILES IDX 16 1 17 2 18 3 19 4 20 5 21 6 22 7 23 8 24 9 25 10 26 11
REMARK SMILES IDX 27 12 28 13 29 14 30 15 31 16 32 17 15 18 14 19 13 20 12 21
REMARK SMILES IDX 11 22 10 23 9 24 8 25 7 26 6 27 5 28 4 29 3 30 2 31 1 32
REMARK H PARENT
REMARK Flexibility Score: inf
ROOT
ATOM      1  C   UNL     1      28.047  16.759   7.016  1.00  0.00     0.000 C 
ENDROOT
BRANCH   1   2
ATOM      2  C   UNL     1      27.655  17.775   8.099  1.00  0.00     0.000 C 
BRANCH   2   3
ATOM      3  C   UNL     1      27.861  19.232   7.651  1.00  0.00     0.000 C 
BRANCH   3   4
ATOM      4  C   UNL     1      26.628  19.809   6.934  1.00  0.00     0.000 C 
BRANCH   4   5
ATOM      5  C   UNL     1      26.720  19.692   5.401  1.00  0.00     0.000 C 
BRANCH   5   6
ATOM      6  C   UNL     1      27.959  20.352   4.764  1.00  0.00     0.000 C 
BRANCH   6   7
ATOM      7  C   UNL     1      27.742  21.780   4.234  1.00  0.00     0.000 C 
BRANCH   7   8
ATOM      8  C   UNL     1      27.875  22.847   5.334  1.00  0.00     0.000 C 
BRANCH   8   9
ATOM      9  C   UNL     1      27.302  24.211   4.915  1.00  0.00     0.000 C 
BRANCH   9  10
ATOM     10  C   UNL     1      26.063  24.672   5.709  1.00  0.00     0.000 C 
BRANCH  10  11
ATOM     11  C   UNL     1      24.960  23.597   5.822  1.00  0.00     0.000 C 
BRANCH  11  12
ATOM     12  C   UNL     1      24.368  23.228   4.451  1.00  0.00     0.000 C 
BRANCH  12  13
ATOM     13  C   UNL     1      23.570  21.911   4.480  1.00  0.00     0.006 C 
BRANCH  13  14
ATOM     14  C   UNL     1      23.455  21.272   5.874  1.00  0.00     0.053 C 
BRANCH  14  15
ATOM     15  C   UNL     1      22.235  20.413   6.001  1.00  0.00     0.041 C 
ATOM     16  O   UNL     1      21.994  19.523   5.143  1.00  0.00    -0.550 OA
ATOM     17  O   UNL     1      21.385  20.570   7.089  1.00  0.00    -0.550 OA
ENDBRANCH  14  15
ENDBRANCH  13  14
ENDBRANCH  12  13
ENDBRANCH  11  12
ENDBRANCH  10  11
ENDBRANCH   9  10
ENDBRANCH   8   9
ENDBRANCH   7   8
ENDBRANCH   6   7
ENDBRANCH   5   6
ENDBRANCH   4   5
ENDBRANCH   3   4
ENDBRANCH   2   3
ENDBRANCH   1   2
BRANCH   1  18
ATOM     18  C   UNL     1      27.650  15.336   7.437  1.00  0.00     0.000 C 
BRANCH  18  19
ATOM     19  C   UNL     1      26.760  15.310   8.694  1.00  0.00     0.000 C 
BRANCH  19  20
ATOM     20  C   UNL     1      26.690  13.948   9.413  1.00  0.00     0.000 C 
BRANCH  20  21
ATOM     21  C   UNL     1      25.307  13.267   9.397  1.00  0.00     0.000 C 
BRANCH  21  22
ATOM     22  C   UNL     1      24.378  13.706   8.250  1.00  0.00     0.000 C 
BRANCH  22  23
ATOM     23  C   UNL     1      22.891  13.535   8.588  1.00  0.00     0.000 C 
BRANCH  23  24
ATOM     24  C   UNL     1      22.626  12.155   9.209  1.00  0.00    -0.000 C 
BRANCH  24  25
ATOM     25  C   UNL     1      21.804  12.235  10.505  1.00  0.00    -0.000 C 
BRANCH  25  26
ATOM     26  C   UNL     1      21.024  10.940  10.793  1.00  0.00    -0.000 C 
BRANCH  26  27
ATOM     27  C   UNL     1      21.944   9.717  10.931  1.00  0.00    -0.000 C 
BRANCH  27  28
ATOM     28  C   UNL     1      22.736   9.717  12.251  1.00  0.00    -0.000 C 
BRANCH  28  29
ATOM     29  C   UNL     1      21.895   9.192  13.434  1.00  0.00    -0.000 C 
BRANCH  29  30
ATOM     30  C   UNL     1      20.937   8.052  13.049  1.00  0.00    -0.000 C 
BRANCH  30  31
ATOM     31  C   UNL     1      19.533   8.225  13.644  1.00  0.00    -0.003 C 
ATOM     32  C   UNL     1      19.161   9.700  13.754  1.00  0.00     0.004 C 
ENDBRANCH  30  31
ENDBRANCH  29  30
ENDBRANCH  28  29
ENDBRANCH  27  28
ENDBRANCH  26  27
ENDBRANCH  25  26
ENDBRANCH  24  25
ENDBRANCH  23  24
ENDBRANCH  22  23
ENDBRANCH  21  22
ENDBRANCH  20  21
ENDBRANCH  19  20
ENDBRANCH  18  19
ENDBRANCH   1  18
TORSDOF 28
ENDMDL
MODEL 3
REMARK VINA RESULT:    -5.496      3.308     11.153
REMARK INTER + INTRA:         -17.753
REMARK INTER:                 -14.923
REMARK INTRA:                  -2.830
REMARK UNBOUND:                -3.261
REMARK SMILES CCCCCCCCCCCCCCCCCCCCCCCCCCCCCC(=O)[O-]
REMARK SMILES IDX 16 1 17 2 18 3 19 4 20 5 21 6 22 7 23 8 24 9 25 10 26 11
REMARK SMILES IDX 27 12 28 13 29 14 30 15 31 16 32 17 15 18 14 19 13 20 12 21
REMARK SMILES IDX 11 22 10 23 9 24 8 25 7 26 6 27 5 28 4 29 3 30 2 31 1 32
REMARK H PARENT
REMARK Flexibility Score: inf
ROOT
ATOM      1  C   UNL     1      26.099  15.046   7.768  1.00  0.00     0.000 C 
ENDROOT
BRANCH   1   2
ATOM      2  C   UNL     1      26.443  13.642   8.287  1.00  0.00     0.000 C 
BRANCH   2   3
ATOM      3  C   UNL     1      26.917  13.647   9.750  1.00  0.00     0.000 C 
BRANCH   3   4
ATOM      4  C   UNL     1      26.019  12.796  10.665  1.00  0.00     0.000 C 
BRANCH   4   5
ATOM      5  C   UNL     1      26.815  12.020  11.730  1.00  0.00     0.000 C 
BRANCH   5   6
ATOM      6  C   UNL     1      26.247  12.095  13.161  1.00  0.00     0.000 C 
BRANCH   6   7
ATOM      7  C   UNL     1      24.744  11.789  13.287  1.00  0.00     0.000 C 
BRANCH   7   8
ATOM      8  C   UNL     1      24.413  10.316  12.992  1.00  0.00     0.000 C 
BRANCH   8   9
ATOM      9  C   UNL     1      23.118   9.846  13.678  1.00  0.00     0.000 C 
BRANCH   9  10
ATOM     10  C   UNL     1      22.292   8.818  12.881  1.00  0.00     0.000 C 
BRANCH  10  11
ATOM     11  C   UNL     1      21.084   9.429  12.137  1.00  0.00     0.000 C 
BRANCH  11  12
ATOM     12  C   UNL     1      21.475   9.989  10.759  1.00  0.00     0.000 C 
BRANCH  12  13
ATOM     13  C   UNL     1      21.523  11.527  10.731  1.00  0.00     0.006 C 
BRANCH  13  14
ATOM     14  C   UNL     1      22.566  12.111   9.765  1.00  0.00     0.053 C 
BRANCH  14  15
ATOM     15  C   UNL     1      22.418  13.592   9.603  1.00  0.00     0.041 C 
ATOM     16  O   UNL     1      21.779  14.263  10.455  1.00  0.00    -0.550 OA
ATOM     17  O   UNL     1      23.021  14.237   8.530  1.00  0.00    -0.550 OA
ENDBRANCH  14  15
ENDBRANCH  13  14
ENDBRANCH  12  13
ENDBRANCH  11  12
ENDBRANCH  10  11
ENDBRANCH   9  10
ENDBRANCH   8   9
ENDBRANCH   7   8
ENDBRANCH   6   7
ENDBRANCH   5   6
ENDBRANCH   4   5
ENDBRANCH   3   4
ENDBRANCH   2   3
ENDBRANCH   1   2
BRANCH   1  18
ATOM     18  C   UNL     1      26.859  16.119   8.563  1.00  0.00     0.000 C 
BRANCH  18  19
ATOM     19  C   UNL     1      27.967  16.801   7.740  1.00  0.00     0.000 C 
BRANCH  19  20
ATOM     20  C   UNL     1      27.731  18.296   7.445  1.00  0.00     0.000 C 
BRANCH  20  21
ATOM     21  C   UNL     1      26.315  18.814   7.766  1.00  0.00     0.000 C 
BRANCH  21  22
ATOM     22  C   UNL     1      25.419  19.063   6.539  1.00  0.00     0.000 C 
BRANCH  22  23
ATOM     23  C   UNL     1      24.045  18.390   6.657  1.00  0.00     0.000 C 
BRANCH  23  24
ATOM     24  C   UNL     1      22.916  19.428   6.560  1.00  0.00    -0.000 C 
BRANCH  24  25
ATOM     25  C   UNL     1      22.298  19.504   5.155  1.00  0.00    -0.000 C 
BRANCH  25  26
ATOM     26  C   UNL     1      22.830  20.693   4.336  1.00  0.00    -0.000 C 
BRANCH  26  27
ATOM     27  C   UNL     1      23.250  21.877   5.221  1.00  0.00    -0.000 C 
BRANCH  27  28
ATOM     28  C   UNL     1      24.731  22.254   5.040  1.00  0.00    -0.000 C 
BRANCH  28  29
ATOM     29  C   UNL     1      25.220  23.232   6.130  1.00  0.00    -0.000 C 
BRANCH  29  30
ATOM     30  C   UNL     1      24.088  24.050   6.775  1.00  0.00    -0.000 C 
BRANCH  30  31
ATOM     31  C   UNL     1      24.176  25.549   6.453  1.00  0.00    -0.003 C 
ATOM     32  C   UNL     1      25.448  26.161   7.032  1.00  0.00     0.004 C 
ENDBRANCH  30  31
ENDBRANCH  29  30
ENDBRANCH  28  29
ENDBRANCH  27  28
ENDBRANCH  26  27
ENDBRANCH  25  26
ENDBRANCH  24  25
ENDBRANCH  23  24
ENDBRANCH  22  23
ENDBRANCH  21  22
ENDBRANCH  20  21
ENDBRANCH  19  20
ENDBRANCH  18  19
ENDBRANCH   1  18
TORSDOF 28
ENDMDL
MODEL 4
REMARK VINA RESULT:    -5.488      1.108      2.376
REMARK INTER + INTRA:         -17.733
REMARK INTER:                 -14.867
REMARK INTRA:                  -2.866
REMARK UNBOUND:                -3.261
REMARK SMILES CCCCCCCCCCCCCCCCCCCCCCCCCCCCCC(=O)[O-]
REMARK SMILES IDX 16 1 17 2 18 3 19 4 20 5 21 6 22 7 23 8 24 9 25 10 26 11
REMARK SMILES IDX 27 12 28 13 29 14 30 15 31 16 32 17 15 18 14 19 13 20 12 21
REMARK SMILES IDX 11 22 10 23 9 24 8 25 7 26 6 27 5 28 4 29 3 30 2 31 1 32
REMARK H PARENT
REMARK Flexibility Score: inf
ROOT
ATOM      1  C   UNL     1      27.232  17.468   7.423  1.00  0.00     0.000 C 
ENDROOT
BRANCH   1   2
ATOM      2  C   UNL     1      26.934  18.923   7.814  1.00  0.00     0.000 C 
BRANCH   2   3
ATOM      3  C   UNL     1      26.551  19.796   6.608  1.00  0.00     0.000 C 
BRANCH   3   4
ATOM      4  C   UNL     1      25.449  19.159   5.744  1.00  0.00     0.000 C 
BRANCH   4   5
ATOM      5  C   UNL     1      24.060  19.223   6.404  1.00  0.00     0.000 C 
BRANCH   5   6
ATOM      6  C   UNL     1      22.875  19.390   5.431  1.00  0.00     0.000 C 
BRANCH   6   7
ATOM      7  C   UNL     1      22.969  20.601   4.486  1.00  0.00     0.000 C 
BRANCH   7   8
ATOM      8  C   UNL     1      23.320  21.904   5.225  1.00  0.00     0.000 C 
BRANCH   8   9
ATOM      9  C   UNL     1      24.185  22.854   4.380  1.00  0.00     0.000 C 
BRANCH   9  10
ATOM     10  C   UNL     1      25.707  22.637   4.503  1.00  0.00     0.000 C 
BRANCH  10  11
ATOM     11  C   UNL     1      26.389  23.569   5.528  1.00  0.00     0.000 C 
BRANCH  11  12
ATOM     12  C   UNL     1      26.019  25.045   5.304  1.00  0.00     0.000 C 
BRANCH  12  13
ATOM     13  C   UNL     1      25.842  25.822   6.621  1.00  0.00     0.006 C 
BRANCH  13  14
ATOM     14  C   UNL     1      24.794  25.224   7.573  1.00  0.00     0.053 C 
BRANCH  14  15
ATOM     15  C   UNL     1      24.886  25.804   8.950  1.00  0.00     0.041 C 
ATOM     16  O   UNL     1      24.103  25.416   9.856  1.00  0.00    -0.550 OA
ATOM     17  O   UNL     1      25.865  26.746   9.243  1.00  0.00    -0.550 OA
ENDBRANCH  14  15
ENDBRANCH  13  14
ENDBRANCH  12  13
ENDBRANCH  11  12
ENDBRANCH  10  11
ENDBRANCH   9  10
ENDBRANCH   8   9
ENDBRANCH   7   8
ENDBRANCH   6   7
ENDBRANCH   5   6
ENDBRANCH   4   5
ENDBRANCH   3   4
ENDBRANCH   2   3
ENDBRANCH   1   2
BRANCH   1  18
ATOM     18  C   UNL     1      26.646  16.497   8.459  1.00  0.00     0.000 C 
BRANCH  18  19
ATOM     19  C   UNL     1      27.305  15.106   8.416  1.00  0.00     0.000 C 
BRANCH  19  20
ATOM     20  C   UNL     1      26.995  14.202   9.626  1.00  0.00     0.000 C 
BRANCH  20  21
ATOM     21  C   UNL     1      25.800  13.246   9.442  1.00  0.00     0.000 C 
BRANCH  21  22
ATOM     22  C   UNL     1      24.896  13.557   8.235  1.00  0.00     0.000 C 
BRANCH  22  23
ATOM     23  C   UNL     1      23.453  13.071   8.428  1.00  0.00     0.000 C 
BRANCH  23  24
ATOM     24  C   UNL     1      22.741  13.888   9.516  1.00  0.00    -0.000 C 
BRANCH  24  25
ATOM     25  C   UNL     1      21.977  13.006  10.516  1.00  0.00    -0.000 C 
BRANCH  25  26
ATOM     26  C   UNL     1      22.110  11.505  10.204  1.00  0.00    -0.000 C 
BRANCH  26  27
ATOM     27  C   UNL     1      21.022  10.662  10.890  1.00  0.00    -0.000 C 
BRANCH  27  28
ATOM     28  C   UNL     1      21.547   9.915  12.129  1.00  0.00    -0.000 C 
BRANCH  28  29
ATOM     29  C   UNL     1      23.090   9.882  12.179  1.00  0.00    -0.000 C 
BRANCH  29  30
ATOM     30  C   UNL     1      23.680  10.574  13.418  1.00  0.00    -0.000 C 
BRANCH  30  31
ATOM     31  C   UNL     1      24.494  11.828  13.071  1.00  0.00    -0.003 C 
ATOM     32  C   UNL     1      25.811  11.458  12.396  1.00  0.00     0.004 C 
ENDBRANCH  30  31
ENDBRANCH  29  30
ENDBRANCH  28  29
ENDBRANCH  27  28
ENDBRANCH  26  27
ENDBRANCH  25  26
ENDBRANCH  24  25
ENDBRANCH  23  24
ENDBRANCH  22  23
ENDBRANCH  21  22
ENDBRANCH  20  21
ENDBRANCH  19  20
ENDBRANCH  18  19
ENDBRANCH   1  18
TORSDOF 28
ENDMDL
MODEL 5
REMARK VINA RESULT:    -5.476      2.567      4.591
REMARK INTER + INTRA:         -17.702
REMARK INTER:                 -14.757
REMARK INTRA:                  -2.945
REMARK UNBOUND:                -3.261
REMARK SMILES CCCCCCCCCCCCCCCCCCCCCCCCCCCCCC(=O)[O-]
REMARK SMILES IDX 16 1 17 2 18 3 19 4 20 5 21 6 22 7 23 8 24 9 25 10 26 11
REMARK SMILES IDX 27 12 28 13 29 14 30 15 31 16 32 17 15 18 14 19 13 20 12 21
REMARK SMILES IDX 11 22 10 23 9 24 8 25 7 26 6 27 5 28 4 29 3 30 2 31 1 32
REMARK H PARENT
REMARK Flexibility Score: inf
ROOT
ATOM      1  C   UNL     1      25.301  18.870   7.090  1.00  0.00     0.000 C 
ENDROOT
BRANCH   1   2
ATOM      2  C   UNL     1      25.818  19.192   5.679  1.00  0.00     0.000 C 
BRANCH   2   3
ATOM      3  C   UNL     1      27.352  19.269   5.611  1.00  0.00     0.000 C 
BRANCH   3   4
ATOM      4  C   UNL     1      27.937  20.286   6.606  1.00  0.00     0.000 C 
BRANCH   4   5
ATOM      5  C   UNL     1      27.873  21.734   6.087  1.00  0.00     0.000 C 
BRANCH   5   6
ATOM      6  C   UNL     1      27.911  21.886   4.552  1.00  0.00     0.000 C 
BRANCH   6   7
ATOM      7  C   UNL     1      26.796  22.761   3.952  1.00  0.00     0.000 C 
BRANCH   7   8
ATOM      8  C   UNL     1      27.059  24.265   4.136  1.00  0.00     0.000 C 
BRANCH   8   9
ATOM      9  C   UNL     1      26.516  24.807   5.469  1.00  0.00     0.000 C 
BRANCH   9  10
ATOM     10  C   UNL     1      25.057  25.302   5.428  1.00  0.00     0.000 C 
BRANCH  10  11
ATOM     11  C   UNL     1      24.140  24.632   6.474  1.00  0.00     0.000 C 
BRANCH  11  12
ATOM     12  C   UNL     1      24.406  23.121   6.593  1.00  0.00     0.000 C 
BRANCH  12  13
ATOM     13  C   UNL     1      23.194  22.267   6.178  1.00  0.00     0.006 C 
BRANCH  13  14
ATOM     14  C   UNL     1      23.284  21.690   4.757  1.00  0.00     0.053 C 
BRANCH  14  15
ATOM     15  C   UNL     1      22.290  20.594   4.529  1.00  0.00     0.041 C 
ATOM     16  O   UNL     1      22.542  19.420   4.908  1.00  0.00    -0.550 OA
ATOM     17  O   UNL     1      21.067  20.878   3.933  1.00  0.00    -0.550 OA
ENDBRANCH  14  15
ENDBRANCH  13  14
ENDBRANCH  12  13
ENDBRANCH  11  12
ENDBRANCH  10  11
ENDBRANCH   9  10
ENDBRANCH   8   9
ENDBRANCH   7   8
ENDBRANCH   6   7
ENDBRANCH   5   6
ENDBRANCH   4   5
ENDBRANCH   3   4
ENDBRANCH   2   3
ENDBRANCH   1   2
BRANCH   1  18
ATOM     18  C   UNL     1      25.402  17.364   7.374  1.00  0.00     0.000 C 
BRANCH  18  19
ATOM     19  C   UNL     1      26.584  17.007   8.294  1.00  0.00     0.000 C 
BRANCH  19  20
ATOM     20  C   UNL     1      27.644  16.082   7.662  1.00  0.00     0.000 C 
BRANCH  20  21
ATOM     21  C   UNL     1      27.623  14.623   8.158  1.00  0.00     0.000 C 
BRANCH  21  22
ATOM     22  C   UNL     1      26.259  13.916   8.044  1.00  0.00     0.000 C 
BRANCH  22  23
ATOM     23  C   UNL     1      25.722  13.432   9.398  1.00  0.00     0.000 C 
BRANCH  23  24
ATOM     24  C   UNL     1      24.189  13.333   9.374  1.00  0.00    -0.000 C 
BRANCH  24  25
ATOM     25  C   UNL     1      23.616  12.705  10.654  1.00  0.00    -0.000 C 
BRANCH  25  26
ATOM     26  C   UNL     1      24.702  12.390  11.698  1.00  0.00    -0.000 C 
BRANCH  26  27
ATOM     27  C   UNL     1      24.339  11.185  12.581  1.00  0.00    -0.000 C 
BRANCH  27  28
ATOM     28  C   UNL     1      22.894  10.704  12.360  1.00  0.00    -0.000 C 
BRANCH  28  29
ATOM     29  C   UNL     1      22.521   9.534  13.296  1.00  0.00    -0.000 C 
BRANCH  29  30
ATOM     30  C   UNL     1      21.474   8.579  12.700  1.00  0.00    -0.000 C 
BRANCH  30  31
ATOM     31  C   UNL     1      20.194   8.494  13.544  1.00  0.00    -0.003 C 
ATOM     32  C   UNL     1      19.387   9.785  13.448  1.00  0.00     0.004 C 
ENDBRANCH  30  31
ENDBRANCH  29  30
ENDBRANCH  28  29
ENDBRANCH  27  28
ENDBRANCH  26  27
ENDBRANCH  25  26
ENDBRANCH  24  25
ENDBRANCH  23  24
ENDBRANCH  22  23
ENDBRANCH  21  22
ENDBRANCH  20  21
ENDBRANCH  19  20
ENDBRANCH  18  19
ENDBRANCH   1  18
TORSDOF 28
ENDMDL
MODEL 6
REMARK VINA RESULT:    -5.474      1.129      2.800
REMARK INTER + INTRA:         -17.696
REMARK INTER:                 -14.768
REMARK INTRA:                  -2.928
REMARK UNBOUND:                -3.261
REMARK SMILES CCCCCCCCCCCCCCCCCCCCCCCCCCCCCC(=O)[O-]
REMARK SMILES IDX 16 1 17 2 18 3 19 4 20 5 21 6 22 7 23 8 24 9 25 10 26 11
REMARK SMILES IDX 27 12 28 13 29 14 30 15 31 16 32 17 15 18 14 19 13 20 12 21
REMARK SMILES IDX 11 22 10 23 9 24 8 25 7 26 6 27 5 28 4 29 3 30 2 31 1 32
REMARK H PARENT
REMARK Flexibility Score: inf
ROOT
ATOM      1  C   UNL     1      26.190  14.969   7.817  1.00  0.00     0.000 C 
ENDROOT
BRANCH   1   2
ATOM      2  C   UNL     1      26.938  16.122   8.503  1.00  0.00     0.000 C 
BRANCH   2   3
ATOM      3  C   UNL     1      28.092  16.673   7.649  1.00  0.00     0.000 C 
BRANCH   3   4
ATOM      4  C   UNL     1      28.036  18.202   7.496  1.00  0.00     0.000 C 
BRANCH   4   5
ATOM      5  C   UNL     1      26.987  18.661   6.466  1.00  0.00     0.000 C 
BRANCH   5   6
ATOM      6  C   UNL     1      25.678  19.217   7.062  1.00  0.00     0.000 C 
BRANCH   6   7
ATOM      7  C   UNL     1      24.419  18.378   6.776  1.00  0.00     0.000 C 
BRANCH   7   8
ATOM      8  C   UNL     1      23.185  19.245   6.476  1.00  0.00     0.000 C 
BRANCH   8   9
ATOM      9  C   UNL     1      23.357  20.115   5.219  1.00  0.00     0.000 C 
BRANCH   9  10
ATOM     10  C   UNL     1      23.180  21.630   5.444  1.00  0.00     0.000 C 
BRANCH  10  11
ATOM     11  C   UNL     1      24.411  22.469   5.039  1.00  0.00     0.000 C 
BRANCH  11  12
ATOM     12  C   UNL     1      25.295  22.821   6.248  1.00  0.00     0.000 C 
BRANCH  12  13
ATOM     13  C   UNL     1      25.382  24.337   6.503  1.00  0.00     0.006 C 
BRANCH  13  14
ATOM     14  C   UNL     1      24.676  24.805   7.785  1.00  0.00     0.053 C 
BRANCH  14  15
ATOM     15  C   UNL     1      24.825  26.279   8.005  1.00  0.00     0.041 C 
ATOM     16  O   UNL     1      24.102  27.092   7.372  1.00  0.00    -0.550 OA
ATOM     17  O   UNL     1      25.739  26.752   8.939  1.00  0.00    -0.550 OA
ENDBRANCH  14  15
ENDBRANCH  13  14
ENDBRANCH  12  13
ENDBRANCH  11  12
ENDBRANCH  10  11
ENDBRANCH   9  10
ENDBRANCH   8   9
ENDBRANCH   7   8
ENDBRANCH   6   7
ENDBRANCH   5   6
ENDBRANCH   4   5
ENDBRANCH   3   4
ENDBRANCH   2   3
ENDBRANCH   1   2
BRANCH   1  18
ATOM     18  C   UNL     1      26.494  13.634   8.514  1.00  0.00     0.000 C 
BRANCH  18  19
ATOM     19  C   UNL     1      26.525  13.753  10.049  1.00  0.00     0.000 C 
BRANCH  19  20
ATOM     20  C   UNL     1      25.895  12.567  10.806  1.00  0.00     0.000 C 
BRANCH  20  21
ATOM     21  C   UNL     1      26.673  12.091  12.048  1.00  0.00     0.000 C 
BRANCH  21  22
ATOM     22  C   UNL     1      25.808  11.805  13.289  1.00  0.00     0.000 C 
BRANCH  22  23
ATOM     23  C   UNL     1      24.426  11.239  12.935  1.00  0.00     0.000 C 
BRANCH  23  24
ATOM     24  C   UNL     1      24.183   9.902  13.652  1.00  0.00    -0.000 C 
BRANCH  24  25
ATOM     25  C   UNL     1      23.142   9.026  12.937  1.00  0.00    -0.000 C 
BRANCH  25  26
ATOM     26  C   UNL     1      21.734   9.165  13.543  1.00  0.00    -0.000 C 
BRANCH  26  27
ATOM     27  C   UNL     1      20.727   9.780  12.558  1.00  0.00    -0.000 C 
BRANCH  27  28
ATOM     28  C   UNL     1      21.332  10.012  11.162  1.00  0.00    -0.000 C 
BRANCH  28  29
ATOM     29  C   UNL     1      21.201  11.482  10.709  1.00  0.00    -0.000 C 
BRANCH  29  30
ATOM     30  C   UNL     1      22.482  12.046  10.072  1.00  0.00    -0.000 C 
BRANCH  30  31
ATOM     31  C   UNL     1      22.443  13.570   9.898  1.00  0.00    -0.003 C 
ATOM     32  C   UNL     1      22.749  13.967   8.458  1.00  0.00     0.004 C 
ENDBRANCH  30  31
ENDBRANCH  29  30
ENDBRANCH  28  29
ENDBRANCH  27  28
ENDBRANCH  26  27
ENDBRANCH  25  26
ENDBRANCH  24  25
ENDBRANCH  23  24
ENDBRANCH  22  23
ENDBRANCH  21  22
ENDBRANCH  20  21
ENDBRANCH  19  20
ENDBRANCH  18  19
ENDBRANCH   1  18
TORSDOF 28
ENDMDL
MODEL 7
REMARK VINA RESULT:    -5.470      1.456      3.072
REMARK INTER + INTRA:         -17.685
REMARK INTER:                 -14.883
REMARK INTRA:                  -2.802
REMARK UNBOUND:                -3.261
REMARK SMILES CCCCCCCCCCCCCCCCCCCCCCCCCCCCCC(=O)[O-]
REMARK SMILES IDX 16 1 17 2 18 3 19 4 20 5 21 6 22 7 23 8 24 9 25 10 26 11
REMARK SMILES IDX 27 12 28 13 29 14 30 15 31 16 32 17 15 18 14 19 13 20 12 21
REMARK SMILES IDX 11 22 10 23 9 24 8 25 7 26 6 27 5 28 4 29 3 30 2 31 1 32
REMARK H PARENT
REMARK Flexibility Score: inf
ROOT
ATOM      1  C   UNL     1      25.920  17.246   7.749  1.00  0.00     0.000 C 
ENDROOT
BRANCH   1   2
ATOM      2  C   UNL     1      26.423  18.472   8.525  1.00  0.00     0.000 C 
BRANCH   2   3
ATOM      3  C   UNL     1      27.522  19.242   7.774  1.00  0.00     0.000 C 
BRANCH   3   4
ATOM      4  C   UNL     1      26.961  20.405   6.937  1.00  0.00     0.000 C 
BRANCH   4   5
ATOM      5  C   UNL     1      26.833  20.058   5.442  1.00  0.00     0.000 C 
BRANCH   5   6
ATOM      6  C   UNL     1      25.390  19.857   4.935  1.00  0.00     0.000 C 
BRANCH   6   7
ATOM      7  C   UNL     1      24.284  20.245   5.932  1.00  0.00     0.000 C 
BRANCH   7   8
ATOM      8  C   UNL     1      23.829  21.706   5.774  1.00  0.00     0.000 C 
BRANCH   8   9
ATOM      9  C   UNL     1      23.858  22.185   4.312  1.00  0.00     0.000 C 
BRANCH   9  10
ATOM     10  C   UNL     1      24.960  23.212   3.983  1.00  0.00     0.000 C 
BRANCH  10  11
ATOM     11  C   UNL     1      25.817  23.620   5.201  1.00  0.00     0.000 C 
BRANCH  11  12
ATOM     12  C   UNL     1      26.206  25.108   5.164  1.00  0.00     0.000 C 
BRANCH  12  13
ATOM     13  C   UNL     1      25.976  25.818   6.510  1.00  0.00     0.006 C 
BRANCH  13  14
ATOM     14  C   UNL     1      24.953  25.125   7.425  1.00  0.00     0.053 C 
BRANCH  14  15
ATOM     15  C   UNL     1      24.882  25.765   8.777  1.00  0.00     0.041 C 
ATOM     16  O   UNL     1      24.207  25.232   9.697  1.00  0.00    -0.550 OA
ATOM     17  O   UNL     1      25.593  26.931   9.032  1.00  0.00    -0.550 OA
ENDBRANCH  14  15
ENDBRANCH  13  14
ENDBRANCH  12  13
ENDBRANCH  11  12
ENDBRANCH  10  11
ENDBRANCH   9  10
ENDBRANCH   8   9
ENDBRANCH   7   8
ENDBRANCH   6   7
ENDBRANCH   5   6
ENDBRANCH   4   5
ENDBRANCH   3   4
ENDBRANCH   2   3
ENDBRANCH   1   2
BRANCH   1  18
ATOM     18  C   UNL     1      26.974  16.128   7.758  1.00  0.00     0.000 C 
BRANCH  18  19
ATOM     19  C   UNL     1      26.358  14.723   7.628  1.00  0.00     0.000 C 
BRANCH  19  20
ATOM     20  C   UNL     1      27.024  13.638   8.497  1.00  0.00     0.000 C 
BRANCH  20  21
ATOM     21  C   UNL     1      26.839  13.808  10.018  1.00  0.00     0.000 C 
BRANCH  21  22
ATOM     22  C   UNL     1      26.540  12.507  10.786  1.00  0.00     0.000 C 
BRANCH  22  23
ATOM     23  C   UNL     1      25.081  12.413  11.255  1.00  0.00     0.000 C 
BRANCH  23  24
ATOM     24  C   UNL     1      24.171  13.301  10.393  1.00  0.00    -0.000 C 
BRANCH  24  25
ATOM     25  C   UNL     1      23.010  12.520   9.757  1.00  0.00    -0.000 C 
BRANCH  25  26
ATOM     26  C   UNL     1      22.073  11.892  10.805  1.00  0.00    -0.000 C 
BRANCH  26  27
ATOM     27  C   UNL     1      21.373  10.626  10.286  1.00  0.00    -0.000 C 
BRANCH  27  28
ATOM     28  C   UNL     1      21.742   9.372  11.098  1.00  0.00    -0.000 C 
BRANCH  28  29
ATOM     29  C   UNL     1      22.473   9.723  12.412  1.00  0.00    -0.000 C 
BRANCH  29  30
ATOM     30  C   UNL     1      21.664   9.383  13.675  1.00  0.00    -0.000 C 
BRANCH  30  31
ATOM     31  C   UNL     1      20.592   8.313  13.428  1.00  0.00    -0.003 C 
ATOM     32  C   UNL     1      19.333   8.599  14.241  1.00  0.00     0.004 C 
ENDBRANCH  30  31
ENDBRANCH  29  30
ENDBRANCH  28  29
ENDBRANCH  27  28
ENDBRANCH  26  27
ENDBRANCH  25  26
ENDBRANCH  24  25
ENDBRANCH  23  24
ENDBRANCH  22  23
ENDBRANCH  21  22
ENDBRANCH  20  21
ENDBRANCH  19  20
ENDBRANCH  18  19
ENDBRANCH   1  18
TORSDOF 28
ENDMDL
MODEL 8
REMARK VINA RESULT:    -5.460      3.603     11.693
REMARK INTER + INTRA:         -17.659
REMARK INTER:                 -14.553
REMARK INTRA:                  -3.106
REMARK UNBOUND:                -3.261
REMARK SMILES CCCCCCCCCCCCCCCCCCCCCCCCCCCCCC(=O)[O-]
REMARK SMILES IDX 16 1 17 2 18 3 19 4 20 5 21 6 22 7 23 8 24 9 25 10 26 11
REMARK SMILES IDX 27 12 28 13 29 14 30 15 31 16 32 17 15 18 14 19 13 20 12 21
REMARK SMILES IDX 11 22 10 23 9 24 8 25 7 26 6 27 5 28 4 29 3 30 2 31 1 32
REMARK H PARENT
REMARK Flexibility Score: inf
ROOT
ATOM      1  C   UNL     1      26.131  16.643   7.824  1.00  0.00     0.000 C 
ENDROOT
BRANCH   1   2
ATOM      2  C   UNL     1      26.635  15.206   7.629  1.00  0.00     0.000 C 
BRANCH   2   3
ATOM      3  C   UNL     1      27.866  14.884   8.492  1.00  0.00     0.000 C 
BRANCH   3   4
ATOM      4  C   UNL     1      27.522  14.008   9.709  1.00  0.00     0.000 C 
BRANCH   4   5
ATOM      5  C   UNL     1      26.196  13.245   9.539  1.00  0.00     0.000 C 
BRANCH   5   6
ATOM      6  C   UNL     1      25.556  12.738  10.848  1.00  0.00     0.000 C 
BRANCH   6   7
ATOM      7  C   UNL     1      26.509  11.987  11.795  1.00  0.00     0.000 C 
BRANCH   7   8
ATOM      8  C   UNL     1      25.790  11.421  13.032  1.00  0.00     0.000 C 
BRANCH   8   9
ATOM      9  C   UNL     1      24.257  11.464  12.903  1.00  0.00     0.000 C 
BRANCH   9  10
ATOM     10  C   UNL     1      23.528  10.181  13.348  1.00  0.00     0.000 C 
BRANCH  10  11
ATOM     11  C   UNL     1      22.816   9.437  12.198  1.00  0.00     0.000 C 
BRANCH  11  12
ATOM     12  C   UNL     1      21.326   9.807  12.102  1.00  0.00     0.000 C 
BRANCH  12  13
ATOM     13  C   UNL     1      21.058  10.951  11.107  1.00  0.00     0.006 C 
BRANCH  13  14
ATOM     14  C   UNL     1      22.065  11.029   9.948  1.00  0.00     0.053 C 
BRANCH  14  15
ATOM     15  C   UNL     1      22.320  12.441   9.518  1.00  0.00     0.041 C 
ATOM     16  O   UNL     1      22.060  13.398  10.294  1.00  0.00    -0.550 OA
ATOM     17  O   UNL     1      22.882  12.697   8.273  1.00  0.00    -0.550 OA
ENDBRANCH  14  15
ENDBRANCH  13  14
ENDBRANCH  12  13
ENDBRANCH  11  12
ENDBRANCH  10  11
ENDBRANCH   9  10
ENDBRANCH   8   9
ENDBRANCH   7   8
ENDBRANCH   6   7
ENDBRANCH   5   6
ENDBRANCH   4   5
ENDBRANCH   3   4
ENDBRANCH   2   3
ENDBRANCH   1   2
BRANCH   1  18
ATOM     18  C   UNL     1      27.206  17.657   7.403  1.00  0.00     0.000 C 
BRANCH  18  19
ATOM     19  C   UNL     1      26.880  19.095   7.847  1.00  0.00     0.000 C 
BRANCH  19  20
ATOM     20  C   UNL     1      26.524  20.064   6.702  1.00  0.00     0.000 C 
BRANCH  20  21
ATOM     21  C   UNL     1      25.671  19.459   5.570  1.00  0.00     0.000 C 
BRANCH  21  22
ATOM     22  C   UNL     1      24.202  19.182   5.938  1.00  0.00     0.000 C 
BRANCH  22  23
ATOM     23  C   UNL     1      23.214  20.059   5.156  1.00  0.00     0.000 C 
BRANCH  23  24
ATOM     24  C   UNL     1      22.817  21.299   5.972  1.00  0.00    -0.000 C 
BRANCH  24  25
ATOM     25  C   UNL     1      23.576  22.563   5.538  1.00  0.00    -0.000 C 
BRANCH  25  26
ATOM     26  C   UNL     1      24.167  22.443   4.123  1.00  0.00    -0.000 C 
BRANCH  26  27
ATOM     27  C   UNL     1      25.404  23.333   3.924  1.00  0.00    -0.000 C 
BRANCH  27  28
ATOM     28  C   UNL     1      26.338  23.331   5.148  1.00  0.00    -0.000 C 
BRANCH  28  29
ATOM     29  C   UNL     1      26.795  24.754   5.532  1.00  0.00    -0.000 C 
BRANCH  29  30
ATOM     30  C   UNL     1      25.633  25.742   5.727  1.00  0.00    -0.000 C 
BRANCH  30  31
ATOM     31  C   UNL     1      25.459  26.180   7.188  1.00  0.00    -0.003 C 
ATOM     32  C   UNL     1      24.771  25.093   8.008  1.00  0.00     0.004 C 
ENDBRANCH  30  31
ENDBRANCH  29  30
ENDBRANCH  28  29
ENDBRANCH  27  28
ENDBRANCH  26  27
ENDBRANCH  25  26
ENDBRANCH  24  25
ENDBRANCH  23  24
ENDBRANCH  22  23
ENDBRANCH  21  22
ENDBRANCH  20  21
ENDBRANCH  19  20
ENDBRANCH  18  19
ENDBRANCH   1  18
TORSDOF 28
ENDMDL
MODEL 9
REMARK VINA RESULT:    -5.354      1.728      4.942
REMARK INTER + INTRA:         -17.378
REMARK INTER:                 -14.396
REMARK INTRA:                  -2.982
REMARK UNBOUND:                -3.261
REMARK SMILES CCCCCCCCCCCCCCCCCCCCCCCCCCCCCC(=O)[O-]
REMARK SMILES IDX 16 1 17 2 18 3 19 4 20 5 21 6 22 7 23 8 24 9 25 10 26 11
REMARK SMILES IDX 27 12 28 13 29 14 30 15 31 16 32 17 15 18 14 19 13 20 12 21
REMARK SMILES IDX 11 22 10 23 9 24 8 25 7 26 6 27 5 28 4 29 3 30 2 31 1 32
REMARK H PARENT
REMARK Flexibility Score: inf
ROOT
ATOM      1  C   UNL     1      22.611  19.482   6.744  1.00  0.00     0.000 C 
ENDROOT
BRANCH   1   2
ATOM      2  C   UNL     1      21.753  19.982   5.573  1.00  0.00     0.000 C 
BRANCH   2   3
ATOM      3  C   UNL     1      22.594  20.398   4.355  1.00  0.00     0.000 C 
BRANCH   3   4
ATOM      4  C   UNL     1      23.101  21.847   4.455  1.00  0.00     0.000 C 
BRANCH   4   5
ATOM      5  C   UNL     1      24.635  21.937   4.560  1.00  0.00     0.000 C 
BRANCH   5   6
ATOM      6  C   UNL     1      25.415  20.966   3.650  1.00  0.00     0.000 C 
BRANCH   6   7
ATOM      7  C   UNL     1      26.948  21.057   3.755  1.00  0.00     0.000 C 
BRANCH   7   8
ATOM      8  C   UNL     1      27.434  21.211   5.206  1.00  0.00     0.000 C 
BRANCH   8   9
ATOM      9  C   UNL     1      28.017  22.605   5.496  1.00  0.00     0.000 C 
BRANCH   9  10
ATOM     10  C   UNL     1      27.920  23.609   4.330  1.00  0.00     0.000 C 
BRANCH  10  11
ATOM     11  C   UNL     1      26.796  24.654   4.498  1.00  0.00     0.000 C 
BRANCH  11  12
ATOM     12  C   UNL     1      26.703  25.177   5.941  1.00  0.00     0.000 C 
BRANCH  12  13
ATOM     13  C   UNL     1      25.351  24.858   6.606  1.00  0.00     0.006 C 
BRANCH  13  14
ATOM     14  C   UNL     1      24.138  25.499   5.914  1.00  0.00     0.053 C 
BRANCH  14  15
ATOM     15  C   UNL     1      23.555  26.617   6.721  1.00  0.00     0.041 C 
ATOM     16  O   UNL     1      24.036  26.905   7.848  1.00  0.00    -0.550 OA
ATOM     17  O   UNL     1      22.502  27.367   6.210  1.00  0.00    -0.550 OA
ENDBRANCH  14  15
ENDBRANCH  13  14
ENDBRANCH  12  13
ENDBRANCH  11  12
ENDBRANCH  10  11
ENDBRANCH   9  10
ENDBRANCH   8   9
ENDBRANCH   7   8
ENDBRANCH   6   7
ENDBRANCH   5   6
ENDBRANCH   4   5
ENDBRANCH   3   4
ENDBRANCH   2   3
ENDBRANCH   1   2
BRANCH   1  18
ATOM     18  C   UNL     1      23.847  18.730   6.229  1.00  0.00     0.000 C 
BRANCH  18  19
ATOM     19  C   UNL     1      24.685  18.108   7.362  1.00  0.00     0.000 C 
BRANCH  19  20
ATOM     20  C   UNL     1      26.077  18.739   7.563  1.00  0.00     0.000 C 
BRANCH  20  21
ATOM     21  C   UNL     1      27.119  17.829   8.243  1.00  0.00     0.000 C 
BRANCH  21  22
ATOM     22  C   UNL     1      27.217  16.406   7.664  1.00  0.00     0.000 C 
BRANCH  22  23
ATOM     23  C   UNL     1      27.391  15.331   8.746  1.00  0.00     0.000 C 
BRANCH  23  24
ATOM     24  C   UNL     1      26.850  13.976   8.264  1.00  0.00    -0.000 C 
BRANCH  24  25
ATOM     25  C   UNL     1      26.335  13.100   9.416  1.00  0.00    -0.000 C 
BRANCH  25  26
ATOM     26  C   UNL     1      24.855  13.362   9.746  1.00  0.00    -0.000 C 
BRANCH  26  27
ATOM     27  C   UNL     1      23.936  13.157   8.532  1.00  0.00    -0.000 C 
BRANCH  27  28
ATOM     28  C   UNL     1      22.476  12.883   8.935  1.00  0.00    -0.000 C 
BRANCH  28  29
ATOM     29  C   UNL     1      22.367  12.284  10.354  1.00  0.00    -0.000 C 
BRANCH  29  30
ATOM     30  C   UNL     1      21.540  10.989  10.413  1.00  0.00    -0.000 C 
BRANCH  30  31
ATOM     31  C   UNL     1      21.547  10.338  11.803  1.00  0.00    -0.003 C 
ATOM     32  C   UNL     1      22.937  10.394  12.428  1.00  0.00     0.004 C 
ENDBRANCH  30  31
ENDBRANCH  29  30
ENDBRANCH  28  29
ENDBRANCH  27  28
ENDBRANCH  26  27
ENDBRANCH  25  26
ENDBRANCH  24  25
ENDBRANCH  23  24
ENDBRANCH  22  23
ENDBRANCH  21  22
ENDBRANCH  20  21
ENDBRANCH  19  20
ENDBRANCH  18  19
ENDBRANCH   1  18
TORSDOF 28
ENDMDL
