MODEL 1
REMARK VINA RESULT:    -4.574      0.000      0.000
REMARK INTER + INTRA:          -9.628
REMARK INTER:                  -8.318
REMARK INTRA:                  -1.310
REMARK UNBOUND:                -1.310
REMARK SMILES CCCCCCCCCCCCCCCC(=O)[O-]
REMARK SMILES IDX 9 1 10 2 11 3 12 4 13 5 14 6 15 7 16 8 17 9 18 10 8 11 7 12
REMARK SMILES IDX 6 13 5 14 4 15 3 16 2 17 1 18
REMARK H PARENT
REMARK Flexibility Score: inf
ROOT
ATOM      1  C   UNL     1      97.360  84.385  81.599  1.00  0.00     0.000 C 
ENDROOT
BRANCH   1   2
ATOM      2  C   UNL     1      98.500  83.422  81.953  1.00  0.00     0.000 C 
BRANCH   2   3
ATOM      3  C   UNL     1      99.863  84.023  81.581  1.00  0.00     0.000 C 
BRANCH   3   4
ATOM      4  C   UNL     1     100.894  83.923  82.720  1.00  0.00     0.000 C 
BRANCH   4   5
ATOM      5  C   UNL     1     100.299  83.942  84.141  1.00  0.00     0.000 C 
BRANCH   5   6
ATOM      6  C   UNL     1     100.100  85.362  84.690  1.00  0.00     0.006 C 
BRANCH   6   7
ATOM      7  C   UNL     1      98.614  85.665  84.897  1.00  0.00     0.053 C 
BRANCH   7   8
ATOM      8  C   UNL     1      98.174  85.229  86.259  1.00  0.00     0.041 C 
ATOM      9  O   UNL     1      96.950  85.090  86.515  1.00  0.00    -0.550 OA
ATOM     10  O   UNL     1      99.119  84.927  87.231  1.00  0.00    -0.550 OA
ENDBRANCH   7   8
ENDBRANCH   6   7
ENDBRANCH   5   6
ENDBRANCH   4   5
ENDBRANCH   3   4
ENDBRANCH   2   3
ENDBRANCH   1   2
BRANCH   1  11
ATOM     11  C   UNL     1      97.888  85.601  80.823  1.00  0.00     0.000 C 
BRANCH  11  12
ATOM     12  C   UNL     1      96.770  86.570  80.399  1.00  0.00    -0.000 C 
BRANCH  12  13
ATOM     13  C   UNL     1      95.983  86.145  79.144  1.00  0.00    -0.000 C 
BRANCH  13  14
ATOM     14  C   UNL     1      94.533  85.686  79.402  1.00  0.00    -0.000 C 
BRANCH  14  15
ATOM     15  C   UNL     1      94.297  84.170  79.282  1.00  0.00    -0.000 C 
BRANCH  15  16
ATOM     16  C   UNL     1      93.223  83.654  80.255  1.00  0.00    -0.000 C 
BRANCH  16  17
ATOM     17  C   UNL     1      91.865  84.343  80.051  1.00  0.00    -0.003 C 
ATOM     18  C   UNL     1      90.857  84.007  81.150  1.00  0.00     0.004 C 
ENDBRANCH  16  17
ENDBRANCH  15  16
ENDBRANCH  14  15
ENDBRANCH  13  14
ENDBRANCH  12  13
ENDBRANCH  11  12
ENDBRANCH   1  11
TORSDOF 14
ENDMDL
MODEL 2
REMARK VINA RESULT:    -4.495      1.614      2.243
REMARK INTER + INTRA:          -9.484
REMARK INTER:                  -7.860
REMARK INTRA:                  -1.624
REMARK UNBOUND:                -1.310
REMARK SMILES CCCCCCCCCCCCCCCC(=O)[O-]
REMARK SMILES IDX 9 1 10 2 11 3 12 4 13 5 14 6 15 7 16 8 17 9 18 10 8 11 7 12
REMARK SMILES IDX 6 13 5 14 4 15 3 16 2 17 1 18
REMARK H PARENT
REMARK Flexibility Score: inf
ROOT
ATOM      1  C   UNL     1      97.496  85.893  82.245  1.00  0.00     0.000 C 
ENDROOT
BRANCH   1   2
ATOM      2  C   UNL     1      97.519  84.485  82.852  1.00  0.00     0.000 C 
BRANCH   2   3
ATOM      3  C   UNL     1      98.286  83.509  81.949  1.00  0.00     0.000 C 
BRANCH   3   4
ATOM      4  C   UNL     1      99.761  83.903  81.754  1.00  0.00     0.000 C 
BRANCH   4   5
ATOM      5  C   UNL     1     100.656  83.714  82.994  1.00  0.00     0.000 C 
BRANCH   5   6
ATOM      6  C   UNL     1     101.700  84.828  83.156  1.00  0.00     0.006 C 
BRANCH   6   7
ATOM      7  C   UNL     1     101.024  86.193  83.310  1.00  0.00     0.053 C 
BRANCH   7   8
ATOM      8  C   UNL     1     100.708  86.463  84.748  1.00  0.00     0.041 C 
ATOM      9  O   UNL     1      99.569  86.185  85.208  1.00  0.00    -0.550 OA
ATOM     10  O   UNL     1     101.685  86.973  85.590  1.00  0.00    -0.550 OA
ENDBRANCH   7   8
ENDBRANCH   6   7
ENDBRANCH   5   6
ENDBRANCH   4   5
ENDBRANCH   3   4
ENDBRANCH   2   3
ENDBRANCH   1   2
BRANCH   1  11
ATOM     11  C   UNL     1      96.130  86.197  81.613  1.00  0.00     0.000 C 
BRANCH  11  12
ATOM     12  C   UNL     1      96.200  86.344  80.083  1.00  0.00    -0.000 C 
BRANCH  12  13
ATOM     13  C   UNL     1      95.334  85.342  79.293  1.00  0.00    -0.000 C 
BRANCH  13  14
ATOM     14  C   UNL     1      94.914  84.080  80.073  1.00  0.00    -0.000 C 
BRANCH  14  15
ATOM     15  C   UNL     1      93.427  83.701  79.949  1.00  0.00    -0.000 C 
BRANCH  15  16
ATOM     16  C   UNL     1      92.490  84.915  80.064  1.00  0.00    -0.000 C 
BRANCH  16  17
ATOM     17  C   UNL     1      91.651  85.132  78.795  1.00  0.00    -0.003 C 
ATOM     18  C   UNL     1      91.940  86.469  78.113  1.00  0.00     0.004 C 
ENDBRANCH  16  17
ENDBRANCH  15  16
ENDBRANCH  14  15
ENDBRANCH  13  14
ENDBRANCH  12  13
ENDBRANCH  11  12
ENDBRANCH   1  11
TORSDOF 14
ENDMDL
MODEL 3
REMARK VINA RESULT:    -4.478      1.989      3.464
REMARK INTER + INTRA:          -9.454
REMARK INTER:                  -8.494
REMARK INTRA:                  -0.960
REMARK UNBOUND:                -1.310
REMARK SMILES CCCCCCCCCCCCCCCC(=O)[O-]
REMARK SMILES IDX 9 1 10 2 11 3 12 4 13 5 14 6 15 7 16 8 17 9 18 10 8 11 7 12
REMARK SMILES IDX 6 13 5 14 4 15 3 16 2 17 1 18
REMARK H PARENT
REMARK Flexibility Score: inf
ROOT
ATOM      1  C   UNL     1      96.219  86.797  79.910  1.00  0.00     0.000 C 
ENDROOT
BRANCH   1   2
ATOM      2  C   UNL     1      97.315  85.805  80.318  1.00  0.00     0.000 C 
BRANCH   2   3
ATOM      3  C   UNL     1      97.612  85.901  81.822  1.00  0.00     0.000 C 
BRANCH   3   4
ATOM      4  C   UNL     1      97.545  84.539  82.536  1.00  0.00     0.000 C 
BRANCH   4   5
ATOM      5  C   UNL     1      98.419  83.434  81.913  1.00  0.00     0.000 C 
BRANCH   5   6
ATOM      6  C   UNL     1      99.920  83.745  81.981  1.00  0.00     0.006 C 
BRANCH   6   7
ATOM      7  C   UNL     1     100.377  83.926  83.432  1.00  0.00     0.053 C 
BRANCH   7   8
ATOM      8  C   UNL     1     101.287  85.108  83.552  1.00  0.00     0.041 C 
ATOM      9  O   UNL     1     102.515  84.989  83.302  1.00  0.00    -0.550 OA
ATOM     10  O   UNL     1     100.771  86.351  83.892  1.00  0.00    -0.550 OA
ENDBRANCH   7   8
ENDBRANCH   6   7
ENDBRANCH   5   6
ENDBRANCH   4   5
ENDBRANCH   3   4
ENDBRANCH   2   3
ENDBRANCH   1   2
BRANCH   1  11
ATOM     11  C   UNL     1      94.940  86.058  79.490  1.00  0.00     0.000 C 
BRANCH  11  12
ATOM     12  C   UNL     1      95.090  84.528  79.538  1.00  0.00    -0.000 C 
BRANCH  12  13
ATOM     13  C   UNL     1      93.792  83.738  79.277  1.00  0.00    -0.000 C 
BRANCH  13  14
ATOM     14  C   UNL     1      92.715  83.863  80.374  1.00  0.00    -0.000 C 
BRANCH  14  15
ATOM     15  C   UNL     1      91.472  84.680  79.979  1.00  0.00    -0.000 C 
BRANCH  15  16
ATOM     16  C   UNL     1      90.167  84.085  80.533  1.00  0.00    -0.000 C 
BRANCH  16  17
ATOM     17  C   UNL     1      88.971  84.313  79.595  1.00  0.00    -0.003 C 
ATOM     18  C   UNL     1      87.652  84.491  80.346  1.00  0.00     0.004 C 
ENDBRANCH  16  17
ENDBRANCH  15  16
ENDBRANCH  14  15
ENDBRANCH  13  14
ENDBRANCH  12  13
ENDBRANCH  11  12
ENDBRANCH   1  11
TORSDOF 14
ENDMDL
MODEL 4
REMARK VINA RESULT:    -4.463      3.382      7.498
REMARK INTER + INTRA:          -9.425
REMARK INTER:                  -7.929
REMARK INTRA:                  -1.497
REMARK UNBOUND:                -1.310
REMARK SMILES CCCCCCCCCCCCCCCC(=O)[O-]
REMARK SMILES IDX 9 1 10 2 11 3 12 4 13 5 14 6 15 7 16 8 17 9 18 10 8 11 7 12
REMARK SMILES IDX 6 13 5 14 4 15 3 16 2 17 1 18
REMARK H PARENT
REMARK Flexibility Score: inf
ROOT
ATOM      1  C   UNL     1      97.346  84.476  81.910  1.00  0.00     0.000 C 
ENDROOT
BRANCH   1   2
ATOM      2  C   UNL     1      97.685  85.482  80.803  1.00  0.00     0.000 C 
BRANCH   2   3
ATOM      3  C   UNL     1      96.442  85.821  79.968  1.00  0.00     0.000 C 
BRANCH   3   4
ATOM      4  C   UNL     1      95.192  85.037  80.404  1.00  0.00     0.000 C 
BRANCH   4   5
ATOM      5  C   UNL     1      94.631  84.065  79.348  1.00  0.00     0.000 C 
BRANCH   5   6
ATOM      6  C   UNL     1      93.097  84.007  79.341  1.00  0.00     0.006 C 
BRANCH   6   7
ATOM      7  C   UNL     1      92.517  84.713  80.570  1.00  0.00     0.053 C 
BRANCH   7   8
ATOM      8  C   UNL     1      91.027  84.579  80.598  1.00  0.00     0.041 C 
ATOM      9  O   UNL     1      90.306  85.395  79.965  1.00  0.00    -0.550 OA
ATOM     10  O   UNL     1      90.436  83.526  81.282  1.00  0.00    -0.550 OA
ENDBRANCH   7   8
ENDBRANCH   6   7
ENDBRANCH   5   6
ENDBRANCH   4   5
ENDBRANCH   3   4
ENDBRANCH   2   3
ENDBRANCH   1   2
BRANCH   1  11
ATOM     11  C   UNL     1      98.436  83.400  82.027  1.00  0.00     0.000 C 
BRANCH  11  12
ATOM     12  C   UNL     1      99.822  83.904  81.589  1.00  0.00    -0.000 C 
BRANCH  12  13
ATOM     13  C   UNL     1     100.898  83.890  82.693  1.00  0.00    -0.000 C 
BRANCH  13  14
ATOM     14  C   UNL     1     100.428  84.389  84.075  1.00  0.00    -0.000 C 
BRANCH  14  15
ATOM     15  C   UNL     1     100.776  85.855  84.392  1.00  0.00    -0.000 C 
BRANCH  15  16
ATOM     16  C   UNL     1      99.664  86.834  83.979  1.00  0.00    -0.000 C 
BRANCH  16  17
ATOM     17  C   UNL     1      99.979  87.561  82.662  1.00  0.00    -0.003 C 
ATOM     18  C   UNL     1     101.345  88.246  82.674  1.00  0.00     0.004 C 
ENDBRANCH  16  17
ENDBRANCH  15  16
ENDBRANCH  14  15
ENDBRANCH  13  14
ENDBRANCH  12  13
ENDBRANCH  11  12
ENDBRANCH   1  11
TORSDOF 14
ENDMDL
MODEL 5
REMARK VINA RESULT:    -4.458      3.328      7.522
REMARK INTER + INTRA:          -9.416
REMARK INTER:                  -7.754
REMARK INTRA:                  -1.662
REMARK UNBOUND:                -1.310
REMARK SMILES CCCCCCCCCCCCCCCC(=O)[O-]
REMARK SMILES IDX 9 1 10 2 11 3 12 4 13 5 14 6 15 7 16 8 17 9 18 10 8 11 7 12
REMARK SMILES IDX 6 13 5 14 4 15 3 16 2 17 1 18
REMARK H PARENT
REMARK Flexibility Score: inf
ROOT
ATOM      1  C   UNL     1      97.455  86.958  81.828  1.00  0.00     0.000 C 
ENDROOT
BRANCH   1   2
ATOM      2  C   UNL     1      96.473  87.330  80.711  1.00  0.00     0.000 C 
BRANCH   2   3
ATOM      3  C   UNL     1      96.467  86.265  79.605  1.00  0.00     0.000 C 
BRANCH   3   4
ATOM      4  C   UNL     1      95.078  85.644  79.375  1.00  0.00     0.000 C 
BRANCH   4   5
ATOM      5  C   UNL     1      94.857  84.274  80.044  1.00  0.00     0.000 C 
BRANCH   5   6
ATOM      6  C   UNL     1      93.556  83.591  79.598  1.00  0.00     0.006 C 
BRANCH   6   7
ATOM      7  C   UNL     1      92.560  84.616  79.050  1.00  0.00     0.053 C 
BRANCH   7   8
ATOM      8  C   UNL     1      91.294  84.597  79.849  1.00  0.00     0.041 C 
ATOM      9  O   UNL     1      91.220  83.908  80.900  1.00  0.00    -0.550 OA
ATOM     10  O   UNL     1      90.215  85.379  79.460  1.00  0.00    -0.550 OA
ENDBRANCH   7   8
ENDBRANCH   6   7
ENDBRANCH   5   6
ENDBRANCH   4   5
ENDBRANCH   3   4
ENDBRANCH   2   3
ENDBRANCH   1   2
BRANCH   1  11
ATOM     11  C   UNL     1      96.844  85.912  82.772  1.00  0.00     0.000 C 
BRANCH  11  12
ATOM     12  C   UNL     1      97.813  84.762  83.097  1.00  0.00    -0.000 C 
BRANCH  12  13
ATOM     13  C   UNL     1      98.439  84.072  81.869  1.00  0.00    -0.000 C 
BRANCH  13  14
ATOM     14  C   UNL     1      99.914  83.652  82.033  1.00  0.00    -0.000 C 
BRANCH  14  15
ATOM     15  C   UNL     1     100.547  84.008  83.390  1.00  0.00    -0.000 C 
BRANCH  15  16
ATOM     16  C   UNL     1     101.670  85.052  83.269  1.00  0.00    -0.000 C 
BRANCH  16  17
ATOM     17  C   UNL     1     101.310  86.383  83.948  1.00  0.00    -0.003 C 
ATOM     18  C   UNL     1     100.908  87.469  82.952  1.00  0.00     0.004 C 
ENDBRANCH  16  17
ENDBRANCH  15  16
ENDBRANCH  14  15
ENDBRANCH  13  14
ENDBRANCH  12  13
ENDBRANCH  11  12
ENDBRANCH   1  11
TORSDOF 14
ENDMDL
MODEL 6
REMARK VINA RESULT:    -4.447      1.248      2.248
REMARK INTER + INTRA:          -9.397
REMARK INTER:                  -8.287
REMARK INTRA:                  -1.111
REMARK UNBOUND:                -1.310
REMARK SMILES CCCCCCCCCCCCCCCC(=O)[O-]
REMARK SMILES IDX 9 1 10 2 11 3 12 4 13 5 14 6 15 7 16 8 17 9 18 10 8 11 7 12
REMARK SMILES IDX 6 13 5 14 4 15 3 16 2 17 1 18
REMARK H PARENT
REMARK Flexibility Score: inf
ROOT
ATOM      1  C   UNL     1      96.351  85.915  81.977  1.00  0.00     0.000 C 
ENDROOT
BRANCH   1   2
ATOM      2  C   UNL     1      97.286  85.004  82.782  1.00  0.00     0.000 C 
BRANCH   2   3
ATOM      3  C   UNL     1      97.697  83.773  81.960  1.00  0.00     0.000 C 
BRANCH   3   4
ATOM      4  C   UNL     1      99.217  83.531  81.957  1.00  0.00     0.000 C 
BRANCH   4   5
ATOM      5  C   UNL     1     100.064  84.704  82.487  1.00  0.00     0.000 C 
BRANCH   5   6
ATOM      6  C   UNL     1     101.102  84.271  83.532  1.00  0.00     0.006 C 
BRANCH   6   7
ATOM      7  C   UNL     1     101.042  85.171  84.769  1.00  0.00     0.053 C 
BRANCH   7   8
ATOM      8  C   UNL     1     100.243  84.520  85.854  1.00  0.00     0.041 C 
ATOM      9  O   UNL     1     100.678  83.488  86.428  1.00  0.00    -0.550 OA
ATOM     10  O   UNL     1      99.042  85.081  86.264  1.00  0.00    -0.550 OA
ENDBRANCH   7   8
ENDBRANCH   6   7
ENDBRANCH   5   6
ENDBRANCH   4   5
ENDBRANCH   3   4
ENDBRANCH   2   3
ENDBRANCH   1   2
BRANCH   1  11
ATOM     11  C   UNL     1      96.481  85.644  80.471  1.00  0.00     0.000 C 
BRANCH  11  12
ATOM     12  C   UNL     1      95.128  85.362  79.796  1.00  0.00    -0.000 C 
BRANCH  12  13
ATOM     13  C   UNL     1      94.627  83.909  79.926  1.00  0.00    -0.000 C 
BRANCH  13  14
ATOM     14  C   UNL     1      93.094  83.744  79.965  1.00  0.00    -0.000 C 
BRANCH  14  15
ATOM     15  C   UNL     1      92.311  84.702  79.048  1.00  0.00    -0.000 C 
BRANCH  15  16
ATOM     16  C   UNL     1      91.082  85.316  79.739  1.00  0.00    -0.000 C 
BRANCH  16  17
ATOM     17  C   UNL     1      90.409  84.342  80.719  1.00  0.00    -0.003 C 
ATOM     18  C   UNL     1      89.017  83.907  80.264  1.00  0.00     0.004 C 
ENDBRANCH  16  17
ENDBRANCH  15  16
ENDBRANCH  14  15
ENDBRANCH  13  14
ENDBRANCH  12  13
ENDBRANCH  11  12
ENDBRANCH   1  11
TORSDOF 14
ENDMDL
MODEL 7
REMARK VINA RESULT:    -4.439      2.132      3.849
REMARK INTER + INTRA:          -9.382
REMARK INTER:                  -8.077
REMARK INTRA:                  -1.304
REMARK UNBOUND:                -1.310
REMARK SMILES CCCCCCCCCCCCCCCC(=O)[O-]
REMARK SMILES IDX 9 1 10 2 11 3 12 4 13 5 14 6 15 7 16 8 17 9 18 10 8 11 7 12
REMARK SMILES IDX 6 13 5 14 4 15 3 16 2 17 1 18
REMARK H PARENT
REMARK Flexibility Score: inf
ROOT
ATOM      1  C   UNL     1      94.819  85.602  80.059  1.00  0.00     0.000 C 
ENDROOT
BRANCH   1   2
ATOM      2  C   UNL     1      95.781  85.864  81.223  1.00  0.00     0.000 C 
BRANCH   2   3
ATOM      3  C   UNL     1      97.056  86.569  80.735  1.00  0.00     0.000 C 
BRANCH   3   4
ATOM      4  C   UNL     1      98.296  85.657  80.765  1.00  0.00     0.000 C 
BRANCH   4   5
ATOM      5  C   UNL     1      98.166  84.411  81.661  1.00  0.00     0.000 C 
BRANCH   5   6
ATOM      6  C   UNL     1      99.487  83.642  81.814  1.00  0.00     0.006 C 
BRANCH   6   7
ATOM      7  C   UNL     1     100.082  83.849  83.209  1.00  0.00     0.053 C 
BRANCH   7   8
ATOM      8  C   UNL     1     101.133  84.914  83.179  1.00  0.00     0.041 C 
ATOM      9  O   UNL     1     100.842  86.100  83.483  1.00  0.00    -0.550 OA
ATOM     10  O   UNL     1     102.445  84.587  82.863  1.00  0.00    -0.550 OA
ENDBRANCH   7   8
ENDBRANCH   6   7
ENDBRANCH   5   6
ENDBRANCH   4   5
ENDBRANCH   3   4
ENDBRANCH   2   3
ENDBRANCH   1   2
BRANCH   1  11
ATOM     11  C   UNL     1      94.687  84.097  79.783  1.00  0.00     0.000 C 
BRANCH  11  12
ATOM     12  C   UNL     1      93.338  83.722  79.145  1.00  0.00    -0.000 C 
BRANCH  12  13
ATOM     13  C   UNL     1      92.403  84.913  78.854  1.00  0.00    -0.000 C 
BRANCH  13  14
ATOM     14  C   UNL     1      90.953  84.745  79.351  1.00  0.00    -0.000 C 
BRANCH  14  15
ATOM     15  C   UNL     1      90.645  85.412  80.704  1.00  0.00    -0.000 C 
BRANCH  15  16
ATOM     16  C   UNL     1      91.127  84.578  81.903  1.00  0.00    -0.000 C 
BRANCH  16  17
ATOM     17  C   UNL     1      92.076  85.364  82.822  1.00  0.00    -0.003 C 
ATOM     18  C   UNL     1      91.625  85.364  84.282  1.00  0.00     0.004 C 
ENDBRANCH  16  17
ENDBRANCH  15  16
ENDBRANCH  14  15
ENDBRANCH  13  14
ENDBRANCH  12  13
ENDBRANCH  11  12
ENDBRANCH   1  11
TORSDOF 14
ENDMDL
MODEL 8
REMARK VINA RESULT:    -4.419      1.027      2.181
REMARK INTER + INTRA:          -9.346
REMARK INTER:                  -7.670
REMARK INTRA:                  -1.675
REMARK UNBOUND:                -1.310
REMARK SMILES CCCCCCCCCCCCCCCC(=O)[O-]
REMARK SMILES IDX 9 1 10 2 11 3 12 4 13 5 14 6 15 7 16 8 17 9 18 10 8 11 7 12
REMARK SMILES IDX 6 13 5 14 4 15 3 16 2 17 1 18
REMARK H PARENT
REMARK Flexibility Score: inf
ROOT
ATOM      1  C   UNL     1      98.405  83.344  82.250  1.00  0.00     0.000 C 
ENDROOT
BRANCH   1   2
ATOM      2  C   UNL     1      99.881  83.683  82.016  1.00  0.00     0.000 C 
BRANCH   2   3
ATOM      3  C   UNL     1     100.607  83.932  83.347  1.00  0.00     0.000 C 
BRANCH   3   4
ATOM      4  C   UNL     1     101.459  85.213  83.337  1.00  0.00     0.000 C 
BRANCH   4   5
ATOM      5  C   UNL     1     100.675  86.518  83.573  1.00  0.00     0.000 C 
BRANCH   5   6
ATOM      6  C   UNL     1      99.466  86.332  84.501  1.00  0.00     0.006 C 
BRANCH   6   7
ATOM      7  C   UNL     1      99.907  86.255  85.966  1.00  0.00     0.053 C 
BRANCH   7   8
ATOM      8  C   UNL     1      99.037  85.303  86.725  1.00  0.00     0.041 C 
ATOM      9  O   UNL     1      99.384  84.903  87.868  1.00  0.00    -0.550 OA
ATOM     10  O   UNL     1      97.821  84.896  86.194  1.00  0.00    -0.550 OA
ENDBRANCH   7   8
ENDBRANCH   6   7
ENDBRANCH   5   6
ENDBRANCH   4   5
ENDBRANCH   3   4
ENDBRANCH   2   3
ENDBRANCH   1   2
BRANCH   1  11
ATOM     11  C   UNL     1      97.489  84.340  81.524  1.00  0.00     0.000 C 
BRANCH  11  12
ATOM     12  C   UNL     1      98.269  85.463  80.818  1.00  0.00    -0.000 C 
BRANCH  12  13
ATOM     13  C   UNL     1      97.708  86.882  81.035  1.00  0.00    -0.000 C 
BRANCH  13  14
ATOM     14  C   UNL     1      96.228  87.069  80.642  1.00  0.00    -0.000 C 
BRANCH  14  15
ATOM     15  C   UNL     1      95.867  86.609  79.219  1.00  0.00    -0.000 C 
BRANCH  15  16
ATOM     16  C   UNL     1      94.503  85.901  79.149  1.00  0.00    -0.000 C 
BRANCH  16  17
ATOM     17  C   UNL     1      94.624  84.376  79.303  1.00  0.00    -0.003 C 
ATOM     18  C   UNL     1      93.478  83.768  80.111  1.00  0.00     0.004 C 
ENDBRANCH  16  17
ENDBRANCH  15  16
ENDBRANCH  14  15
ENDBRANCH  13  14
ENDBRANCH  12  13
ENDBRANCH  11  12
ENDBRANCH   1  11
TORSDOF 14
ENDMDL
MODEL 9
REMARK VINA RESULT:    -4.409      3.729      7.300
REMARK INTER + INTRA:          -9.327
REMARK INTER:                  -7.827
REMARK INTRA:                  -1.500
REMARK UNBOUND:                -1.310
REMARK SMILES CCCCCCCCCCCCCCCC(=O)[O-]
REMARK SMILES IDX 9 1 10 2 11 3 12 4 13 5 14 6 15 7 16 8 17 9 18 10 8 11 7 12
REMARK SMILES IDX 6 13 5 14 4 15 3 16 2 17 1 18
REMARK H PARENT
REMARK Flexibility Score: inf
ROOT
ATOM      1  C   UNL     1      98.643  87.263  81.944  1.00  0.00     0.000 C 
ENDROOT
BRANCH   1   2
ATOM      2  C   UNL     1      97.117  87.262  81.797  1.00  0.00     0.000 C 
BRANCH   2   3
ATOM      3  C   UNL     1      96.706  87.295  80.318  1.00  0.00     0.000 C 
BRANCH   3   4
ATOM      4  C   UNL     1      96.447  85.894  79.735  1.00  0.00     0.000 C 
BRANCH   4   5
ATOM      5  C   UNL     1      95.349  85.084  80.450  1.00  0.00     0.000 C 
BRANCH   5   6
ATOM      6  C   UNL     1      94.405  84.363  79.477  1.00  0.00     0.006 C 
BRANCH   6   7
ATOM      7  C   UNL     1      93.021  84.165  80.102  1.00  0.00     0.053 C 
BRANCH   7   8
ATOM      8  C   UNL     1      91.967  84.812  79.258  1.00  0.00     0.041 C 
ATOM      9  O   UNL     1      92.288  85.656  78.381  1.00  0.00    -0.550 OA
ATOM     10  O   UNL     1      90.637  84.445  79.406  1.00  0.00    -0.550 OA
ENDBRANCH   7   8
ENDBRANCH   6   7
ENDBRANCH   5   6
ENDBRANCH   4   5
ENDBRANCH   3   4
ENDBRANCH   2   3
ENDBRANCH   1   2
BRANCH   1  11
ATOM     11  C   UNL     1      99.053  87.240  83.424  1.00  0.00     0.000 C 
BRANCH  11  12
ATOM     12  C   UNL     1     100.578  87.305  83.623  1.00  0.00    -0.000 C 
BRANCH  12  13
ATOM     13  C   UNL     1     101.171  86.173  84.486  1.00  0.00    -0.000 C 
BRANCH  13  14
ATOM     14  C   UNL     1     102.268  85.332  83.802  1.00  0.00    -0.000 C 
BRANCH  14  15
ATOM     15  C   UNL     1     101.765  84.353  82.726  1.00  0.00    -0.000 C 
BRANCH  15  16
ATOM     16  C   UNL     1     100.388  83.756  83.060  1.00  0.00    -0.000 C 
BRANCH  16  17
ATOM     17  C   UNL     1      99.456  83.703  81.838  1.00  0.00    -0.003 C 
ATOM     18  C   UNL     1      98.005  83.402  82.210  1.00  0.00     0.004 C 
ENDBRANCH  16  17
ENDBRANCH  15  16
ENDBRANCH  14  15
ENDBRANCH  13  14
ENDBRANCH  12  13
ENDBRANCH  11  12
ENDBRANCH   1  11
TORSDOF 14
ENDMDL
