MODEL 1
REMARK VINA RESULT:    -4.738      0.000      0.000
REMARK INTER + INTRA:          -5.850
REMARK INTER:                  -5.707
REMARK INTRA:                  -0.142
REMARK UNBOUND:                -0.142
REMARK SMILES O=c1c(O)c(-c2ccc(O)cc2O)oc2cc(O)cc(O)c12
REMARK SMILES IDX 5 1 3 2 2 3 1 4 22 5 20 6 19 7 17 8 16 9 15 10 14 11 6 12
REMARK SMILES IDX 8 13 7 14 9 15 11 16 12 17 10 18 13 20 4 22 21 24 18 26
REMARK H PARENT 10 19 13 21 4 23 21 25 18 27
REMARK Flexibility Score: inf
ROOT
ATOM      1  C   UNL     1     -47.072  95.337  22.367  1.00  0.00     0.184 A 
ATOM      2  C   UNL     1     -47.583  94.139  22.886  1.00  0.00     0.208 A 
ATOM      3  C   UNL     1     -47.615  93.958  24.278  1.00  0.00     0.238 A 
ATOM      4  O   UNL     1     -48.125  92.903  24.739  1.00  0.00    -0.285 OA
ATOM      5  C   UNL     1     -47.119  94.973  25.131  1.00  0.00     0.111 A 
ATOM      6  C   UNL     1     -47.064  94.881  26.555  1.00  0.00     0.134 A 
ATOM      7  C   UNL     1     -46.673  95.998  27.304  1.00  0.00     0.093 A 
ATOM      8  C   UNL     1     -46.274  97.180  26.681  1.00  0.00     0.123 A 
ATOM      9  C   UNL     1     -46.267  97.261  25.289  1.00  0.00     0.094 A 
ATOM     10  C   UNL     1     -46.685  96.176  24.514  1.00  0.00     0.146 A 
ATOM     11  O   UNL     1     -46.674  96.298  23.192  1.00  0.00    -0.451 OA
ENDROOT
BRANCH   1  12
ATOM     12  C   UNL     1     -46.995  95.584  20.913  1.00  0.00     0.063 A 
ATOM     13  C   UNL     1     -46.406  94.775  18.697  1.00  0.00     0.047 A 
ATOM     14  C   UNL     1     -46.489  94.576  20.077  1.00  0.00     0.020 A 
ATOM     15  C   UNL     1     -46.841  95.980  18.133  1.00  0.00     0.119 A 
ATOM     16  C   UNL     1     -47.367  96.981  18.955  1.00  0.00     0.093 A 
ATOM     17  C   UNL     1     -47.459  96.787  20.340  1.00  0.00     0.130 A 
BRANCH  15  18
ATOM     18  O   UNL     1     -46.759  96.191  16.758  1.00  0.00    -0.508 OA
ATOM     19  H   UNL     1     -46.372  95.490  16.137  1.00  0.00     0.293 HD
ENDBRANCH  15  18
BRANCH  17  20
ATOM     20  O   UNL     1     -48.031  97.775  21.143  1.00  0.00    -0.507 OA
ATOM     21  H   UNL     1     -48.373  98.645  20.753  1.00  0.00     0.293 HD
ENDBRANCH  17  20
ENDBRANCH   1  12
BRANCH   2  22
ATOM     22  O   UNL     1     -48.084  93.160  22.023  1.00  0.00    -0.502 OA
ATOM     23  H   UNL     1     -47.577  92.309  21.815  1.00  0.00     0.293 HD
ENDBRANCH   2  22
BRANCH   6  24
ATOM     24  O   UNL     1     -47.353  93.718  27.272  1.00  0.00    -0.507 OA
ATOM     25  H   UNL     1     -48.018  93.660  28.029  1.00  0.00     0.293 HD
ENDBRANCH   6  24
BRANCH   8  26
ATOM     26  O   UNL     1     -45.877  98.265  27.459  1.00  0.00    -0.508 OA
ATOM     27  H   UNL     1     -45.813  99.200  27.071  1.00  0.00     0.293 HD
ENDBRANCH   8  26
TORSDOF 6
ENDMDL
MODEL 2
REMARK VINA RESULT:    -4.441      2.036      7.024
REMARK INTER + INTRA:          -5.492
REMARK INTER:                  -5.089
REMARK INTRA:                  -0.403
REMARK UNBOUND:                -0.142
REMARK SMILES O=c1c(O)c(-c2ccc(O)cc2O)oc2cc(O)cc(O)c12
REMARK SMILES IDX 5 1 3 2 2 3 1 4 22 5 20 6 19 7 17 8 16 9 15 10 14 11 6 12
REMARK SMILES IDX 8 13 7 14 9 15 11 16 12 17 10 18 13 20 4 22 21 24 18 26
REMARK H PARENT 10 19 13 21 4 23 21 25 18 27
REMARK Flexibility Score: inf
ROOT
ATOM      1  C   UNL     1     -46.601  95.085  24.760  1.00  0.00     0.184 A 
ATOM      2  C   UNL     1     -46.997  96.426  24.640  1.00  0.00     0.208 A 
ATOM      3  C   UNL     1     -47.416  96.902  23.387  1.00  0.00     0.238 A 
ATOM      4  O   UNL     1     -47.822  98.091  23.298  1.00  0.00    -0.285 OA
ATOM      5  C   UNL     1     -47.417  96.034  22.269  1.00  0.00     0.111 A 
ATOM      6  C   UNL     1     -47.784  96.420  20.944  1.00  0.00     0.134 A 
ATOM      7  C   UNL     1     -47.872  95.446  19.941  1.00  0.00     0.093 A 
ATOM      8  C   UNL     1     -47.545  94.115  20.198  1.00  0.00     0.123 A 
ATOM      9  C   UNL     1     -47.128  93.738  21.475  1.00  0.00     0.094 A 
ATOM     10  C   UNL     1     -47.065  94.680  22.506  1.00  0.00     0.146 A 
ATOM     11  O   UNL     1     -46.674  94.277  23.710  1.00  0.00    -0.451 OA
ENDROOT
BRANCH   1  12
ATOM     12  C   UNL     1     -46.132  94.525  26.045  1.00  0.00     0.063 A 
ATOM     13  C   UNL     1     -46.623  93.253  28.058  1.00  0.00     0.047 A 
ATOM     14  C   UNL     1     -47.034  93.800  26.840  1.00  0.00     0.020 A 
ATOM     15  C   UNL     1     -45.301  93.413  28.490  1.00  0.00     0.119 A 
ATOM     16  C   UNL     1     -44.390  94.114  27.693  1.00  0.00     0.093 A 
ATOM     17  C   UNL     1     -44.793  94.661  26.467  1.00  0.00     0.130 A 
BRANCH  15  18
ATOM     18  O   UNL     1     -44.881  92.875  29.704  1.00  0.00    -0.508 OA
ATOM     19  H   UNL     1     -45.217  91.976  30.030  1.00  0.00     0.293 HD
ENDBRANCH  15  18
BRANCH  17  20
ATOM     20  O   UNL     1     -43.863  95.316  25.660  1.00  0.00    -0.507 OA
ATOM     21  H   UNL     1     -43.004  95.696  26.040  1.00  0.00     0.293 HD
ENDBRANCH  17  20
ENDBRANCH   1  12
BRANCH   2  22
ATOM     22  O   UNL     1     -47.004  97.256  25.764  1.00  0.00    -0.502 OA
ATOM     23  H   UNL     1     -46.171  97.725  26.098  1.00  0.00     0.293 HD
ENDBRANCH   2  22
BRANCH   6  24
ATOM     24  O   UNL     1     -48.042  97.738  20.559  1.00  0.00    -0.507 OA
ATOM     25  H   UNL     1     -48.821  98.290  20.884  1.00  0.00     0.293 HD
ENDBRANCH   6  24
BRANCH   8  26
ATOM     26  O   UNL     1     -47.629  93.177  19.172  1.00  0.00    -0.508 OA
ATOM     27  H   UNL     1     -47.780  92.193  19.365  1.00  0.00     0.293 HD
ENDBRANCH   8  26
TORSDOF 6
ENDMDL
MODEL 3
REMARK VINA RESULT:    -4.423      1.327      3.151
REMARK INTER + INTRA:          -5.470
REMARK INTER:                  -5.189
REMARK INTRA:                  -0.282
REMARK UNBOUND:                -0.142
REMARK SMILES O=c1c(O)c(-c2ccc(O)cc2O)oc2cc(O)cc(O)c12
REMARK SMILES IDX 5 1 3 2 2 3 1 4 22 5 20 6 19 7 17 8 16 9 15 10 14 11 6 12
REMARK SMILES IDX 8 13 7 14 9 15 11 16 12 17 10 18 13 20 4 22 21 24 18 26
REMARK H PARENT 10 19 13 21 4 23 21 25 18 27
REMARK Flexibility Score: inf
ROOT
ATOM      1  C   UNL     1     -47.057  95.779  22.507  1.00  0.00     0.184 A 
ATOM      2  C   UNL     1     -46.403  96.960  22.890  1.00  0.00     0.208 A 
ATOM      3  C   UNL     1     -46.252  97.242  24.257  1.00  0.00     0.238 A 
ATOM      4  O   UNL     1     -45.616  98.275  24.595  1.00  0.00    -0.285 OA
ATOM      5  C   UNL     1     -46.771  96.345  25.222  1.00  0.00     0.111 A 
ATOM      6  C   UNL     1     -46.711  96.549  26.634  1.00  0.00     0.134 A 
ATOM      7  C   UNL     1     -47.143  95.534  27.497  1.00  0.00     0.093 A 
ATOM      8  C   UNL     1     -47.692  94.352  27.002  1.00  0.00     0.123 A 
ATOM      9  C   UNL     1     -47.810  94.167  25.624  1.00  0.00     0.094 A 
ATOM     10  C   UNL     1     -47.355  95.145  24.737  1.00  0.00     0.146 A 
ATOM     11  O   UNL     1     -47.476  94.925  23.432  1.00  0.00    -0.451 OA
ENDROOT
BRANCH   1  12
ATOM     12  C   UNL     1     -47.265  95.432  21.086  1.00  0.00     0.063 A 
ATOM     13  C   UNL     1     -48.125  96.056  18.899  1.00  0.00     0.047 A 
ATOM     14  C   UNL     1     -47.917  96.351  20.249  1.00  0.00     0.020 A 
ATOM     15  C   UNL     1     -47.672  94.843  18.367  1.00  0.00     0.119 A 
ATOM     16  C   UNL     1     -47.002  93.932  19.188  1.00  0.00     0.093 A 
ATOM     17  C   UNL     1     -46.783  94.223  20.542  1.00  0.00     0.130 A 
BRANCH  15  18
ATOM     18  O   UNL     1     -47.879  94.537  17.023  1.00  0.00    -0.508 OA
ATOM     19  H   UNL     1     -47.401  93.762  16.577  1.00  0.00     0.293 HD
ENDBRANCH  15  18
BRANCH  17  20
ATOM     20  O   UNL     1     -46.071  93.325  21.338  1.00  0.00    -0.507 OA
ATOM     21  H   UNL     1     -45.454  92.630  20.935  1.00  0.00     0.293 HD
ENDBRANCH  17  20
ENDBRANCH   1  12
BRANCH   2  22
ATOM     22  O   UNL     1     -45.883  97.818  21.917  1.00  0.00    -0.502 OA
ATOM     23  H   UNL     1     -45.765  97.537  20.952  1.00  0.00     0.293 HD
ENDBRANCH   2  22
BRANCH   6  24
ATOM     24  O   UNL     1     -46.266  97.730  27.232  1.00  0.00    -0.507 OA
ATOM     25  H   UNL     1     -46.474  98.009  28.179  1.00  0.00     0.293 HD
ENDBRANCH   6  24
BRANCH   8  26
ATOM     26  O   UNL     1     -48.125  93.371  27.891  1.00  0.00    -0.508 OA
ATOM     27  H   UNL     1     -47.596  93.142  28.725  1.00  0.00     0.293 HD
ENDBRANCH   8  26
TORSDOF 6
ENDMDL
MODEL 4
REMARK VINA RESULT:    -4.126      0.885      1.515
REMARK INTER + INTRA:          -5.113
REMARK INTER:                  -4.897
REMARK INTRA:                  -0.216
REMARK UNBOUND:                -0.142
REMARK SMILES O=c1c(O)c(-c2ccc(O)cc2O)oc2cc(O)cc(O)c12
REMARK SMILES IDX 5 1 3 2 2 3 1 4 22 5 20 6 19 7 17 8 16 9 15 10 14 11 6 12
REMARK SMILES IDX 8 13 7 14 9 15 11 16 12 17 10 18 13 20 4 22 21 24 18 26
REMARK H PARENT 10 19 13 21 4 23 21 25 18 27
REMARK Flexibility Score: inf
ROOT
ATOM      1  C   UNL     1     -47.140  95.511  21.935  1.00  0.00     0.184 A 
ATOM      2  C   UNL     1     -47.621  94.273  22.387  1.00  0.00     0.208 A 
ATOM      3  C   UNL     1     -47.620  94.004  23.765  1.00  0.00     0.238 A 
ATOM      4  O   UNL     1     -48.104  92.913  24.167  1.00  0.00    -0.285 OA
ATOM      5  C   UNL     1     -47.122  94.971  24.670  1.00  0.00     0.111 A 
ATOM      6  C   UNL     1     -47.036  94.789  26.084  1.00  0.00     0.134 A 
ATOM      7  C   UNL     1     -46.647  95.863  26.895  1.00  0.00     0.093 A 
ATOM      8  C   UNL     1     -46.280  97.089  26.341  1.00  0.00     0.123 A 
ATOM      9  C   UNL     1     -46.303  97.258  24.957  1.00  0.00     0.094 A 
ATOM     10  C   UNL     1     -46.721  96.218  24.123  1.00  0.00     0.146 A 
ATOM     11  O   UNL     1     -46.740  96.424  22.811  1.00  0.00    -0.451 OA
ENDROOT
BRANCH   1  12
ATOM     12  C   UNL     1     -47.097  95.852  20.498  1.00  0.00     0.063 A 
ATOM     13  C   UNL     1     -47.775  97.333  18.693  1.00  0.00     0.047 A 
ATOM     14  C   UNL     1     -47.798  96.980  20.044  1.00  0.00     0.020 A 
ATOM     15  C   UNL     1     -47.039  96.569  17.780  1.00  0.00     0.119 A 
ATOM     16  C   UNL     1     -46.319  95.457  18.226  1.00  0.00     0.093 A 
ATOM     17  C   UNL     1     -46.332  95.100  19.582  1.00  0.00     0.130 A 
BRANCH  15  18
ATOM     18  O   UNL     1     -47.012  96.909  16.429  1.00  0.00    -0.508 OA
ATOM     19  H   UNL     1     -47.858  97.149  15.926  1.00  0.00     0.293 HD
ENDBRANCH  15  18
BRANCH  17  20
ATOM     20  O   UNL     1     -45.571  94.016  20.021  1.00  0.00    -0.507 OA
ATOM     21  H   UNL     1     -45.861  93.445  20.806  1.00  0.00     0.293 HD
ENDBRANCH  17  20
ENDBRANCH   1  12
BRANCH   2  22
ATOM     22  O   UNL     1     -48.125  93.343  21.472  1.00  0.00    -0.502 OA
ATOM     23  H   UNL     1     -48.443  92.424  21.753  1.00  0.00     0.293 HD
ENDBRANCH   2  22
BRANCH   6  24
ATOM     24  O   UNL     1     -47.292  93.578  26.731  1.00  0.00    -0.507 OA
ATOM     25  H   UNL     1     -47.346  93.461  27.732  1.00  0.00     0.293 HD
ENDBRANCH   6  24
BRANCH   8  26
ATOM     26  O   UNL     1     -45.883  98.129  27.179  1.00  0.00    -0.508 OA
ATOM     27  H   UNL     1     -45.837  99.086  26.848  1.00  0.00     0.293 HD
ENDBRANCH   8  26
TORSDOF 6
ENDMDL
MODEL 5
REMARK VINA RESULT:    -4.101      2.223      3.275
REMARK INTER + INTRA:          -5.083
REMARK INTER:                  -4.783
REMARK INTRA:                  -0.300
REMARK UNBOUND:                -0.142
REMARK SMILES O=c1c(O)c(-c2ccc(O)cc2O)oc2cc(O)cc(O)c12
REMARK SMILES IDX 5 1 3 2 2 3 1 4 22 5 20 6 19 7 17 8 16 9 15 10 14 11 6 12
REMARK SMILES IDX 8 13 7 14 9 15 11 16 12 17 10 18 13 20 4 22 21 24 18 26
REMARK H PARENT 10 19 13 21 4 23 21 25 18 27
REMARK Flexibility Score: inf
ROOT
ATOM      1  C   UNL     1     -46.358  94.875  25.197  1.00  0.00     0.184 A 
ATOM      2  C   UNL     1     -46.920  93.897  26.030  1.00  0.00     0.208 A 
ATOM      3  C   UNL     1     -46.429  93.751  27.337  1.00  0.00     0.238 A 
ATOM      4  O   UNL     1     -46.974  92.909  28.098  1.00  0.00    -0.285 OA
ATOM      5  C   UNL     1     -45.370  94.576  27.787  1.00  0.00     0.111 A 
ATOM      6  C   UNL     1     -44.766  94.489  29.077  1.00  0.00     0.134 A 
ATOM      7  C   UNL     1     -43.814  95.443  29.460  1.00  0.00     0.093 A 
ATOM      8  C   UNL     1     -43.396  96.438  28.577  1.00  0.00     0.123 A 
ATOM      9  C   UNL     1     -43.936  96.496  27.292  1.00  0.00     0.094 A 
ATOM     10  C   UNL     1     -44.915  95.582  26.894  1.00  0.00     0.146 A 
ATOM     11  O   UNL     1     -45.412  95.678  25.665  1.00  0.00    -0.451 OA
ENDROOT
BRANCH   1  12
ATOM     12  C   UNL     1     -46.817  95.069  23.806  1.00  0.00     0.063 A 
ATOM     13  C   UNL     1     -47.210  94.128  21.598  1.00  0.00     0.047 A 
ATOM     14  C   UNL     1     -46.779  93.981  22.919  1.00  0.00     0.020 A 
ATOM     15  C   UNL     1     -47.697  95.362  21.151  1.00  0.00     0.119 A 
ATOM     16  C   UNL     1     -47.759  96.444  22.033  1.00  0.00     0.093 A 
ATOM     17  C   UNL     1     -47.335  96.304  23.362  1.00  0.00     0.130 A 
BRANCH  15  18
ATOM     18  O   UNL     1     -48.125  95.521  19.835  1.00  0.00    -0.508 OA
ATOM     19  H   UNL     1     -49.028  95.926  19.617  1.00  0.00     0.293 HD
ENDBRANCH  15  18
BRANCH  17  20
ATOM     20  O   UNL     1     -47.448  97.378  24.244  1.00  0.00    -0.507 OA
ATOM     21  H   UNL     1     -46.693  97.636  24.868  1.00  0.00     0.293 HD
ENDBRANCH  17  20
ENDBRANCH   1  12
BRANCH   2  22
ATOM     22  O   UNL     1     -47.978  93.107  25.567  1.00  0.00    -0.502 OA
ATOM     23  H   UNL     1     -47.857  92.408  24.845  1.00  0.00     0.293 HD
ENDBRANCH   2  22
BRANCH   6  24
ATOM     24  O   UNL     1     -45.045  93.480  30.002  1.00  0.00    -0.507 OA
ATOM     25  H   UNL     1     -45.023  93.595  31.004  1.00  0.00     0.293 HD
ENDBRANCH   6  24
BRANCH   8  26
ATOM     26  O   UNL     1     -42.435  97.360  28.987  1.00  0.00    -0.508 OA
ATOM     27  H   UNL     1     -42.285  98.227  28.483  1.00  0.00     0.293 HD
ENDBRANCH   8  26
TORSDOF 6
ENDMDL
MODEL 6
REMARK VINA RESULT:    -3.629      1.303      6.401
REMARK INTER + INTRA:          -4.513
REMARK INTER:                  -4.581
REMARK INTRA:                   0.068
REMARK UNBOUND:                -0.142
REMARK SMILES O=c1c(O)c(-c2ccc(O)cc2O)oc2cc(O)cc(O)c12
REMARK SMILES IDX 5 1 3 2 2 3 1 4 22 5 20 6 19 7 17 8 16 9 15 10 14 11 6 12
REMARK SMILES IDX 8 13 7 14 9 15 11 16 12 17 10 18 13 20 4 22 21 24 18 26
REMARK H PARENT 10 19 13 21 4 23 21 25 18 27
REMARK Flexibility Score: inf
ROOT
ATOM      1  C   UNL     1     -47.015  95.989  23.077  1.00  0.00     0.184 A 
ATOM      2  C   UNL     1     -47.268  94.619  22.914  1.00  0.00     0.208 A 
ATOM      3  C   UNL     1     -47.476  94.114  21.620  1.00  0.00     0.238 A 
ATOM      4  O   UNL     1     -47.648  92.875  21.476  1.00  0.00    -0.285 OA
ATOM      5  C   UNL     1     -47.443  94.990  20.509  1.00  0.00     0.111 A 
ATOM      6  C   UNL     1     -47.679  94.595  19.158  1.00  0.00     0.134 A 
ATOM      7  C   UNL     1     -47.493  95.522  18.124  1.00  0.00     0.093 A 
ATOM      8  C   UNL     1     -47.143  96.844  18.397  1.00  0.00     0.123 A 
ATOM      9  C   UNL     1     -46.969  97.257  19.719  1.00  0.00     0.094 A 
ATOM     10  C   UNL     1     -47.111  96.346  20.769  1.00  0.00     0.146 A 
ATOM     11  O   UNL     1     -46.925  96.776  22.012  1.00  0.00    -0.451 OA
ENDROOT
BRANCH   1  12
ATOM     12  C   UNL     1     -46.805  96.588  24.411  1.00  0.00     0.063 A 
ATOM     13  C   UNL     1     -47.331  96.608  26.785  1.00  0.00     0.047 A 
ATOM     14  C   UNL     1     -47.509  96.069  25.509  1.00  0.00     0.020 A 
ATOM     15  C   UNL     1     -46.436  97.667  26.982  1.00  0.00     0.119 A 
ATOM     16  C   UNL     1     -45.715  98.176  25.898  1.00  0.00     0.093 A 
ATOM     17  C   UNL     1     -45.883  97.636  24.615  1.00  0.00     0.130 A 
BRANCH  15  18
ATOM     18  O   UNL     1     -46.254  98.215  28.249  1.00  0.00    -0.508 OA
ATOM     19  H   UNL     1     -45.364  98.154  28.730  1.00  0.00     0.293 HD
ENDBRANCH  15  18
BRANCH  17  20
ATOM     20  O   UNL     1     -45.120  98.121  23.553  1.00  0.00    -0.507 OA
ATOM     21  H   UNL     1     -44.435  98.856  23.682  1.00  0.00     0.293 HD
ENDBRANCH  17  20
ENDBRANCH   1  12
BRANCH   2  22
ATOM     22  O   UNL     1     -47.277  93.773  24.027  1.00  0.00    -0.502 OA
ATOM     23  H   UNL     1     -46.470  93.658  24.628  1.00  0.00     0.293 HD
ENDBRANCH   2  22
BRANCH   6  24
ATOM     24  O   UNL     1     -48.120  93.323  18.783  1.00  0.00    -0.507 OA
ATOM     25  H   UNL     1     -48.283  92.560  19.422  1.00  0.00     0.293 HD
ENDBRANCH   6  24
BRANCH   8  26
ATOM     26  O   UNL     1     -46.983  97.743  17.345  1.00  0.00    -0.508 OA
ATOM     27  H   UNL     1     -46.865  97.423  16.390  1.00  0.00     0.293 HD
ENDBRANCH   8  26
TORSDOF 6
ENDMDL
MODEL 7
REMARK VINA RESULT:    -2.143      1.759      3.392
REMARK INTER + INTRA:          -2.724
REMARK INTER:                  -2.715
REMARK INTRA:                  -0.008
REMARK UNBOUND:                -0.142
REMARK SMILES O=c1c(O)c(-c2ccc(O)cc2O)oc2cc(O)cc(O)c12
REMARK SMILES IDX 5 1 3 2 2 3 1 4 22 5 20 6 19 7 17 8 16 9 15 10 14 11 6 12
REMARK SMILES IDX 8 13 7 14 9 15 11 16 12 17 10 18 13 20 4 22 21 24 18 26
REMARK H PARENT 10 19 13 21 4 23 21 25 18 27
REMARK Flexibility Score: inf
ROOT
ATOM      1  C   UNL     1     -46.610  95.416  23.491  1.00  0.00     0.184 A 
ATOM      2  C   UNL     1     -46.746  96.735  23.951  1.00  0.00     0.208 A 
ATOM      3  C   UNL     1     -46.361  97.041  25.266  1.00  0.00     0.238 A 
ATOM      4  O   UNL     1     -46.434  98.236  25.654  1.00  0.00    -0.285 OA
ATOM      5  C   UNL     1     -45.859  96.019  26.108  1.00  0.00     0.111 A 
ATOM      6  C   UNL     1     -45.476  96.207  27.470  1.00  0.00     0.134 A 
ATOM      7  C   UNL     1     -44.871  95.154  28.169  1.00  0.00     0.093 A 
ATOM      8  C   UNL     1     -44.696  93.904  27.577  1.00  0.00     0.123 A 
ATOM      9  C   UNL     1     -45.121  93.692  26.265  1.00  0.00     0.094 A 
ATOM     10  C   UNL     1     -45.694  94.733  25.530  1.00  0.00     0.146 A 
ATOM     11  O   UNL     1     -46.076  94.493  24.281  1.00  0.00    -0.451 OA
ENDROOT
BRANCH   1  12
ATOM     12  C   UNL     1     -47.013  95.024  22.125  1.00  0.00     0.063 A 
ATOM     13  C   UNL     1     -47.086  95.543  19.751  1.00  0.00     0.047 A 
ATOM     14  C   UNL     1     -46.724  95.886  21.056  1.00  0.00     0.020 A 
ATOM     15  C   UNL     1     -47.731  94.327  19.497  1.00  0.00     0.119 A 
ATOM     16  C   UNL     1     -48.002  93.452  20.553  1.00  0.00     0.093 A 
ATOM     17  C   UNL     1     -47.636  93.786  21.865  1.00  0.00     0.130 A 
BRANCH  15  18
ATOM     18  O   UNL     1     -48.101  93.977  18.201  1.00  0.00    -0.508 OA
ATOM     19  H   UNL     1     -47.518  93.378  17.627  1.00  0.00     0.293 HD
ENDBRANCH  15  18
BRANCH  17  20
ATOM     20  O   UNL     1     -47.870  92.882  22.901  1.00  0.00    -0.507 OA
ATOM     21  H   UNL     1     -48.218  93.185  23.803  1.00  0.00     0.293 HD
ENDBRANCH  17  20
ENDBRANCH   1  12
BRANCH   2  22
ATOM     22  O   UNL     1     -47.227  97.728  23.093  1.00  0.00    -0.502 OA
ATOM     23  H   UNL     1     -48.213  97.937  23.003  1.00  0.00     0.293 HD
ENDBRANCH   2  22
BRANCH   6  24
ATOM     24  O   UNL     1     -45.690  97.388  28.185  1.00  0.00    -0.507 OA
ATOM     25  H   UNL     1     -44.967  98.041  28.447  1.00  0.00     0.293 HD
ENDBRANCH   6  24
BRANCH   8  26
ATOM     26  O   UNL     1     -44.105  92.875  28.308  1.00  0.00    -0.508 OA
ATOM     27  H   UNL     1     -44.659  92.242  28.873  1.00  0.00     0.293 HD
ENDBRANCH   8  26
TORSDOF 6
ENDMDL
MODEL 8
REMARK VINA RESULT:    -1.767      1.772      6.465
REMARK INTER + INTRA:          -2.271
REMARK INTER:                  -1.892
REMARK INTRA:                  -0.379
REMARK UNBOUND:                -0.142
REMARK SMILES O=c1c(O)c(-c2ccc(O)cc2O)oc2cc(O)cc(O)c12
REMARK SMILES IDX 5 1 3 2 2 3 1 4 22 5 20 6 19 7 17 8 16 9 15 10 14 11 6 12
REMARK SMILES IDX 8 13 7 14 9 15 11 16 12 17 10 18 13 20 4 22 21 24 18 26
REMARK H PARENT 10 19 13 21 4 23 21 25 18 27
REMARK Flexibility Score: inf
ROOT
ATOM      1  C   UNL     1     -45.970  95.862  24.803  1.00  0.00     0.184 A 
ATOM      2  C   UNL     1     -46.083  94.494  24.511  1.00  0.00     0.208 A 
ATOM      3  C   UNL     1     -46.651  94.103  23.288  1.00  0.00     0.238 A 
ATOM      4  O   UNL     1     -46.698  92.876  23.009  1.00  0.00    -0.285 OA
ATOM      5  C   UNL     1     -47.114  95.086  22.381  1.00  0.00     0.111 A 
ATOM      6  C   UNL     1     -47.743  94.804  21.131  1.00  0.00     0.134 A 
ATOM      7  C   UNL     1     -48.043  95.856  20.256  1.00  0.00     0.093 A 
ATOM      8  C   UNL     1     -47.798  97.181  20.612  1.00  0.00     0.123 A 
ATOM      9  C   UNL     1     -47.238  97.473  21.856  1.00  0.00     0.094 A 
ATOM     10  C   UNL     1     -46.894  96.443  22.736  1.00  0.00     0.146 A 
ATOM     11  O   UNL     1     -46.353  96.762  23.906  1.00  0.00    -0.451 OA
ENDROOT
BRANCH   1  12
ATOM     12  C   UNL     1     -45.399  96.340  26.078  1.00  0.00     0.063 A 
ATOM     13  C   UNL     1     -43.460  96.576  27.527  1.00  0.00     0.047 A 
ATOM     14  C   UNL     1     -44.034  96.132  26.333  1.00  0.00     0.020 A 
ATOM     15  C   UNL     1     -44.241  97.246  28.475  1.00  0.00     0.119 A 
ATOM     16  C   UNL     1     -45.596  97.479  28.220  1.00  0.00     0.093 A 
ATOM     17  C   UNL     1     -46.178  97.041  27.022  1.00  0.00     0.130 A 
BRANCH  15  18
ATOM     18  O   UNL     1     -43.680  97.690  29.671  1.00  0.00    -0.508 OA
ATOM     19  H   UNL     1     -43.241  97.048  30.320  1.00  0.00     0.293 HD
ENDBRANCH  15  18
BRANCH  17  20
ATOM     20  O   UNL     1     -47.519  97.323  26.759  1.00  0.00    -0.507 OA
ATOM     21  H   UNL     1     -47.867  97.418  25.812  1.00  0.00     0.293 HD
ENDBRANCH  17  20
ENDBRANCH   1  12
BRANCH   2  22
ATOM     22  O   UNL     1     -45.600  93.544  25.416  1.00  0.00    -0.502 OA
ATOM     23  H   UNL     1     -45.208  92.660  25.118  1.00  0.00     0.293 HD
ENDBRANCH   2  22
BRANCH   6  24
ATOM     24  O   UNL     1     -48.115  93.522  20.717  1.00  0.00    -0.507 OA
ATOM     25  H   UNL     1     -48.760  92.924  21.210  1.00  0.00     0.293 HD
ENDBRANCH   6  24
BRANCH   8  26
ATOM     26  O   UNL     1     -48.125  98.202  19.722  1.00  0.00    -0.508 OA
ATOM     27  H   UNL     1     -47.627  99.085  19.724  1.00  0.00     0.293 HD
ENDBRANCH   8  26
TORSDOF 6
ENDMDL
