MODEL 1
REMARK VINA RESULT:    -4.488      0.000      0.000
REMARK INTER + INTRA:         -12.586
REMARK INTER:                 -10.259
REMARK INTRA:                  -2.327
REMARK UNBOUND:                -2.327
REMARK SMILES CCCCCCCCCCCCCCCCCCCCCCCC(=O)[O-]
REMARK SMILES IDX 13 1 14 2 15 3 16 4 17 5 18 6 19 7 20 8 21 9 22 10 23 11
REMARK SMILES IDX 24 12 25 13 26 14 12 15 11 16 10 17 9 18 8 19 7 20 6 21 5 22
REMARK SMILES IDX 4 23 3 24 2 25 1 26
REMARK H PARENT
REMARK Flexibility Score: inf
ROOT
ATOM      1  C   UNL     1     -12.035 -22.690  35.769  1.00  0.00     0.000 C 
ENDROOT
BRANCH   1   2
ATOM      2  C   UNL     1     -10.731 -21.902  35.544  1.00  0.00     0.000 C 
BRANCH   2   3
ATOM      3  C   UNL     1      -9.641 -22.707  34.805  1.00  0.00     0.000 C 
BRANCH   3   4
ATOM      4  C   UNL     1      -8.939 -21.880  33.718  1.00  0.00     0.000 C 
BRANCH   4   5
ATOM      5  C   UNL     1      -7.682 -21.202  34.273  1.00  0.00     0.000 C 
BRANCH   5   6
ATOM      6  C   UNL     1      -7.713 -19.688  34.028  1.00  0.00     0.000 C 
BRANCH   6   7
ATOM      7  C   UNL     1      -7.112 -19.290  32.667  1.00  0.00     0.000 C 
BRANCH   7   8
ATOM      8  C   UNL     1      -5.568 -19.249  32.654  1.00  0.00     0.000 C 
BRANCH   8   9
ATOM      9  C   UNL     1      -5.014 -17.875  33.074  1.00  0.00     0.000 C 
BRANCH   9  10
ATOM     10  C   UNL     1      -4.254 -17.928  34.409  1.00  0.00     0.006 C 
BRANCH  10  11
ATOM     11  C   UNL     1      -4.562 -19.198  35.219  1.00  0.00     0.053 C 
BRANCH  11  12
ATOM     12  C   UNL     1      -3.442 -20.191  35.129  1.00  0.00     0.041 C 
ATOM     13  O   UNL     1      -2.286 -19.824  34.782  1.00  0.00    -0.550 OA
ATOM     14  O   UNL     1      -3.692 -21.538  35.365  1.00  0.00    -0.550 OA
ENDBRANCH  11  12
ENDBRANCH  10  11
ENDBRANCH   9  10
ENDBRANCH   8   9
ENDBRANCH   7   8
ENDBRANCH   6   7
ENDBRANCH   5   6
ENDBRANCH   4   5
ENDBRANCH   3   4
ENDBRANCH   2   3
ENDBRANCH   1   2
BRANCH   1  15
ATOM     15  C   UNL     1     -13.305 -21.826  35.843  1.00  0.00     0.000 C 
BRANCH  15  16
ATOM     16  C   UNL     1     -13.014 -20.328  35.637  1.00  0.00     0.000 C 
BRANCH  16  17
ATOM     17  C   UNL     1     -14.125 -19.615  34.848  1.00  0.00     0.000 C 
BRANCH  17  18
ATOM     18  C   UNL     1     -13.563 -18.711  33.738  1.00  0.00    -0.000 C 
BRANCH  18  19
ATOM     19  C   UNL     1     -12.200 -18.095  34.099  1.00  0.00    -0.000 C 
BRANCH  19  20
ATOM     20  C   UNL     1     -11.052 -18.428  33.124  1.00  0.00    -0.000 C 
BRANCH  20  21
ATOM     21  C   UNL     1     -11.090 -19.847  32.523  1.00  0.00    -0.000 C 
BRANCH  21  22
ATOM     22  C   UNL     1     -11.211 -19.904  30.990  1.00  0.00    -0.000 C 
BRANCH  22  23
ATOM     23  C   UNL     1     -10.597 -18.680  30.297  1.00  0.00    -0.000 C 
BRANCH  23  24
ATOM     24  C   UNL     1      -9.080 -18.852  30.124  1.00  0.00    -0.000 C 
BRANCH  24  25
ATOM     25  C   UNL     1      -8.651 -18.862  28.650  1.00  0.00    -0.003 C 
ATOM     26  C   UNL     1      -9.823 -19.081  27.692  1.00  0.00     0.004 C 
ENDBRANCH  24  25
ENDBRANCH  23  24
ENDBRANCH  22  23
ENDBRANCH  21  22
ENDBRANCH  20  21
ENDBRANCH  19  20
ENDBRANCH  18  19
ENDBRANCH  17  18
ENDBRANCH  16  17
ENDBRANCH  15  16
ENDBRANCH   1  15
TORSDOF 22
ENDMDL
MODEL 2
REMARK VINA RESULT:    -4.374      2.797      6.333
REMARK INTER + INTRA:         -12.327
REMARK INTER:                  -9.700
REMARK INTRA:                  -2.627
REMARK UNBOUND:                -2.327
REMARK SMILES CCCCCCCCCCCCCCCCCCCCCCCC(=O)[O-]
REMARK SMILES IDX 13 1 14 2 15 3 16 4 17 5 18 6 19 7 20 8 21 9 22 10 23 11
REMARK SMILES IDX 24 12 25 13 26 14 12 15 11 16 10 17 9 18 8 19 7 20 6 21 5 22
REMARK SMILES IDX 4 23 3 24 2 25 1 26
REMARK H PARENT
REMARK Flexibility Score: inf
ROOT
ATOM      1  C   UNL     1     -12.559 -21.892  34.974  1.00  0.00     0.000 C 
ENDROOT
BRANCH   1   2
ATOM      2  C   UNL     1     -13.186 -21.019  36.077  1.00  0.00     0.000 C 
BRANCH   2   3
ATOM      3  C   UNL     1     -14.124 -19.919  35.536  1.00  0.00     0.000 C 
BRANCH   3   4
ATOM      4  C   UNL     1     -13.502 -18.518  35.639  1.00  0.00     0.000 C 
BRANCH   4   5
ATOM      5  C   UNL     1     -11.975 -18.603  35.732  1.00  0.00     0.000 C 
BRANCH   5   6
ATOM      6  C   UNL     1     -11.307 -17.994  34.493  1.00  0.00     0.000 C 
BRANCH   6   7
ATOM      7  C   UNL     1     -12.168 -18.125  33.224  1.00  0.00     0.000 C 
BRANCH   7   8
ATOM      8  C   UNL     1     -11.728 -19.269  32.285  1.00  0.00     0.000 C 
BRANCH   8   9
ATOM      9  C   UNL     1     -10.198 -19.363  32.150  1.00  0.00     0.000 C 
BRANCH   9  10
ATOM     10  C   UNL     1      -9.759 -20.429  31.132  1.00  0.00     0.006 C 
BRANCH  10  11
ATOM     11  C   UNL     1     -10.415 -20.242  29.754  1.00  0.00     0.053 C 
BRANCH  11  12
ATOM     12  C   UNL     1      -9.572 -19.385  28.858  1.00  0.00     0.041 C 
ATOM     13  O   UNL     1      -8.664 -18.654  29.338  1.00  0.00    -0.550 OA
ATOM     14  O   UNL     1      -9.836 -19.344  27.494  1.00  0.00    -0.550 OA
ENDBRANCH  11  12
ENDBRANCH  10  11
ENDBRANCH   9  10
ENDBRANCH   8   9
ENDBRANCH   7   8
ENDBRANCH   6   7
ENDBRANCH   5   6
ENDBRANCH   4   5
ENDBRANCH   3   4
ENDBRANCH   2   3
ENDBRANCH   1   2
BRANCH   1  15
ATOM     15  C   UNL     1     -11.862 -23.167  35.481  1.00  0.00     0.000 C 
BRANCH  15  16
ATOM     16  C   UNL     1     -10.330 -23.025  35.525  1.00  0.00     0.000 C 
BRANCH  16  17
ATOM     17  C   UNL     1      -9.823 -21.852  34.671  1.00  0.00     0.000 C 
BRANCH  17  18
ATOM     18  C   UNL     1      -8.498 -22.177  33.960  1.00  0.00    -0.000 C 
BRANCH  18  19
ATOM     19  C   UNL     1      -7.354 -21.229  34.362  1.00  0.00    -0.000 C 
BRANCH  19  20
ATOM     20  C   UNL     1      -6.154 -21.907  35.055  1.00  0.00    -0.000 C 
BRANCH  20  21
ATOM     21  C   UNL     1      -5.227 -20.959  35.841  1.00  0.00    -0.000 C 
BRANCH  21  22
ATOM     22  C   UNL     1      -3.753 -20.971  35.399  1.00  0.00    -0.000 C 
BRANCH  22  23
ATOM     23  C   UNL     1      -3.333 -19.679  34.685  1.00  0.00    -0.000 C 
BRANCH  23  24
ATOM     24  C   UNL     1      -4.503 -18.685  34.619  1.00  0.00    -0.000 C 
BRANCH  24  25
ATOM     25  C   UNL     1      -4.756 -18.166  33.196  1.00  0.00    -0.003 C 
ATOM     26  C   UNL     1      -5.820 -18.974  32.450  1.00  0.00     0.004 C 
ENDBRANCH  24  25
ENDBRANCH  23  24
ENDBRANCH  22  23
ENDBRANCH  21  22
ENDBRANCH  20  21
ENDBRANCH  19  20
ENDBRANCH  18  19
ENDBRANCH  17  18
ENDBRANCH  16  17
ENDBRANCH  15  16
ENDBRANCH   1  15
TORSDOF 22
ENDMDL
MODEL 3
REMARK VINA RESULT:    -4.322     21.132     23.472
REMARK INTER + INTRA:         -12.206
REMARK INTER:                  -9.859
REMARK INTRA:                  -2.348
REMARK UNBOUND:                -2.327
REMARK SMILES CCCCCCCCCCCCCCCCCCCCCCCC(=O)[O-]
REMARK SMILES IDX 13 1 14 2 15 3 16 4 17 5 18 6 19 7 20 8 21 9 22 10 23 11
REMARK SMILES IDX 24 12 25 13 26 14 12 15 11 16 10 17 9 18 8 19 7 20 6 21 5 22
REMARK SMILES IDX 4 23 3 24 2 25 1 26
REMARK H PARENT
REMARK Flexibility Score: inf
ROOT
ATOM      1  C   UNL     1       1.881 -32.602  23.968  1.00  0.00     0.000 C 
ENDROOT
BRANCH   1   2
ATOM      2  C   UNL     1       0.580 -32.652  24.790  1.00  0.00     0.000 C 
BRANCH   2   3
ATOM      3  C   UNL     1      -0.582 -31.855  24.160  1.00  0.00     0.000 C 
BRANCH   3   4
ATOM      4  C   UNL     1      -1.939 -32.546  24.357  1.00  0.00     0.000 C 
BRANCH   4   5
ATOM      5  C   UNL     1      -2.432 -33.168  23.046  1.00  0.00     0.000 C 
BRANCH   5   6
ATOM      6  C   UNL     1      -2.124 -34.670  22.992  1.00  0.00     0.000 C 
BRANCH   6   7
ATOM      7  C   UNL     1      -1.833 -35.170  21.566  1.00  0.00     0.000 C 
BRANCH   7   8
ATOM      8  C   UNL     1      -1.416 -36.654  21.497  1.00  0.00     0.000 C 
BRANCH   8   9
ATOM      9  C   UNL     1      -2.612 -37.590  21.245  1.00  0.00     0.000 C 
BRANCH   9  10
ATOM     10  C   UNL     1      -3.680 -36.953  20.341  1.00  0.00     0.006 C 
BRANCH  10  11
ATOM     11  C   UNL     1      -4.318 -37.962  19.371  1.00  0.00     0.053 C 
BRANCH  11  12
ATOM     12  C   UNL     1      -4.619 -37.332  18.045  1.00  0.00     0.041 C 
ATOM     13  O   UNL     1      -4.637 -38.026  16.993  1.00  0.00    -0.550 OA
ATOM     14  O   UNL     1      -4.816 -35.958  17.963  1.00  0.00    -0.550 OA
ENDBRANCH  11  12
ENDBRANCH  10  11
ENDBRANCH   9  10
ENDBRANCH   8   9
ENDBRANCH   7   8
ENDBRANCH   6   7
ENDBRANCH   5   6
ENDBRANCH   4   5
ENDBRANCH   3   4
ENDBRANCH   2   3
ENDBRANCH   1   2
BRANCH   1  15
ATOM     15  C   UNL     1       2.474 -33.977  23.615  1.00  0.00     0.000 C 
BRANCH  15  16
ATOM     16  C   UNL     1       1.608 -34.753  22.606  1.00  0.00     0.000 C 
BRANCH  16  17
ATOM     17  C   UNL     1       2.453 -35.545  21.594  1.00  0.00     0.000 C 
BRANCH  17  18
ATOM     18  C   UNL     1       2.048 -37.028  21.531  1.00  0.00    -0.000 C 
BRANCH  18  19
ATOM     19  C   UNL     1       1.972 -37.568  20.091  1.00  0.00    -0.000 C 
BRANCH  19  20
ATOM     20  C   UNL     1       1.945 -36.490  18.989  1.00  0.00    -0.000 C 
BRANCH  20  21
ATOM     21  C   UNL     1       3.080 -36.584  17.950  1.00  0.00    -0.000 C 
BRANCH  21  22
ATOM     22  C   UNL     1       4.501 -36.637  18.537  1.00  0.00    -0.000 C 
BRANCH  22  23
ATOM     23  C   UNL     1       4.828 -37.989  19.187  1.00  0.00    -0.000 C 
BRANCH  23  24
ATOM     24  C   UNL     1       6.042 -37.868  20.120  1.00  0.00    -0.000 C 
BRANCH  24  25
ATOM     25  C   UNL     1       5.643 -37.785  21.601  1.00  0.00    -0.003 C 
ATOM     26  C   UNL     1       5.938 -36.418  22.219  1.00  0.00     0.004 C 
ENDBRANCH  24  25
ENDBRANCH  23  24
ENDBRANCH  22  23
ENDBRANCH  21  22
ENDBRANCH  20  21
ENDBRANCH  19  20
ENDBRANCH  18  19
ENDBRANCH  17  18
ENDBRANCH  16  17
ENDBRANCH  15  16
ENDBRANCH   1  15
TORSDOF 22
ENDMDL
MODEL 4
REMARK VINA RESULT:    -4.206     20.887     23.250
REMARK INTER + INTRA:         -11.942
REMARK INTER:                  -9.427
REMARK INTRA:                  -2.515
REMARK UNBOUND:                -2.327
REMARK SMILES CCCCCCCCCCCCCCCCCCCCCCCC(=O)[O-]
REMARK SMILES IDX 13 1 14 2 15 3 16 4 17 5 18 6 19 7 20 8 21 9 22 10 23 11
REMARK SMILES IDX 24 12 25 13 26 14 12 15 11 16 10 17 9 18 8 19 7 20 6 21 5 22
REMARK SMILES IDX 4 23 3 24 2 25 1 26
REMARK H PARENT
REMARK Flexibility Score: inf
ROOT
ATOM      1  C   UNL     1       0.664 -32.499  24.751  1.00  0.00     0.000 C 
ENDROOT
BRANCH   1   2
ATOM      2  C   UNL     1      -0.520 -31.951  23.933  1.00  0.00     0.000 C 
BRANCH   2   3
ATOM      3  C   UNL     1      -1.900 -32.351  24.497  1.00  0.00     0.000 C 
BRANCH   3   4
ATOM      4  C   UNL     1      -2.502 -33.561  23.766  1.00  0.00     0.000 C 
BRANCH   4   5
ATOM      5  C   UNL     1      -1.596 -34.009  22.614  1.00  0.00     0.000 C 
BRANCH   5   6
ATOM      6  C   UNL     1      -2.054 -35.356  22.039  1.00  0.00     0.000 C 
BRANCH   6   7
ATOM      7  C   UNL     1      -3.521 -35.681  22.370  1.00  0.00     0.000 C 
BRANCH   7   8
ATOM      8  C   UNL     1      -3.982 -37.068  21.874  1.00  0.00     0.000 C 
BRANCH   8   9
ATOM      9  C   UNL     1      -2.875 -37.816  21.109  1.00  0.00     0.000 C 
BRANCH   9  10
ATOM     10  C   UNL     1      -3.233 -38.050  19.631  1.00  0.00     0.006 C 
BRANCH  10  11
ATOM     11  C   UNL     1      -3.604 -36.751  18.897  1.00  0.00     0.053 C 
BRANCH  11  12
ATOM     12  C   UNL     1      -4.619 -37.001  17.822  1.00  0.00     0.041 C 
ATOM     13  O   UNL     1      -4.691 -38.125  17.256  1.00  0.00    -0.550 OA
ATOM     14  O   UNL     1      -5.445 -35.966  17.399  1.00  0.00    -0.550 OA
ENDBRANCH  11  12
ENDBRANCH  10  11
ENDBRANCH   9  10
ENDBRANCH   8   9
ENDBRANCH   7   8
ENDBRANCH   6   7
ENDBRANCH   5   6
ENDBRANCH   4   5
ENDBRANCH   3   4
ENDBRANCH   2   3
ENDBRANCH   1   2
BRANCH   1  15
ATOM     15  C   UNL     1       1.931 -32.795  23.931  1.00  0.00     0.000 C 
BRANCH  15  16
ATOM     16  C   UNL     1       2.006 -34.261  23.468  1.00  0.00     0.000 C 
BRANCH  16  17
ATOM     17  C   UNL     1       3.299 -34.568  22.694  1.00  0.00     0.000 C 
BRANCH  17  18
ATOM     18  C   UNL     1       3.844 -35.973  23.003  1.00  0.00    -0.000 C 
BRANCH  18  19
ATOM     19  C   UNL     1       5.064 -36.346  22.140  1.00  0.00    -0.000 C 
BRANCH  19  20
ATOM     20  C   UNL     1       4.878 -37.589  21.247  1.00  0.00    -0.000 C 
BRANCH  20  21
ATOM     21  C   UNL     1       5.408 -37.449  19.807  1.00  0.00    -0.000 C 
BRANCH  21  22
ATOM     22  C   UNL     1       4.493 -36.670  18.847  1.00  0.00    -0.000 C 
BRANCH  22  23
ATOM     23  C   UNL     1       3.437 -37.559  18.174  1.00  0.00    -0.000 C 
BRANCH  23  24
ATOM     24  C   UNL     1       2.055 -36.889  18.209  1.00  0.00    -0.000 C 
BRANCH  24  25
ATOM     25  C   UNL     1       1.688 -36.364  19.604  1.00  0.00    -0.003 C 
ATOM     26  C   UNL     1       1.251 -37.475  20.560  1.00  0.00     0.004 C 
ENDBRANCH  24  25
ENDBRANCH  23  24
ENDBRANCH  22  23
ENDBRANCH  21  22
ENDBRANCH  20  21
ENDBRANCH  19  20
ENDBRANCH  18  19
ENDBRANCH  17  18
ENDBRANCH  16  17
ENDBRANCH  15  16
ENDBRANCH   1  15
TORSDOF 22
ENDMDL
MODEL 5
REMARK VINA RESULT:    -4.136      1.540      2.239
REMARK INTER + INTRA:         -11.782
REMARK INTER:                  -9.535
REMARK INTRA:                  -2.248
REMARK UNBOUND:                -2.327
REMARK SMILES CCCCCCCCCCCCCCCCCCCCCCCC(=O)[O-]
REMARK SMILES IDX 13 1 14 2 15 3 16 4 17 5 18 6 19 7 20 8 21 9 22 10 23 11
REMARK SMILES IDX 24 12 25 13 26 14 12 15 11 16 10 17 9 18 8 19 7 20 6 21 5 22
REMARK SMILES IDX 4 23 3 24 2 25 1 26
REMARK H PARENT
REMARK Flexibility Score: inf
ROOT
ATOM      1  C   UNL     1     -11.201 -23.040  35.285  1.00  0.00     0.000 C 
ENDROOT
BRANCH   1   2
ATOM      2  C   UNL     1      -9.762 -22.497  35.352  1.00  0.00     0.000 C 
BRANCH   2   3
ATOM      3  C   UNL     1      -9.313 -21.772  34.066  1.00  0.00     0.000 C 
BRANCH   3   4
ATOM      4  C   UNL     1      -7.788 -21.607  33.989  1.00  0.00     0.000 C 
BRANCH   4   5
ATOM      5  C   UNL     1      -7.130 -21.977  35.322  1.00  0.00     0.000 C 
BRANCH   5   6
ATOM      6  C   UNL     1      -5.628 -22.236  35.149  1.00  0.00     0.000 C 
BRANCH   6   7
ATOM      7  C   UNL     1      -4.765 -21.021  35.532  1.00  0.00     0.000 C 
BRANCH   7   8
ATOM      8  C   UNL     1      -5.581 -19.790  35.983  1.00  0.00     0.000 C 
BRANCH   8   9
ATOM      9  C   UNL     1      -4.912 -18.462  35.583  1.00  0.00     0.000 C 
BRANCH   9  10
ATOM     10  C   UNL     1      -3.881 -18.636  34.456  1.00  0.00     0.006 C 
BRANCH  10  11
ATOM     11  C   UNL     1      -4.416 -18.191  33.085  1.00  0.00     0.053 C 
BRANCH  11  12
ATOM     12  C   UNL     1      -5.384 -19.189  32.525  1.00  0.00     0.041 C 
ATOM     13  O   UNL     1      -6.619 -18.938  32.495  1.00  0.00    -0.550 OA
ATOM     14  O   UNL     1      -4.925 -20.429  32.095  1.00  0.00    -0.550 OA
ENDBRANCH  11  12
ENDBRANCH  10  11
ENDBRANCH   9  10
ENDBRANCH   8   9
ENDBRANCH   7   8
ENDBRANCH   6   7
ENDBRANCH   5   6
ENDBRANCH   4   5
ENDBRANCH   3   4
ENDBRANCH   2   3
ENDBRANCH   1   2
BRANCH   1  15
ATOM     15  C   UNL     1     -12.298 -21.987  35.520  1.00  0.00     0.000 C 
BRANCH  15  16
ATOM     16  C   UNL     1     -11.746 -20.682  36.123  1.00  0.00     0.000 C 
BRANCH  16  17
ATOM     17  C   UNL     1     -12.674 -19.481  35.874  1.00  0.00     0.000 C 
BRANCH  17  18
ATOM     18  C   UNL     1     -13.665 -19.737  34.726  1.00  0.00    -0.000 C 
BRANCH  18  19
ATOM     19  C   UNL     1     -13.667 -18.613  33.674  1.00  0.00    -0.000 C 
BRANCH  19  20
ATOM     20  C   UNL     1     -12.279 -18.030  33.337  1.00  0.00    -0.000 C 
BRANCH  20  21
ATOM     21  C   UNL     1     -11.267 -19.036  32.755  1.00  0.00    -0.000 C 
BRANCH  21  22
ATOM     22  C   UNL     1     -11.795 -19.893  31.591  1.00  0.00    -0.000 C 
BRANCH  22  23
ATOM     23  C   UNL     1     -10.689 -20.323  30.617  1.00  0.00    -0.000 C 
BRANCH  23  24
ATOM     24  C   UNL     1     -10.230 -19.139  29.752  1.00  0.00    -0.000 C 
BRANCH  24  25
ATOM     25  C   UNL     1      -9.509 -19.586  28.472  1.00  0.00    -0.003 C 
ATOM     26  C   UNL     1      -9.871 -18.731  27.257  1.00  0.00     0.004 C 
ENDBRANCH  24  25
ENDBRANCH  23  24
ENDBRANCH  22  23
ENDBRANCH  21  22
ENDBRANCH  20  21
ENDBRANCH  19  20
ENDBRANCH  18  19
ENDBRANCH  17  18
ENDBRANCH  16  17
ENDBRANCH  15  16
ENDBRANCH   1  15
TORSDOF 22
ENDMDL
MODEL 6
REMARK VINA RESULT:    -4.130      2.740      6.838
REMARK INTER + INTRA:         -11.767
REMARK INTER:                  -9.302
REMARK INTRA:                  -2.465
REMARK UNBOUND:                -2.327
REMARK SMILES CCCCCCCCCCCCCCCCCCCCCCCC(=O)[O-]
REMARK SMILES IDX 13 1 14 2 15 3 16 4 17 5 18 6 19 7 20 8 21 9 22 10 23 11
REMARK SMILES IDX 24 12 25 13 26 14 12 15 11 16 10 17 9 18 8 19 7 20 6 21 5 22
REMARK SMILES IDX 4 23 3 24 2 25 1 26
REMARK H PARENT
REMARK Flexibility Score: inf
ROOT
ATOM      1  C   UNL     1      -8.697 -22.191  35.064  1.00  0.00     0.000 C 
ENDROOT
BRANCH   1   2
ATOM      2  C   UNL     1     -10.123 -22.714  34.813  1.00  0.00     0.000 C 
BRANCH   2   3
ATOM      3  C   UNL     1     -11.152 -22.231  35.857  1.00  0.00     0.000 C 
BRANCH   3   4
ATOM      4  C   UNL     1     -12.588 -22.244  35.312  1.00  0.00     0.000 C 
BRANCH   4   5
ATOM      5  C   UNL     1     -13.175 -20.829  35.284  1.00  0.00     0.000 C 
BRANCH   5   6
ATOM      6  C   UNL     1     -12.169 -19.820  34.716  1.00  0.00     0.000 C 
BRANCH   6   7
ATOM      7  C   UNL     1     -12.604 -19.242  33.357  1.00  0.00     0.000 C 
BRANCH   7   8
ATOM      8  C   UNL     1     -11.750 -18.046  32.885  1.00  0.00     0.000 C 
BRANCH   8   9
ATOM      9  C   UNL     1     -11.087 -18.300  31.519  1.00  0.00     0.000 C 
BRANCH   9  10
ATOM     10  C   UNL     1     -11.343 -19.722  30.993  1.00  0.00     0.006 C 
BRANCH  10  11
ATOM     11  C   UNL     1     -10.082 -20.377  30.407  1.00  0.00     0.053 C 
BRANCH  11  12
ATOM     12  C   UNL     1      -9.583 -19.629  29.207  1.00  0.00     0.041 C 
ATOM     13  O   UNL     1      -8.840 -18.620  29.343  1.00  0.00    -0.550 OA
ATOM     14  O   UNL     1      -9.997 -20.010  27.936  1.00  0.00    -0.550 OA
ENDBRANCH  11  12
ENDBRANCH  10  11
ENDBRANCH   9  10
ENDBRANCH   8   9
ENDBRANCH   7   8
ENDBRANCH   6   7
ENDBRANCH   5   6
ENDBRANCH   4   5
ENDBRANCH   3   4
ENDBRANCH   2   3
ENDBRANCH   1   2
BRANCH   1  15
ATOM     15  C   UNL     1      -8.073 -21.430  33.882  1.00  0.00     0.000 C 
BRANCH  15  16
ATOM     16  C   UNL     1      -8.833 -20.133  33.547  1.00  0.00     0.000 C 
BRANCH  16  17
ATOM     17  C   UNL     1      -8.028 -18.871  33.899  1.00  0.00     0.000 C 
BRANCH  17  18
ATOM     18  C   UNL     1      -7.266 -18.308  32.687  1.00  0.00    -0.000 C 
BRANCH  18  19
ATOM     19  C   UNL     1      -5.957 -19.065  32.398  1.00  0.00    -0.000 C 
BRANCH  19  20
ATOM     20  C   UNL     1      -4.759 -18.660  33.280  1.00  0.00    -0.000 C 
BRANCH  20  21
ATOM     21  C   UNL     1      -5.123 -17.954  34.601  1.00  0.00    -0.000 C 
BRANCH  21  22
ATOM     22  C   UNL     1      -5.122 -18.858  35.846  1.00  0.00    -0.000 C 
BRANCH  22  23
ATOM     23  C   UNL     1      -5.044 -20.351  35.501  1.00  0.00    -0.000 C 
BRANCH  23  24
ATOM     24  C   UNL     1      -3.795 -20.993  36.125  1.00  0.00    -0.000 C 
BRANCH  24  25
ATOM     25  C   UNL     1      -2.526 -20.158  35.900  1.00  0.00    -0.003 C 
ATOM     26  C   UNL     1      -1.770 -20.558  34.632  1.00  0.00     0.004 C 
ENDBRANCH  24  25
ENDBRANCH  23  24
ENDBRANCH  22  23
ENDBRANCH  21  22
ENDBRANCH  20  21
ENDBRANCH  19  20
ENDBRANCH  18  19
ENDBRANCH  17  18
ENDBRANCH  16  17
ENDBRANCH  15  16
ENDBRANCH   1  15
TORSDOF 22
ENDMDL
MODEL 7
REMARK VINA RESULT:    -4.085      2.931      6.664
REMARK INTER + INTRA:         -11.666
REMARK INTER:                  -8.981
REMARK INTRA:                  -2.685
REMARK UNBOUND:                -2.327
REMARK SMILES CCCCCCCCCCCCCCCCCCCCCCCC(=O)[O-]
REMARK SMILES IDX 13 1 14 2 15 3 16 4 17 5 18 6 19 7 20 8 21 9 22 10 23 11
REMARK SMILES IDX 24 12 25 13 26 14 12 15 11 16 10 17 9 18 8 19 7 20 6 21 5 22
REMARK SMILES IDX 4 23 3 24 2 25 1 26
REMARK H PARENT
REMARK Flexibility Score: inf
ROOT
ATOM      1  C   UNL     1     -10.142 -22.567  35.415  1.00  0.00     0.000 C 
ENDROOT
BRANCH   1   2
ATOM      2  C   UNL     1     -11.674 -22.639  35.554  1.00  0.00     0.000 C 
BRANCH   2   3
ATOM      3  C   UNL     1     -12.307 -21.344  36.106  1.00  0.00     0.000 C 
BRANCH   3   4
ATOM      4  C   UNL     1     -13.680 -21.053  35.482  1.00  0.00     0.000 C 
BRANCH   4   5
ATOM      5  C   UNL     1     -13.632 -19.788  34.619  1.00  0.00     0.000 C 
BRANCH   5   6
ATOM      6  C   UNL     1     -12.343 -18.994  34.867  1.00  0.00     0.000 C 
BRANCH   6   7
ATOM      7  C   UNL     1     -11.800 -18.322  33.593  1.00  0.00     0.000 C 
BRANCH   7   8
ATOM      8  C   UNL     1     -10.877 -19.231  32.752  1.00  0.00     0.000 C 
BRANCH   8   9
ATOM      9  C   UNL     1     -11.348 -19.357  31.292  1.00  0.00     0.000 C 
BRANCH   9  10
ATOM     10  C   UNL     1     -10.717 -18.297  30.374  1.00  0.00     0.006 C 
BRANCH  10  11
ATOM     11  C   UNL     1      -9.478 -18.818  29.626  1.00  0.00     0.053 C 
BRANCH  11  12
ATOM     12  C   UNL     1      -9.865 -19.661  28.448  1.00  0.00     0.041 C 
ATOM     13  O   UNL     1     -10.278 -20.841  28.612  1.00  0.00    -0.550 OA
ATOM     14  O   UNL     1      -9.703 -19.163  27.161  1.00  0.00    -0.550 OA
ENDBRANCH  11  12
ENDBRANCH  10  11
ENDBRANCH   9  10
ENDBRANCH   8   9
ENDBRANCH   7   8
ENDBRANCH   6   7
ENDBRANCH   5   6
ENDBRANCH   4   5
ENDBRANCH   3   4
ENDBRANCH   2   3
ENDBRANCH   1   2
BRANCH   1  15
ATOM     15  C   UNL     1      -9.619 -22.718  33.977  1.00  0.00     0.000 C 
BRANCH  15  16
ATOM     16  C   UNL     1      -8.616 -21.614  33.593  1.00  0.00     0.000 C 
BRANCH  16  17
ATOM     17  C   UNL     1      -7.780 -21.137  34.791  1.00  0.00     0.000 C 
BRANCH  17  18
ATOM     18  C   UNL     1      -6.600 -22.078  35.091  1.00  0.00    -0.000 C 
BRANCH  18  19
ATOM     19  C   UNL     1      -5.252 -21.524  34.595  1.00  0.00    -0.000 C 
BRANCH  19  20
ATOM     20  C   UNL     1      -4.168 -21.370  35.681  1.00  0.00    -0.000 C 
BRANCH  20  21
ATOM     21  C   UNL     1      -3.313 -20.091  35.580  1.00  0.00    -0.000 C 
BRANCH  21  22
ATOM     22  C   UNL     1      -3.839 -19.030  34.598  1.00  0.00    -0.000 C 
BRANCH  22  23
ATOM     23  C   UNL     1      -4.955 -18.162  35.197  1.00  0.00    -0.000 C 
BRANCH  23  24
ATOM     24  C   UNL     1      -6.047 -17.877  34.154  1.00  0.00    -0.000 C 
BRANCH  24  25
ATOM     25  C   UNL     1      -5.713 -18.463  32.775  1.00  0.00    -0.003 C 
ATOM     26  C   UNL     1      -6.961 -18.819  31.965  1.00  0.00     0.004 C 
ENDBRANCH  24  25
ENDBRANCH  23  24
ENDBRANCH  22  23
ENDBRANCH  21  22
ENDBRANCH  20  21
ENDBRANCH  19  20
ENDBRANCH  18  19
ENDBRANCH  17  18
ENDBRANCH  16  17
ENDBRANCH  15  16
ENDBRANCH   1  15
TORSDOF 22
ENDMDL
MODEL 8
REMARK VINA RESULT:    -3.728      1.045      4.723
REMARK INTER + INTRA:         -10.849
REMARK INTER:                  -8.524
REMARK INTRA:                  -2.325
REMARK UNBOUND:                -2.327
REMARK SMILES CCCCCCCCCCCCCCCCCCCCCCCC(=O)[O-]
REMARK SMILES IDX 13 1 14 2 15 3 16 4 17 5 18 6 19 7 20 8 21 9 22 10 23 11
REMARK SMILES IDX 24 12 25 13 26 14 12 15 11 16 10 17 9 18 8 19 7 20 6 21 5 22
REMARK SMILES IDX 4 23 3 24 2 25 1 26
REMARK H PARENT
REMARK Flexibility Score: inf
ROOT
ATOM      1  C   UNL     1     -10.164 -20.588  28.797  1.00  0.00     0.000 C 
ENDROOT
BRANCH   1   2
ATOM      2  C   UNL     1      -9.290 -19.339  28.580  1.00  0.00     0.000 C 
BRANCH   2   3
ATOM      3  C   UNL     1      -9.326 -18.346  29.761  1.00  0.00     0.000 C 
BRANCH   3   4
ATOM      4  C   UNL     1      -7.944 -18.152  30.404  1.00  0.00     0.000 C 
BRANCH   4   5
ATOM      5  C   UNL     1      -7.620 -19.303  31.361  1.00  0.00     0.000 C 
BRANCH   5   6
ATOM      6  C   UNL     1      -7.933 -18.924  32.814  1.00  0.00     0.000 C 
BRANCH   6   7
ATOM      7  C   UNL     1      -7.670 -20.074  33.802  1.00  0.00     0.000 C 
BRANCH   7   8
ATOM      8  C   UNL     1      -6.570 -19.766  34.841  1.00  0.00     0.000 C 
BRANCH   8   9
ATOM      9  C   UNL     1      -5.861 -18.427  34.567  1.00  0.00     0.000 C 
BRANCH   9  10
ATOM     10  C   UNL     1      -4.426 -18.396  35.119  1.00  0.00     0.006 C 
BRANCH  10  11
ATOM     11  C   UNL     1      -3.402 -19.013  34.152  1.00  0.00     0.053 C 
BRANCH  11  12
ATOM     12  C   UNL     1      -2.813 -20.274  34.710  1.00  0.00     0.041 C 
ATOM     13  O   UNL     1      -3.547 -21.265  34.969  1.00  0.00    -0.550 OA
ATOM     14  O   UNL     1      -1.456 -20.329  35.006  1.00  0.00    -0.550 OA
ENDBRANCH  11  12
ENDBRANCH  10  11
ENDBRANCH   9  10
ENDBRANCH   8   9
ENDBRANCH   7   8
ENDBRANCH   6   7
ENDBRANCH   5   6
ENDBRANCH   4   5
ENDBRANCH   3   4
ENDBRANCH   2   3
ENDBRANCH   1   2
BRANCH   1  15
ATOM     15  C   UNL     1     -10.543 -20.862  30.263  1.00  0.00     0.000 C 
BRANCH  15  16
ATOM     16  C   UNL     1     -11.624 -19.897  30.784  1.00  0.00     0.000 C 
BRANCH  16  17
ATOM     17  C   UNL     1     -11.590 -19.746  32.314  1.00  0.00     0.000 C 
BRANCH  17  18
ATOM     18  C   UNL     1     -11.435 -18.280  32.752  1.00  0.00    -0.000 C 
BRANCH  18  19
ATOM     19  C   UNL     1     -12.001 -18.013  34.159  1.00  0.00    -0.000 C 
BRANCH  19  20
ATOM     20  C   UNL     1     -11.897 -19.196  35.142  1.00  0.00    -0.000 C 
BRANCH  20  21
ATOM     21  C   UNL     1     -13.203 -19.555  35.880  1.00  0.00    -0.000 C 
BRANCH  21  22
ATOM     22  C   UNL     1     -13.552 -21.053  35.899  1.00  0.00    -0.000 C 
BRANCH  22  23
ATOM     23  C   UNL     1     -12.528 -21.915  35.147  1.00  0.00    -0.000 C 
BRANCH  23  24
ATOM     24  C   UNL     1     -11.717 -22.779  36.125  1.00  0.00    -0.000 C 
BRANCH  24  25
ATOM     25  C   UNL     1     -10.223 -22.824  35.774  1.00  0.00    -0.003 C 
ATOM     26  C   UNL     1      -9.934 -22.351  34.349  1.00  0.00     0.004 C 
ENDBRANCH  24  25
ENDBRANCH  23  24
ENDBRANCH  22  23
ENDBRANCH  21  22
ENDBRANCH  20  21
ENDBRANCH  19  20
ENDBRANCH  18  19
ENDBRANCH  17  18
ENDBRANCH  16  17
ENDBRANCH  15  16
ENDBRANCH   1  15
TORSDOF 22
ENDMDL
MODEL 9
REMARK VINA RESULT:    -3.721     20.595     22.865
REMARK INTER + INTRA:         -10.834
REMARK INTER:                  -8.200
REMARK INTRA:                  -2.634
REMARK UNBOUND:                -2.327
REMARK SMILES CCCCCCCCCCCCCCCCCCCCCCCC(=O)[O-]
REMARK SMILES IDX 13 1 14 2 15 3 16 4 17 5 18 6 19 7 20 8 21 9 22 10 23 11
REMARK SMILES IDX 24 12 25 13 26 14 12 15 11 16 10 17 9 18 8 19 7 20 6 21 5 22
REMARK SMILES IDX 4 23 3 24 2 25 1 26
REMARK H PARENT
REMARK Flexibility Score: inf
ROOT
ATOM      1  C   UNL     1      -1.537 -31.592  24.402  1.00  0.00     0.000 C 
ENDROOT
BRANCH   1   2
ATOM      2  C   UNL     1      -1.971 -33.068  24.369  1.00  0.00     0.000 C 
BRANCH   2   3
ATOM      3  C   UNL     1      -2.533 -33.518  23.003  1.00  0.00     0.000 C 
BRANCH   3   4
ATOM      4  C   UNL     1      -2.021 -34.906  22.589  1.00  0.00     0.000 C 
BRANCH   4   5
ATOM      5  C   UNL     1      -0.710 -34.793  21.804  1.00  0.00     0.000 C 
BRANCH   5   6
ATOM      6  C   UNL     1      -0.107 -36.176  21.525  1.00  0.00     0.000 C 
BRANCH   6   7
ATOM      7  C   UNL     1      -1.020 -37.063  20.659  1.00  0.00     0.000 C 
BRANCH   7   8
ATOM      8  C   UNL     1      -1.935 -38.002  21.475  1.00  0.00     0.000 C 
BRANCH   8   9
ATOM      9  C   UNL     1      -3.416 -37.869  21.078  1.00  0.00     0.000 C 
BRANCH   9  10
ATOM     10  C   UNL     1      -3.622 -36.951  19.862  1.00  0.00     0.006 C 
BRANCH  10  11
ATOM     11  C   UNL     1      -4.287 -37.672  18.677  1.00  0.00     0.053 C 
BRANCH  11  12
ATOM     12  C   UNL     1      -4.817 -36.696  17.670  1.00  0.00     0.041 C 
ATOM     13  O   UNL     1      -4.959 -35.479  17.968  1.00  0.00    -0.550 OA
ATOM     14  O   UNL     1      -5.219 -37.147  16.418  1.00  0.00    -0.550 OA
ENDBRANCH  11  12
ENDBRANCH  10  11
ENDBRANCH   9  10
ENDBRANCH   8   9
ENDBRANCH   7   8
ENDBRANCH   6   7
ENDBRANCH   5   6
ENDBRANCH   4   5
ENDBRANCH   3   4
ENDBRANCH   2   3
ENDBRANCH   1   2
BRANCH   1  15
ATOM     15  C   UNL     1      -0.038 -31.355  24.150  1.00  0.00     0.000 C 
BRANCH  15  16
ATOM     16  C   UNL     1       0.839 -32.502  24.685  1.00  0.00     0.000 C 
BRANCH  16  17
ATOM     17  C   UNL     1       1.981 -32.868  23.722  1.00  0.00     0.000 C 
BRANCH  17  18
ATOM     18  C   UNL     1       2.286 -34.376  23.726  1.00  0.00    -0.000 C 
BRANCH  18  19
ATOM     19  C   UNL     1       3.473 -34.749  22.819  1.00  0.00    -0.000 C 
BRANCH  19  20
ATOM     20  C   UNL     1       4.449 -35.785  23.412  1.00  0.00    -0.000 C 
BRANCH  20  21
ATOM     21  C   UNL     1       5.394 -36.455  22.395  1.00  0.00    -0.000 C 
BRANCH  21  22
ATOM     22  C   UNL     1       4.764 -36.771  21.027  1.00  0.00    -0.000 C 
BRANCH  22  23
ATOM     23  C   UNL     1       3.899 -38.039  21.047  1.00  0.00    -0.000 C 
BRANCH  23  24
ATOM     24  C   UNL     1       2.698 -37.897  20.100  1.00  0.00    -0.000 C 
BRANCH  24  25
ATOM     25  C   UNL     1       2.847 -36.716  19.129  1.00  0.00    -0.003 C 
ATOM     26  C   UNL     1       2.483 -37.083  17.689  1.00  0.00     0.004 C 
ENDBRANCH  24  25
ENDBRANCH  23  24
ENDBRANCH  22  23
ENDBRANCH  21  22
ENDBRANCH  20  21
ENDBRANCH  19  20
ENDBRANCH  18  19
ENDBRANCH  17  18
ENDBRANCH  16  17
ENDBRANCH  15  16
ENDBRANCH   1  15
TORSDOF 22
ENDMDL
