MODEL 1
REMARK VINA RESULT:    -3.685      0.000      0.000
REMARK INTER + INTRA:         -12.575
REMARK INTER:                  -8.425
REMARK INTRA:                  -4.150
REMARK UNBOUND:                -4.150
REMARK SMILES CCCCCCCCCCCCCCCCCCCCCCCC(=O)[O-]
REMARK SMILES IDX 13 1 14 2 15 3 16 4 17 5 18 6 19 7 20 8 21 9 22 10 23 11
REMARK SMILES IDX 24 12 25 13 26 14 12 15 11 16 10 17 9 18 8 19 7 20 6 21 5 22
REMARK SMILES IDX 4 23 3 24 2 25 1 26
REMARK H PARENT
REMARK Flexibility Score: inf
ROOT
ATOM      1  C   UNL     1      22.299  11.153  34.506  1.00  0.00     0.000 C 
ENDROOT
BRANCH   1   2
ATOM      2  C   UNL     1      21.964  12.140  35.641  1.00  0.00     0.000 C 
BRANCH   2   3
ATOM      3  C   UNL     1      20.855  13.155  35.314  1.00  0.00     0.000 C 
BRANCH   3   4
ATOM      4  C   UNL     1      19.492  12.867  35.973  1.00  0.00     0.000 C 
BRANCH   4   5
ATOM      5  C   UNL     1      18.288  13.037  35.022  1.00  0.00     0.000 C 
BRANCH   5   6
ATOM      6  C   UNL     1      17.965  11.747  34.244  1.00  0.00     0.000 C 
BRANCH   6   7
ATOM      7  C   UNL     1      17.975  11.969  32.716  1.00  0.00     0.000 C 
BRANCH   7   8
ATOM      8  C   UNL     1      19.166  12.813  32.221  1.00  0.00     0.000 C 
BRANCH   8   9
ATOM      9  C   UNL     1      20.177  12.054  31.345  1.00  0.00     0.000 C 
BRANCH   9  10
ATOM     10  C   UNL     1      21.539  12.763  31.258  1.00  0.00     0.006 C 
BRANCH  10  11
ATOM     11  C   UNL     1      21.502  14.161  31.888  1.00  0.00     0.053 C 
BRANCH  11  12
ATOM     12  C   UNL     1      21.702  15.237  30.864  1.00  0.00     0.041 C 
ATOM     13  O   UNL     1      22.064  16.391  31.216  1.00  0.00    -0.550 OA
ATOM     14  O   UNL     1      21.518  14.955  29.515  1.00  0.00    -0.550 OA
ENDBRANCH  11  12
ENDBRANCH  10  11
ENDBRANCH   9  10
ENDBRANCH   8   9
ENDBRANCH   7   8
ENDBRANCH   6   7
ENDBRANCH   5   6
ENDBRANCH   4   5
ENDBRANCH   3   4
ENDBRANCH   2   3
ENDBRANCH   1   2
BRANCH   1  15
ATOM     15  C   UNL     1      21.228  10.063  34.291  1.00  0.00     0.000 C 
BRANCH  15  16
ATOM     16  C   UNL     1      21.101   9.119  35.499  1.00  0.00     0.000 C 
BRANCH  16  17
ATOM     17  C   UNL     1      19.702   9.157  36.134  1.00  0.00     0.000 C 
BRANCH  17  18
ATOM     18  C   UNL     1      19.502   8.052  37.186  1.00  0.00    -0.000 C 
BRANCH  18  19
ATOM     19  C   UNL     1      19.327   6.661  36.557  1.00  0.00    -0.000 C 
BRANCH  19  20
ATOM     20  C   UNL     1      18.167   6.609  35.552  1.00  0.00    -0.000 C 
BRANCH  20  21
ATOM     21  C   UNL     1      18.654   6.148  34.170  1.00  0.00    -0.000 C 
BRANCH  21  22
ATOM     22  C   UNL     1      17.937   6.866  33.013  1.00  0.00    -0.000 C 
BRANCH  22  23
ATOM     23  C   UNL     1      18.507   8.253  32.653  1.00  0.00    -0.000 C 
BRANCH  23  24
ATOM     24  C   UNL     1      19.669   8.240  31.640  1.00  0.00    -0.000 C 
BRANCH  24  25
ATOM     25  C   UNL     1      19.764   6.966  30.783  1.00  0.00    -0.003 C 
ATOM     26  C   UNL     1      20.095   7.258  29.320  1.00  0.00     0.004 C 
ENDBRANCH  24  25
ENDBRANCH  23  24
ENDBRANCH  22  23
ENDBRANCH  21  22
ENDBRANCH  20  21
ENDBRANCH  19  20
ENDBRANCH  18  19
ENDBRANCH  17  18
ENDBRANCH  16  17
ENDBRANCH  15  16
ENDBRANCH   1  15
TORSDOF 22
ENDMDL
MODEL 2
REMARK VINA RESULT:    -3.641      1.660      4.132
REMARK INTER + INTRA:         -12.473
REMARK INTER:                  -8.860
REMARK INTRA:                  -3.613
REMARK UNBOUND:                -4.150
REMARK SMILES CCCCCCCCCCCCCCCCCCCCCCCC(=O)[O-]
REMARK SMILES IDX 13 1 14 2 15 3 16 4 17 5 18 6 19 7 20 8 21 9 22 10 23 11
REMARK SMILES IDX 24 12 25 13 26 14 12 15 11 16 10 17 9 18 8 19 7 20 6 21 5 22
REMARK SMILES IDX 4 23 3 24 2 25 1 26
REMARK H PARENT
REMARK Flexibility Score: inf
ROOT
ATOM      1  C   UNL     1      21.703  10.406  35.688  1.00  0.00     0.000 C 
ENDROOT
BRANCH   1   2
ATOM      2  C   UNL     1      22.413  11.530  34.910  1.00  0.00     0.000 C 
BRANCH   2   3
ATOM      3  C   UNL     1      21.955  11.700  33.450  1.00  0.00     0.000 C 
BRANCH   3   4
ATOM      4  C   UNL     1      21.486  13.119  33.075  1.00  0.00     0.000 C 
BRANCH   4   5
ATOM      5  C   UNL     1      21.357  13.354  31.555  1.00  0.00     0.000 C 
BRANCH   5   6
ATOM      6  C   UNL     1      21.876  12.163  30.727  1.00  0.00     0.000 C 
BRANCH   6   7
ATOM      7  C   UNL     1      22.639  12.617  29.464  1.00  0.00     0.000 C 
BRANCH   7   8
ATOM      8  C   UNL     1      22.688  14.147  29.288  1.00  0.00     0.000 C 
BRANCH   8   9
ATOM      9  C   UNL     1      24.103  14.748  29.238  1.00  0.00     0.000 C 
BRANCH   9  10
ATOM     10  C   UNL     1      24.253  15.992  30.131  1.00  0.00     0.006 C 
BRANCH  10  11
ATOM     11  C   UNL     1      23.507  17.204  29.560  1.00  0.00     0.053 C 
BRANCH  11  12
ATOM     12  C   UNL     1      22.518  17.760  30.540  1.00  0.00     0.041 C 
ATOM     13  O   UNL     1      22.158  18.964  30.466  1.00  0.00    -0.550 OA
ATOM     14  O   UNL     1      21.970  16.936  31.516  1.00  0.00    -0.550 OA
ENDBRANCH  11  12
ENDBRANCH  10  11
ENDBRANCH   9  10
ENDBRANCH   8   9
ENDBRANCH   7   8
ENDBRANCH   6   7
ENDBRANCH   5   6
ENDBRANCH   4   5
ENDBRANCH   3   4
ENDBRANCH   2   3
ENDBRANCH   1   2
BRANCH   1  15
ATOM     15  C   UNL     1      20.167  10.552  35.733  1.00  0.00     0.000 C 
BRANCH  15  16
ATOM     16  C   UNL     1      19.725  11.973  36.121  1.00  0.00     0.000 C 
BRANCH  16  17
ATOM     17  C   UNL     1      18.519  12.462  35.302  1.00  0.00     0.000 C 
BRANCH  17  18
ATOM     18  C   UNL     1      17.968  11.377  34.360  1.00  0.00    -0.000 C 
BRANCH  18  19
ATOM     19  C   UNL     1      18.091  11.763  32.878  1.00  0.00    -0.000 C 
BRANCH  19  20
ATOM     20  C   UNL     1      18.737  10.657  32.031  1.00  0.00    -0.000 C 
BRANCH  20  21
ATOM     21  C   UNL     1      18.816   9.338  32.814  1.00  0.00    -0.000 C 
BRANCH  21  22
ATOM     22  C   UNL     1      20.131   8.576  32.571  1.00  0.00    -0.000 C 
BRANCH  22  23
ATOM     23  C   UNL     1      20.073   7.063  32.866  1.00  0.00    -0.000 C 
BRANCH  23  24
ATOM     24  C   UNL     1      19.366   6.681  34.181  1.00  0.00    -0.000 C 
BRANCH  24  25
ATOM     25  C   UNL     1      20.210   6.884  35.451  1.00  0.00    -0.003 C 
ATOM     26  C   UNL     1      19.380   6.826  36.733  1.00  0.00     0.004 C 
ENDBRANCH  24  25
ENDBRANCH  23  24
ENDBRANCH  22  23
ENDBRANCH  21  22
ENDBRANCH  20  21
ENDBRANCH  19  20
ENDBRANCH  18  19
ENDBRANCH  17  18
ENDBRANCH  16  17
ENDBRANCH  15  16
ENDBRANCH   1  15
TORSDOF 22
ENDMDL
MODEL 3
REMARK VINA RESULT:    -3.594      3.122      6.113
REMARK INTER + INTRA:         -12.367
REMARK INTER:                  -8.105
REMARK INTRA:                  -4.263
REMARK UNBOUND:                -4.150
REMARK SMILES CCCCCCCCCCCCCCCCCCCCCCCC(=O)[O-]
REMARK SMILES IDX 13 1 14 2 15 3 16 4 17 5 18 6 19 7 20 8 21 9 22 10 23 11
REMARK SMILES IDX 24 12 25 13 26 14 12 15 11 16 10 17 9 18 8 19 7 20 6 21 5 22
REMARK SMILES IDX 4 23 3 24 2 25 1 26
REMARK H PARENT
REMARK Flexibility Score: inf
ROOT
ATOM      1  C   UNL     1      22.013  11.481  34.791  1.00  0.00     0.000 C 
ENDROOT
BRANCH   1   2
ATOM      2  C   UNL     1      21.682  10.563  35.983  1.00  0.00     0.000 C 
BRANCH   2   3
ATOM      3  C   UNL     1      21.045   9.213  35.607  1.00  0.00     0.000 C 
BRANCH   3   4
ATOM      4  C   UNL     1      19.628   8.983  36.166  1.00  0.00     0.000 C 
BRANCH   4   5
ATOM      5  C   UNL     1      19.506   7.737  37.069  1.00  0.00     0.000 C 
BRANCH   5   6
ATOM      6  C   UNL     1      18.911   6.526  36.325  1.00  0.00     0.000 C 
BRANCH   6   7
ATOM      7  C   UNL     1      18.195   6.936  35.020  1.00  0.00     0.000 C 
BRANCH   7   8
ATOM      8  C   UNL     1      18.785   6.278  33.758  1.00  0.00     0.000 C 
BRANCH   8   9
ATOM      9  C   UNL     1      20.321   6.311  33.669  1.00  0.00     0.000 C 
BRANCH   9  10
ATOM     10  C   UNL     1      20.849   5.801  32.316  1.00  0.00     0.006 C 
BRANCH  10  11
ATOM     11  C   UNL     1      19.838   6.020  31.183  1.00  0.00     0.053 C 
BRANCH  11  12
ATOM     12  C   UNL     1      20.213   5.256  29.949  1.00  0.00     0.041 C 
ATOM     13  O   UNL     1      19.329   4.665  29.275  1.00  0.00    -0.550 OA
ATOM     14  O   UNL     1      21.537   5.224  29.529  1.00  0.00    -0.550 OA
ENDBRANCH  11  12
ENDBRANCH  10  11
ENDBRANCH   9  10
ENDBRANCH   8   9
ENDBRANCH   7   8
ENDBRANCH   6   7
ENDBRANCH   5   6
ENDBRANCH   4   5
ENDBRANCH   3   4
ENDBRANCH   2   3
ENDBRANCH   1   2
BRANCH   1  15
ATOM     15  C   UNL     1      21.276  12.837  34.824  1.00  0.00     0.000 C 
BRANCH  15  16
ATOM     16  C   UNL     1      19.980  12.780  35.651  1.00  0.00     0.000 C 
BRANCH  16  17
ATOM     17  C   UNL     1      18.722  12.997  34.795  1.00  0.00     0.000 C 
BRANCH  17  18
ATOM     18  C   UNL     1      18.101  11.674  34.313  1.00  0.00    -0.000 C 
BRANCH  18  19
ATOM     19  C   UNL     1      18.503  11.323  32.872  1.00  0.00    -0.000 C 
BRANCH  19  20
ATOM     20  C   UNL     1      18.849   9.836  32.701  1.00  0.00    -0.000 C 
BRANCH  20  21
ATOM     21  C   UNL     1      20.236   9.662  32.065  1.00  0.00    -0.000 C 
BRANCH  21  22
ATOM     22  C   UNL     1      20.261  10.043  30.574  1.00  0.00    -0.000 C 
BRANCH  22  23
ATOM     23  C   UNL     1      21.600  10.622  30.071  1.00  0.00    -0.000 C 
BRANCH  23  24
ATOM     24  C   UNL     1      21.999  11.976  30.688  1.00  0.00    -0.000 C 
BRANCH  24  25
ATOM     25  C   UNL     1      21.129  13.167  30.252  1.00  0.00    -0.003 C 
ATOM     26  C   UNL     1      20.572  13.961  31.433  1.00  0.00     0.004 C 
ENDBRANCH  24  25
ENDBRANCH  23  24
ENDBRANCH  22  23
ENDBRANCH  21  22
ENDBRANCH  20  21
ENDBRANCH  19  20
ENDBRANCH  18  19
ENDBRANCH  17  18
ENDBRANCH  16  17
ENDBRANCH  15  16
ENDBRANCH   1  15
TORSDOF 22
ENDMDL
MODEL 4
REMARK VINA RESULT:    -3.523      3.597      7.720
REMARK INTER + INTRA:         -12.205
REMARK INTER:                  -8.431
REMARK INTRA:                  -3.774
REMARK UNBOUND:                -4.150
REMARK SMILES CCCCCCCCCCCCCCCCCCCCCCCC(=O)[O-]
REMARK SMILES IDX 13 1 14 2 15 3 16 4 17 5 18 6 19 7 20 8 21 9 22 10 23 11
REMARK SMILES IDX 24 12 25 13 26 14 12 15 11 16 10 17 9 18 8 19 7 20 6 21 5 22
REMARK SMILES IDX 4 23 3 24 2 25 1 26
REMARK H PARENT
REMARK Flexibility Score: inf
ROOT
ATOM      1  C   UNL     1      22.185  10.716  34.516  1.00  0.00     0.000 C 
ENDROOT
BRANCH   1   2
ATOM      2  C   UNL     1      21.458  11.444  35.663  1.00  0.00     0.000 C 
BRANCH   2   3
ATOM      3  C   UNL     1      21.248  12.954  35.445  1.00  0.00     0.000 C 
BRANCH   3   4
ATOM      4  C   UNL     1      19.785  13.428  35.534  1.00  0.00     0.000 C 
BRANCH   4   5
ATOM      5  C   UNL     1      18.749  12.314  35.270  1.00  0.00     0.000 C 
BRANCH   5   6
ATOM      6  C   UNL     1      18.238  12.316  33.816  1.00  0.00     0.000 C 
BRANCH   6   7
ATOM      7  C   UNL     1      17.875  10.899  33.323  1.00  0.00     0.000 C 
BRANCH   7   8
ATOM      8  C   UNL     1      18.568   9.772  34.114  1.00  0.00     0.000 C 
BRANCH   8   9
ATOM      9  C   UNL     1      18.889   8.510  33.295  1.00  0.00     0.000 C 
BRANCH   9  10
ATOM     10  C   UNL     1      20.114   7.749  33.831  1.00  0.00     0.006 C 
BRANCH  10  11
ATOM     11  C   UNL     1      20.134   7.696  35.364  1.00  0.00     0.053 C 
BRANCH  11  12
ATOM     12  C   UNL     1      19.267   6.593  35.893  1.00  0.00     0.041 C 
ATOM     13  O   UNL     1      19.297   6.291  37.115  1.00  0.00    -0.550 OA
ATOM     14  O   UNL     1      18.402   5.920  35.038  1.00  0.00    -0.550 OA
ENDBRANCH  11  12
ENDBRANCH  10  11
ENDBRANCH   9  10
ENDBRANCH   8   9
ENDBRANCH   7   8
ENDBRANCH   6   7
ENDBRANCH   5   6
ENDBRANCH   4   5
ENDBRANCH   3   4
ENDBRANCH   2   3
ENDBRANCH   1   2
BRANCH   1  15
ATOM     15  C   UNL     1      22.297  11.548  33.220  1.00  0.00     0.000 C 
BRANCH  15  16
ATOM     16  C   UNL     1      21.288  11.101  32.148  1.00  0.00     0.000 C 
BRANCH  16  17
ATOM     17  C   UNL     1      20.911  12.235  31.181  1.00  0.00     0.000 C 
BRANCH  17  18
ATOM     18  C   UNL     1      21.456  13.601  31.634  1.00  0.00    -0.000 C 
BRANCH  18  19
ATOM     19  C   UNL     1      20.894  14.766  30.804  1.00  0.00    -0.000 C 
BRANCH  19  20
ATOM     20  C   UNL     1      21.423  14.774  29.362  1.00  0.00    -0.000 C 
BRANCH  20  21
ATOM     21  C   UNL     1      22.942  14.548  29.330  1.00  0.00    -0.000 C 
BRANCH  21  22
ATOM     22  C   UNL     1      23.737  15.855  29.160  1.00  0.00    -0.000 C 
BRANCH  22  23
ATOM     23  C   UNL     1      24.270  16.470  30.470  1.00  0.00    -0.000 C 
BRANCH  23  24
ATOM     24  C   UNL     1      23.785  17.903  30.764  1.00  0.00    -0.000 C 
BRANCH  24  25
ATOM     25  C   UNL     1      22.333  18.004  31.264  1.00  0.00    -0.003 C 
ATOM     26  C   UNL     1      21.359  18.448  30.174  1.00  0.00     0.004 C 
ENDBRANCH  24  25
ENDBRANCH  23  24
ENDBRANCH  22  23
ENDBRANCH  21  22
ENDBRANCH  20  21
ENDBRANCH  19  20
ENDBRANCH  18  19
ENDBRANCH  17  18
ENDBRANCH  16  17
ENDBRANCH  15  16
ENDBRANCH   1  15
TORSDOF 22
ENDMDL
MODEL 5
REMARK VINA RESULT:    -3.517      1.491      2.855
REMARK INTER + INTRA:         -12.190
REMARK INTER:                  -8.630
REMARK INTRA:                  -3.560
REMARK UNBOUND:                -4.150
REMARK SMILES CCCCCCCCCCCCCCCCCCCCCCCC(=O)[O-]
REMARK SMILES IDX 13 1 14 2 15 3 16 4 17 5 18 6 19 7 20 8 21 9 22 10 23 11
REMARK SMILES IDX 24 12 25 13 26 14 12 15 11 16 10 17 9 18 8 19 7 20 6 21 5 22
REMARK SMILES IDX 4 23 3 24 2 25 1 26
REMARK H PARENT
REMARK Flexibility Score: inf
ROOT
ATOM      1  C   UNL     1      21.989  11.631  35.556  1.00  0.00     0.000 C 
ENDROOT
BRANCH   1   2
ATOM      2  C   UNL     1      21.114  12.865  35.261  1.00  0.00     0.000 C 
BRANCH   2   3
ATOM      3  C   UNL     1      21.210  13.401  33.822  1.00  0.00     0.000 C 
BRANCH   3   4
ATOM      4  C   UNL     1      19.942  13.210  32.968  1.00  0.00     0.000 C 
BRANCH   4   5
ATOM      5  C   UNL     1      20.190  12.474  31.634  1.00  0.00     0.000 C 
BRANCH   5   6
ATOM      6  C   UNL     1      21.656  12.029  31.470  1.00  0.00     0.000 C 
BRANCH   6   7
ATOM      7  C   UNL     1      22.085  11.971  29.988  1.00  0.00     0.000 C 
BRANCH   7   8
ATOM      8  C   UNL     1      22.045  13.338  29.278  1.00  0.00     0.000 C 
BRANCH   8   9
ATOM      9  C   UNL     1      23.099  14.349  29.760  1.00  0.00     0.000 C 
BRANCH   9  10
ATOM     10  C   UNL     1      22.474  15.581  30.438  1.00  0.00     0.006 C 
BRANCH  10  11
ATOM     11  C   UNL     1      23.396  16.805  30.371  1.00  0.00     0.053 C 
BRANCH  11  12
ATOM     12  C   UNL     1      22.680  18.061  30.766  1.00  0.00     0.041 C 
ATOM     13  O   UNL     1      22.968  19.157  30.216  1.00  0.00    -0.550 OA
ATOM     14  O   UNL     1      21.673  18.014  31.723  1.00  0.00    -0.550 OA
ENDBRANCH  11  12
ENDBRANCH  10  11
ENDBRANCH   9  10
ENDBRANCH   8   9
ENDBRANCH   7   8
ENDBRANCH   6   7
ENDBRANCH   5   6
ENDBRANCH   4   5
ENDBRANCH   3   4
ENDBRANCH   2   3
ENDBRANCH   1   2
BRANCH   1  15
ATOM     15  C   UNL     1      21.626  10.392  34.709  1.00  0.00     0.000 C 
BRANCH  15  16
ATOM     16  C   UNL     1      21.285   9.168  35.576  1.00  0.00     0.000 C 
BRANCH  16  17
ATOM     17  C   UNL     1      19.897   9.275  36.229  1.00  0.00     0.000 C 
BRANCH  17  18
ATOM     18  C   UNL     1      19.483   7.979  36.948  1.00  0.00    -0.000 C 
BRANCH  18  19
ATOM     19  C   UNL     1      19.672   6.731  36.073  1.00  0.00    -0.000 C 
BRANCH  19  20
ATOM     20  C   UNL     1      18.363   6.260  35.424  1.00  0.00    -0.000 C 
BRANCH  20  21
ATOM     21  C   UNL     1      18.521   6.115  33.903  1.00  0.00    -0.000 C 
BRANCH  21  22
ATOM     22  C   UNL     1      19.921   6.517  33.407  1.00  0.00    -0.000 C 
BRANCH  22  23
ATOM     23  C   UNL     1      19.950   7.218  32.033  1.00  0.00    -0.000 C 
BRANCH  23  24
ATOM     24  C   UNL     1      19.747   8.745  32.075  1.00  0.00    -0.000 C 
BRANCH  24  25
ATOM     25  C   UNL     1      18.282   9.200  32.188  1.00  0.00    -0.003 C 
ATOM     26  C   UNL     1      18.014  10.035  33.439  1.00  0.00     0.004 C 
ENDBRANCH  24  25
ENDBRANCH  23  24
ENDBRANCH  22  23
ENDBRANCH  21  22
ENDBRANCH  20  21
ENDBRANCH  19  20
ENDBRANCH  18  19
ENDBRANCH  17  18
ENDBRANCH  16  17
ENDBRANCH  15  16
ENDBRANCH   1  15
TORSDOF 22
ENDMDL
MODEL 6
REMARK VINA RESULT:    -3.462      2.580      8.049
REMARK INTER + INTRA:         -12.064
REMARK INTER:                  -8.974
REMARK INTRA:                  -3.089
REMARK UNBOUND:                -4.150
REMARK SMILES CCCCCCCCCCCCCCCCCCCCCCCC(=O)[O-]
REMARK SMILES IDX 13 1 14 2 15 3 16 4 17 5 18 6 19 7 20 8 21 9 22 10 23 11
REMARK SMILES IDX 24 12 25 13 26 14 12 15 11 16 10 17 9 18 8 19 7 20 6 21 5 22
REMARK SMILES IDX 4 23 3 24 2 25 1 26
REMARK H PARENT
REMARK Flexibility Score: inf
ROOT
ATOM      1  C   UNL     1      20.845  10.366  32.041  1.00  0.00     0.000 C 
ENDROOT
BRANCH   1   2
ATOM      2  C   UNL     1      20.185   9.353  31.086  1.00  0.00     0.000 C 
BRANCH   2   3
ATOM      3  C   UNL     1      19.256   8.330  31.765  1.00  0.00     0.000 C 
BRANCH   3   4
ATOM      4  C   UNL     1      19.783   6.882  31.779  1.00  0.00     0.000 C 
BRANCH   4   5
ATOM      5  C   UNL     1      19.638   6.177  33.145  1.00  0.00     0.000 C 
BRANCH   5   6
ATOM      6  C   UNL     1      20.512   6.822  34.237  1.00  0.00     0.000 C 
BRANCH   6   7
ATOM      7  C   UNL     1      19.886   6.685  35.642  1.00  0.00     0.000 C 
BRANCH   7   8
ATOM      8  C   UNL     1      19.546   8.035  36.302  1.00  0.00     0.000 C 
BRANCH   8   9
ATOM      9  C   UNL     1      19.521   9.237  35.341  1.00  0.00     0.000 C 
BRANCH   9  10
ATOM     10  C   UNL     1      20.481  10.360  35.769  1.00  0.00     0.006 C 
BRANCH  10  11
ATOM     11  C   UNL     1      21.951   9.972  35.563  1.00  0.00     0.053 C 
BRANCH  11  12
ATOM     12  C   UNL     1      22.846  11.174  35.546  1.00  0.00     0.041 C 
ATOM     13  O   UNL     1      24.091  11.037  35.418  1.00  0.00    -0.550 OA
ATOM     14  O   UNL     1      22.299  12.448  35.643  1.00  0.00    -0.550 OA
ENDBRANCH  11  12
ENDBRANCH  10  11
ENDBRANCH   9  10
ENDBRANCH   8   9
ENDBRANCH   7   8
ENDBRANCH   6   7
ENDBRANCH   5   6
ENDBRANCH   4   5
ENDBRANCH   3   4
ENDBRANCH   2   3
ENDBRANCH   1   2
BRANCH   1  15
ATOM     15  C   UNL     1      20.625  11.840  31.637  1.00  0.00     0.000 C 
BRANCH  15  16
ATOM     16  C   UNL     1      21.578  12.798  32.374  1.00  0.00     0.000 C 
BRANCH  16  17
ATOM     17  C   UNL     1      21.555  14.220  31.790  1.00  0.00     0.000 C 
BRANCH  17  18
ATOM     18  C   UNL     1      20.549  14.366  30.635  1.00  0.00    -0.000 C 
BRANCH  18  19
ATOM     19  C   UNL     1      21.228  14.698  29.297  1.00  0.00    -0.000 C 
BRANCH  19  20
ATOM     20  C   UNL     1      22.756  14.563  29.361  1.00  0.00    -0.000 C 
BRANCH  20  21
ATOM     21  C   UNL     1      23.442  15.900  29.042  1.00  0.00    -0.000 C 
BRANCH  21  22
ATOM     22  C   UNL     1      24.287  16.434  30.212  1.00  0.00    -0.000 C 
BRANCH  22  23
ATOM     23  C   UNL     1      23.823  17.787  30.788  1.00  0.00    -0.000 C 
BRANCH  23  24
ATOM     24  C   UNL     1      22.345  17.839  31.224  1.00  0.00    -0.000 C 
BRANCH  24  25
ATOM     25  C   UNL     1      21.415  18.599  30.262  1.00  0.00    -0.003 C 
ATOM     26  C   UNL     1      19.981  18.070  30.280  1.00  0.00     0.004 C 
ENDBRANCH  24  25
ENDBRANCH  23  24
ENDBRANCH  22  23
ENDBRANCH  21  22
ENDBRANCH  20  21
ENDBRANCH  19  20
ENDBRANCH  18  19
ENDBRANCH  17  18
ENDBRANCH  16  17
ENDBRANCH  15  16
ENDBRANCH   1  15
TORSDOF 22
ENDMDL
MODEL 7
REMARK VINA RESULT:    -3.458      3.272      7.851
REMARK INTER + INTRA:         -12.056
REMARK INTER:                  -8.139
REMARK INTRA:                  -3.917
REMARK UNBOUND:                -4.150
REMARK SMILES CCCCCCCCCCCCCCCCCCCCCCCC(=O)[O-]
REMARK SMILES IDX 13 1 14 2 15 3 16 4 17 5 18 6 19 7 20 8 21 9 22 10 23 11
REMARK SMILES IDX 24 12 25 13 26 14 12 15 11 16 10 17 9 18 8 19 7 20 6 21 5 22
REMARK SMILES IDX 4 23 3 24 2 25 1 26
REMARK H PARENT
REMARK Flexibility Score: inf
ROOT
ATOM      1  C   UNL     1      21.126  10.941  31.952  1.00  0.00     0.000 C 
ENDROOT
BRANCH   1   2
ATOM      2  C   UNL     1      21.911  11.889  32.879  1.00  0.00     0.000 C 
BRANCH   2   3
ATOM      3  C   UNL     1      22.390  11.259  34.200  1.00  0.00     0.000 C 
BRANCH   3   4
ATOM      4  C   UNL     1      21.937  11.996  35.475  1.00  0.00     0.000 C 
BRANCH   4   5
ATOM      5  C   UNL     1      21.195  13.321  35.202  1.00  0.00     0.000 C 
BRANCH   5   6
ATOM      6  C   UNL     1      19.717  13.269  35.635  1.00  0.00     0.000 C 
BRANCH   6   7
ATOM      7  C   UNL     1      19.241  11.827  35.914  1.00  0.00     0.000 C 
BRANCH   7   8
ATOM      8  C   UNL     1      18.498  11.181  34.729  1.00  0.00     0.000 C 
BRANCH   8   9
ATOM      9  C   UNL     1      18.766   9.678  34.539  1.00  0.00     0.000 C 
BRANCH   9  10
ATOM     10  C   UNL     1      19.703   9.101  35.614  1.00  0.00     0.006 C 
BRANCH  10  11
ATOM     11  C   UNL     1      20.642   8.030  35.045  1.00  0.00     0.053 C 
BRANCH  11  12
ATOM     12  C   UNL     1      19.906   7.041  34.193  1.00  0.00     0.041 C 
ATOM     13  O   UNL     1      20.193   6.913  32.974  1.00  0.00    -0.550 OA
ATOM     14  O   UNL     1      18.920   6.238  34.756  1.00  0.00    -0.550 OA
ENDBRANCH  11  12
ENDBRANCH  10  11
ENDBRANCH   9  10
ENDBRANCH   8   9
ENDBRANCH   7   8
ENDBRANCH   6   7
ENDBRANCH   5   6
ENDBRANCH   4   5
ENDBRANCH   3   4
ENDBRANCH   2   3
ENDBRANCH   1   2
BRANCH   1  15
ATOM     15  C   UNL     1      19.883  11.589  31.305  1.00  0.00     0.000 C 
BRANCH  15  16
ATOM     16  C   UNL     1      19.619  13.008  31.837  1.00  0.00     0.000 C 
BRANCH  16  17
ATOM     17  C   UNL     1      19.431  14.037  30.710  1.00  0.00     0.000 C 
BRANCH  17  18
ATOM     18  C   UNL     1      20.110  13.605  29.399  1.00  0.00    -0.000 C 
BRANCH  18  19
ATOM     19  C   UNL     1      21.281  14.521  29.009  1.00  0.00    -0.000 C 
BRANCH  19  20
ATOM     20  C   UNL     1      22.521  14.302  29.888  1.00  0.00    -0.000 C 
BRANCH  20  21
ATOM     21  C   UNL     1      23.062  15.636  30.421  1.00  0.00    -0.000 C 
BRANCH  21  22
ATOM     22  C   UNL     1      21.982  16.487  31.112  1.00  0.00    -0.000 C 
BRANCH  22  23
ATOM     23  C   UNL     1      22.277  18.000  31.164  1.00  0.00    -0.000 C 
BRANCH  23  24
ATOM     24  C   UNL     1      21.638  18.830  30.034  1.00  0.00    -0.000 C 
BRANCH  24  25
ATOM     25  C   UNL     1      20.339  18.242  29.456  1.00  0.00    -0.003 C 
ATOM     26  C   UNL     1      19.123  18.501  30.343  1.00  0.00     0.004 C 
ENDBRANCH  24  25
ENDBRANCH  23  24
ENDBRANCH  22  23
ENDBRANCH  21  22
ENDBRANCH  20  21
ENDBRANCH  19  20
ENDBRANCH  18  19
ENDBRANCH  17  18
ENDBRANCH  16  17
ENDBRANCH  15  16
ENDBRANCH   1  15
TORSDOF 22
ENDMDL
MODEL 8
REMARK VINA RESULT:    -3.453      1.773      4.391
REMARK INTER + INTRA:         -12.043
REMARK INTER:                  -9.071
REMARK INTRA:                  -2.972
REMARK UNBOUND:                -4.150
REMARK SMILES CCCCCCCCCCCCCCCCCCCCCCCC(=O)[O-]
REMARK SMILES IDX 13 1 14 2 15 3 16 4 17 5 18 6 19 7 20 8 21 9 22 10 23 11
REMARK SMILES IDX 24 12 25 13 26 14 12 15 11 16 10 17 9 18 8 19 7 20 6 21 5 22
REMARK SMILES IDX 4 23 3 24 2 25 1 26
REMARK H PARENT
REMARK Flexibility Score: inf
ROOT
ATOM      1  C   UNL     1      21.793  11.503  35.625  1.00  0.00     0.000 C 
ENDROOT
BRANCH   1   2
ATOM      2  C   UNL     1      22.149  11.160  34.166  1.00  0.00     0.000 C 
BRANCH   2   3
ATOM      3  C   UNL     1      21.679  12.188  33.122  1.00  0.00     0.000 C 
BRANCH   3   4
ATOM      4  C   UNL     1      21.732  11.705  31.660  1.00  0.00     0.000 C 
BRANCH   4   5
ATOM      5  C   UNL     1      22.031  12.825  30.640  1.00  0.00     0.000 C 
BRANCH   5   6
ATOM      6  C   UNL     1      21.796  14.231  31.224  1.00  0.00     0.000 C 
BRANCH   6   7
ATOM      7  C   UNL     1      20.489  14.868  30.704  1.00  0.00     0.000 C 
BRANCH   7   8
ATOM      8  C   UNL     1      20.717  16.051  29.743  1.00  0.00     0.000 C 
BRANCH   8   9
ATOM      9  C   UNL     1      20.484  17.440  30.361  1.00  0.00     0.000 C 
BRANCH   9  10
ATOM     10  C   UNL     1      21.676  17.922  31.206  1.00  0.00     0.006 C 
BRANCH  10  11
ATOM     11  C   UNL     1      22.855  18.374  30.335  1.00  0.00     0.053 C 
BRANCH  11  12
ATOM     12  C   UNL     1      24.147  17.767  30.791  1.00  0.00     0.041 C 
ATOM     13  O   UNL     1      24.919  18.409  31.551  1.00  0.00    -0.550 OA
ATOM     14  O   UNL     1      24.484  16.477  30.399  1.00  0.00    -0.550 OA
ENDBRANCH  11  12
ENDBRANCH  10  11
ENDBRANCH   9  10
ENDBRANCH   8   9
ENDBRANCH   7   8
ENDBRANCH   6   7
ENDBRANCH   5   6
ENDBRANCH   4   5
ENDBRANCH   3   4
ENDBRANCH   2   3
ENDBRANCH   1   2
BRANCH   1  15
ATOM     15  C   UNL     1      20.275  11.539  35.905  1.00  0.00     0.000 C 
BRANCH  15  16
ATOM     16  C   UNL     1      19.692  12.958  35.795  1.00  0.00     0.000 C 
BRANCH  16  17
ATOM     17  C   UNL     1      18.321  12.982  35.099  1.00  0.00     0.000 C 
BRANCH  17  18
ATOM     18  C   UNL     1      17.946  11.621  34.489  1.00  0.00    -0.000 C 
BRANCH  18  19
ATOM     19  C   UNL     1      18.101  11.595  32.961  1.00  0.00    -0.000 C 
BRANCH  19  20
ATOM     20  C   UNL     1      18.472  10.203  32.428  1.00  0.00    -0.000 C 
BRANCH  20  21
ATOM     21  C   UNL     1      18.846   9.254  33.576  1.00  0.00    -0.000 C 
BRANCH  21  22
ATOM     22  C   UNL     1      20.019   8.322  33.225  1.00  0.00    -0.000 C 
BRANCH  22  23
ATOM     23  C   UNL     1      19.814   6.842  33.607  1.00  0.00    -0.000 C 
BRANCH  23  24
ATOM     24  C   UNL     1      18.980   6.606  34.882  1.00  0.00    -0.000 C 
BRANCH  24  25
ATOM     25  C   UNL     1      19.774   6.687  36.197  1.00  0.00    -0.003 C 
ATOM     26  C   UNL     1      19.394   7.898  37.047  1.00  0.00     0.004 C 
ENDBRANCH  24  25
ENDBRANCH  23  24
ENDBRANCH  22  23
ENDBRANCH  21  22
ENDBRANCH  20  21
ENDBRANCH  19  20
ENDBRANCH  18  19
ENDBRANCH  17  18
ENDBRANCH  16  17
ENDBRANCH  15  16
ENDBRANCH   1  15
TORSDOF 22
ENDMDL
MODEL 9
REMARK VINA RESULT:    -3.449      3.017      8.043
REMARK INTER + INTRA:         -12.035
REMARK INTER:                  -8.948
REMARK INTRA:                  -3.086
REMARK UNBOUND:                -4.150
REMARK SMILES CCCCCCCCCCCCCCCCCCCCCCCC(=O)[O-]
REMARK SMILES IDX 13 1 14 2 15 3 16 4 17 5 18 6 19 7 20 8 21 9 22 10 23 11
REMARK SMILES IDX 24 12 25 13 26 14 12 15 11 16 10 17 9 18 8 19 7 20 6 21 5 22
REMARK SMILES IDX 4 23 3 24 2 25 1 26
REMARK H PARENT
REMARK Flexibility Score: inf
ROOT
ATOM      1  C   UNL     1      18.293  11.622  33.849  1.00  0.00     0.000 C 
ENDROOT
BRANCH   1   2
ATOM      2  C   UNL     1      18.213  12.990  34.554  1.00  0.00     0.000 C 
BRANCH   2   3
ATOM      3  C   UNL     1      19.239  13.201  35.683  1.00  0.00     0.000 C 
BRANCH   3   4
ATOM      4  C   UNL     1      20.669  13.525  35.212  1.00  0.00     0.000 C 
BRANCH   4   5
ATOM      5  C   UNL     1      21.703  12.429  35.549  1.00  0.00     0.000 C 
BRANCH   5   6
ATOM      6  C   UNL     1      22.010  11.518  34.344  1.00  0.00     0.000 C 
BRANCH   6   7
ATOM      7  C   UNL     1      21.625  10.048  34.610  1.00  0.00     0.000 C 
BRANCH   7   8
ATOM      8  C   UNL     1      20.818   9.845  35.907  1.00  0.00     0.000 C 
BRANCH   8   9
ATOM      9  C   UNL     1      19.691   8.802  35.812  1.00  0.00     0.000 C 
BRANCH   9  10
ATOM     10  C   UNL     1      20.209   7.397  35.456  1.00  0.00     0.006 C 
BRANCH  10  11
ATOM     11  C   UNL     1      19.396   6.751  34.328  1.00  0.00     0.053 C 
BRANCH  11  12
ATOM     12  C   UNL     1      20.144   6.759  33.029  1.00  0.00     0.041 C 
ATOM     13  O   UNL     1      20.064   7.751  32.257  1.00  0.00    -0.550 OA
ATOM     14  O   UNL     1      20.953   5.682  32.687  1.00  0.00    -0.550 OA
ENDBRANCH  11  12
ENDBRANCH  10  11
ENDBRANCH   9  10
ENDBRANCH   8   9
ENDBRANCH   7   8
ENDBRANCH   6   7
ENDBRANCH   5   6
ENDBRANCH   4   5
ENDBRANCH   3   4
ENDBRANCH   2   3
ENDBRANCH   1   2
BRANCH   1  15
ATOM     15  C   UNL     1      18.450  11.719  32.317  1.00  0.00     0.000 C 
BRANCH  15  16
ATOM     16  C   UNL     1      19.164  13.010  31.881  1.00  0.00     0.000 C 
BRANCH  16  17
ATOM     17  C   UNL     1      20.579  12.750  31.339  1.00  0.00     0.000 C 
BRANCH  17  18
ATOM     18  C   UNL     1      21.422  14.034  31.249  1.00  0.00    -0.000 C 
BRANCH  18  19
ATOM     19  C   UNL     1      21.912  14.320  29.822  1.00  0.00    -0.000 C 
BRANCH  19  20
ATOM     20  C   UNL     1      23.401  14.697  29.773  1.00  0.00    -0.000 C 
BRANCH  20  21
ATOM     21  C   UNL     1      23.588  16.148  29.306  1.00  0.00    -0.000 C 
BRANCH  21  22
ATOM     22  C   UNL     1      24.166  17.059  30.403  1.00  0.00    -0.000 C 
BRANCH  22  23
ATOM     23  C   UNL     1      23.276  18.258  30.791  1.00  0.00    -0.000 C 
BRANCH  23  24
ATOM     24  C   UNL     1      21.833  17.898  31.194  1.00  0.00    -0.000 C 
BRANCH  24  25
ATOM     25  C   UNL     1      20.803  17.983  30.055  1.00  0.00    -0.003 C 
ATOM     26  C   UNL     1      19.483  18.616  30.493  1.00  0.00     0.004 C 
ENDBRANCH  24  25
ENDBRANCH  23  24
ENDBRANCH  22  23
ENDBRANCH  21  22
ENDBRANCH  20  21
ENDBRANCH  19  20
ENDBRANCH  18  19
ENDBRANCH  17  18
ENDBRANCH  16  17
ENDBRANCH  15  16
ENDBRANCH   1  15
TORSDOF 22
ENDMDL
