MODEL 1
REMARK VINA RESULT:    -5.422      0.000      0.000
REMARK INTER + INTRA:         -10.348
REMARK INTER:                  -9.226
REMARK INTRA:                  -1.122
REMARK UNBOUND:                -1.122
REMARK SMILES CCCCCCCCCCCCCC(=O)[O-]
REMARK SMILES IDX 8 1 9 2 10 3 11 4 12 5 13 6 14 7 15 8 16 9 7 10 6 11 5 12
REMARK SMILES IDX 4 13 3 14 2 15 1 16
REMARK H PARENT
REMARK Flexibility Score: inf
ROOT
ATOM      1  C   UNL     1      10.889 -12.688  24.459  1.00  0.00     0.000 C 
ENDROOT
BRANCH   1   2
ATOM      2  C   UNL     1      12.229 -12.134  24.974  1.00  0.00     0.000 C 
BRANCH   2   3
ATOM      3  C   UNL     1      13.233 -13.246  25.315  1.00  0.00     0.000 C 
BRANCH   3   4
ATOM      4  C   UNL     1      13.609 -13.265  26.806  1.00  0.00     0.000 C 
BRANCH   4   5
ATOM      5  C   UNL     1      14.457 -14.488  27.199  1.00  0.00     0.006 C 
BRANCH   5   6
ATOM      6  C   UNL     1      15.938 -14.162  27.460  1.00  0.00     0.053 C 
BRANCH   6   7
ATOM      7  C   UNL     1      16.773 -14.255  26.219  1.00  0.00     0.041 C 
ATOM      8  O   UNL     1      17.083 -13.212  25.584  1.00  0.00    -0.550 OA
ATOM      9  O   UNL     1      17.180 -15.494  25.741  1.00  0.00    -0.550 OA
ENDBRANCH   6   7
ENDBRANCH   5   6
ENDBRANCH   4   5
ENDBRANCH   3   4
ENDBRANCH   2   3
ENDBRANCH   1   2
BRANCH   1  10
ATOM     10  C   UNL     1       9.794 -11.613  24.391  1.00  0.00     0.000 C 
BRANCH  10  11
ATOM     11  C   UNL     1       8.954 -11.544  25.678  1.00  0.00    -0.000 C 
BRANCH  11  12
ATOM     12  C   UNL     1       8.341 -12.902  26.056  1.00  0.00    -0.000 C 
BRANCH  12  13
ATOM     13  C   UNL     1       8.520 -13.238  27.547  1.00  0.00    -0.000 C 
BRANCH  13  14
ATOM     14  C   UNL     1       9.834 -12.664  28.119  1.00  0.00    -0.000 C 
BRANCH  14  15
ATOM     15  C   UNL     1      10.100 -13.072  29.578  1.00  0.00    -0.003 C 
ATOM     16  C   UNL     1      11.430 -13.799  29.762  1.00  0.00     0.004 C 
ENDBRANCH  14  15
ENDBRANCH  13  14
ENDBRANCH  12  13
ENDBRANCH  11  12
ENDBRANCH  10  11
ENDBRANCH   1  10
TORSDOF 12
ENDMDL
MODEL 2
REMARK VINA RESULT:    -5.232      1.329      1.730
REMARK INTER + INTRA:         -10.024
REMARK INTER:                  -9.082
REMARK INTRA:                  -0.942
REMARK UNBOUND:                -1.122
REMARK SMILES CCCCCCCCCCCCCC(=O)[O-]
REMARK SMILES IDX 8 1 9 2 10 3 11 4 12 5 13 6 14 7 15 8 16 9 7 10 6 11 5 12
REMARK SMILES IDX 4 13 3 14 2 15 1 16
REMARK H PARENT
REMARK Flexibility Score: inf
ROOT
ATOM      1  C   UNL     1      11.578 -12.471  24.852  1.00  0.00     0.000 C 
ENDROOT
BRANCH   1   2
ATOM      2  C   UNL     1      12.360 -13.750  24.505  1.00  0.00     0.000 C 
BRANCH   2   3
ATOM      3  C   UNL     1      13.786 -13.741  25.078  1.00  0.00     0.000 C 
BRANCH   3   4
ATOM      4  C   UNL     1      13.912 -12.859  26.331  1.00  0.00     0.000 C 
BRANCH   4   5
ATOM      5  C   UNL     1      13.862 -13.664  27.643  1.00  0.00     0.006 C 
BRANCH   5   6
ATOM      6  C   UNL     1      14.806 -13.134  28.736  1.00  0.00     0.053 C 
BRANCH   6   7
ATOM      7  C   UNL     1      16.248 -13.393  28.423  1.00  0.00     0.041 C 
ATOM      8  O   UNL     1      17.141 -12.624  28.870  1.00  0.00    -0.550 OA
ATOM      9  O   UNL     1      16.608 -14.459  27.609  1.00  0.00    -0.550 OA
ENDBRANCH   6   7
ENDBRANCH   5   6
ENDBRANCH   4   5
ENDBRANCH   3   4
ENDBRANCH   2   3
ENDBRANCH   1   2
BRANCH   1  10
ATOM     10  C   UNL     1      10.428 -12.199  23.870  1.00  0.00     0.000 C 
BRANCH  10  11
ATOM     11  C   UNL     1       9.393 -11.211  24.435  1.00  0.00    -0.000 C 
BRANCH  11  12
ATOM     12  C   UNL     1       9.004 -11.529  25.888  1.00  0.00    -0.000 C 
BRANCH  12  13
ATOM     13  C   UNL     1       8.300 -12.891  26.026  1.00  0.00    -0.000 C 
BRANCH  13  14
ATOM     14  C   UNL     1       8.281 -13.390  27.487  1.00  0.00    -0.000 C 
BRANCH  14  15
ATOM     15  C   UNL     1       9.013 -12.455  28.465  1.00  0.00    -0.003 C 
ATOM     16  C   UNL     1      10.287 -13.072  29.040  1.00  0.00     0.004 C 
ENDBRANCH  14  15
ENDBRANCH  13  14
ENDBRANCH  12  13
ENDBRANCH  11  12
ENDBRANCH  10  11
ENDBRANCH   1  10
TORSDOF 12
ENDMDL
MODEL 3
REMARK VINA RESULT:    -5.149      1.369      2.141
REMARK INTER + INTRA:          -9.883
REMARK INTER:                  -8.991
REMARK INTRA:                  -0.892
REMARK UNBOUND:                -1.122
REMARK SMILES CCCCCCCCCCCCCC(=O)[O-]
REMARK SMILES IDX 8 1 9 2 10 3 11 4 12 5 13 6 14 7 15 8 16 9 7 10 6 11 5 12
REMARK SMILES IDX 4 13 3 14 2 15 1 16
REMARK H PARENT
REMARK Flexibility Score: inf
ROOT
ATOM      1  C   UNL     1      13.002 -11.798  24.982  1.00  0.00     0.000 C 
ENDROOT
BRANCH   1   2
ATOM      2  C   UNL     1      14.175 -12.451  25.733  1.00  0.00     0.000 C 
BRANCH   2   3
ATOM      3  C   UNL     1      13.710 -13.284  26.938  1.00  0.00     0.000 C 
BRANCH   3   4
ATOM      4  C   UNL     1      14.621 -14.493  27.206  1.00  0.00     0.000 C 
BRANCH   4   5
ATOM      5  C   UNL     1      14.979 -15.274  25.928  1.00  0.00     0.006 C 
BRANCH   5   6
ATOM      6  C   UNL     1      16.488 -15.327  25.632  1.00  0.00     0.053 C 
BRANCH   6   7
ATOM      7  C   UNL     1      16.820 -14.845  24.253  1.00  0.00     0.041 C 
ATOM      8  O   UNL     1      18.017 -14.623  23.930  1.00  0.00    -0.550 OA
ATOM      9  O   UNL     1      15.807 -14.604  23.333  1.00  0.00    -0.550 OA
ENDBRANCH   6   7
ENDBRANCH   5   6
ENDBRANCH   4   5
ENDBRANCH   3   4
ENDBRANCH   2   3
ENDBRANCH   1   2
BRANCH   1  10
ATOM     10  C   UNL     1      11.710 -12.625  25.071  1.00  0.00     0.000 C 
BRANCH  10  11
ATOM     11  C   UNL     1      10.475 -11.843  24.593  1.00  0.00    -0.000 C 
BRANCH  11  12
ATOM     12  C   UNL     1       9.416 -11.680  25.695  1.00  0.00    -0.000 C 
BRANCH  12  13
ATOM     13  C   UNL     1       8.527 -12.926  25.850  1.00  0.00    -0.000 C 
BRANCH  13  14
ATOM     14  C   UNL     1       8.204 -13.230  27.328  1.00  0.00    -0.000 C 
BRANCH  14  15
ATOM     15  C   UNL     1       9.167 -12.554  28.319  1.00  0.00    -0.003 C 
ATOM     16  C   UNL     1       8.505 -12.198  29.649  1.00  0.00     0.004 C 
ENDBRANCH  14  15
ENDBRANCH  13  14
ENDBRANCH  12  13
ENDBRANCH  11  12
ENDBRANCH  10  11
ENDBRANCH   1  10
TORSDOF 12
ENDMDL
MODEL 4
REMARK VINA RESULT:    -5.037      2.749      6.047
REMARK INTER + INTRA:          -9.692
REMARK INTER:                  -9.037
REMARK INTRA:                  -0.656
REMARK UNBOUND:                -1.122
REMARK SMILES CCCCCCCCCCCCCC(=O)[O-]
REMARK SMILES IDX 8 1 9 2 10 3 11 4 12 5 13 6 14 7 15 8 16 9 7 10 6 11 5 12
REMARK SMILES IDX 4 13 3 14 2 15 1 16
REMARK H PARENT
REMARK Flexibility Score: inf
ROOT
ATOM      1  C   UNL     1      10.307 -13.014  28.763  1.00  0.00     0.000 C 
ENDROOT
BRANCH   1   2
ATOM      2  C   UNL     1       8.847 -12.530  28.786  1.00  0.00     0.000 C 
BRANCH   2   3
ATOM      3  C   UNL     1       7.952 -13.316  27.815  1.00  0.00     0.000 C 
BRANCH   3   4
ATOM      4  C   UNL     1       8.447 -13.236  26.362  1.00  0.00     0.000 C 
BRANCH   4   5
ATOM      5  C   UNL     1       8.911 -11.824  25.958  1.00  0.00     0.006 C 
BRANCH   5   6
ATOM      6  C   UNL     1      10.303 -11.788  25.303  1.00  0.00     0.053 C 
BRANCH   6   7
ATOM      7  C   UNL     1      10.317 -12.435  23.951  1.00  0.00     0.041 C 
ATOM      8  O   UNL     1       9.461 -12.112  23.085  1.00  0.00    -0.550 OA
ATOM      9  O   UNL     1      11.250 -13.421  23.657  1.00  0.00    -0.550 OA
ENDBRANCH   6   7
ENDBRANCH   5   6
ENDBRANCH   4   5
ENDBRANCH   3   4
ENDBRANCH   2   3
ENDBRANCH   1   2
BRANCH   1  10
ATOM     10  C   UNL     1      10.830 -13.376  30.162  1.00  0.00     0.000 C 
BRANCH  10  11
ATOM     11  C   UNL     1      12.325 -13.739  30.156  1.00  0.00    -0.000 C 
BRANCH  11  12
ATOM     12  C   UNL     1      12.937 -13.699  28.747  1.00  0.00    -0.000 C 
BRANCH  12  13
ATOM     13  C   UNL     1      14.419 -13.283  28.757  1.00  0.00    -0.000 C 
BRANCH  13  14
ATOM     14  C   UNL     1      14.883 -12.751  27.384  1.00  0.00    -0.000 C 
BRANCH  14  15
ATOM     15  C   UNL     1      15.594 -13.809  26.523  1.00  0.00    -0.003 C 
ATOM     16  C   UNL     1      16.542 -14.696  27.328  1.00  0.00     0.004 C 
ENDBRANCH  14  15
ENDBRANCH  13  14
ENDBRANCH  12  13
ENDBRANCH  11  12
ENDBRANCH  10  11
ENDBRANCH   1  10
TORSDOF 12
ENDMDL
MODEL 5
REMARK VINA RESULT:    -5.021      1.771      2.390
REMARK INTER + INTRA:          -9.666
REMARK INTER:                  -8.787
REMARK INTRA:                  -0.880
REMARK UNBOUND:                -1.122
REMARK SMILES CCCCCCCCCCCCCC(=O)[O-]
REMARK SMILES IDX 8 1 9 2 10 3 11 4 12 5 13 6 14 7 15 8 16 9 7 10 6 11 5 12
REMARK SMILES IDX 4 13 3 14 2 15 1 16
REMARK H PARENT
REMARK Flexibility Score: inf
ROOT
ATOM      1  C   UNL     1      11.950 -12.971  23.905  1.00  0.00     0.000 C 
ENDROOT
BRANCH   1   2
ATOM      2  C   UNL     1      13.276 -12.323  23.471  1.00  0.00     0.000 C 
BRANCH   2   3
ATOM      3  C   UNL     1      14.448 -12.715  24.384  1.00  0.00     0.000 C 
BRANCH   3   4
ATOM      4  C   UNL     1      15.081 -14.059  23.987  1.00  0.00     0.000 C 
BRANCH   4   5
ATOM      5  C   UNL     1      15.600 -14.862  25.194  1.00  0.00     0.006 C 
BRANCH   5   6
ATOM      6  C   UNL     1      14.545 -15.093  26.290  1.00  0.00     0.053 C 
BRANCH   6   7
ATOM      7  C   UNL     1      14.783 -14.247  27.504  1.00  0.00     0.041 C 
ATOM      8  O   UNL     1      15.955 -14.070  27.932  1.00  0.00    -0.550 OA
ATOM      9  O   UNL     1      13.712 -13.684  28.185  1.00  0.00    -0.550 OA
ENDBRANCH   6   7
ENDBRANCH   5   6
ENDBRANCH   4   5
ENDBRANCH   3   4
ENDBRANCH   2   3
ENDBRANCH   1   2
BRANCH   1  10
ATOM     10  C   UNL     1      11.332 -12.286  25.134  1.00  0.00     0.000 C 
BRANCH  10  11
ATOM     11  C   UNL     1      10.087 -11.455  24.782  1.00  0.00    -0.000 C 
BRANCH  11  12
ATOM     12  C   UNL     1       8.963 -11.607  25.819  1.00  0.00    -0.000 C 
BRANCH  12  13
ATOM     13  C   UNL     1       8.579 -13.077  26.065  1.00  0.00    -0.000 C 
BRANCH  13  14
ATOM     14  C   UNL     1       8.200 -13.341  27.538  1.00  0.00    -0.000 C 
BRANCH  14  15
ATOM     15  C   UNL     1       9.076 -12.577  28.545  1.00  0.00    -0.003 C 
ATOM     16  C   UNL     1       8.272 -11.949  29.681  1.00  0.00     0.004 C 
ENDBRANCH  14  15
ENDBRANCH  13  14
ENDBRANCH  12  13
ENDBRANCH  11  12
ENDBRANCH  10  11
ENDBRANCH   1  10
TORSDOF 12
ENDMDL
MODEL 6
REMARK VINA RESULT:    -4.969      2.117      4.005
REMARK INTER + INTRA:          -9.577
REMARK INTER:                  -8.683
REMARK INTRA:                  -0.894
REMARK UNBOUND:                -1.122
REMARK SMILES CCCCCCCCCCCCCC(=O)[O-]
REMARK SMILES IDX 8 1 9 2 10 3 11 4 12 5 13 6 14 7 15 8 16 9 7 10 6 11 5 12
REMARK SMILES IDX 4 13 3 14 2 15 1 16
REMARK H PARENT
REMARK Flexibility Score: inf
ROOT
ATOM      1  C   UNL     1      12.981 -13.616  28.477  1.00  0.00     0.000 C 
ENDROOT
BRANCH   1   2
ATOM      2  C   UNL     1      14.468 -13.355  28.772  1.00  0.00     0.000 C 
BRANCH   2   3
ATOM      3  C   UNL     1      15.322 -13.310  27.495  1.00  0.00     0.000 C 
BRANCH   3   4
ATOM      4  C   UNL     1      15.590 -14.709  26.916  1.00  0.00     0.000 C 
BRANCH   4   5
ATOM      5  C   UNL     1      14.538 -15.145  25.879  1.00  0.00     0.006 C 
BRANCH   5   6
ATOM      6  C   UNL     1      14.462 -14.228  24.646  1.00  0.00     0.053 C 
BRANCH   6   7
ATOM      7  C   UNL     1      13.171 -13.471  24.572  1.00  0.00     0.041 C 
ATOM      8  O   UNL     1      12.132 -14.031  24.132  1.00  0.00    -0.550 OA
ATOM      9  O   UNL     1      13.120 -12.136  24.953  1.00  0.00    -0.550 OA
ENDBRANCH   6   7
ENDBRANCH   5   6
ENDBRANCH   4   5
ENDBRANCH   3   4
ENDBRANCH   2   3
ENDBRANCH   1   2
BRANCH   1  10
ATOM     10  C   UNL     1      12.117 -13.603  29.747  1.00  0.00     0.000 C 
BRANCH  10  11
ATOM     11  C   UNL     1      10.623 -13.815  29.446  1.00  0.00    -0.000 C 
BRANCH  11  12
ATOM     12  C   UNL     1       9.745 -12.672  29.978  1.00  0.00    -0.000 C 
BRANCH  12  13
ATOM     13  C   UNL     1       8.669 -12.233  28.969  1.00  0.00    -0.000 C 
BRANCH  13  14
ATOM     14  C   UNL     1       8.126 -13.420  28.144  1.00  0.00    -0.000 C 
BRANCH  14  15
ATOM     15  C   UNL     1       8.335 -13.260  26.628  1.00  0.00    -0.003 C 
ATOM     16  C   UNL     1       9.368 -12.192  26.276  1.00  0.00     0.004 C 
ENDBRANCH  14  15
ENDBRANCH  13  14
ENDBRANCH  12  13
ENDBRANCH  11  12
ENDBRANCH  10  11
ENDBRANCH   1  10
TORSDOF 12
ENDMDL
MODEL 7
REMARK VINA RESULT:    -4.810      2.583      3.479
REMARK INTER + INTRA:          -9.306
REMARK INTER:                  -8.552
REMARK INTRA:                  -0.754
REMARK UNBOUND:                -1.122
REMARK SMILES CCCCCCCCCCCCCC(=O)[O-]
REMARK SMILES IDX 8 1 9 2 10 3 11 4 12 5 13 6 14 7 15 8 16 9 7 10 6 11 5 12
REMARK SMILES IDX 4 13 3 14 2 15 1 16
REMARK H PARENT
REMARK Flexibility Score: inf
ROOT
ATOM      1  C   UNL     1      13.055 -11.871  24.808  1.00  0.00     0.000 C 
ENDROOT
BRANCH   1   2
ATOM      2  C   UNL     1      14.367 -12.377  25.431  1.00  0.00     0.000 C 
BRANCH   2   3
ATOM      3  C   UNL     1      14.147 -13.064  26.788  1.00  0.00     0.000 C 
BRANCH   3   4
ATOM      4  C   UNL     1      15.468 -13.404  27.497  1.00  0.00     0.000 C 
BRANCH   4   5
ATOM      5  C   UNL     1      15.539 -12.858  28.936  1.00  0.00     0.006 C 
BRANCH   5   6
ATOM      6  C   UNL     1      16.952 -12.436  29.373  1.00  0.00     0.053 C 
BRANCH   6   7
ATOM      7  C   UNL     1      16.943 -11.604  30.619  1.00  0.00     0.041 C 
ATOM      8  O   UNL     1      17.379 -12.079  31.701  1.00  0.00    -0.550 OA
ATOM      9  O   UNL     1      16.419 -10.317  30.598  1.00  0.00    -0.550 OA
ENDBRANCH   6   7
ENDBRANCH   5   6
ENDBRANCH   4   5
ENDBRANCH   3   4
ENDBRANCH   2   3
ENDBRANCH   1   2
BRANCH   1  10
ATOM     10  C   UNL     1      11.824 -12.632  25.326  1.00  0.00     0.000 C 
BRANCH  10  11
ATOM     11  C   UNL     1      10.667 -12.643  24.311  1.00  0.00    -0.000 C 
BRANCH  11  12
ATOM     12  C   UNL     1       9.724 -11.441  24.478  1.00  0.00    -0.000 C 
BRANCH  12  13
ATOM     13  C   UNL     1       8.919 -11.499  25.789  1.00  0.00    -0.000 C 
BRANCH  13  14
ATOM     14  C   UNL     1       8.343 -12.906  26.056  1.00  0.00    -0.000 C 
BRANCH  14  15
ATOM     15  C   UNL     1       8.380 -13.313  27.539  1.00  0.00    -0.003 C 
ATOM     16  C   UNL     1       9.521 -12.655  28.312  1.00  0.00     0.004 C 
ENDBRANCH  14  15
ENDBRANCH  13  14
ENDBRANCH  12  13
ENDBRANCH  11  12
ENDBRANCH  10  11
ENDBRANCH   1  10
TORSDOF 12
ENDMDL
MODEL 8
REMARK VINA RESULT:    -4.810      3.467      7.013
REMARK INTER + INTRA:          -9.306
REMARK INTER:                  -8.623
REMARK INTRA:                  -0.683
REMARK UNBOUND:                -1.122
REMARK SMILES CCCCCCCCCCCCCC(=O)[O-]
REMARK SMILES IDX 8 1 9 2 10 3 11 4 12 5 13 6 14 7 15 8 16 9 7 10 6 11 5 12
REMARK SMILES IDX 4 13 3 14 2 15 1 16
REMARK H PARENT
REMARK Flexibility Score: inf
ROOT
ATOM      1  C   UNL     1      12.205 -12.264  25.083  1.00  0.00     0.000 C 
ENDROOT
BRANCH   1   2
ATOM      2  C   UNL     1      10.846 -12.620  24.454  1.00  0.00     0.000 C 
BRANCH   2   3
ATOM      3  C   UNL     1       9.828 -11.474  24.567  1.00  0.00     0.000 C 
BRANCH   3   4
ATOM      4  C   UNL     1       8.818 -11.694  25.705  1.00  0.00     0.000 C 
BRANCH   4   5
ATOM      5  C   UNL     1       8.769 -13.153  26.196  1.00  0.00     0.006 C 
BRANCH   5   6
ATOM      6  C   UNL     1       8.111 -13.324  27.576  1.00  0.00     0.053 C 
BRANCH   6   7
ATOM      7  C   UNL     1       8.861 -12.612  28.661  1.00  0.00     0.041 C 
ATOM      8  O   UNL     1      10.099 -12.797  28.803  1.00  0.00    -0.550 OA
ATOM      9  O   UNL     1       8.189 -11.773  29.541  1.00  0.00    -0.550 OA
ENDBRANCH   6   7
ENDBRANCH   5   6
ENDBRANCH   4   5
ENDBRANCH   3   4
ENDBRANCH   2   3
ENDBRANCH   1   2
BRANCH   1  10
ATOM     10  C   UNL     1      13.247 -13.380  24.906  1.00  0.00     0.000 C 
BRANCH  10  11
ATOM     11  C   UNL     1      14.307 -13.033  23.846  1.00  0.00    -0.000 C 
BRANCH  11  12
ATOM     12  C   UNL     1      15.395 -14.112  23.725  1.00  0.00    -0.000 C 
BRANCH  12  13
ATOM     13  C   UNL     1      15.373 -15.108  24.898  1.00  0.00    -0.000 C 
BRANCH  13  14
ATOM     14  C   UNL     1      16.756 -15.246  25.570  1.00  0.00    -0.000 C 
BRANCH  14  15
ATOM     15  C   UNL     1      17.926 -15.259  24.571  1.00  0.00    -0.003 C 
ATOM     16  C   UNL     1      18.629 -16.613  24.491  1.00  0.00     0.004 C 
ENDBRANCH  14  15
ENDBRANCH  13  14
ENDBRANCH  12  13
ENDBRANCH  11  12
ENDBRANCH  10  11
ENDBRANCH   1  10
TORSDOF 12
ENDMDL
MODEL 9
REMARK VINA RESULT:    -4.760      3.222      6.067
REMARK INTER + INTRA:          -9.221
REMARK INTER:                  -8.331
REMARK INTRA:                  -0.890
REMARK UNBOUND:                -1.122
REMARK SMILES CCCCCCCCCCCCCC(=O)[O-]
REMARK SMILES IDX 8 1 9 2 10 3 11 4 12 5 13 6 14 7 15 8 16 9 7 10 6 11 5 12
REMARK SMILES IDX 4 13 3 14 2 15 1 16
REMARK H PARENT
REMARK Flexibility Score: inf
ROOT
ATOM      1  C   UNL     1      12.381 -11.865  24.996  1.00  0.00     0.000 C 
ENDROOT
BRANCH   1   2
ATOM      2  C   UNL     1      11.272 -12.863  24.621  1.00  0.00     0.000 C 
BRANCH   2   3
ATOM      3  C   UNL     1       9.957 -12.165  24.239  1.00  0.00     0.000 C 
BRANCH   3   4
ATOM      4  C   UNL     1       9.053 -11.905  25.455  1.00  0.00     0.000 C 
BRANCH   4   5
ATOM      5  C   UNL     1       9.611 -12.502  26.761  1.00  0.00     0.006 C 
BRANCH   5   6
ATOM      6  C   UNL     1       8.699 -12.290  27.982  1.00  0.00     0.053 C 
BRANCH   6   7
ATOM      7  C   UNL     1       9.381 -12.630  29.273  1.00  0.00     0.041 C 
ATOM      8  O   UNL     1       8.894 -12.241  30.368  1.00  0.00    -0.550 OA
ATOM      9  O   UNL     1      10.572 -13.343  29.268  1.00  0.00    -0.550 OA
ENDBRANCH   6   7
ENDBRANCH   5   6
ENDBRANCH   4   5
ENDBRANCH   3   4
ENDBRANCH   2   3
ENDBRANCH   1   2
BRANCH   1  10
ATOM     10  C   UNL     1      13.756 -12.537  25.138  1.00  0.00     0.000 C 
BRANCH  10  11
ATOM     11  C   UNL     1      13.649 -14.055  25.364  1.00  0.00    -0.000 C 
BRANCH  11  12
ATOM     12  C   UNL     1      14.385 -14.515  26.633  1.00  0.00    -0.000 C 
BRANCH  12  13
ATOM     13  C   UNL     1      14.358 -13.457  27.750  1.00  0.00    -0.000 C 
BRANCH  13  14
ATOM     14  C   UNL     1      15.731 -13.301  28.438  1.00  0.00    -0.000 C 
BRANCH  14  15
ATOM     15  C   UNL     1      16.509 -12.054  27.983  1.00  0.00    -0.003 C 
ATOM     16  C   UNL     1      17.197 -12.238  26.632  1.00  0.00     0.004 C 
ENDBRANCH  14  15
ENDBRANCH  13  14
ENDBRANCH  12  13
ENDBRANCH  11  12
ENDBRANCH  10  11
ENDBRANCH   1  10
TORSDOF 12
ENDMDL
