MODEL 1
REMARK VINA RESULT:    -5.794      0.000      0.000
REMARK INTER + INTRA:          -6.845
REMARK INTER:                  -6.979
REMARK INTRA:                   0.134
REMARK UNBOUND:                 0.134
REMARK SMILES O=c1c(O)c(-c2ccc(O)c(O)c2)oc2cc(O)cc(O)c12
REMARK SMILES IDX 5 1 3 2 2 3 1 4 22 5 20 6 19 7 17 8 16 9 15 10 14 11 6 12
REMARK SMILES IDX 7 13 8 14 9 15 13 16 11 17 10 18 12 20 4 22 21 24 18 26
REMARK H PARENT 10 19 12 21 4 23 21 25 18 27
REMARK Flexibility Score: inf
ROOT
ATOM      1  C   UNL     1      -6.897   3.630  -4.649  1.00  0.00     0.180 A 
ATOM      2  C   UNL     1      -7.306   2.884  -3.530  1.00  0.00     0.208 A 
ATOM      3  C   UNL     1      -7.221   3.468  -2.255  1.00  0.00     0.238 A 
ATOM      4  O   UNL     1      -7.640   2.816  -1.263  1.00  0.00    -0.285 OA
ATOM      5  C   UNL     1      -6.716   4.782  -2.113  1.00  0.00     0.111 A 
ATOM      6  C   UNL     1      -6.550   5.457  -0.867  1.00  0.00     0.134 A 
ATOM      7  C   UNL     1      -6.163   6.803  -0.856  1.00  0.00     0.093 A 
ATOM      8  C   UNL     1      -5.875   7.480  -2.044  1.00  0.00     0.123 A 
ATOM      9  C   UNL     1      -5.977   6.812  -3.262  1.00  0.00     0.094 A 
ATOM     10  C   UNL     1      -6.395   5.479  -3.308  1.00  0.00     0.146 A 
ATOM     11  O   UNL     1      -6.489   4.884  -4.490  1.00  0.00    -0.452 OA
ENDROOT
BRANCH   1  12
ATOM     12  C   UNL     1      -6.932   3.075  -6.021  1.00  0.00     0.025 A 
ATOM     13  C   UNL     1      -8.063   2.363  -6.450  1.00  0.00     0.016 A 
ATOM     14  C   UNL     1      -8.126   1.848  -7.747  1.00  0.00     0.051 A 
ATOM     15  C   UNL     1      -7.064   2.051  -8.639  1.00  0.00     0.157 A 
ATOM     16  C   UNL     1      -5.877   3.294  -6.927  1.00  0.00     0.062 A 
ATOM     17  C   UNL     1      -5.940   2.778  -8.229  1.00  0.00     0.158 A 
BRANCH  15  18
ATOM     18  O   UNL     1      -7.122   1.536  -9.933  1.00  0.00    -0.504 OA
ATOM     19  H   UNL     1      -6.481   1.844 -10.655  1.00  0.00     0.293 HD
ENDBRANCH  15  18
BRANCH  17  20
ATOM     20  O   UNL     1      -4.892   2.990  -9.123  1.00  0.00    -0.504 OA
ATOM     21  H   UNL     1      -4.294   3.806  -9.056  1.00  0.00     0.293 HD
ENDBRANCH  17  20
ENDBRANCH   1  12
BRANCH   2  22
ATOM     22  O   UNL     1      -7.822   1.597  -3.695  1.00  0.00    -0.502 OA
ATOM     23  H   UNL     1      -8.818   1.410  -3.728  1.00  0.00     0.293 HD
ENDBRANCH   2  22
BRANCH   6  24
ATOM     24  O   UNL     1      -6.723   4.847   0.380  1.00  0.00    -0.507 OA
ATOM     25  H   UNL     1      -6.714   3.851   0.538  1.00  0.00     0.293 HD
ENDBRANCH   6  24
BRANCH   8  26
ATOM     26  O   UNL     1      -5.476   8.814  -2.023  1.00  0.00    -0.508 OA
ATOM     27  H   UNL     1      -5.273   9.319  -2.878  1.00  0.00     0.293 HD
ENDBRANCH   8  26
TORSDOF 6
ENDMDL
MODEL 2
REMARK VINA RESULT:    -5.789      1.190      2.869
REMARK INTER + INTRA:          -6.839
REMARK INTER:                  -6.943
REMARK INTRA:                   0.104
REMARK UNBOUND:                 0.134
REMARK SMILES O=c1c(O)c(-c2ccc(O)c(O)c2)oc2cc(O)cc(O)c12
REMARK SMILES IDX 5 1 3 2 2 3 1 4 22 5 20 6 19 7 17 8 16 9 15 10 14 11 6 12
REMARK SMILES IDX 7 13 8 14 9 15 13 16 11 17 10 18 12 20 4 22 21 24 18 26
REMARK H PARENT 10 19 12 21 4 23 21 25 18 27
REMARK Flexibility Score: inf
ROOT
ATOM      1  C   UNL     1      -6.639   4.215  -5.071  1.00  0.00     0.180 A 
ATOM      2  C   UNL     1      -6.187   5.545  -5.007  1.00  0.00     0.208 A 
ATOM      3  C   UNL     1      -6.139   6.188  -3.759  1.00  0.00     0.238 A 
ATOM      4  O   UNL     1      -5.681   7.359  -3.701  1.00  0.00    -0.285 OA
ATOM      5  C   UNL     1      -6.556   5.500  -2.595  1.00  0.00     0.111 A 
ATOM      6  C   UNL     1      -6.586   6.066  -1.285  1.00  0.00     0.134 A 
ATOM      7  C   UNL     1      -6.894   5.253  -0.188  1.00  0.00     0.093 A 
ATOM      8  C   UNL     1      -7.237   3.910  -0.359  1.00  0.00     0.123 A 
ATOM      9  C   UNL     1      -7.268   3.363  -1.640  1.00  0.00     0.094 A 
ATOM     10  C   UNL     1      -6.930   4.139  -2.752  1.00  0.00     0.146 A 
ATOM     11  O   UNL     1      -6.962   3.576  -3.953  1.00  0.00    -0.452 OA
ENDROOT
BRANCH   1  12
ATOM     12  C   UNL     1      -6.744   3.480  -6.351  1.00  0.00     0.025 A 
ATOM     13  C   UNL     1      -7.911   2.753  -6.638  1.00  0.00     0.016 A 
ATOM     14  C   UNL     1      -8.040   2.068  -7.849  1.00  0.00     0.051 A 
ATOM     15  C   UNL     1      -7.009   2.112  -8.797  1.00  0.00     0.157 A 
ATOM     16  C   UNL     1      -5.721   3.537  -7.316  1.00  0.00     0.062 A 
ATOM     17  C   UNL     1      -5.850   2.851  -8.532  1.00  0.00     0.158 A 
BRANCH  15  18
ATOM     18  O   UNL     1      -7.133   1.428 -10.005  1.00  0.00    -0.504 OA
ATOM     19  H   UNL     1      -7.434   0.462 -10.039  1.00  0.00     0.293 HD
ENDBRANCH  15  18
BRANCH  17  20
ATOM     20  O   UNL     1      -4.833   2.905  -9.483  1.00  0.00    -0.504 OA
ATOM     21  H   UNL     1      -4.107   3.611  -9.445  1.00  0.00     0.293 HD
ENDBRANCH  17  20
ENDBRANCH   1  12
BRANCH   2  22
ATOM     22  O   UNL     1      -5.758   6.197  -6.165  1.00  0.00    -0.502 OA
ATOM     23  H   UNL     1      -5.338   5.704  -6.944  1.00  0.00     0.293 HD
ENDBRANCH   2  22
BRANCH   6  24
ATOM     24  O   UNL     1      -6.351   7.418  -1.014  1.00  0.00    -0.507 OA
ATOM     25  H   UNL     1      -5.496   7.786  -0.626  1.00  0.00     0.293 HD
ENDBRANCH   6  24
BRANCH   8  26
ATOM     26  O   UNL     1      -7.557   3.111   0.736  1.00  0.00    -0.508 OA
ATOM     27  H   UNL     1      -8.274   2.398   0.680  1.00  0.00     0.293 HD
ENDBRANCH   8  26
TORSDOF 6
ENDMDL
MODEL 3
REMARK VINA RESULT:    -5.736     10.701     13.322
REMARK INTER + INTRA:          -6.776
REMARK INTER:                  -6.451
REMARK INTRA:                  -0.325
REMARK UNBOUND:                 0.134
REMARK SMILES O=c1c(O)c(-c2ccc(O)c(O)c2)oc2cc(O)cc(O)c12
REMARK SMILES IDX 5 1 3 2 2 3 1 4 22 5 20 6 19 7 17 8 16 9 15 10 14 11 6 12
REMARK SMILES IDX 7 13 8 14 9 15 13 16 11 17 10 18 12 20 4 22 21 24 18 26
REMARK H PARENT 10 19 12 21 4 23 21 25 18 27
REMARK Flexibility Score: inf
ROOT
ATOM      1  C   UNL     1       4.967   4.354  -4.301  1.00  0.00     0.180 A 
ATOM      2  C   UNL     1       5.469   3.044  -4.207  1.00  0.00     0.208 A 
ATOM      3  C   UNL     1       5.376   2.198  -5.325  1.00  0.00     0.238 A 
ATOM      4  O   UNL     1       5.877   1.045  -5.252  1.00  0.00    -0.285 OA
ATOM      5  C   UNL     1       4.771   2.665  -6.515  1.00  0.00     0.111 A 
ATOM      6  C   UNL     1       4.588   1.882  -7.694  1.00  0.00     0.134 A 
ATOM      7  C   UNL     1       4.094   2.487  -8.855  1.00  0.00     0.093 A 
ATOM      8  C   UNL     1       3.714   3.832  -8.863  1.00  0.00     0.123 A 
ATOM      9  C   UNL     1       3.833   4.589  -7.700  1.00  0.00     0.094 A 
ATOM     10  C   UNL     1       4.357   4.024  -6.535  1.00  0.00     0.146 A 
ATOM     11  O   UNL     1       4.463   4.783  -5.452  1.00  0.00    -0.452 OA
ENDROOT
BRANCH   1  12
ATOM     12  C   UNL     1       5.004   5.295  -3.160  1.00  0.00     0.025 A 
ATOM     13  C   UNL     1       6.021   6.261  -3.094  1.00  0.00     0.016 A 
ATOM     14  C   UNL     1       6.065   7.174  -2.036  1.00  0.00     0.051 A 
ATOM     15  C   UNL     1       5.082   7.142  -1.038  1.00  0.00     0.157 A 
ATOM     16  C   UNL     1       4.009   5.282  -2.165  1.00  0.00     0.062 A 
ATOM     17  C   UNL     1       4.051   6.198  -1.104  1.00  0.00     0.158 A 
BRANCH  15  18
ATOM     18  O   UNL     1       5.123   8.049   0.021  1.00  0.00    -0.504 OA
ATOM     19  H   UNL     1       6.001   8.356   0.422  1.00  0.00     0.293 HD
ENDBRANCH  15  18
BRANCH  17  20
ATOM     20  O   UNL     1       3.068   6.178  -0.117  1.00  0.00    -0.504 OA
ATOM     21  H   UNL     1       2.143   5.804  -0.296  1.00  0.00     0.293 HD
ENDBRANCH  17  20
ENDBRANCH   1  12
BRANCH   2  22
ATOM     22  O   UNL     1       6.083   2.610  -3.030  1.00  0.00    -0.502 OA
ATOM     23  H   UNL     1       5.598   2.055  -2.335  1.00  0.00     0.293 HD
ENDBRANCH   2  22
BRANCH   6  24
ATOM     24  O   UNL     1       4.848   0.510  -7.767  1.00  0.00    -0.507 OA
ATOM     25  H   UNL     1       5.769   0.099  -7.769  1.00  0.00     0.293 HD
ENDBRANCH   6  24
BRANCH   8  26
ATOM     26  O   UNL     1       3.209   4.422 -10.019  1.00  0.00    -0.508 OA
ATOM     27  H   UNL     1       2.540   3.943 -10.609  1.00  0.00     0.293 HD
ENDBRANCH   8  26
TORSDOF 6
ENDMDL
MODEL 4
REMARK VINA RESULT:    -5.637     10.028     11.743
REMARK INTER + INTRA:          -6.656
REMARK INTER:                  -6.449
REMARK INTRA:                  -0.207
REMARK UNBOUND:                 0.134
REMARK SMILES O=c1c(O)c(-c2ccc(O)c(O)c2)oc2cc(O)cc(O)c12
REMARK SMILES IDX 5 1 3 2 2 3 1 4 22 5 20 6 19 7 17 8 16 9 15 10 14 11 6 12
REMARK SMILES IDX 7 13 8 14 9 15 13 16 11 17 10 18 12 20 4 22 21 24 18 26
REMARK H PARENT 10 19 12 21 4 23 21 25 18 27
REMARK Flexibility Score: inf
ROOT
ATOM      1  C   UNL     1      -4.295  -4.208   2.409  1.00  0.00     0.180 A 
ATOM      2  C   UNL     1      -3.030  -4.798   2.576  1.00  0.00     0.208 A 
ATOM      3  C   UNL     1      -2.544  -5.010   3.878  1.00  0.00     0.238 A 
ATOM      4  O   UNL     1      -1.436  -5.588   4.021  1.00  0.00    -0.285 OA
ATOM      5  C   UNL     1      -3.322  -4.616   4.993  1.00  0.00     0.111 A 
ATOM      6  C   UNL     1      -2.912  -4.747   6.353  1.00  0.00     0.134 A 
ATOM      7  C   UNL     1      -3.816  -4.444   7.379  1.00  0.00     0.093 A 
ATOM      8  C   UNL     1      -5.092  -3.954   7.094  1.00  0.00     0.123 A 
ATOM      9  C   UNL     1      -5.480  -3.766   5.769  1.00  0.00     0.094 A 
ATOM     10  C   UNL     1      -4.614  -4.094   4.723  1.00  0.00     0.146 A 
ATOM     11  O   UNL     1      -5.027  -3.910   3.475  1.00  0.00    -0.452 OA
ENDROOT
BRANCH   1  12
ATOM     12  C   UNL     1      -4.863  -3.929   1.071  1.00  0.00     0.025 A 
ATOM     13  C   UNL     1      -4.949  -2.602   0.619  1.00  0.00     0.016 A 
ATOM     14  C   UNL     1      -5.462  -2.316  -0.648  1.00  0.00     0.051 A 
ATOM     15  C   UNL     1      -5.883  -3.355  -1.488  1.00  0.00     0.157 A 
ATOM     16  C   UNL     1      -5.268  -4.969   0.215  1.00  0.00     0.062 A 
ATOM     17  C   UNL     1      -5.783  -4.684  -1.059  1.00  0.00     0.158 A 
BRANCH  15  18
ATOM     18  O   UNL     1      -6.399  -3.075  -2.753  1.00  0.00    -0.504 OA
ATOM     19  H   UNL     1      -7.385  -2.894  -2.895  1.00  0.00     0.293 HD
ENDBRANCH  15  18
BRANCH  17  20
ATOM     20  O   UNL     1      -6.189  -5.715  -1.902  1.00  0.00    -0.504 OA
ATOM     21  H   UNL     1      -7.152  -6.030  -1.930  1.00  0.00     0.293 HD
ENDBRANCH  17  20
ENDBRANCH   1  12
BRANCH   2  22
ATOM     22  O   UNL     1      -2.289  -5.199   1.462  1.00  0.00    -0.502 OA
ATOM     23  H   UNL     1      -2.673  -5.799   0.741  1.00  0.00     0.293 HD
ENDBRANCH   2  22
BRANCH   6  24
ATOM     24  O   UNL     1      -1.629  -5.140   6.747  1.00  0.00    -0.507 OA
ATOM     25  H   UNL     1      -1.067  -4.662   7.435  1.00  0.00     0.293 HD
ENDBRANCH   6  24
BRANCH   8  26
ATOM     26  O   UNL     1      -5.980  -3.640   8.121  1.00  0.00    -0.508 OA
ATOM     27  H   UNL     1      -6.956  -3.441   7.934  1.00  0.00     0.293 HD
ENDBRANCH   8  26
TORSDOF 6
ENDMDL
MODEL 5
REMARK VINA RESULT:    -5.452      9.090     12.030
REMARK INTER + INTRA:          -6.433
REMARK INTER:                  -6.233
REMARK INTRA:                  -0.200
REMARK UNBOUND:                 0.134
REMARK SMILES O=c1c(O)c(-c2ccc(O)c(O)c2)oc2cc(O)cc(O)c12
REMARK SMILES IDX 5 1 3 2 2 3 1 4 22 5 20 6 19 7 17 8 16 9 15 10 14 11 6 12
REMARK SMILES IDX 7 13 8 14 9 15 13 16 11 17 10 18 12 20 4 22 21 24 18 26
REMARK H PARENT 10 19 12 21 4 23 21 25 18 27
REMARK Flexibility Score: inf
ROOT
ATOM      1  C   UNL     1      -4.382  -4.214   1.911  1.00  0.00     0.180 A 
ATOM      2  C   UNL     1      -4.490  -5.349   1.088  1.00  0.00     0.208 A 
ATOM      3  C   UNL     1      -5.202  -5.248  -0.119  1.00  0.00     0.238 A 
ATOM      4  O   UNL     1      -5.248  -6.251  -0.877  1.00  0.00    -0.285 OA
ATOM      5  C   UNL     1      -5.808  -4.021  -0.480  1.00  0.00     0.111 A 
ATOM      6  C   UNL     1      -6.585  -3.817  -1.660  1.00  0.00     0.134 A 
ATOM      7  C   UNL     1      -7.027  -2.528  -1.980  1.00  0.00     0.093 A 
ATOM      8  C   UNL     1      -6.776  -1.447  -1.132  1.00  0.00     0.123 A 
ATOM      9  C   UNL     1      -6.070  -1.648   0.052  1.00  0.00     0.094 A 
ATOM     10  C   UNL     1      -5.583  -2.915   0.382  1.00  0.00     0.146 A 
ATOM     11  O   UNL     1      -4.906  -3.061   1.513  1.00  0.00    -0.452 OA
ENDROOT
BRANCH   1  12
ATOM     12  C   UNL     1      -3.671  -4.248   3.209  1.00  0.00     0.025 A 
ATOM     13  C   UNL     1      -2.272  -4.358   3.229  1.00  0.00     0.016 A 
ATOM     14  C   UNL     1      -1.578  -4.372   4.442  1.00  0.00     0.051 A 
ATOM     15  C   UNL     1      -2.274  -4.259   5.652  1.00  0.00     0.157 A 
ATOM     16  C   UNL     1      -4.363  -4.114   4.427  1.00  0.00     0.062 A 
ATOM     17  C   UNL     1      -3.668  -4.126   5.646  1.00  0.00     0.158 A 
BRANCH  15  18
ATOM     18  O   UNL     1      -1.587  -4.275   6.865  1.00  0.00    -0.504 OA
ATOM     19  H   UNL     1      -2.006  -4.651   7.707  1.00  0.00     0.293 HD
ENDBRANCH  15  18
BRANCH  17  20
ATOM     20  O   UNL     1      -4.355  -4.000   6.851  1.00  0.00    -0.504 OA
ATOM     21  H   UNL     1      -4.484  -3.099   7.297  1.00  0.00     0.293 HD
ENDBRANCH  17  20
ENDBRANCH   1  12
BRANCH   2  22
ATOM     22  O   UNL     1      -3.865  -6.543   1.453  1.00  0.00    -0.502 OA
ATOM     23  H   UNL     1      -4.155  -7.443   1.087  1.00  0.00     0.293 HD
ENDBRANCH   2  22
BRANCH   6  24
ATOM     24  O   UNL     1      -6.970  -4.844  -2.527  1.00  0.00    -0.507 OA
ATOM     25  H   UNL     1      -6.807  -4.846  -3.523  1.00  0.00     0.293 HD
ENDBRANCH   6  24
BRANCH   8  26
ATOM     26  O   UNL     1      -7.234  -0.171  -1.451  1.00  0.00    -0.508 OA
ATOM     27  H   UNL     1      -6.858   0.655  -0.999  1.00  0.00     0.293 HD
ENDBRANCH   8  26
TORSDOF 6
ENDMDL
MODEL 6
REMARK VINA RESULT:    -5.413     11.387     12.400
REMARK INTER + INTRA:          -6.386
REMARK INTER:                  -6.097
REMARK INTRA:                  -0.289
REMARK UNBOUND:                 0.134
REMARK SMILES O=c1c(O)c(-c2ccc(O)c(O)c2)oc2cc(O)cc(O)c12
REMARK SMILES IDX 5 1 3 2 2 3 1 4 22 5 20 6 19 7 17 8 16 9 15 10 14 11 6 12
REMARK SMILES IDX 7 13 8 14 9 15 13 16 11 17 10 18 12 20 4 22 21 24 18 26
REMARK H PARENT 10 19 12 21 4 23 21 25 18 27
REMARK Flexibility Score: inf
ROOT
ATOM      1  C   UNL     1       5.042   5.439  -3.172  1.00  0.00     0.180 A 
ATOM      2  C   UNL     1       4.072   5.499  -2.155  1.00  0.00     0.208 A 
ATOM      3  C   UNL     1       4.233   6.429  -1.115  1.00  0.00     0.238 A 
ATOM      4  O   UNL     1       3.334   6.516  -0.238  1.00  0.00    -0.285 OA
ATOM      5  C   UNL     1       5.366   7.277  -1.096  1.00  0.00     0.111 A 
ATOM      6  C   UNL     1       5.650   8.228  -0.070  1.00  0.00     0.134 A 
ATOM      7  C   UNL     1       6.732   9.103  -0.221  1.00  0.00     0.093 A 
ATOM      8  C   UNL     1       7.580   9.019  -1.328  1.00  0.00     0.123 A 
ATOM      9  C   UNL     1       7.346   8.053  -2.305  1.00  0.00     0.094 A 
ATOM     10  C   UNL     1       6.252   7.190  -2.202  1.00  0.00     0.146 A 
ATOM     11  O   UNL     1       6.059   6.292  -3.160  1.00  0.00    -0.452 OA
ENDROOT
BRANCH   1  12
ATOM     12  C   UNL     1       4.956   4.469  -4.286  1.00  0.00     0.025 A 
ATOM     13  C   UNL     1       4.591   4.916  -5.566  1.00  0.00     0.016 A 
ATOM     14  C   UNL     1       4.524   4.021  -6.637  1.00  0.00     0.051 A 
ATOM     15  C   UNL     1       4.835   2.669  -6.446  1.00  0.00     0.157 A 
ATOM     16  C   UNL     1       5.287   3.113  -4.104  1.00  0.00     0.062 A 
ATOM     17  C   UNL     1       5.221   2.215  -5.179  1.00  0.00     0.158 A 
BRANCH  15  18
ATOM     18  O   UNL     1       4.766   1.772  -7.511  1.00  0.00    -0.504 OA
ATOM     19  H   UNL     1       5.032   0.801  -7.404  1.00  0.00     0.293 HD
ENDBRANCH  15  18
BRANCH  17  20
ATOM     20  O   UNL     1       5.543   0.872  -4.996  1.00  0.00    -0.504 OA
ATOM     21  H   UNL     1       5.142   0.145  -5.578  1.00  0.00     0.293 HD
ENDBRANCH  17  20
ENDBRANCH   1  12
BRANCH   2  22
ATOM     22  O   UNL     1       2.950   4.669  -2.206  1.00  0.00    -0.502 OA
ATOM     23  H   UNL     1       2.222   4.694  -1.501  1.00  0.00     0.293 HD
ENDBRANCH   2  22
BRANCH   6  24
ATOM     24  O   UNL     1       4.922   8.334   1.119  1.00  0.00    -0.507 OA
ATOM     25  H   UNL     1       5.324   8.302   2.043  1.00  0.00     0.293 HD
ENDBRANCH   6  24
BRANCH   8  26
ATOM     26  O   UNL     1       8.663   9.883  -1.463  1.00  0.00    -0.508 OA
ATOM     27  H   UNL     1       9.547   9.700  -1.003  1.00  0.00     0.293 HD
ENDBRANCH   8  26
TORSDOF 6
ENDMDL
MODEL 7
REMARK VINA RESULT:    -5.364     14.047     15.744
REMARK INTER + INTRA:          -6.327
REMARK INTER:                  -6.034
REMARK INTRA:                  -0.294
REMARK UNBOUND:                 0.134
REMARK SMILES O=c1c(O)c(-c2ccc(O)c(O)c2)oc2cc(O)cc(O)c12
REMARK SMILES IDX 5 1 3 2 2 3 1 4 22 5 20 6 19 7 17 8 16 9 15 10 14 11 6 12
REMARK SMILES IDX 7 13 8 14 9 15 13 16 11 17 10 18 12 20 4 22 21 24 18 26
REMARK H PARENT 10 19 12 21 4 23 21 25 18 27
REMARK Flexibility Score: inf
ROOT
ATOM      1  C   UNL     1       0.012  -5.613   4.815  1.00  0.00     0.180 A 
ATOM      2  C   UNL     1       1.131  -6.067   4.095  1.00  0.00     0.208 A 
ATOM      3  C   UNL     1       2.387  -6.074   4.725  1.00  0.00     0.238 A 
ATOM      4  O   UNL     1       3.375  -6.533   4.095  1.00  0.00    -0.285 OA
ATOM      5  C   UNL     1       2.511  -5.614   6.058  1.00  0.00     0.111 A 
ATOM      6  C   UNL     1       3.740  -5.541   6.779  1.00  0.00     0.134 A 
ATOM      7  C   UNL     1       3.724  -5.192   8.135  1.00  0.00     0.093 A 
ATOM      8  C   UNL     1       2.532  -4.852   8.779  1.00  0.00     0.123 A 
ATOM      9  C   UNL     1       1.335  -4.863   8.067  1.00  0.00     0.094 A 
ATOM     10  C   UNL     1       1.312  -5.242   6.723  1.00  0.00     0.146 A 
ATOM     11  O   UNL     1       0.149  -5.250   6.085  1.00  0.00    -0.452 OA
ENDROOT
BRANCH   1  12
ATOM     12  C   UNL     1      -1.339  -5.551   4.213  1.00  0.00     0.025 A 
ATOM     13  C   UNL     1      -2.121  -6.715   4.146  1.00  0.00     0.016 A 
ATOM     14  C   UNL     1      -3.406  -6.676   3.600  1.00  0.00     0.051 A 
ATOM     15  C   UNL     1      -3.934  -5.468   3.127  1.00  0.00     0.157 A 
ATOM     16  C   UNL     1      -1.882  -4.337   3.755  1.00  0.00     0.062 A 
ATOM     17  C   UNL     1      -3.173  -4.295   3.208  1.00  0.00     0.158 A 
BRANCH  15  18
ATOM     18  O   UNL     1      -5.215  -5.425   2.580  1.00  0.00    -0.504 OA
ATOM     19  H   UNL     1      -5.842  -4.648   2.757  1.00  0.00     0.293 HD
ENDBRANCH  15  18
BRANCH  17  20
ATOM     20  O   UNL     1      -3.707  -3.093   2.749  1.00  0.00    -0.504 OA
ATOM     21  H   UNL     1      -4.048  -2.385   3.389  1.00  0.00     0.293 HD
ENDBRANCH  17  20
ENDBRANCH   1  12
BRANCH   2  22
ATOM     22  O   UNL     1       0.983  -6.537   2.789  1.00  0.00    -0.502 OA
ATOM     23  H   UNL     1       0.288  -7.230   2.536  1.00  0.00     0.293 HD
ENDBRANCH   2  22
BRANCH   6  24
ATOM     24  O   UNL     1       4.995  -5.770   6.208  1.00  0.00    -0.507 OA
ATOM     25  H   UNL     1       5.314  -6.662   5.862  1.00  0.00     0.293 HD
ENDBRANCH   6  24
BRANCH   8  26
ATOM     26  O   UNL     1       2.528  -4.492  10.125  1.00  0.00    -0.508 OA
ATOM     27  H   UNL     1       2.163  -3.599  10.433  1.00  0.00     0.293 HD
ENDBRANCH   8  26
TORSDOF 6
ENDMDL
MODEL 8
REMARK VINA RESULT:    -5.348     13.435     15.051
REMARK INTER + INTRA:          -6.308
REMARK INTER:                  -6.142
REMARK INTRA:                  -0.166
REMARK UNBOUND:                 0.134
REMARK SMILES O=c1c(O)c(-c2ccc(O)c(O)c2)oc2cc(O)cc(O)c12
REMARK SMILES IDX 5 1 3 2 2 3 1 4 22 5 20 6 19 7 17 8 16 9 15 10 14 11 6 12
REMARK SMILES IDX 7 13 8 14 9 15 13 16 11 17 10 18 12 20 4 22 21 24 18 26
REMARK H PARENT 10 19 12 21 4 23 21 25 18 27
REMARK Flexibility Score: inf
ROOT
ATOM      1  C   UNL     1      -1.116  -5.177   5.183  1.00  0.00     0.180 A 
ATOM      2  C   UNL     1      -1.762  -5.067   6.428  1.00  0.00     0.208 A 
ATOM      3  C   UNL     1      -0.987  -5.082   7.600  1.00  0.00     0.238 A 
ATOM      4  O   UNL     1      -1.565  -4.928   8.707  1.00  0.00    -0.285 OA
ATOM      5  C   UNL     1       0.419  -5.222   7.514  1.00  0.00     0.111 A 
ATOM      6  C   UNL     1       1.297  -5.289   8.637  1.00  0.00     0.134 A 
ATOM      7  C   UNL     1       2.681  -5.297   8.431  1.00  0.00     0.093 A 
ATOM      8  C   UNL     1       3.219  -5.305   7.142  1.00  0.00     0.123 A 
ATOM      9  C   UNL     1       2.369  -5.300   6.039  1.00  0.00     0.094 A 
ATOM     10  C   UNL     1       0.983  -5.255   6.211  1.00  0.00     0.146 A 
ATOM     11  O   UNL     1       0.209  -5.241   5.134  1.00  0.00    -0.452 OA
ENDROOT
BRANCH   1  12
ATOM     12  C   UNL     1      -1.865  -5.196   3.907  1.00  0.00     0.025 A 
ATOM     13  C   UNL     1      -1.896  -6.372   3.140  1.00  0.00     0.016 A 
ATOM     14  C   UNL     1      -2.614  -6.419   1.942  1.00  0.00     0.051 A 
ATOM     15  C   UNL     1      -3.323  -5.294   1.501  1.00  0.00     0.157 A 
ATOM     16  C   UNL     1      -2.596  -4.076   3.469  1.00  0.00     0.062 A 
ATOM     17  C   UNL     1      -3.318  -4.122   2.267  1.00  0.00     0.158 A 
BRANCH  15  18
ATOM     18  O   UNL     1      -4.038  -5.335   0.305  1.00  0.00    -0.504 OA
ATOM     19  H   UNL     1      -3.680  -5.818  -0.510  1.00  0.00     0.293 HD
ENDBRANCH  15  18
BRANCH  17  20
ATOM     20  O   UNL     1      -4.036  -3.010   1.833  1.00  0.00    -0.504 OA
ATOM     21  H   UNL     1      -4.958  -3.100   1.423  1.00  0.00     0.293 HD
ENDBRANCH  17  20
ENDBRANCH   1  12
BRANCH   2  22
ATOM     22  O   UNL     1      -3.148  -4.908   6.488  1.00  0.00    -0.502 OA
ATOM     23  H   UNL     1      -3.710  -5.311   7.228  1.00  0.00     0.293 HD
ENDBRANCH   2  22
BRANCH   6  24
ATOM     24  O   UNL     1       0.862  -5.378   9.963  1.00  0.00    -0.507 OA
ATOM     25  H   UNL     1       1.317  -4.937  10.748  1.00  0.00     0.293 HD
ENDBRANCH   6  24
BRANCH   8  26
ATOM     26  O   UNL     1       4.598  -5.329   6.946  1.00  0.00    -0.508 OA
ATOM     27  H   UNL     1       5.175  -6.067   7.332  1.00  0.00     0.293 HD
ENDBRANCH   8  26
TORSDOF 6
ENDMDL
MODEL 9
REMARK VINA RESULT:    -5.324     10.117     11.815
REMARK INTER + INTRA:          -6.279
REMARK INTER:                  -6.135
REMARK INTRA:                  -0.144
REMARK UNBOUND:                 0.134
REMARK SMILES O=c1c(O)c(-c2ccc(O)c(O)c2)oc2cc(O)cc(O)c12
REMARK SMILES IDX 5 1 3 2 2 3 1 4 22 5 20 6 19 7 17 8 16 9 15 10 14 11 6 12
REMARK SMILES IDX 7 13 8 14 9 15 13 16 11 17 10 18 12 20 4 22 21 24 18 26
REMARK H PARENT 10 19 12 21 4 23 21 25 18 27
REMARK Flexibility Score: inf
ROOT
ATOM      1  C   UNL     1      -4.257  -3.980   2.707  1.00  0.00     0.180 A 
ATOM      2  C   UNL     1      -5.114  -3.843   3.814  1.00  0.00     0.208 A 
ATOM      3  C   UNL     1      -4.621  -4.138   5.096  1.00  0.00     0.238 A 
ATOM      4  O   UNL     1      -5.375  -3.960   6.088  1.00  0.00    -0.285 OA
ATOM      5  C   UNL     1      -3.286  -4.580   5.255  1.00  0.00     0.111 A 
ATOM      6  C   UNL     1      -2.695  -4.944   6.502  1.00  0.00     0.134 A 
ATOM      7  C   UNL     1      -1.328  -5.242   6.557  1.00  0.00     0.093 A 
ATOM      8  C   UNL     1      -0.545  -5.253   5.400  1.00  0.00     0.123 A 
ATOM      9  C   UNL     1      -1.126  -4.958   4.169  1.00  0.00     0.094 A 
ATOM     10  C   UNL     1      -2.480  -4.620   4.087  1.00  0.00     0.146 A 
ATOM     11  O   UNL     1      -2.991  -4.335   2.896  1.00  0.00    -0.452 OA
ENDROOT
BRANCH   1  12
ATOM     12  C   UNL     1      -4.709  -3.714   1.323  1.00  0.00     0.025 A 
ATOM     13  C   UNL     1      -4.781  -4.773   0.404  1.00  0.00     0.016 A 
ATOM     14  C   UNL     1      -5.224  -4.549  -0.902  1.00  0.00     0.051 A 
ATOM     15  C   UNL     1      -5.618  -3.266  -1.302  1.00  0.00     0.157 A 
ATOM     16  C   UNL     1      -5.125  -2.432   0.922  1.00  0.00     0.062 A 
ATOM     17  C   UNL     1      -5.572  -2.206  -0.388  1.00  0.00     0.158 A 
BRANCH  15  18
ATOM     18  O   UNL     1      -6.058  -3.037  -2.605  1.00  0.00    -0.504 OA
ATOM     19  H   UNL     1      -6.185  -2.099  -2.965  1.00  0.00     0.293 HD
ENDBRANCH  15  18
BRANCH  17  20
ATOM     20  O   UNL     1      -5.977  -0.934  -0.786  1.00  0.00    -0.504 OA
ATOM     21  H   UNL     1      -6.927  -0.748  -1.085  1.00  0.00     0.293 HD
ENDBRANCH  17  20
ENDBRANCH   1  12
BRANCH   2  22
ATOM     22  O   UNL     1      -6.421  -3.384   3.637  1.00  0.00    -0.502 OA
ATOM     23  H   UNL     1      -7.221  -4.005   3.641  1.00  0.00     0.293 HD
ENDBRANCH   2  22
BRANCH   6  24
ATOM     24  O   UNL     1      -3.407  -5.053   7.700  1.00  0.00    -0.507 OA
ATOM     25  H   UNL     1      -3.465  -4.332   8.402  1.00  0.00     0.293 HD
ENDBRANCH   6  24
BRANCH   8  26
ATOM     26  O   UNL     1       0.811  -5.566   5.462  1.00  0.00    -0.508 OA
ATOM     27  H   UNL     1       1.138  -6.420   5.899  1.00  0.00     0.293 HD
ENDBRANCH   8  26
TORSDOF 6
ENDMDL
