MODEL 1
REMARK VINA RESULT:    -3.426      0.000      0.000
REMARK INTER + INTRA:          -7.325
REMARK INTER:                  -5.829
REMARK INTRA:                  -1.496
REMARK UNBOUND:                -1.496
REMARK SMILES CCCCCCCCCCCCCC(=O)[O-]
REMARK SMILES IDX 8 1 9 2 10 3 11 4 12 5 13 6 14 7 15 8 16 9 7 10 6 11 5 12
REMARK SMILES IDX 4 13 3 14 2 15 1 16
REMARK H PARENT
REMARK Flexibility Score: inf
ROOT
ATOM      1  C   UNL     1     -25.487 -36.439  32.734  1.00  0.00     0.000 C 
ENDROOT
BRANCH   1   2
ATOM      2  C   UNL     1     -26.119 -36.006  34.069  1.00  0.00     0.000 C 
BRANCH   2   3
ATOM      3  C   UNL     1     -26.251 -37.172  35.063  1.00  0.00     0.000 C 
BRANCH   3   4
ATOM      4  C   UNL     1     -26.215 -38.544  34.369  1.00  0.00     0.000 C 
BRANCH   4   5
ATOM      5  C   UNL     1     -25.192 -39.500  35.004  1.00  0.00     0.006 C 
BRANCH   5   6
ATOM      6  C   UNL     1     -23.747 -39.010  34.841  1.00  0.00     0.053 C 
BRANCH   6   7
ATOM      7  C   UNL     1     -22.802 -40.170  34.833  1.00  0.00     0.041 C 
ATOM      8  O   UNL     1     -21.560 -39.974  34.763  1.00  0.00    -0.550 OA
ATOM      9  O   UNL     1     -23.293 -41.469  34.853  1.00  0.00    -0.550 OA
ENDBRANCH   6   7
ENDBRANCH   5   6
ENDBRANCH   4   5
ENDBRANCH   3   4
ENDBRANCH   2   3
ENDBRANCH   1   2
BRANCH   1  10
ATOM     10  C   UNL     1     -25.191 -35.250  31.807  1.00  0.00     0.000 C 
BRANCH  10  11
ATOM     11  C   UNL     1     -25.125 -33.913  32.561  1.00  0.00    -0.000 C 
BRANCH  11  12
ATOM     12  C   UNL     1     -23.669 -33.507  32.831  1.00  0.00    -0.000 C 
BRANCH  12  13
ATOM     13  C   UNL     1     -23.399 -33.215  34.316  1.00  0.00    -0.000 C 
BRANCH  13  14
ATOM     14  C   UNL     1     -22.297 -34.114  34.905  1.00  0.00    -0.000 C 
BRANCH  14  15
ATOM     15  C   UNL     1     -22.354 -35.548  34.356  1.00  0.00    -0.003 C 
ATOM     16  C   UNL     1     -21.173 -36.405  34.811  1.00  0.00     0.004 C 
ENDBRANCH  14  15
ENDBRANCH  13  14
ENDBRANCH  12  13
ENDBRANCH  11  12
ENDBRANCH  10  11
ENDBRANCH   1  10
TORSDOF 12
ENDMDL
MODEL 2
REMARK VINA RESULT:    -2.942      1.332      1.974
REMARK INTER + INTRA:          -6.502
REMARK INTER:                  -5.136
REMARK INTRA:                  -1.365
REMARK UNBOUND:                -1.496
REMARK SMILES CCCCCCCCCCCCCC(=O)[O-]
REMARK SMILES IDX 8 1 9 2 10 3 11 4 12 5 13 6 14 7 15 8 16 9 7 10 6 11 5 12
REMARK SMILES IDX 4 13 3 14 2 15 1 16
REMARK H PARENT
REMARK Flexibility Score: inf
ROOT
ATOM      1  C   UNL     1     -24.939 -36.393  32.500  1.00  0.00     0.000 C 
ENDROOT
BRANCH   1   2
ATOM      2  C   UNL     1     -25.711 -36.937  33.715  1.00  0.00     0.000 C 
BRANCH   2   3
ATOM      3  C   UNL     1     -24.782 -37.544  34.779  1.00  0.00     0.000 C 
BRANCH   3   4
ATOM      4  C   UNL     1     -23.294 -37.378  34.425  1.00  0.00     0.000 C 
BRANCH   4   5
ATOM      5  C   UNL     1     -22.467 -38.634  34.746  1.00  0.00     0.006 C 
BRANCH   5   6
ATOM      6  C   UNL     1     -23.344 -39.835  35.124  1.00  0.00     0.053 C 
BRANCH   6   7
ATOM      7  C   UNL     1     -22.624 -41.116  34.837  1.00  0.00     0.041 C 
ATOM      8  O   UNL     1     -21.483 -41.095  34.306  1.00  0.00    -0.550 OA
ATOM      9  O   UNL     1     -23.234 -42.333  35.111  1.00  0.00    -0.550 OA
ENDBRANCH   6   7
ENDBRANCH   5   6
ENDBRANCH   4   5
ENDBRANCH   3   4
ENDBRANCH   2   3
ENDBRANCH   1   2
BRANCH   1  10
ATOM     10  C   UNL     1     -25.683 -35.251  31.790  1.00  0.00     0.000 C 
BRANCH  10  11
ATOM     11  C   UNL     1     -26.730 -34.577  32.689  1.00  0.00    -0.000 C 
BRANCH  11  12
ATOM     12  C   UNL     1     -26.236 -33.205  33.173  1.00  0.00    -0.000 C 
BRANCH  12  13
ATOM     13  C   UNL     1     -25.584 -33.264  34.564  1.00  0.00    -0.000 C 
BRANCH  13  14
ATOM     14  C   UNL     1     -24.267 -32.471  34.634  1.00  0.00    -0.000 C 
BRANCH  14  15
ATOM     15  C   UNL     1     -23.042 -33.381  34.810  1.00  0.00    -0.003 C 
ATOM     16  C   UNL     1     -22.633 -34.082  33.515  1.00  0.00     0.004 C 
ENDBRANCH  14  15
ENDBRANCH  13  14
ENDBRANCH  12  13
ENDBRANCH  11  12
ENDBRANCH  10  11
ENDBRANCH   1  10
TORSDOF 12
ENDMDL
MODEL 3
REMARK VINA RESULT:    -2.921      1.308      3.422
REMARK INTER + INTRA:          -6.465
REMARK INTER:                  -5.132
REMARK INTRA:                  -1.334
REMARK UNBOUND:                -1.496
REMARK SMILES CCCCCCCCCCCCCC(=O)[O-]
REMARK SMILES IDX 8 1 9 2 10 3 11 4 12 5 13 6 14 7 15 8 16 9 7 10 6 11 5 12
REMARK SMILES IDX 4 13 3 14 2 15 1 16
REMARK H PARENT
REMARK Flexibility Score: inf
ROOT
ATOM      1  C   UNL     1     -23.293 -34.613  33.527  1.00  0.00     0.000 C 
ENDROOT
BRANCH   1   2
ATOM      2  C   UNL     1     -22.244 -34.381  34.629  1.00  0.00     0.000 C 
BRANCH   2   3
ATOM      3  C   UNL     1     -21.485 -35.666  34.999  1.00  0.00     0.000 C 
BRANCH   3   4
ATOM      4  C   UNL     1     -22.047 -36.908  34.285  1.00  0.00     0.000 C 
BRANCH   4   5
ATOM      5  C   UNL     1     -21.901 -38.188  35.125  1.00  0.00     0.006 C 
BRANCH   5   6
ATOM      6  C   UNL     1     -21.299 -39.351  34.326  1.00  0.00     0.053 C 
BRANCH   6   7
ATOM      7  C   UNL     1     -21.984 -40.634  34.678  1.00  0.00     0.041 C 
ATOM      8  O   UNL     1     -23.240 -40.682  34.751  1.00  0.00    -0.550 OA
ATOM      9  O   UNL     1     -21.234 -41.765  34.974  1.00  0.00    -0.550 OA
ENDBRANCH   6   7
ENDBRANCH   5   6
ENDBRANCH   4   5
ENDBRANCH   3   4
ENDBRANCH   2   3
ENDBRANCH   1   2
BRANCH   1  10
ATOM     10  C   UNL     1     -24.297 -33.456  33.414  1.00  0.00     0.000 C 
BRANCH  10  11
ATOM     11  C   UNL     1     -25.381 -33.714  32.356  1.00  0.00    -0.000 C 
BRANCH  11  12
ATOM     12  C   UNL     1     -26.735 -34.011  33.018  1.00  0.00    -0.000 C 
BRANCH  12  13
ATOM     13  C   UNL     1     -26.603 -34.364  34.509  1.00  0.00    -0.000 C 
BRANCH  13  14
ATOM     14  C   UNL     1     -26.980 -35.825  34.807  1.00  0.00    -0.000 C 
BRANCH  14  15
ATOM     15  C   UNL     1     -25.747 -36.733  34.941  1.00  0.00    -0.003 C 
ATOM     16  C   UNL     1     -25.549 -37.647  33.732  1.00  0.00     0.004 C 
ENDBRANCH  14  15
ENDBRANCH  13  14
ENDBRANCH  12  13
ENDBRANCH  11  12
ENDBRANCH  10  11
ENDBRANCH   1  10
TORSDOF 12
ENDMDL
MODEL 4
REMARK VINA RESULT:    -2.410      1.544      3.222
REMARK INTER + INTRA:          -5.596
REMARK INTER:                  -4.822
REMARK INTRA:                  -0.774
REMARK UNBOUND:                -1.496
REMARK SMILES CCCCCCCCCCCCCC(=O)[O-]
REMARK SMILES IDX 8 1 9 2 10 3 11 4 12 5 13 6 14 7 15 8 16 9 7 10 6 11 5 12
REMARK SMILES IDX 4 13 3 14 2 15 1 16
REMARK H PARENT
REMARK Flexibility Score: inf
ROOT
ATOM      1  C   UNL     1     -22.718 -34.756  33.408  1.00  0.00     0.000 C 
ENDROOT
BRANCH   1   2
ATOM      2  C   UNL     1     -22.614 -35.806  34.528  1.00  0.00     0.000 C 
BRANCH   2   3
ATOM      3  C   UNL     1     -23.947 -36.528  34.784  1.00  0.00     0.000 C 
BRANCH   3   4
ATOM      4  C   UNL     1     -23.787 -38.057  34.837  1.00  0.00     0.000 C 
BRANCH   4   5
ATOM      5  C   UNL     1     -22.457 -38.533  34.230  1.00  0.00     0.006 C 
BRANCH   5   6
ATOM      6  C   UNL     1     -21.760 -39.591  35.095  1.00  0.00     0.053 C 
BRANCH   6   7
ATOM      7  C   UNL     1     -22.022 -40.962  34.554  1.00  0.00     0.041 C 
ATOM      8  O   UNL     1     -21.192 -41.505  33.778  1.00  0.00    -0.550 OA
ATOM      9  O   UNL     1     -23.204 -41.620  34.867  1.00  0.00    -0.550 OA
ENDBRANCH   6   7
ENDBRANCH   5   6
ENDBRANCH   4   5
ENDBRANCH   3   4
ENDBRANCH   2   3
ENDBRANCH   1   2
BRANCH   1  10
ATOM     10  C   UNL     1     -23.049 -33.353  33.942  1.00  0.00     0.000 C 
BRANCH  10  11
ATOM     11  C   UNL     1     -24.017 -32.585  33.029  1.00  0.00    -0.000 C 
BRANCH  11  12
ATOM     12  C   UNL     1     -25.184 -31.998  33.837  1.00  0.00    -0.000 C 
BRANCH  12  13
ATOM     13  C   UNL     1     -26.556 -32.469  33.330  1.00  0.00    -0.000 C 
BRANCH  13  14
ATOM     14  C   UNL     1     -26.453 -33.333  32.061  1.00  0.00    -0.000 C 
BRANCH  14  15
ATOM     15  C   UNL     1     -26.098 -34.796  32.374  1.00  0.00    -0.003 C 
ATOM     16  C   UNL     1     -25.703 -35.589  31.129  1.00  0.00     0.004 C 
ENDBRANCH  14  15
ENDBRANCH  13  14
ENDBRANCH  12  13
ENDBRANCH  11  12
ENDBRANCH  10  11
ENDBRANCH   1  10
TORSDOF 12
ENDMDL
MODEL 5
REMARK VINA RESULT:    -2.306      3.099      5.753
REMARK INTER + INTRA:          -5.419
REMARK INTER:                  -5.274
REMARK INTRA:                  -0.145
REMARK UNBOUND:                -1.496
REMARK SMILES CCCCCCCCCCCCCC(=O)[O-]
REMARK SMILES IDX 8 1 9 2 10 3 11 4 12 5 13 6 14 7 15 8 16 9 7 10 6 11 5 12
REMARK SMILES IDX 4 13 3 14 2 15 1 16
REMARK H PARENT
REMARK Flexibility Score: inf
ROOT
ATOM      1  C   UNL     1     -25.202 -35.926  32.898  1.00  0.00     0.000 C 
ENDROOT
BRANCH   1   2
ATOM      2  C   UNL     1     -25.714 -35.412  31.541  1.00  0.00     0.000 C 
BRANCH   2   3
ATOM      3  C   UNL     1     -26.436 -34.060  31.658  1.00  0.00     0.000 C 
BRANCH   3   4
ATOM      4  C   UNL     1     -25.510 -32.939  32.162  1.00  0.00     0.000 C 
BRANCH   4   5
ATOM      5  C   UNL     1     -25.951 -32.378  33.524  1.00  0.00     0.006 C 
BRANCH   5   6
ATOM      6  C   UNL     1     -25.081 -32.888  34.680  1.00  0.00     0.053 C 
BRANCH   6   7
ATOM      7  C   UNL     1     -23.633 -32.660  34.383  1.00  0.00     0.041 C 
ATOM      8  O   UNL     1     -22.945 -31.910  35.125  1.00  0.00    -0.550 OA
ATOM      9  O   UNL     1     -23.053 -33.236  33.260  1.00  0.00    -0.550 OA
ENDBRANCH   6   7
ENDBRANCH   5   6
ENDBRANCH   4   5
ENDBRANCH   3   4
ENDBRANCH   2   3
ENDBRANCH   1   2
BRANCH   1  10
ATOM     10  C   UNL     1     -25.559 -37.399  33.146  1.00  0.00     0.000 C 
BRANCH  10  11
ATOM     11  C   UNL     1     -25.012 -37.925  34.482  1.00  0.00    -0.000 C 
BRANCH  11  12
ATOM     12  C   UNL     1     -23.513 -37.619  34.620  1.00  0.00    -0.000 C 
BRANCH  12  13
ATOM     13  C   UNL     1     -22.666 -38.882  34.839  1.00  0.00    -0.000 C 
BRANCH  13  14
ATOM     14  C   UNL     1     -23.524 -40.139  35.064  1.00  0.00    -0.000 C 
BRANCH  14  15
ATOM     15  C   UNL     1     -22.704 -41.435  34.970  1.00  0.00    -0.003 C 
ATOM     16  C   UNL     1     -21.444 -41.280  34.119  1.00  0.00     0.004 C 
ENDBRANCH  14  15
ENDBRANCH  13  14
ENDBRANCH  12  13
ENDBRANCH  11  12
ENDBRANCH  10  11
ENDBRANCH   1  10
TORSDOF 12
ENDMDL
MODEL 6
REMARK VINA RESULT:    -2.300      3.292      6.082
REMARK INTER + INTRA:          -5.409
REMARK INTER:                  -4.501
REMARK INTRA:                  -0.908
REMARK UNBOUND:                -1.496
REMARK SMILES CCCCCCCCCCCCCC(=O)[O-]
REMARK SMILES IDX 8 1 9 2 10 3 11 4 12 5 13 6 14 7 15 8 16 9 7 10 6 11 5 12
REMARK SMILES IDX 4 13 3 14 2 15 1 16
REMARK H PARENT
REMARK Flexibility Score: inf
ROOT
ATOM      1  C   UNL     1     -22.039 -35.350  34.993  1.00  0.00     0.000 C 
ENDROOT
BRANCH   1   2
ATOM      2  C   UNL     1     -22.244 -33.833  34.835  1.00  0.00     0.000 C 
BRANCH   2   3
ATOM      3  C   UNL     1     -23.247 -33.487  33.722  1.00  0.00     0.000 C 
BRANCH   3   4
ATOM      4  C   UNL     1     -24.095 -32.248  34.058  1.00  0.00     0.000 C 
BRANCH   4   5
ATOM      5  C   UNL     1     -25.588 -32.579  34.210  1.00  0.00     0.006 C 
BRANCH   5   6
ATOM      6  C   UNL     1     -25.956 -33.937  33.598  1.00  0.00     0.053 C 
BRANCH   6   7
ATOM      7  C   UNL     1     -26.246 -33.789  32.138  1.00  0.00     0.041 C 
ATOM      8  O   UNL     1     -26.011 -34.739  31.346  1.00  0.00    -0.550 OA
ATOM      9  O   UNL     1     -26.730 -32.585  31.643  1.00  0.00    -0.550 OA
ENDBRANCH   6   7
ENDBRANCH   5   6
ENDBRANCH   4   5
ENDBRANCH   3   4
ENDBRANCH   2   3
ENDBRANCH   1   2
BRANCH   1  10
ATOM     10  C   UNL     1     -22.964 -36.170  34.080  1.00  0.00     0.000 C 
BRANCH  10  11
ATOM     11  C   UNL     1     -24.069 -36.900  34.859  1.00  0.00    -0.000 C 
BRANCH  11  12
ATOM     12  C   UNL     1     -24.361 -38.275  34.239  1.00  0.00    -0.000 C 
BRANCH  12  13
ATOM     13  C   UNL     1     -23.889 -39.439  35.125  1.00  0.00    -0.000 C 
BRANCH  13  14
ATOM     14  C   UNL     1     -22.359 -39.601  35.124  1.00  0.00    -0.000 C 
BRANCH  14  15
ATOM     15  C   UNL     1     -21.925 -41.073  35.058  1.00  0.00    -0.003 C 
ATOM     16  C   UNL     1     -22.452 -41.793  33.817  1.00  0.00     0.004 C 
ENDBRANCH  14  15
ENDBRANCH  13  14
ENDBRANCH  12  13
ENDBRANCH  11  12
ENDBRANCH  10  11
ENDBRANCH   1  10
TORSDOF 12
ENDMDL
MODEL 7
REMARK VINA RESULT:    -1.641      1.952      4.265
REMARK INTER + INTRA:          -4.288
REMARK INTER:                  -4.504
REMARK INTRA:                   0.216
REMARK UNBOUND:                -1.496
REMARK SMILES CCCCCCCCCCCCCC(=O)[O-]
REMARK SMILES IDX 8 1 9 2 10 3 11 4 12 5 13 6 14 7 15 8 16 9 7 10 6 11 5 12
REMARK SMILES IDX 4 13 3 14 2 15 1 16
REMARK H PARENT
REMARK Flexibility Score: inf
ROOT
ATOM      1  C   UNL     1     -21.162 -38.854  34.002  1.00  0.00     0.000 C 
ENDROOT
BRANCH   1   2
ATOM      2  C   UNL     1     -21.182 -40.167  34.805  1.00  0.00     0.000 C 
BRANCH   2   3
ATOM      3  C   UNL     1     -22.264 -41.142  34.312  1.00  0.00     0.000 C 
BRANCH   3   4
ATOM      4  C   UNL     1     -23.655 -40.816  34.884  1.00  0.00     0.000 C 
BRANCH   4   5
ATOM      5  C   UNL     1     -23.858 -39.311  35.120  1.00  0.00     0.006 C 
BRANCH   5   6
ATOM      6  C   UNL     1     -24.916 -38.705  34.189  1.00  0.00     0.053 C 
BRANCH   6   7
ATOM      7  C   UNL     1     -26.279 -38.839  34.792  1.00  0.00     0.041 C 
ATOM      8  O   UNL     1     -26.715 -39.973  35.125  1.00  0.00    -0.550 OA
ATOM      9  O   UNL     1     -27.087 -37.720  34.943  1.00  0.00    -0.550 OA
ENDBRANCH   6   7
ENDBRANCH   5   6
ENDBRANCH   4   5
ENDBRANCH   3   4
ENDBRANCH   2   3
ENDBRANCH   1   2
BRANCH   1  10
ATOM     10  C   UNL     1     -21.329 -37.613  34.892  1.00  0.00     0.000 C 
BRANCH  10  11
ATOM     11  C   UNL     1     -21.309 -36.303  34.091  1.00  0.00    -0.000 C 
BRANCH  11  12
ATOM     12  C   UNL     1     -22.565 -35.466  34.376  1.00  0.00    -0.000 C 
BRANCH  12  13
ATOM     13  C   UNL     1     -22.626 -34.179  33.536  1.00  0.00    -0.000 C 
BRANCH  13  14
ATOM     14  C   UNL     1     -23.924 -33.385  33.764  1.00  0.00    -0.000 C 
BRANCH  14  15
ATOM     15  C   UNL     1     -25.103 -33.942  32.951  1.00  0.00    -0.003 C 
ATOM     16  C   UNL     1     -26.019 -34.846  33.776  1.00  0.00     0.004 C 
ENDBRANCH  14  15
ENDBRANCH  13  14
ENDBRANCH  12  13
ENDBRANCH  11  12
ENDBRANCH  10  11
ENDBRANCH   1  10
TORSDOF 12
ENDMDL
MODEL 8
REMARK VINA RESULT:    -1.562      3.700      6.458
REMARK INTER + INTRA:          -4.154
REMARK INTER:                  -3.569
REMARK INTRA:                  -0.585
REMARK UNBOUND:                -1.496
REMARK SMILES CCCCCCCCCCCCCC(=O)[O-]
REMARK SMILES IDX 8 1 9 2 10 3 11 4 12 5 13 6 14 7 15 8 16 9 7 10 6 11 5 12
REMARK SMILES IDX 4 13 3 14 2 15 1 16
REMARK H PARENT
REMARK Flexibility Score: inf
ROOT
ATOM      1  C   UNL     1     -24.233 -36.791  35.122  1.00  0.00     0.000 C 
ENDROOT
BRANCH   1   2
ATOM      2  C   UNL     1     -24.676 -35.690  34.143  1.00  0.00     0.000 C 
BRANCH   2   3
ATOM      3  C   UNL     1     -25.343 -36.258  32.880  1.00  0.00     0.000 C 
BRANCH   3   4
ATOM      4  C   UNL     1     -25.455 -35.216  31.753  1.00  0.00     0.000 C 
BRANCH   4   5
ATOM      5  C   UNL     1     -26.655 -34.273  31.940  1.00  0.00     0.006 C 
BRANCH   5   6
ATOM      6  C   UNL     1     -26.269 -32.795  31.800  1.00  0.00     0.053 C 
BRANCH   6   7
ATOM      7  C   UNL     1     -25.356 -32.387  32.913  1.00  0.00     0.041 C 
ATOM      8  O   UNL     1     -25.782 -32.344  34.097  1.00  0.00    -0.550 OA
ATOM      9  O   UNL     1     -24.049 -32.007  32.637  1.00  0.00    -0.550 OA
ENDBRANCH   6   7
ENDBRANCH   5   6
ENDBRANCH   4   5
ENDBRANCH   3   4
ENDBRANCH   2   3
ENDBRANCH   1   2
BRANCH   1  10
ATOM     10  C   UNL     1     -22.724 -37.069  35.057  1.00  0.00     0.000 C 
BRANCH  10  11
ATOM     11  C   UNL     1     -22.391 -38.360  34.295  1.00  0.00    -0.000 C 
BRANCH  11  12
ATOM     12  C   UNL     1     -21.213 -39.096  34.949  1.00  0.00    -0.000 C 
BRANCH  12  13
ATOM     13  C   UNL     1     -20.943 -40.471  34.316  1.00  0.00    -0.000 C 
BRANCH  13  14
ATOM     14  C   UNL     1     -21.570 -41.625  35.117  1.00  0.00    -0.000 C 
BRANCH  14  15
ATOM     15  C   UNL     1     -23.097 -41.689  34.956  1.00  0.00    -0.003 C 
ATOM     16  C   UNL     1     -23.652 -43.104  35.116  1.00  0.00     0.004 C 
ENDBRANCH  14  15
ENDBRANCH  13  14
ENDBRANCH  12  13
ENDBRANCH  11  12
ENDBRANCH  10  11
ENDBRANCH   1  10
TORSDOF 12
ENDMDL
MODEL 9
REMARK VINA RESULT:    -0.622      1.774      4.960
REMARK INTER + INTRA:          -2.554
REMARK INTER:                  -2.281
REMARK INTRA:                  -0.272
REMARK UNBOUND:                -1.496
REMARK SMILES CCCCCCCCCCCCCC(=O)[O-]
REMARK SMILES IDX 8 1 9 2 10 3 11 4 12 5 13 6 14 7 15 8 16 9 7 10 6 11 5 12
REMARK SMILES IDX 4 13 3 14 2 15 1 16
REMARK H PARENT
REMARK Flexibility Score: inf
ROOT
ATOM      1  C   UNL     1     -25.868 -35.359  33.639  1.00  0.00     0.000 C 
ENDROOT
BRANCH   1   2
ATOM      2  C   UNL     1     -25.363 -34.496  32.468  1.00  0.00     0.000 C 
BRANCH   2   3
ATOM      3  C   UNL     1     -25.228 -33.012  32.846  1.00  0.00     0.000 C 
BRANCH   3   4
ATOM      4  C   UNL     1     -23.800 -32.644  33.285  1.00  0.00     0.000 C 
BRANCH   4   5
ATOM      5  C   UNL     1     -22.869 -33.865  33.348  1.00  0.00     0.006 C 
BRANCH   5   6
ATOM      6  C   UNL     1     -22.325 -34.119  34.760  1.00  0.00     0.053 C 
BRANCH   6   7
ATOM      7  C   UNL     1     -21.986 -35.566  34.935  1.00  0.00     0.041 C 
ATOM      8  O   UNL     1     -22.903 -36.426  35.012  1.00  0.00    -0.550 OA
ATOM      9  O   UNL     1     -20.661 -35.960  35.064  1.00  0.00    -0.550 OA
ENDBRANCH   6   7
ENDBRANCH   5   6
ENDBRANCH   4   5
ENDBRANCH   3   4
ENDBRANCH   2   3
ENDBRANCH   1   2
BRANCH   1  10
ATOM     10  C   UNL     1     -25.897 -36.857  33.299  1.00  0.00     0.000 C 
BRANCH  10  11
ATOM     11  C   UNL     1     -26.653 -37.687  34.348  1.00  0.00    -0.000 C 
BRANCH  11  12
ATOM     12  C   UNL     1     -25.932 -39.015  34.621  1.00  0.00    -0.000 C 
BRANCH  12  13
ATOM     13  C   UNL     1     -24.447 -38.825  34.969  1.00  0.00    -0.000 C 
BRANCH  13  14
ATOM     14  C   UNL     1     -23.700 -40.161  35.125  1.00  0.00    -0.000 C 
BRANCH  14  15
ATOM     15  C   UNL     1     -22.240 -40.077  34.651  1.00  0.00    -0.003 C 
ATOM     16  C   UNL     1     -21.554 -41.442  34.598  1.00  0.00     0.004 C 
ENDBRANCH  14  15
ENDBRANCH  13  14
ENDBRANCH  12  13
ENDBRANCH  11  12
ENDBRANCH  10  11
ENDBRANCH   1  10
TORSDOF 12
ENDMDL
