MODEL 1
REMARK VINA RESULT:    -5.011      0.000      0.000
REMARK INTER + INTRA:          -6.357
REMARK INTER:                  -6.037
REMARK INTRA:                  -0.320
REMARK UNBOUND:                -0.320
REMARK SMILES O=c1c(O)c(-c2ccc(O)c(O)c2)oc2cc(O)cc(O)c12
REMARK SMILES IDX 5 1 3 2 2 3 1 4 22 5 20 6 19 7 17 8 16 9 15 10 14 11 6 12
REMARK SMILES IDX 7 13 8 14 9 15 13 16 11 17 10 18 12 20 4 22 21 24 18 26
REMARK H PARENT 10 19 12 21 4 23 21 25 18 27
REMARK Flexibility Score: inf
ROOT
ATOM      1  C   UNL     1     217.702 221.187 224.500  1.00  0.00     0.180 A 
ATOM      2  C   UNL     1     217.663 219.789 224.360  1.00  0.00     0.208 A 
ATOM      3  C   UNL     1     216.417 219.141 224.339  1.00  0.00     0.238 A 
ATOM      4  O   UNL     1     216.390 217.884 224.267  1.00  0.00    -0.285 OA
ATOM      5  C   UNL     1     215.226 219.901 224.441  1.00  0.00     0.111 A 
ATOM      6  C   UNL     1     213.909 219.353 224.390  1.00  0.00     0.134 A 
ATOM      7  C   UNL     1     212.807 220.182 224.635  1.00  0.00     0.093 A 
ATOM      8  C   UNL     1     212.971 221.550 224.861  1.00  0.00     0.123 A 
ATOM      9  C   UNL     1     214.249 222.105 224.853  1.00  0.00     0.094 A 
ATOM     10  C   UNL     1     215.371 221.297 224.650  1.00  0.00     0.146 A 
ATOM     11  O   UNL     1     216.571 221.864 224.660  1.00  0.00    -0.452 OA
ENDROOT
BRANCH   1  12
ATOM     12  C   UNL     1     218.976 221.943 224.506  1.00  0.00     0.025 A 
ATOM     13  C   UNL     1     219.555 222.330 223.287  1.00  0.00     0.016 A 
ATOM     14  C   UNL     1     220.766 223.025 223.268  1.00  0.00     0.051 A 
ATOM     15  C   UNL     1     221.425 223.330 224.466  1.00  0.00     0.157 A 
ATOM     16  C   UNL     1     219.650 222.232 225.705  1.00  0.00     0.062 A 
ATOM     17  C   UNL     1     220.865 222.927 225.690  1.00  0.00     0.158 A 
BRANCH  15  18
ATOM     18  O   UNL     1     222.632 224.026 224.444  1.00  0.00    -0.504 OA
ATOM     19  H   UNL     1     223.335 223.892 225.163  1.00  0.00     0.293 HD
ENDBRANCH  15  18
BRANCH  17  20
ATOM     20  O   UNL     1     221.503 223.203 226.899  1.00  0.00    -0.504 OA
ATOM     21  H   UNL     1     222.402 223.668 226.940  1.00  0.00     0.293 HD
ENDBRANCH  17  20
ENDBRANCH   1  12
BRANCH   2  22
ATOM     22  O   UNL     1     218.850 219.057 224.281  1.00  0.00    -0.502 OA
ATOM     23  H   UNL     1     219.757 219.468 224.467  1.00  0.00     0.293 HD
ENDBRANCH   2  22
BRANCH   6  24
ATOM     24  O   UNL     1     213.631 218.018 224.081  1.00  0.00    -0.507 OA
ATOM     25  H   UNL     1     213.913 217.228 224.641  1.00  0.00     0.293 HD
ENDBRANCH   6  24
BRANCH   8  26
ATOM     26  O   UNL     1     211.868 222.370 225.087  1.00  0.00    -0.508 OA
ATOM     27  H   UNL     1     210.948 221.984 225.267  1.00  0.00     0.293 HD
ENDBRANCH   8  26
TORSDOF 6
ENDMDL
MODEL 2
REMARK VINA RESULT:    -5.010      6.533     10.790
REMARK INTER + INTRA:          -6.355
REMARK INTER:                  -6.036
REMARK INTRA:                  -0.319
REMARK UNBOUND:                -0.320
REMARK SMILES O=c1c(O)c(-c2ccc(O)c(O)c2)oc2cc(O)cc(O)c12
REMARK SMILES IDX 5 1 3 2 2 3 1 4 22 5 20 6 19 7 17 8 16 9 15 10 14 11 6 12
REMARK SMILES IDX 7 13 8 14 9 15 13 16 11 17 10 18 12 20 4 22 21 24 18 26
REMARK H PARENT 10 19 12 21 4 23 21 25 18 27
REMARK Flexibility Score: inf
ROOT
ATOM      1  C   UNL     1     216.691 213.184 224.510  1.00  0.00     0.180 A 
ATOM      2  C   UNL     1     216.725 214.583 224.377  1.00  0.00     0.208 A 
ATOM      3  C   UNL     1     217.968 215.236 224.365  1.00  0.00     0.238 A 
ATOM      4  O   UNL     1     217.990 216.494 224.300  1.00  0.00    -0.285 OA
ATOM      5  C   UNL     1     219.162 214.481 224.470  1.00  0.00     0.111 A 
ATOM      6  C   UNL     1     220.476 215.035 224.427  1.00  0.00     0.134 A 
ATOM      7  C   UNL     1     221.581 214.209 224.672  1.00  0.00     0.093 A 
ATOM      8  C   UNL     1     221.422 212.839 224.891  1.00  0.00     0.123 A 
ATOM      9  C   UNL     1     220.146 212.280 224.875  1.00  0.00     0.094 A 
ATOM     10  C   UNL     1     219.022 213.083 224.670  1.00  0.00     0.146 A 
ATOM     11  O   UNL     1     217.824 212.511 224.672  1.00  0.00    -0.452 OA
ENDROOT
BRANCH   1  12
ATOM     12  C   UNL     1     215.421 212.423 224.506  1.00  0.00     0.025 A 
ATOM     13  C   UNL     1     214.842 212.050 223.283  1.00  0.00     0.016 A 
ATOM     14  C   UNL     1     213.634 211.350 223.255  1.00  0.00     0.051 A 
ATOM     15  C   UNL     1     212.978 211.026 224.449  1.00  0.00     0.157 A 
ATOM     16  C   UNL     1     214.748 212.114 225.702  1.00  0.00     0.062 A 
ATOM     17  C   UNL     1     213.536 211.415 225.678  1.00  0.00     0.158 A 
BRANCH  15  18
ATOM     18  O   UNL     1     211.773 210.325 224.419  1.00  0.00    -0.504 OA
ATOM     19  H   UNL     1     211.712 209.391 224.029  1.00  0.00     0.293 HD
ENDBRANCH  15  18
BRANCH  17  20
ATOM     20  O   UNL     1     212.900 211.120 226.884  1.00  0.00    -0.504 OA
ATOM     21  H   UNL     1     212.048 210.575 226.923  1.00  0.00     0.293 HD
ENDBRANCH  17  20
ENDBRANCH   1  12
BRANCH   2  22
ATOM     22  O   UNL     1     215.535 215.310 224.297  1.00  0.00    -0.502 OA
ATOM     23  H   UNL     1     215.101 215.548 223.413  1.00  0.00     0.293 HD
ENDBRANCH   2  22
BRANCH   6  24
ATOM     24  O   UNL     1     220.751 216.372 224.126  1.00  0.00    -0.507 OA
ATOM     25  H   UNL     1     220.072 217.119 224.156  1.00  0.00     0.293 HD
ENDBRANCH   6  24
BRANCH   8  26
ATOM     26  O   UNL     1     222.528 212.023 225.118  1.00  0.00    -0.508 OA
ATOM     27  H   UNL     1     223.138 212.166 225.915  1.00  0.00     0.293 HD
ENDBRANCH   8  26
TORSDOF 6
ENDMDL
MODEL 3
REMARK VINA RESULT:    -5.010      5.237      7.623
REMARK INTER + INTRA:          -6.355
REMARK INTER:                  -6.035
REMARK INTRA:                  -0.320
REMARK UNBOUND:                -0.320
REMARK SMILES O=c1c(O)c(-c2ccc(O)c(O)c2)oc2cc(O)cc(O)c12
REMARK SMILES IDX 5 1 3 2 2 3 1 4 22 5 20 6 19 7 17 8 16 9 15 10 14 11 6 12
REMARK SMILES IDX 7 13 8 14 9 15 13 16 11 17 10 18 12 20 4 22 21 24 18 26
REMARK H PARENT 10 19 12 21 4 23 21 25 18 27
REMARK Flexibility Score: inf
ROOT
ATOM      1  C   UNL     1     221.185 216.678 224.512  1.00  0.00     0.180 A 
ATOM      2  C   UNL     1     219.787 216.716 224.375  1.00  0.00     0.208 A 
ATOM      3  C   UNL     1     219.138 217.962 224.364  1.00  0.00     0.238 A 
ATOM      4  O   UNL     1     217.880 217.988 224.295  1.00  0.00    -0.285 OA
ATOM      5  C   UNL     1     219.896 219.153 224.472  1.00  0.00     0.111 A 
ATOM      6  C   UNL     1     219.347 220.469 224.431  1.00  0.00     0.134 A 
ATOM      7  C   UNL     1     220.175 221.571 224.680  1.00  0.00     0.093 A 
ATOM      8  C   UNL     1     221.544 221.407 224.902  1.00  0.00     0.123 A 
ATOM      9  C   UNL     1     222.100 220.130 224.885  1.00  0.00     0.094 A 
ATOM     10  C   UNL     1     221.293 219.009 224.677  1.00  0.00     0.146 A 
ATOM     11  O   UNL     1     221.861 217.809 224.678  1.00  0.00    -0.452 OA
ENDROOT
BRANCH   1  12
ATOM     12  C   UNL     1     221.942 215.405 224.508  1.00  0.00     0.025 A 
ATOM     13  C   UNL     1     222.329 214.835 223.285  1.00  0.00     0.016 A 
ATOM     14  C   UNL     1     223.025 213.625 223.257  1.00  0.00     0.051 A 
ATOM     15  C   UNL     1     223.331 212.958 224.450  1.00  0.00     0.157 A 
ATOM     16  C   UNL     1     222.232 214.722 225.702  1.00  0.00     0.062 A 
ATOM     17  C   UNL     1     222.928 213.508 225.678  1.00  0.00     0.158 A 
BRANCH  15  18
ATOM     18  O   UNL     1     224.029 211.751 224.419  1.00  0.00    -0.504 OA
ATOM     19  H   UNL     1     223.962 211.120 223.629  1.00  0.00     0.293 HD
ENDBRANCH  15  18
BRANCH  17  20
ATOM     20  O   UNL     1     223.205 212.862 226.883  1.00  0.00    -0.504 OA
ATOM     21  H   UNL     1     223.477 211.886 226.920  1.00  0.00     0.293 HD
ENDBRANCH  17  20
ENDBRANCH   1  12
BRANCH   2  22
ATOM     22  O   UNL     1     219.055 215.529 224.291  1.00  0.00    -0.502 OA
ATOM     23  H   UNL     1     219.110 214.805 224.997  1.00  0.00     0.293 HD
ENDBRANCH   2  22
BRANCH   6  24
ATOM     24  O   UNL     1     218.011 220.749 224.126  1.00  0.00    -0.507 OA
ATOM     25  H   UNL     1     217.593 221.666 224.164  1.00  0.00     0.293 HD
ENDBRANCH   6  24
BRANCH   8  26
ATOM     26  O   UNL     1     222.364 222.510 225.133  1.00  0.00    -0.508 OA
ATOM     27  H   UNL     1     222.586 222.817 226.073  1.00  0.00     0.293 HD
ENDBRANCH   8  26
TORSDOF 6
ENDMDL
MODEL 4
REMARK VINA RESULT:    -5.001      5.206      7.614
REMARK INTER + INTRA:          -6.345
REMARK INTER:                  -6.023
REMARK INTRA:                  -0.321
REMARK UNBOUND:                -0.320
REMARK SMILES O=c1c(O)c(-c2ccc(O)c(O)c2)oc2cc(O)cc(O)c12
REMARK SMILES IDX 5 1 3 2 2 3 1 4 22 5 20 6 19 7 17 8 16 9 15 10 14 11 6 12
REMARK SMILES IDX 7 13 8 14 9 15 13 16 11 17 10 18 12 20 4 22 21 24 18 26
REMARK H PARENT 10 19 12 21 4 23 21 25 18 27
REMARK Flexibility Score: inf
ROOT
ATOM      1  C   UNL     1     213.222 217.719 224.512  1.00  0.00     0.180 A 
ATOM      2  C   UNL     1     214.622 217.692 224.386  1.00  0.00     0.208 A 
ATOM      3  C   UNL     1     215.281 216.452 224.378  1.00  0.00     0.238 A 
ATOM      4  O   UNL     1     216.539 216.436 224.319  1.00  0.00    -0.285 OA
ATOM      5  C   UNL     1     214.532 215.255 224.478  1.00  0.00     0.111 A 
ATOM      6  C   UNL     1     215.092 213.943 224.438  1.00  0.00     0.134 A 
ATOM      7  C   UNL     1     214.271 212.834 224.679  1.00  0.00     0.093 A 
ATOM      8  C   UNL     1     212.899 212.986 224.890  1.00  0.00     0.123 A 
ATOM      9  C   UNL     1     212.333 214.259 224.871  1.00  0.00     0.094 A 
ATOM     10  C   UNL     1     213.132 215.387 224.671  1.00  0.00     0.146 A 
ATOM     11  O   UNL     1     212.554 216.582 224.670  1.00  0.00    -0.452 OA
ENDROOT
BRANCH   1  12
ATOM     12  C   UNL     1     212.455 218.985 224.504  1.00  0.00     0.025 A 
ATOM     13  C   UNL     1     212.061 219.547 223.279  1.00  0.00     0.016 A 
ATOM     14  C   UNL     1     211.355 220.751 223.246  1.00  0.00     0.051 A 
ATOM     15  C   UNL     1     211.045 221.421 224.437  1.00  0.00     0.157 A 
ATOM     16  C   UNL     1     212.161 219.671 225.695  1.00  0.00     0.062 A 
ATOM     17  C   UNL     1     211.455 220.879 225.667  1.00  0.00     0.158 A 
BRANCH  15  18
ATOM     18  O   UNL     1     210.338 222.622 224.403  1.00  0.00    -0.504 OA
ATOM     19  H   UNL     1     209.647 222.810 223.686  1.00  0.00     0.293 HD
ENDBRANCH  15  18
BRANCH  17  20
ATOM     20  O   UNL     1     211.175 221.528 226.869  1.00  0.00    -0.504 OA
ATOM     21  H   UNL     1     210.854 222.489 226.900  1.00  0.00     0.293 HD
ENDBRANCH  17  20
ENDBRANCH   1  12
BRANCH   2  22
ATOM     22  O   UNL     1     215.344 218.885 224.310  1.00  0.00    -0.502 OA
ATOM     23  H   UNL     1     216.025 219.155 225.010  1.00  0.00     0.293 HD
ENDBRANCH   2  22
BRANCH   6  24
ATOM     24  O   UNL     1     216.433 213.675 224.145  1.00  0.00    -0.507 OA
ATOM     25  H   UNL     1     216.777 213.389 223.240  1.00  0.00     0.293 HD
ENDBRANCH   6  24
BRANCH   8  26
ATOM     26  O   UNL     1     212.087 211.876 225.113  1.00  0.00    -0.508 OA
ATOM     27  H   UNL     1     212.472 210.941 225.176  1.00  0.00     0.293 HD
ENDBRANCH   8  26
TORSDOF 6
ENDMDL
MODEL 5
REMARK VINA RESULT:    -4.610      5.109      7.888
REMARK INTER + INTRA:          -5.874
REMARK INTER:                  -5.673
REMARK INTRA:                  -0.201
REMARK UNBOUND:                -0.320
REMARK SMILES O=c1c(O)c(-c2ccc(O)c(O)c2)oc2cc(O)cc(O)c12
REMARK SMILES IDX 5 1 3 2 2 3 1 4 22 5 20 6 19 7 17 8 16 9 15 10 14 11 6 12
REMARK SMILES IDX 7 13 8 14 9 15 13 16 11 17 10 18 12 20 4 22 21 24 18 26
REMARK H PARENT 10 19 12 21 4 23 21 25 18 27
REMARK Flexibility Score: inf
ROOT
ATOM      1  C   UNL     1     221.761 217.255 224.981  1.00  0.00     0.180 A 
ATOM      2  C   UNL     1     222.907 218.030 225.231  1.00  0.00     0.208 A 
ATOM      3  C   UNL     1     222.813 219.429 225.152  1.00  0.00     0.238 A 
ATOM      4  O   UNL     1     223.855 220.115 225.324  1.00  0.00    -0.285 OA
ATOM      5  C   UNL     1     221.573 220.036 224.840  1.00  0.00     0.111 A 
ATOM      6  C   UNL     1     221.354 221.445 224.774  1.00  0.00     0.134 A 
ATOM      7  C   UNL     1     220.119 221.931 224.327  1.00  0.00     0.093 A 
ATOM      8  C   UNL     1     219.074 221.060 224.010  1.00  0.00     0.123 A 
ATOM      9  C   UNL     1     219.259 219.685 224.129  1.00  0.00     0.094 A 
ATOM     10  C   UNL     1     220.492 219.168 224.536  1.00  0.00     0.146 A 
ATOM     11  O   UNL     1     220.628 217.851 224.627  1.00  0.00    -0.452 OA
ENDROOT
BRANCH   1  12
ATOM     12  C   UNL     1     221.775 215.777 225.070  1.00  0.00     0.025 A 
ATOM     13  C   UNL     1     221.117 215.143 226.135  1.00  0.00     0.016 A 
ATOM     14  C   UNL     1     221.135 213.751 226.250  1.00  0.00     0.051 A 
ATOM     15  C   UNL     1     221.824 212.973 225.311  1.00  0.00     0.157 A 
ATOM     16  C   UNL     1     222.483 214.994 224.141  1.00  0.00     0.062 A 
ATOM     17  C   UNL     1     222.505 213.599 224.254  1.00  0.00     0.158 A 
BRANCH  15  18
ATOM     18  O   UNL     1     221.838 211.584 225.427  1.00  0.00    -0.504 OA
ATOM     19  H   UNL     1     221.621 210.984 224.639  1.00  0.00     0.293 HD
ENDBRANCH  15  18
BRANCH  17  20
ATOM     20  O   UNL     1     223.212 212.854 223.311  1.00  0.00    -0.504 OA
ATOM     21  H   UNL     1     224.209 212.693 223.390  1.00  0.00     0.293 HD
ENDBRANCH  17  20
ENDBRANCH   1  12
BRANCH   2  22
ATOM     22  O   UNL     1     224.126 217.410 225.516  1.00  0.00    -0.502 OA
ATOM     23  H   UNL     1     224.223 216.404 225.583  1.00  0.00     0.293 HD
ENDBRANCH   2  22
BRANCH   6  24
ATOM     24  O   UNL     1     222.300 222.400 225.156  1.00  0.00    -0.507 OA
ATOM     25  H   UNL     1     223.297 222.307 225.025  1.00  0.00     0.293 HD
ENDBRANCH   6  24
BRANCH   8  26
ATOM     26  O   UNL     1     217.843 221.554 223.582  1.00  0.00    -0.508 OA
ATOM     27  H   UNL     1     217.159 220.954 223.135  1.00  0.00     0.293 HD
ENDBRANCH   8  26
TORSDOF 6
ENDMDL
MODEL 6
REMARK VINA RESULT:    -4.605      7.095     10.785
REMARK INTER + INTRA:          -5.868
REMARK INTER:                  -5.667
REMARK INTRA:                  -0.201
REMARK UNBOUND:                -0.320
REMARK SMILES O=c1c(O)c(-c2ccc(O)c(O)c2)oc2cc(O)cc(O)c12
REMARK SMILES IDX 5 1 3 2 2 3 1 4 22 5 20 6 19 7 17 8 16 9 15 10 14 11 6 12
REMARK SMILES IDX 7 13 8 14 9 15 13 16 11 17 10 18 12 20 4 22 21 24 18 26
REMARK H PARENT 10 19 12 21 4 23 21 25 18 27
REMARK Flexibility Score: inf
ROOT
ATOM      1  C   UNL     1     217.260 212.619 224.969  1.00  0.00     0.180 A 
ATOM      2  C   UNL     1     218.036 211.474 225.219  1.00  0.00     0.208 A 
ATOM      3  C   UNL     1     219.435 211.570 225.142  1.00  0.00     0.238 A 
ATOM      4  O   UNL     1     220.122 210.528 225.313  1.00  0.00    -0.285 OA
ATOM      5  C   UNL     1     220.041 212.812 224.834  1.00  0.00     0.111 A 
ATOM      6  C   UNL     1     221.450 213.032 224.771  1.00  0.00     0.134 A 
ATOM      7  C   UNL     1     221.935 214.269 224.328  1.00  0.00     0.093 A 
ATOM      8  C   UNL     1     221.064 215.313 224.011  1.00  0.00     0.123 A 
ATOM      9  C   UNL     1     219.689 215.126 224.127  1.00  0.00     0.094 A 
ATOM     10  C   UNL     1     219.173 213.892 224.530  1.00  0.00     0.146 A 
ATOM     11  O   UNL     1     217.855 213.754 224.619  1.00  0.00    -0.452 OA
ENDROOT
BRANCH   1  12
ATOM     12  C   UNL     1     215.782 212.604 225.056  1.00  0.00     0.025 A 
ATOM     13  C   UNL     1     215.145 213.261 226.120  1.00  0.00     0.016 A 
ATOM     14  C   UNL     1     213.753 213.241 226.232  1.00  0.00     0.051 A 
ATOM     15  C   UNL     1     212.977 212.551 225.292  1.00  0.00     0.157 A 
ATOM     16  C   UNL     1     215.002 211.894 224.126  1.00  0.00     0.062 A 
ATOM     17  C   UNL     1     213.607 211.870 224.236  1.00  0.00     0.158 A 
BRANCH  15  18
ATOM     18  O   UNL     1     211.588 212.535 225.405  1.00  0.00    -0.504 OA
ATOM     19  H   UNL     1     211.027 213.344 225.166  1.00  0.00     0.293 HD
ENDBRANCH  15  18
BRANCH  17  20
ATOM     20  O   UNL     1     212.864 211.162 223.291  1.00  0.00    -0.504 OA
ATOM     21  H   UNL     1     212.387 210.298 223.520  1.00  0.00     0.293 HD
ENDBRANCH  17  20
ENDBRANCH   1  12
BRANCH   2  22
ATOM     22  O   UNL     1     217.417 210.254 225.500  1.00  0.00    -0.502 OA
ATOM     23  H   UNL     1     217.683 209.678 226.290  1.00  0.00     0.293 HD
ENDBRANCH   2  22
BRANCH   6  24
ATOM     24  O   UNL     1     222.406 212.086 225.153  1.00  0.00    -0.507 OA
ATOM     25  H   UNL     1     223.039 211.621 224.520  1.00  0.00     0.293 HD
ENDBRANCH   6  24
BRANCH   8  26
ATOM     26  O   UNL     1     221.556 216.545 223.587  1.00  0.00    -0.508 OA
ATOM     27  H   UNL     1     222.541 216.777 223.660  1.00  0.00     0.293 HD
ENDBRANCH   8  26
TORSDOF 6
ENDMDL
MODEL 7
REMARK VINA RESULT:    -4.599      1.417      3.171
REMARK INTER + INTRA:          -5.861
REMARK INTER:                  -5.698
REMARK INTRA:                  -0.163
REMARK UNBOUND:                -0.320
REMARK SMILES O=c1c(O)c(-c2ccc(O)c(O)c2)oc2cc(O)cc(O)c12
REMARK SMILES IDX 5 1 3 2 2 3 1 4 22 5 20 6 19 7 17 8 16 9 15 10 14 11 6 12
REMARK SMILES IDX 7 13 8 14 9 15 13 16 11 17 10 18 12 20 4 22 21 24 18 26
REMARK H PARENT 10 19 12 21 4 23 21 25 18 27
REMARK Flexibility Score: inf
ROOT
ATOM      1  C   UNL     1     217.147 221.751 224.889  1.00  0.00     0.180 A 
ATOM      2  C   UNL     1     216.372 222.899 225.126  1.00  0.00     0.208 A 
ATOM      3  C   UNL     1     214.972 222.802 225.061  1.00  0.00     0.238 A 
ATOM      4  O   UNL     1     214.285 223.845 225.221  1.00  0.00    -0.285 OA
ATOM      5  C   UNL     1     214.365 221.554 224.778  1.00  0.00     0.111 A 
ATOM      6  C   UNL     1     212.956 221.331 224.728  1.00  0.00     0.134 A 
ATOM      7  C   UNL     1     212.469 220.087 224.309  1.00  0.00     0.093 A 
ATOM      8  C   UNL     1     213.339 219.039 224.002  1.00  0.00     0.123 A 
ATOM      9  C   UNL     1     214.715 219.229 224.105  1.00  0.00     0.094 A 
ATOM     10  C   UNL     1     215.232 220.470 224.485  1.00  0.00     0.146 A 
ATOM     11  O   UNL     1     216.550 220.611 224.561  1.00  0.00    -0.452 OA
ENDROOT
BRANCH   1  12
ATOM     12  C   UNL     1     218.626 221.770 224.964  1.00  0.00     0.025 A 
ATOM     13  C   UNL     1     219.274 221.068 225.992  1.00  0.00     0.016 A 
ATOM     14  C   UNL     1     220.667 221.088 226.094  1.00  0.00     0.051 A 
ATOM     15  C   UNL     1     221.432 221.825 225.180  1.00  0.00     0.157 A 
ATOM     16  C   UNL     1     219.395 222.525 224.061  1.00  0.00     0.062 A 
ATOM     17  C   UNL     1     220.791 222.550 224.161  1.00  0.00     0.158 A 
BRANCH  15  18
ATOM     18  O   UNL     1     222.822 221.842 225.282  1.00  0.00    -0.504 OA
ATOM     19  H   UNL     1     223.404 221.248 224.702  1.00  0.00     0.293 HD
ENDBRANCH  15  18
BRANCH  17  20
ATOM     20  O   UNL     1     221.522 223.304 223.244  1.00  0.00    -0.504 OA
ATOM     21  H   UNL     1     222.504 223.515 223.381  1.00  0.00     0.293 HD
ENDBRANCH  17  20
ENDBRANCH   1  12
BRANCH   2  22
ATOM     22  O   UNL     1     216.991 224.125 225.383  1.00  0.00    -0.502 OA
ATOM     23  H   UNL     1     217.246 224.771 224.646  1.00  0.00     0.293 HD
ENDBRANCH   2  22
BRANCH   6  24
ATOM     24  O   UNL     1     212.002 222.282 225.103  1.00  0.00    -0.507 OA
ATOM     25  H   UNL     1     211.063 222.067 225.403  1.00  0.00     0.293 HD
ENDBRANCH   6  24
BRANCH   8  26
ATOM     26  O   UNL     1     212.845 217.800 223.601  1.00  0.00    -0.508 OA
ATOM     27  H   UNL     1     211.961 217.715 223.111  1.00  0.00     0.293 HD
ENDBRANCH   8  26
TORSDOF 6
ENDMDL
MODEL 8
REMARK VINA RESULT:    -4.593      5.608      8.053
REMARK INTER + INTRA:          -5.853
REMARK INTER:                  -5.618
REMARK INTRA:                  -0.235
REMARK UNBOUND:                -0.320
REMARK SMILES O=c1c(O)c(-c2ccc(O)c(O)c2)oc2cc(O)cc(O)c12
REMARK SMILES IDX 5 1 3 2 2 3 1 4 22 5 20 6 19 7 17 8 16 9 15 10 14 11 6 12
REMARK SMILES IDX 7 13 8 14 9 15 13 16 11 17 10 18 12 20 4 22 21 24 18 26
REMARK H PARENT 10 19 12 21 4 23 21 25 18 27
REMARK Flexibility Score: inf
ROOT
ATOM      1  C   UNL     1     212.608 217.073 225.010  1.00  0.00     0.180 A 
ATOM      2  C   UNL     1     211.472 216.291 225.281  1.00  0.00     0.208 A 
ATOM      3  C   UNL     1     211.572 214.892 225.193  1.00  0.00     0.238 A 
ATOM      4  O   UNL     1     210.537 214.199 225.385  1.00  0.00    -0.285 OA
ATOM      5  C   UNL     1     212.809 214.294 224.853  1.00  0.00     0.111 A 
ATOM      6  C   UNL     1     213.034 212.887 224.776  1.00  0.00     0.134 A 
ATOM      7  C   UNL     1     214.263 212.410 224.302  1.00  0.00     0.093 A 
ATOM      8  C   UNL     1     215.295 213.288 223.966  1.00  0.00     0.123 A 
ATOM      9  C   UNL     1     215.105 214.662 224.095  1.00  0.00     0.094 A 
ATOM     10  C   UNL     1     213.878 215.169 224.530  1.00  0.00     0.146 A 
ATOM     11  O   UNL     1     213.736 216.486 224.629  1.00  0.00    -0.452 OA
ENDROOT
BRANCH   1  12
ATOM     12  C   UNL     1     212.587 218.551 225.105  1.00  0.00     0.025 A 
ATOM     13  C   UNL     1     213.201 219.181 226.199  1.00  0.00     0.016 A 
ATOM     14  C   UNL     1     213.176 220.572 226.320  1.00  0.00     0.051 A 
ATOM     15  C   UNL     1     212.523 221.354 225.358  1.00  0.00     0.157 A 
ATOM     16  C   UNL     1     211.914 219.337 224.154  1.00  0.00     0.062 A 
ATOM     17  C   UNL     1     211.884 220.731 224.272  1.00  0.00     0.158 A 
BRANCH  15  18
ATOM     18  O   UNL     1     212.501 222.742 225.480  1.00  0.00    -0.504 OA
ATOM     19  H   UNL     1     211.629 223.257 225.518  1.00  0.00     0.293 HD
ENDBRANCH  15  18
BRANCH  17  20
ATOM     20  O   UNL     1     211.213 221.479 223.306  1.00  0.00    -0.504 OA
ATOM     21  H   UNL     1     210.734 221.045 222.526  1.00  0.00     0.293 HD
ENDBRANCH  17  20
ENDBRANCH   1  12
BRANCH   2  22
ATOM     22  O   UNL     1     210.255 216.902 225.594  1.00  0.00    -0.502 OA
ATOM     23  H   UNL     1     210.189 217.692 226.224  1.00  0.00     0.293 HD
ENDBRANCH   2  22
BRANCH   6  24
ATOM     24  O   UNL     1     212.102 211.924 225.174  1.00  0.00    -0.507 OA
ATOM     25  H   UNL     1     211.638 211.909 226.070  1.00  0.00     0.293 HD
ENDBRANCH   6  24
BRANCH   8  26
ATOM     26  O   UNL     1     216.520 212.804 223.510  1.00  0.00    -0.508 OA
ATOM     27  H   UNL     1     216.615 211.863 223.144  1.00  0.00     0.293 HD
ENDBRANCH   8  26
TORSDOF 6
ENDMDL
MODEL 9
REMARK VINA RESULT:    -4.538      7.307     10.063
REMARK INTER + INTRA:          -5.786
REMARK INTER:                  -5.499
REMARK INTRA:                  -0.288
REMARK UNBOUND:                -0.320
REMARK SMILES O=c1c(O)c(-c2ccc(O)c(O)c2)oc2cc(O)cc(O)c12
REMARK SMILES IDX 5 1 3 2 2 3 1 4 22 5 20 6 19 7 17 8 16 9 15 10 14 11 6 12
REMARK SMILES IDX 7 13 8 14 9 15 13 16 11 17 10 18 12 20 4 22 21 24 18 26
REMARK H PARENT 10 19 12 21 4 23 21 25 18 27
REMARK Flexibility Score: inf
ROOT
ATOM      1  C   UNL     1     213.235 214.325 224.677  1.00  0.00     0.180 A 
ATOM      2  C   UNL     1     214.587 214.501 224.336  1.00  0.00     0.208 A 
ATOM      3  C   UNL     1     215.360 213.374 224.011  1.00  0.00     0.238 A 
ATOM      4  O   UNL     1     216.584 213.532 223.759  1.00  0.00    -0.285 OA
ATOM      5  C   UNL     1     214.767 212.089 224.014  1.00  0.00     0.111 A 
ATOM      6  C   UNL     1     215.444 210.883 223.661  1.00  0.00     0.134 A 
ATOM      7  C   UNL     1     214.795 209.653 223.827  1.00  0.00     0.093 A 
ATOM      8  C   UNL     1     213.472 209.590 224.268  1.00  0.00     0.123 A 
ATOM      9  C   UNL     1     212.783 210.766 224.558  1.00  0.00     0.094 A 
ATOM     10  C   UNL     1     213.415 212.006 224.438  1.00  0.00     0.146 A 
ATOM     11  O   UNL     1     212.725 213.101 224.734  1.00  0.00    -0.452 OA
ENDROOT
BRANCH   1  12
ATOM     12  C   UNL     1     212.351 215.467 225.007  1.00  0.00     0.025 A 
ATOM     13  C   UNL     1     211.972 215.683 226.341  1.00  0.00     0.016 A 
ATOM     14  C   UNL     1     211.122 216.741 226.673  1.00  0.00     0.051 A 
ATOM     15  C   UNL     1     210.626 217.589 225.674  1.00  0.00     0.157 A 
ATOM     16  C   UNL     1     211.834 216.307 224.005  1.00  0.00     0.062 A 
ATOM     17  C   UNL     1     210.981 217.367 224.333  1.00  0.00     0.158 A 
BRANCH  15  18
ATOM     18  O   UNL     1     209.780 218.645 226.008  1.00  0.00    -0.504 OA
ATOM     19  H   UNL     1     208.789 218.502 226.162  1.00  0.00     0.293 HD
ENDBRANCH  15  18
BRANCH  17  20
ATOM     20  O   UNL     1     210.493 218.184 223.314  1.00  0.00    -0.504 OA
ATOM     21  H   UNL     1     210.117 217.804 222.453  1.00  0.00     0.293 HD
ENDBRANCH  17  20
ENDBRANCH   1  12
BRANCH   2  22
ATOM     22  O   UNL     1     215.158 215.776 224.360  1.00  0.00    -0.502 OA
ATOM     23  H   UNL     1     216.131 215.932 224.596  1.00  0.00     0.293 HD
ENDBRANCH   2  22
BRANCH   6  24
ATOM     24  O   UNL     1     216.734 210.842 223.124  1.00  0.00    -0.507 OA
ATOM     25  H   UNL     1     217.052 210.168 222.443  1.00  0.00     0.293 HD
ENDBRANCH   6  24
BRANCH   8  26
ATOM     26  O   UNL     1     212.829 208.363 224.415  1.00  0.00    -0.508 OA
ATOM     27  H   UNL     1     213.309 207.555 224.794  1.00  0.00     0.293 HD
ENDBRANCH   8  26
TORSDOF 6
ENDMDL
