MODEL 1
REMARK VINA RESULT:    -7.426      0.000      0.000
REMARK INTER + INTRA:          -9.099
REMARK INTER:                  -8.945
REMARK INTRA:                  -0.153
REMARK UNBOUND:                -0.153
REMARK SMILES O=c1c(O)c(-c2ccc(O)c(O)c2)oc2cc(O)cc(O)c12
REMARK SMILES IDX 5 1 3 2 2 3 1 4 22 5 20 6 19 7 17 8 16 9 15 10 14 11 6 12
REMARK SMILES IDX 7 13 8 14 9 15 13 16 11 17 10 18 12 20 4 22 21 24 18 26
REMARK H PARENT 10 19 12 21 4 23 21 25 18 27
REMARK Flexibility Score: inf
ROOT
ATOM      1  C   UNL     1      23.409  30.277  18.214  1.00  0.00     0.180 A 
ATOM      2  C   UNL     1      22.652  30.848  17.173  1.00  0.00     0.208 A 
ATOM      3  C   UNL     1      21.833  31.953  17.458  1.00  0.00     0.238 A 
ATOM      4  O   UNL     1      21.142  32.467  16.537  1.00  0.00    -0.285 OA
ATOM      5  C   UNL     1      21.802  32.479  18.766  1.00  0.00     0.111 A 
ATOM      6  C   UNL     1      21.009  33.592  19.134  1.00  0.00     0.134 A 
ATOM      7  C   UNL     1      21.039  34.062  20.456  1.00  0.00     0.093 A 
ATOM      8  C   UNL     1      21.849  33.440  21.414  1.00  0.00     0.123 A 
ATOM      9  C   UNL     1      22.632  32.342  21.055  1.00  0.00     0.094 A 
ATOM     10  C   UNL     1      22.613  31.858  19.744  1.00  0.00     0.146 A 
ATOM     11  O   UNL     1      23.366  30.808  19.432  1.00  0.00    -0.452 OA
ENDROOT
BRANCH   1  12
ATOM     12  C   UNL     1      24.280  29.099  17.997  1.00  0.00     0.025 A 
ATOM     13  C   UNL     1      24.041  27.880  18.657  1.00  0.00     0.016 A 
ATOM     14  C   UNL     1      24.891  26.790  18.456  1.00  0.00     0.051 A 
ATOM     15  C   UNL     1      25.998  26.903  17.604  1.00  0.00     0.157 A 
ATOM     16  C   UNL     1      25.403  29.214  17.162  1.00  0.00     0.062 A 
ATOM     17  C   UNL     1      26.257  28.124  16.957  1.00  0.00     0.158 A 
BRANCH  15  18
ATOM     18  O   UNL     1      26.843  25.813  17.405  1.00  0.00    -0.504 OA
ATOM     19  H   UNL     1      26.820  25.005  18.015  1.00  0.00     0.293 HD
ENDBRANCH  15  18
BRANCH  17  20
ATOM     20  O   UNL     1      27.354  28.272  16.110  1.00  0.00    -0.504 OA
ATOM     21  H   UNL     1      27.820  27.477  15.691  1.00  0.00     0.293 HD
ENDBRANCH  17  20
ENDBRANCH   1  12
BRANCH   2  22
ATOM     22  O   UNL     1      22.738  30.340  15.875  1.00  0.00    -0.502 OA
ATOM     23  H   UNL     1      22.579  29.362  15.663  1.00  0.00     0.293 HD
ENDBRANCH   2  22
BRANCH   6  24
ATOM     24  O   UNL     1      20.194  34.233  18.201  1.00  0.00    -0.507 OA
ATOM     25  H   UNL     1      20.580  34.730  17.407  1.00  0.00     0.293 HD
ENDBRANCH   6  24
BRANCH   8  26
ATOM     26  O   UNL     1      21.880  33.906  22.726  1.00  0.00    -0.508 OA
ATOM     27  H   UNL     1      22.248  34.823  22.954  1.00  0.00     0.293 HD
ENDBRANCH   8  26
TORSDOF 6
ENDMDL
MODEL 2
REMARK VINA RESULT:    -6.391      1.887      3.770
REMARK INTER + INTRA:          -7.852
REMARK INTER:                  -8.302
REMARK INTRA:                   0.450
REMARK UNBOUND:                -0.153
REMARK SMILES O=c1c(O)c(-c2ccc(O)c(O)c2)oc2cc(O)cc(O)c12
REMARK SMILES IDX 5 1 3 2 2 3 1 4 22 5 20 6 19 7 17 8 16 9 15 10 14 11 6 12
REMARK SMILES IDX 7 13 8 14 9 15 13 16 11 17 10 18 12 20 4 22 21 24 18 26
REMARK H PARENT 10 19 12 21 4 23 21 25 18 27
REMARK Flexibility Score: inf
ROOT
ATOM      1  C   UNL     1      22.257  32.024  18.540  1.00  0.00     0.180 A 
ATOM      2  C   UNL     1      22.294  32.376  19.902  1.00  0.00     0.208 A 
ATOM      3  C   UNL     1      21.530  33.469  20.342  1.00  0.00     0.238 A 
ATOM      4  O   UNL     1      21.563  33.801  21.558  1.00  0.00    -0.285 OA
ATOM      5  C   UNL     1      20.729  34.175  19.420  1.00  0.00     0.111 A 
ATOM      6  C   UNL     1      19.927  35.284  19.781  1.00  0.00     0.134 A 
ATOM      7  C   UNL     1      19.151  35.929  18.807  1.00  0.00     0.093 A 
ATOM      8  C   UNL     1      19.162  35.484  17.480  1.00  0.00     0.123 A 
ATOM      9  C   UNL     1      19.951  34.392  17.118  1.00  0.00     0.094 A 
ATOM     10  C   UNL     1      20.733  33.738  18.075  1.00  0.00     0.146 A 
ATOM     11  O   UNL     1      21.479  32.703  17.702  1.00  0.00    -0.452 OA
ENDROOT
BRANCH   1  12
ATOM     12  C   UNL     1      23.048  30.897  17.997  1.00  0.00     0.025 A 
ATOM     13  C   UNL     1      23.292  30.770  16.617  1.00  0.00     0.016 A 
ATOM     14  C   UNL     1      24.021  29.684  16.126  1.00  0.00     0.051 A 
ATOM     15  C   UNL     1      24.506  28.703  17.001  1.00  0.00     0.157 A 
ATOM     16  C   UNL     1      23.518  29.899  18.867  1.00  0.00     0.062 A 
ATOM     17  C   UNL     1      24.250  28.811  18.378  1.00  0.00     0.158 A 
BRANCH  15  18
ATOM     18  O   UNL     1      25.235  27.622  16.507  1.00  0.00    -0.504 OA
ATOM     19  H   UNL     1      25.906  27.127  17.082  1.00  0.00     0.293 HD
ENDBRANCH  15  18
BRANCH  17  20
ATOM     20  O   UNL     1      24.713  27.848  19.275  1.00  0.00    -0.504 OA
ATOM     21  H   UNL     1      24.613  27.955  20.277  1.00  0.00     0.293 HD
ENDBRANCH  17  20
ENDBRANCH   1  12
BRANCH   2  22
ATOM     22  O   UNL     1      23.056  31.630  20.804  1.00  0.00    -0.502 OA
ATOM     23  H   UNL     1      24.046  31.794  20.946  1.00  0.00     0.293 HD
ENDBRANCH   2  22
BRANCH   6  24
ATOM     24  O   UNL     1      19.895  35.749  21.097  1.00  0.00    -0.507 OA
ATOM     25  H   UNL     1      20.057  35.132  21.884  1.00  0.00     0.293 HD
ENDBRANCH   6  24
BRANCH   8  26
ATOM     26  O   UNL     1      18.391  36.124  16.511  1.00  0.00    -0.508 OA
ATOM     27  H   UNL     1      17.778  35.603  15.894  1.00  0.00     0.293 HD
ENDBRANCH   8  26
TORSDOF 6
ENDMDL
MODEL 3
REMARK VINA RESULT:    -6.383     10.241     12.608
REMARK INTER + INTRA:          -7.842
REMARK INTER:                  -7.747
REMARK INTRA:                  -0.095
REMARK UNBOUND:                -0.153
REMARK SMILES O=c1c(O)c(-c2ccc(O)c(O)c2)oc2cc(O)cc(O)c12
REMARK SMILES IDX 5 1 3 2 2 3 1 4 22 5 20 6 19 7 17 8 16 9 15 10 14 11 6 12
REMARK SMILES IDX 7 13 8 14 9 15 13 16 11 17 10 18 12 20 4 22 21 24 18 26
REMARK H PARENT 10 19 12 21 4 23 21 25 18 27
REMARK Flexibility Score: inf
ROOT
ATOM      1  C   UNL     1      17.962  20.785  20.843  1.00  0.00     0.180 A 
ATOM      2  C   UNL     1      17.959  19.545  20.176  1.00  0.00     0.208 A 
ATOM      3  C   UNL     1      17.889  19.529  18.774  1.00  0.00     0.238 A 
ATOM      4  O   UNL     1      17.875  18.425  18.165  1.00  0.00    -0.285 OA
ATOM      5  C   UNL     1      17.845  20.747  18.064  1.00  0.00     0.111 A 
ATOM      6  C   UNL     1      17.778  20.820  16.652  1.00  0.00     0.134 A 
ATOM      7  C   UNL     1      17.746  22.071  16.019  1.00  0.00     0.093 A 
ATOM      8  C   UNL     1      17.781  23.250  16.773  1.00  0.00     0.123 A 
ATOM      9  C   UNL     1      17.846  23.185  18.165  1.00  0.00     0.094 A 
ATOM     10  C   UNL     1      17.876  21.947  18.814  1.00  0.00     0.146 A 
ATOM     11  O   UNL     1      17.933  21.914  20.141  1.00  0.00    -0.452 OA
ENDROOT
BRANCH   1  12
ATOM     12  C   UNL     1      18.014  20.883  22.319  1.00  0.00     0.025 A 
ATOM     13  C   UNL     1      19.073  20.319  23.054  1.00  0.00     0.016 A 
ATOM     14  C   UNL     1      19.088  20.404  24.448  1.00  0.00     0.051 A 
ATOM     15  C   UNL     1      18.042  21.039  25.131  1.00  0.00     0.157 A 
ATOM     16  C   UNL     1      16.957  21.500  23.009  1.00  0.00     0.062 A 
ATOM     17  C   UNL     1      16.970  21.587  24.406  1.00  0.00     0.158 A 
BRANCH  15  18
ATOM     18  O   UNL     1      18.062  21.123  26.522  1.00  0.00    -0.504 OA
ATOM     19  H   UNL     1      18.077  20.294  27.103  1.00  0.00     0.293 HD
ENDBRANCH  15  18
BRANCH  17  20
ATOM     20  O   UNL     1      15.910  22.220  25.055  1.00  0.00    -0.504 OA
ATOM     21  H   UNL     1      15.792  23.225  25.036  1.00  0.00     0.293 HD
ENDBRANCH  17  20
ENDBRANCH   1  12
BRANCH   2  22
ATOM     22  O   UNL     1      18.054  18.354  20.898  1.00  0.00    -0.502 OA
ATOM     23  H   UNL     1      18.025  17.444  20.453  1.00  0.00     0.293 HD
ENDBRANCH   2  22
BRANCH   6  24
ATOM     24  O   UNL     1      17.744  19.661  15.875  1.00  0.00    -0.507 OA
ATOM     25  H   UNL     1      16.911  19.381  15.371  1.00  0.00     0.293 HD
ENDBRANCH   6  24
BRANCH   8  26
ATOM     26  O   UNL     1      17.750  24.494  16.145  1.00  0.00    -0.508 OA
ATOM     27  H   UNL     1      17.803  24.580  15.137  1.00  0.00     0.293 HD
ENDBRANCH   8  26
TORSDOF 6
ENDMDL
MODEL 4
REMARK VINA RESULT:    -6.367     10.339     14.389
REMARK INTER + INTRA:          -7.823
REMARK INTER:                  -7.517
REMARK INTRA:                  -0.305
REMARK UNBOUND:                -0.153
REMARK SMILES O=c1c(O)c(-c2ccc(O)c(O)c2)oc2cc(O)cc(O)c12
REMARK SMILES IDX 5 1 3 2 2 3 1 4 22 5 20 6 19 7 17 8 16 9 15 10 14 11 6 12
REMARK SMILES IDX 7 13 8 14 9 15 13 16 11 17 10 18 12 20 4 22 21 24 18 26
REMARK H PARENT 10 19 12 21 4 23 21 25 18 27
REMARK Flexibility Score: inf
ROOT
ATOM      1  C   UNL     1      20.669  33.763  31.033  1.00  0.00     0.180 A 
ATOM      2  C   UNL     1      20.131  32.524  31.429  1.00  0.00     0.208 A 
ATOM      3  C   UNL     1      20.370  32.067  32.735  1.00  0.00     0.238 A 
ATOM      4  O   UNL     1      19.902  30.954  33.099  1.00  0.00    -0.285 OA
ATOM      5  C   UNL     1      21.121  32.862  33.625  1.00  0.00     0.111 A 
ATOM      6  C   UNL     1      21.403  32.477  34.958  1.00  0.00     0.134 A 
ATOM      7  C   UNL     1      22.150  33.329  35.785  1.00  0.00     0.093 A 
ATOM      8  C   UNL     1      22.620  34.557  35.304  1.00  0.00     0.123 A 
ATOM      9  C   UNL     1      22.345  34.940  33.991  1.00  0.00     0.094 A 
ATOM     10  C   UNL     1      21.603  34.104  33.151  1.00  0.00     0.146 A 
ATOM     11  O   UNL     1      21.361  34.493  31.903  1.00  0.00    -0.452 OA
ENDROOT
BRANCH   1  12
ATOM     12  C   UNL     1      20.478  34.303  29.668  1.00  0.00     0.025 A 
ATOM     13  C   UNL     1      19.452  35.223  29.381  1.00  0.00     0.016 A 
ATOM     14  C   UNL     1      19.275  35.700  28.080  1.00  0.00     0.051 A 
ATOM     15  C   UNL     1      20.109  35.258  27.044  1.00  0.00     0.157 A 
ATOM     16  C   UNL     1      21.296  33.847  28.622  1.00  0.00     0.062 A 
ATOM     17  C   UNL     1      21.122  34.324  27.317  1.00  0.00     0.158 A 
BRANCH  15  18
ATOM     18  O   UNL     1      19.931  35.738  25.747  1.00  0.00    -0.504 OA
ATOM     19  H   UNL     1      19.008  35.923  25.373  1.00  0.00     0.293 HD
ENDBRANCH  15  18
BRANCH  17  20
ATOM     20  O   UNL     1      21.964  33.858  26.308  1.00  0.00    -0.504 OA
ATOM     21  H   UNL     1      21.624  33.283  25.548  1.00  0.00     0.293 HD
ENDBRANCH  17  20
ENDBRANCH   1  12
BRANCH   2  22
ATOM     22  O   UNL     1      19.348  31.778  30.544  1.00  0.00    -0.502 OA
ATOM     23  H   UNL     1      18.558  32.175  30.051  1.00  0.00     0.293 HD
ENDBRANCH   2  22
BRANCH   6  24
ATOM     24  O   UNL     1      20.947  31.260  35.465  1.00  0.00    -0.507 OA
ATOM     25  H   UNL     1      21.402  30.804  36.248  1.00  0.00     0.293 HD
ENDBRANCH   6  24
BRANCH   8  26
ATOM     26  O   UNL     1      23.362  35.403  36.125  1.00  0.00    -0.508 OA
ATOM     27  H   UNL     1      23.018  36.319  36.391  1.00  0.00     0.293 HD
ENDBRANCH   8  26
TORSDOF 6
ENDMDL
MODEL 5
REMARK VINA RESULT:    -6.322     10.176     12.743
REMARK INTER + INTRA:          -7.769
REMARK INTER:                  -7.868
REMARK INTRA:                   0.099
REMARK UNBOUND:                -0.153
REMARK SMILES O=c1c(O)c(-c2ccc(O)c(O)c2)oc2cc(O)cc(O)c12
REMARK SMILES IDX 5 1 3 2 2 3 1 4 22 5 20 6 19 7 17 8 16 9 15 10 14 11 6 12
REMARK SMILES IDX 7 13 8 14 9 15 13 16 11 17 10 18 12 20 4 22 21 24 18 26
REMARK H PARENT 10 19 12 21 4 23 21 25 18 27
REMARK Flexibility Score: inf
ROOT
ATOM      1  C   UNL     1      18.073  21.137  20.874  1.00  0.00     0.180 A 
ATOM      2  C   UNL     1      17.995  22.337  20.142  1.00  0.00     0.208 A 
ATOM      3  C   UNL     1      18.155  22.292  18.748  1.00  0.00     0.238 A 
ATOM      4  O   UNL     1      18.099  23.361  18.082  1.00  0.00    -0.285 OA
ATOM      5  C   UNL     1      18.368  21.052  18.110  1.00  0.00     0.111 A 
ATOM      6  C   UNL     1      18.534  20.920  16.710  1.00  0.00     0.134 A 
ATOM      7  C   UNL     1      18.733  19.650  16.150  1.00  0.00     0.093 A 
ATOM      8  C   UNL     1      18.767  18.510  16.963  1.00  0.00     0.123 A 
ATOM      9  C   UNL     1      18.605  18.636  18.343  1.00  0.00     0.094 A 
ATOM     10  C   UNL     1      18.408  19.894  18.920  1.00  0.00     0.146 A 
ATOM     11  O   UNL     1      18.260  19.984  20.238  1.00  0.00    -0.452 OA
ENDROOT
BRANCH   1  12
ATOM     12  C   UNL     1      17.934  21.104  22.348  1.00  0.00     0.025 A 
ATOM     13  C   UNL     1      16.946  21.858  23.007  1.00  0.00     0.016 A 
ATOM     14  C   UNL     1      16.850  21.830  24.401  1.00  0.00     0.051 A 
ATOM     15  C   UNL     1      17.745  21.062  25.157  1.00  0.00     0.157 A 
ATOM     16  C   UNL     1      18.842  20.354  23.112  1.00  0.00     0.062 A 
ATOM     17  C   UNL     1      18.748  20.323  24.508  1.00  0.00     0.158 A 
BRANCH  15  18
ATOM     18  O   UNL     1      17.644  21.036  26.548  1.00  0.00    -0.504 OA
ATOM     19  H   UNL     1      18.282  21.559  27.135  1.00  0.00     0.293 HD
ENDBRANCH  15  18
BRANCH  17  20
ATOM     20  O   UNL     1      19.659  19.554  25.232  1.00  0.00    -0.504 OA
ATOM     21  H   UNL     1      20.659  19.673  25.134  1.00  0.00     0.293 HD
ENDBRANCH  17  20
ENDBRANCH   1  12
BRANCH   2  22
ATOM     22  O   UNL     1      17.735  23.545  20.792  1.00  0.00    -0.502 OA
ATOM     23  H   UNL     1      17.521  24.398  20.288  1.00  0.00     0.293 HD
ENDBRANCH   2  22
BRANCH   6  24
ATOM     24  O   UNL     1      18.503  22.037  15.875  1.00  0.00    -0.507 OA
ATOM     25  H   UNL     1      17.852  22.799  16.026  1.00  0.00     0.293 HD
ENDBRANCH   6  24
BRANCH   8  26
ATOM     26  O   UNL     1      18.964  17.248  16.407  1.00  0.00    -0.508 OA
ATOM     27  H   UNL     1      18.384  16.459  16.667  1.00  0.00     0.293 HD
ENDBRANCH   8  26
TORSDOF 6
ENDMDL
MODEL 6
REMARK VINA RESULT:    -6.237      9.481     11.678
REMARK INTER + INTRA:          -7.667
REMARK INTER:                  -7.392
REMARK INTRA:                  -0.275
REMARK UNBOUND:                -0.153
REMARK SMILES O=c1c(O)c(-c2ccc(O)c(O)c2)oc2cc(O)cc(O)c12
REMARK SMILES IDX 5 1 3 2 2 3 1 4 22 5 20 6 19 7 17 8 16 9 15 10 14 11 6 12
REMARK SMILES IDX 7 13 8 14 9 15 13 16 11 17 10 18 12 20 4 22 21 24 18 26
REMARK H PARENT 10 19 12 21 4 23 21 25 18 27
REMARK Flexibility Score: inf
ROOT
ATOM      1  C   UNL     1      31.944  34.952  21.086  1.00  0.00     0.180 A 
ATOM      2  C   UNL     1      30.924  35.353  20.203  1.00  0.00     0.208 A 
ATOM      3  C   UNL     1      31.155  35.279  18.820  1.00  0.00     0.238 A 
ATOM      4  O   UNL     1      30.253  35.646  18.019  1.00  0.00    -0.285 OA
ATOM      5  C   UNL     1      32.389  34.787  18.345  1.00  0.00     0.111 A 
ATOM      6  C   UNL     1      32.700  34.675  16.969  1.00  0.00     0.134 A 
ATOM      7  C   UNL     1      33.947  34.166  16.576  1.00  0.00     0.093 A 
ATOM      8  C   UNL     1      34.886  33.767  17.534  1.00  0.00     0.123 A 
ATOM      9  C   UNL     1      34.584  33.875  18.892  1.00  0.00     0.094 A 
ATOM     10  C   UNL     1      33.348  34.382  19.303  1.00  0.00     0.146 A 
ATOM     11  O   UNL     1      33.089  34.479  20.603  1.00  0.00    -0.452 OA
ENDROOT
BRANCH   1  12
ATOM     12  C   UNL     1      31.783  35.019  22.556  1.00  0.00     0.025 A 
ATOM     13  C   UNL     1      32.414  36.018  23.318  1.00  0.00     0.016 A 
ATOM     14  C   UNL     1      32.267  36.047  24.707  1.00  0.00     0.051 A 
ATOM     15  C   UNL     1      31.500  35.072  25.358  1.00  0.00     0.157 A 
ATOM     16  C   UNL     1      31.032  34.031  23.216  1.00  0.00     0.062 A 
ATOM     17  C   UNL     1      30.882  34.057  24.607  1.00  0.00     0.158 A 
BRANCH  15  18
ATOM     18  O   UNL     1      31.354  35.104  26.744  1.00  0.00    -0.504 OA
ATOM     19  H   UNL     1      30.474  35.354  27.179  1.00  0.00     0.293 HD
ENDBRANCH  15  18
BRANCH  17  20
ATOM     20  O   UNL     1      30.117  33.068  25.224  1.00  0.00    -0.504 OA
ATOM     21  H   UNL     1      30.537  32.247  25.643  1.00  0.00     0.293 HD
ENDBRANCH  17  20
ENDBRANCH   1  12
BRANCH   2  22
ATOM     22  O   UNL     1      29.693  35.791  20.697  1.00  0.00    -0.502 OA
ATOM     23  H   UNL     1      28.810  35.495  20.298  1.00  0.00     0.293 HD
ENDBRANCH   2  22
BRANCH   6  24
ATOM     24  O   UNL     1      31.783  35.064  15.992  1.00  0.00    -0.507 OA
ATOM     25  H   UNL     1      30.995  35.663  16.208  1.00  0.00     0.293 HD
ENDBRANCH   6  24
BRANCH   8  26
ATOM     26  O   UNL     1      36.125  33.261  17.145  1.00  0.00    -0.508 OA
ATOM     27  H   UNL     1      36.216  32.335  16.742  1.00  0.00     0.293 HD
ENDBRANCH   8  26
TORSDOF 6
ENDMDL
MODEL 7
REMARK VINA RESULT:    -6.171      1.252      1.885
REMARK INTER + INTRA:          -7.587
REMARK INTER:                  -7.821
REMARK INTRA:                   0.234
REMARK UNBOUND:                -0.153
REMARK SMILES O=c1c(O)c(-c2ccc(O)c(O)c2)oc2cc(O)cc(O)c12
REMARK SMILES IDX 5 1 3 2 2 3 1 4 22 5 20 6 19 7 17 8 16 9 15 10 14 11 6 12
REMARK SMILES IDX 7 13 8 14 9 15 13 16 11 17 10 18 12 20 4 22 21 24 18 26
REMARK H PARENT 10 19 12 21 4 23 21 25 18 27
REMARK Flexibility Score: inf
ROOT
ATOM      1  C   UNL     1      22.614  31.251  18.102  1.00  0.00     0.180 A 
ATOM      2  C   UNL     1      21.767  31.981  17.247  1.00  0.00     0.208 A 
ATOM      3  C   UNL     1      21.021  33.045  17.779  1.00  0.00     0.238 A 
ATOM      4  O   UNL     1      20.250  33.701  17.026  1.00  0.00    -0.285 OA
ATOM      5  C   UNL     1      21.150  33.374  19.144  1.00  0.00     0.111 A 
ATOM      6  C   UNL     1      20.439  34.433  19.757  1.00  0.00     0.134 A 
ATOM      7  C   UNL     1      20.630  34.703  21.120  1.00  0.00     0.093 A 
ATOM      8  C   UNL     1      21.519  33.934  21.881  1.00  0.00     0.123 A 
ATOM      9  C   UNL     1      22.222  32.888  21.281  1.00  0.00     0.094 A 
ATOM     10  C   UNL     1      22.044  32.603  19.924  1.00  0.00     0.146 A 
ATOM     11  O   UNL     1      22.723  31.598  19.381  1.00  0.00    -0.452 OA
ENDROOT
BRANCH   1  12
ATOM     12  C   UNL     1      23.418  30.105  17.620  1.00  0.00     0.025 A 
ATOM     13  C   UNL     1      23.942  30.074  16.315  1.00  0.00     0.016 A 
ATOM     14  C   UNL     1      24.676  28.970  15.875  1.00  0.00     0.051 A 
ATOM     15  C   UNL     1      24.888  27.876  16.725  1.00  0.00     0.157 A 
ATOM     16  C   UNL     1      23.614  28.996  18.460  1.00  0.00     0.062 A 
ATOM     17  C   UNL     1      24.350  27.889  18.023  1.00  0.00     0.158 A 
BRANCH  15  18
ATOM     18  O   UNL     1      25.623  26.777  16.283  1.00  0.00    -0.504 OA
ATOM     19  H   UNL     1      25.178  25.990  15.825  1.00  0.00     0.293 HD
ENDBRANCH  15  18
BRANCH  17  20
ATOM     20  O   UNL     1      24.536  26.813  18.891  1.00  0.00    -0.504 OA
ATOM     21  H   UNL     1      23.831  26.098  19.018  1.00  0.00     0.293 HD
ENDBRANCH  17  20
ENDBRANCH   1  12
BRANCH   2  22
ATOM     22  O   UNL     1      21.693  31.668  15.888  1.00  0.00    -0.502 OA
ATOM     23  H   UNL     1      21.178  32.236  15.226  1.00  0.00     0.293 HD
ENDBRANCH   2  22
BRANCH   6  24
ATOM     24  O   UNL     1      19.547  35.217  19.024  1.00  0.00    -0.507 OA
ATOM     25  H   UNL     1      19.725  35.465  18.058  1.00  0.00     0.293 HD
ENDBRANCH   6  24
BRANCH   8  26
ATOM     26  O   UNL     1      21.709  34.201  23.235  1.00  0.00    -0.508 OA
ATOM     27  H   UNL     1      20.986  34.013  23.919  1.00  0.00     0.293 HD
ENDBRANCH   8  26
TORSDOF 6
ENDMDL
MODEL 8
REMARK VINA RESULT:    -5.837     18.720     19.595
REMARK INTER + INTRA:          -7.184
REMARK INTER:                  -7.699
REMARK INTRA:                   0.515
REMARK UNBOUND:                -0.153
REMARK SMILES O=c1c(O)c(-c2ccc(O)c(O)c2)oc2cc(O)cc(O)c12
REMARK SMILES IDX 5 1 3 2 2 3 1 4 22 5 20 6 19 7 17 8 16 9 15 10 14 11 6 12
REMARK SMILES IDX 7 13 8 14 9 15 13 16 11 17 10 18 12 20 4 22 21 24 18 26
REMARK H PARENT 10 19 12 21 4 23 21 25 18 27
REMARK Flexibility Score: inf
ROOT
ATOM      1  C   UNL     1      31.352  26.927  35.007  1.00  0.00     0.180 A 
ATOM      2  C   UNL     1      32.367  26.206  34.349  1.00  0.00     0.208 A 
ATOM      3  C   UNL     1      33.610  26.823  34.138  1.00  0.00     0.238 A 
ATOM      4  O   UNL     1      34.524  26.191  33.541  1.00  0.00    -0.285 OA
ATOM      5  C   UNL     1      33.825  28.136  34.605  1.00  0.00     0.111 A 
ATOM      6  C   UNL     1      35.048  28.828  34.438  1.00  0.00     0.134 A 
ATOM      7  C   UNL     1      35.186  30.130  34.939  1.00  0.00     0.093 A 
ATOM      8  C   UNL     1      34.124  30.753  35.605  1.00  0.00     0.123 A 
ATOM      9  C   UNL     1      32.915  30.076  35.772  1.00  0.00     0.094 A 
ATOM     10  C   UNL     1      32.758  28.778  35.278  1.00  0.00     0.146 A 
ATOM     11  O   UNL     1      31.595  28.158  35.446  1.00  0.00    -0.452 OA
ENDROOT
BRANCH   1  12
ATOM     12  C   UNL     1      30.009  26.352  35.249  1.00  0.00     0.025 A 
ATOM     13  C   UNL     1      28.953  27.141  35.739  1.00  0.00     0.016 A 
ATOM     14  C   UNL     1      27.701  26.570  35.983  1.00  0.00     0.051 A 
ATOM     15  C   UNL     1      27.488  25.204  35.755  1.00  0.00     0.157 A 
ATOM     16  C   UNL     1      29.797  24.979  35.043  1.00  0.00     0.062 A 
ATOM     17  C   UNL     1      28.544  24.405  35.285  1.00  0.00     0.158 A 
BRANCH  15  18
ATOM     18  O   UNL     1      26.237  24.639  35.998  1.00  0.00    -0.504 OA
ATOM     19  H   UNL     1      25.885  23.871  35.440  1.00  0.00     0.293 HD
ENDBRANCH  15  18
BRANCH  17  20
ATOM     20  O   UNL     1      28.368  23.041  35.055  1.00  0.00    -0.504 OA
ATOM     21  H   UNL     1      29.151  22.413  34.923  1.00  0.00     0.293 HD
ENDBRANCH  17  20
ENDBRANCH   1  12
BRANCH   2  22
ATOM     22  O   UNL     1      32.146  24.889  33.940  1.00  0.00    -0.502 OA
ATOM     23  H   UNL     1      31.309  24.607  33.442  1.00  0.00     0.293 HD
ENDBRANCH   2  22
BRANCH   6  24
ATOM     24  O   UNL     1      36.125  28.232  33.780  1.00  0.00    -0.507 OA
ATOM     25  H   UNL     1      36.047  27.318  33.348  1.00  0.00     0.293 HD
ENDBRANCH   6  24
BRANCH   8  26
ATOM     26  O   UNL     1      34.260  32.047  36.104  1.00  0.00    -0.508 OA
ATOM     27  H   UNL     1      33.730  32.821  35.721  1.00  0.00     0.293 HD
ENDBRANCH   8  26
TORSDOF 6
ENDMDL
