MODEL 1
REMARK VINA RESULT:    -4.223      0.000      0.000
REMARK INTER + INTRA:          -7.074
REMARK INTER:                  -6.692
REMARK INTRA:                  -0.381
REMARK UNBOUND:                -0.381
REMARK SMILES CCCCCCCCCCCC(=O)[O-]
REMARK SMILES IDX 7 1 8 2 9 3 10 4 11 5 12 6 13 7 14 8 6 9 5 10 4 11 3 12 2 13
REMARK SMILES IDX 1 14
REMARK H PARENT
REMARK Flexibility Score: inf
ROOT
ATOM      1  C   UNL     1     -30.618 -19.861  14.354  1.00  0.00     0.000 C 
ENDROOT
BRANCH   1   2
ATOM      2  C   UNL     1     -31.093 -18.405  14.229  1.00  0.00     0.000 C 
BRANCH   2   3
ATOM      3  C   UNL     1     -30.496 -17.692  13.007  1.00  0.00     0.000 C 
BRANCH   3   4
ATOM      4  C   UNL     1     -30.974 -16.234  12.935  1.00  0.00     0.006 C 
BRANCH   4   5
ATOM      5  C   UNL     1     -30.623 -15.444  14.202  1.00  0.00     0.053 C 
BRANCH   5   6
ATOM      6  C   UNL     1     -30.767 -13.967  13.994  1.00  0.00     0.041 C 
ATOM      7  O   UNL     1     -30.816 -13.189  14.983  1.00  0.00    -0.550 OA
ATOM      8  O   UNL     1     -30.812 -13.447  12.706  1.00  0.00    -0.550 OA
ENDBRANCH   5   6
ENDBRANCH   4   5
ENDBRANCH   3   4
ENDBRANCH   2   3
ENDBRANCH   1   2
BRANCH   1   9
ATOM      9  C   UNL     1     -30.763 -20.646  13.037  1.00  0.00     0.000 C 
BRANCH   9  10
ATOM     10  C   UNL     1     -31.124 -22.123  13.264  1.00  0.00    -0.000 C 
BRANCH  10  11
ATOM     11  C   UNL     1     -31.038 -22.530  14.746  1.00  0.00    -0.000 C 
BRANCH  11  12
ATOM     12  C   UNL     1     -30.989 -24.054  14.937  1.00  0.00    -0.000 C 
BRANCH  12  13
ATOM     13  C   UNL     1     -30.008 -24.483  16.038  1.00  0.00    -0.003 C 
ATOM     14  C   UNL     1     -29.970 -26.002  16.179  1.00  0.00     0.004 C 
ENDBRANCH  12  13
ENDBRANCH  11  12
ENDBRANCH  10  11
ENDBRANCH   9  10
ENDBRANCH   1   9
TORSDOF 10
ENDMDL
MODEL 2
REMARK VINA RESULT:    -4.124      5.052      8.608
REMARK INTER + INTRA:          -6.916
REMARK INTER:                  -6.473
REMARK INTRA:                  -0.443
REMARK UNBOUND:                -0.381
REMARK SMILES CCCCCCCCCCCC(=O)[O-]
REMARK SMILES IDX 7 1 8 2 9 3 10 4 11 5 12 6 13 7 14 8 6 9 5 10 4 11 3 12 2 13
REMARK SMILES IDX 1 14
REMARK H PARENT
REMARK Flexibility Score: inf
ROOT
ATOM      1  C   UNL     1     -30.745 -20.253  13.322  1.00  0.00     0.000 C 
ENDROOT
BRANCH   1   2
ATOM      2  C   UNL     1     -31.086 -21.750  13.370  1.00  0.00     0.000 C 
BRANCH   2   3
ATOM      3  C   UNL     1     -31.048 -22.319  14.796  1.00  0.00     0.000 C 
BRANCH   3   4
ATOM      4  C   UNL     1     -31.125 -23.853  14.777  1.00  0.00     0.006 C 
BRANCH   4   5
ATOM      5  C   UNL     1     -29.879 -24.504  15.392  1.00  0.00     0.053 C 
BRANCH   5   6
ATOM      6  C   UNL     1     -30.213 -25.779  16.105  1.00  0.00     0.041 C 
ATOM      7  O   UNL     1     -30.616 -26.781  15.456  1.00  0.00    -0.550 OA
ATOM      8  O   UNL     1     -30.047 -25.872  17.480  1.00  0.00    -0.550 OA
ENDBRANCH   5   6
ENDBRANCH   4   5
ENDBRANCH   3   4
ENDBRANCH   2   3
ENDBRANCH   1   2
BRANCH   1   9
ATOM      9  C   UNL     1     -30.879 -19.571  14.696  1.00  0.00     0.000 C 
BRANCH   9  10
ATOM     10  C   UNL     1     -31.123 -18.057  14.585  1.00  0.00    -0.000 C 
BRANCH  10  11
ATOM     11  C   UNL     1     -29.980 -17.327  13.859  1.00  0.00    -0.000 C 
BRANCH  11  12
ATOM     12  C   UNL     1     -30.466 -16.550  12.626  1.00  0.00    -0.000 C 
BRANCH  12  13
ATOM     13  C   UNL     1     -31.125 -15.211  12.990  1.00  0.00    -0.003 C 
ATOM     14  C   UNL     1     -30.335 -14.488  14.077  1.00  0.00     0.004 C 
ENDBRANCH  12  13
ENDBRANCH  11  12
ENDBRANCH  10  11
ENDBRANCH   9  10
ENDBRANCH   1   9
TORSDOF 10
ENDMDL
MODEL 3
REMARK VINA RESULT:    -4.054      4.086      8.923
REMARK INTER + INTRA:          -6.806
REMARK INTER:                  -6.398
REMARK INTRA:                  -0.408
REMARK UNBOUND:                -0.381
REMARK SMILES CCCCCCCCCCCC(=O)[O-]
REMARK SMILES IDX 7 1 8 2 9 3 10 4 11 5 12 6 13 7 14 8 6 9 5 10 4 11 3 12 2 13
REMARK SMILES IDX 1 14
REMARK H PARENT
REMARK Flexibility Score: inf
ROOT
ATOM      1  C   UNL     1     -30.079 -16.345  13.388  1.00  0.00     0.000 C 
ENDROOT
BRANCH   1   2
ATOM      2  C   UNL     1     -31.099 -17.492  13.460  1.00  0.00     0.000 C 
BRANCH   2   3
ATOM      3  C   UNL     1     -31.022 -18.269  14.782  1.00  0.00     0.000 C 
BRANCH   3   4
ATOM      4  C   UNL     1     -30.935 -19.781  14.527  1.00  0.00     0.006 C 
BRANCH   4   5
ATOM      5  C   UNL     1     -30.971 -20.120  13.031  1.00  0.00     0.053 C 
BRANCH   5   6
ATOM      6  C   UNL     1     -30.866 -21.596  12.794  1.00  0.00     0.041 C 
ATOM      7  O   UNL     1     -30.923 -22.055  11.622  1.00  0.00    -0.550 OA
ATOM      8  O   UNL     1     -30.673 -22.461  13.863  1.00  0.00    -0.550 OA
ENDBRANCH   5   6
ENDBRANCH   4   5
ENDBRANCH   3   4
ENDBRANCH   2   3
ENDBRANCH   1   2
BRANCH   1   9
ATOM      9  C   UNL     1     -30.729 -14.999  13.019  1.00  0.00     0.000 C 
BRANCH   9  10
ATOM     10  C   UNL     1     -30.740 -14.004  14.192  1.00  0.00    -0.000 C 
BRANCH  10  11
ATOM     11  C   UNL     1     -31.125 -12.580  13.754  1.00  0.00    -0.000 C 
BRANCH  11  12
ATOM     12  C   UNL     1     -30.555 -12.213  12.375  1.00  0.00    -0.000 C 
BRANCH  12  13
ATOM     13  C   UNL     1     -29.716 -10.927  12.402  1.00  0.00    -0.003 C 
ATOM     14  C   UNL     1     -30.583  -9.701  12.127  1.00  0.00     0.004 C 
ENDBRANCH  12  13
ENDBRANCH  11  12
ENDBRANCH  10  11
ENDBRANCH   9  10
ENDBRANCH   1   9
TORSDOF 10
ENDMDL
MODEL 4
REMARK VINA RESULT:    -3.947      2.173      3.825
REMARK INTER + INTRA:          -6.636
REMARK INTER:                  -6.300
REMARK INTRA:                  -0.336
REMARK UNBOUND:                -0.381
REMARK SMILES CCCCCCCCCCCC(=O)[O-]
REMARK SMILES IDX 7 1 8 2 9 3 10 4 11 5 12 6 13 7 14 8 6 9 5 10 4 11 3 12 2 13
REMARK SMILES IDX 1 14
REMARK H PARENT
REMARK Flexibility Score: inf
ROOT
ATOM      1  C   UNL     1     -29.975 -16.011  13.719  1.00  0.00     0.000 C 
ENDROOT
BRANCH   1   2
ATOM      2  C   UNL     1     -30.850 -14.826  13.283  1.00  0.00     0.000 C 
BRANCH   2   3
ATOM      3  C   UNL     1     -31.124 -13.841  14.430  1.00  0.00     0.000 C 
BRANCH   3   4
ATOM      4  C   UNL     1     -30.970 -12.389  13.954  1.00  0.00     0.006 C 
BRANCH   4   5
ATOM      5  C   UNL     1     -30.398 -12.300  12.533  1.00  0.00     0.053 C 
BRANCH   5   6
ATOM      6  C   UNL     1     -30.168 -10.880  12.114  1.00  0.00     0.041 C 
ATOM      7  O   UNL     1     -31.124 -10.059  12.106  1.00  0.00    -0.550 OA
ATOM      8  O   UNL     1     -28.893 -10.455  11.766  1.00  0.00    -0.550 OA
ENDBRANCH   5   6
ENDBRANCH   4   5
ENDBRANCH   3   4
ENDBRANCH   2   3
ENDBRANCH   1   2
BRANCH   1   9
ATOM      9  C   UNL     1     -30.804 -17.256  14.085  1.00  0.00     0.000 C 
BRANCH   9  10
ATOM     10  C   UNL     1     -30.906 -18.262  12.926  1.00  0.00    -0.000 C 
BRANCH  10  11
ATOM     11  C   UNL     1     -30.271 -19.621  13.268  1.00  0.00    -0.000 C 
BRANCH  11  12
ATOM     12  C   UNL     1     -31.120 -20.807  12.784  1.00  0.00    -0.000 C 
BRANCH  12  13
ATOM     13  C   UNL     1     -30.716 -22.134  13.442  1.00  0.00    -0.003 C 
ATOM     14  C   UNL     1     -31.107 -22.157  14.917  1.00  0.00     0.004 C 
ENDBRANCH  12  13
ENDBRANCH  11  12
ENDBRANCH  10  11
ENDBRANCH   9  10
ENDBRANCH   1   9
TORSDOF 10
ENDMDL
MODEL 5
REMARK VINA RESULT:    -3.594     14.180     16.292
REMARK INTER + INTRA:          -6.077
REMARK INTER:                  -5.780
REMARK INTRA:                  -0.297
REMARK UNBOUND:                -0.381
REMARK SMILES CCCCCCCCCCCC(=O)[O-]
REMARK SMILES IDX 7 1 8 2 9 3 10 4 11 5 12 6 13 7 14 8 6 9 5 10 4 11 3 12 2 13
REMARK SMILES IDX 1 14
REMARK H PARENT
REMARK Flexibility Score: inf
ROOT
ATOM      1  C   UNL     1     -18.544 -28.065  12.329  1.00  0.00     0.000 C 
ENDROOT
BRANCH   1   2
ATOM      2  C   UNL     1     -17.656 -27.007  11.656  1.00  0.00     0.000 C 
BRANCH   2   3
ATOM      3  C   UNL     1     -16.610 -27.624  10.717  1.00  0.00     0.000 C 
BRANCH   3   4
ATOM      4  C   UNL     1     -15.344 -28.023  11.491  1.00  0.00     0.006 C 
BRANCH   4   5
ATOM      5  C   UNL     1     -14.864 -26.910  12.432  1.00  0.00     0.053 C 
BRANCH   5   6
ATOM      6  C   UNL     1     -13.562 -27.259  13.086  1.00  0.00     0.041 C 
ATOM      7  O   UNL     1     -13.550 -27.912  14.163  1.00  0.00    -0.550 OA
ATOM      8  O   UNL     1     -12.363 -26.893  12.489  1.00  0.00    -0.550 OA
ENDBRANCH   5   6
ENDBRANCH   4   5
ENDBRANCH   3   4
ENDBRANCH   2   3
ENDBRANCH   1   2
BRANCH   1   9
ATOM      9  C   UNL     1     -19.890 -27.491  12.805  1.00  0.00     0.000 C 
BRANCH   9  10
ATOM     10  C   UNL     1     -20.273 -27.968  14.216  1.00  0.00    -0.000 C 
BRANCH  10  11
ATOM     11  C   UNL     1     -21.250 -27.009  14.918  1.00  0.00    -0.000 C 
BRANCH  11  12
ATOM     12  C   UNL     1     -22.269 -27.747  15.801  1.00  0.00    -0.000 C 
BRANCH  12  13
ATOM     13  C   UNL     1     -21.809 -27.869  17.262  1.00  0.00    -0.003 C 
ATOM     14  C   UNL     1     -22.722 -27.077  18.193  1.00  0.00     0.004 C 
ENDBRANCH  12  13
ENDBRANCH  11  12
ENDBRANCH  10  11
ENDBRANCH   9  10
ENDBRANCH   1   9
TORSDOF 10
ENDMDL
MODEL 6
REMARK VINA RESULT:    -3.458     18.016     18.670
REMARK INTER + INTRA:          -5.862
REMARK INTER:                  -5.298
REMARK INTRA:                  -0.564
REMARK UNBOUND:                -0.381
REMARK SMILES CCCCCCCCCCCC(=O)[O-]
REMARK SMILES IDX 7 1 8 2 9 3 10 4 11 5 12 6 13 7 14 8 6 9 5 10 4 11 3 12 2 13
REMARK SMILES IDX 1 14
REMARK H PARENT
REMARK Flexibility Score: inf
ROOT
ATOM      1  C   UNL     1     -13.940 -21.417  22.110  1.00  0.00     0.000 C 
ENDROOT
BRANCH   1   2
ATOM      2  C   UNL     1     -12.734 -22.043  21.392  1.00  0.00     0.000 C 
BRANCH   2   3
ATOM      3  C   UNL     1     -13.070 -22.506  19.967  1.00  0.00     0.000 C 
BRANCH   3   4
ATOM      4  C   UNL     1     -13.444 -21.312  19.076  1.00  0.00     0.006 C 
BRANCH   4   5
ATOM      5  C   UNL     1     -12.273 -20.339  18.888  1.00  0.00     0.053 C 
BRANCH   5   6
ATOM      6  C   UNL     1     -12.682 -18.921  19.147  1.00  0.00     0.041 C 
ATOM      7  O   UNL     1     -13.211 -18.605  20.246  1.00  0.00    -0.550 OA
ATOM      8  O   UNL     1     -12.448 -17.943  18.190  1.00  0.00    -0.550 OA
ENDBRANCH   5   6
ENDBRANCH   4   5
ENDBRANCH   3   4
ENDBRANCH   2   3
ENDBRANCH   1   2
BRANCH   1   9
ATOM      9  C   UNL     1     -14.233 -22.084  23.466  1.00  0.00     0.000 C 
BRANCH   9  10
ATOM     10  C   UNL     1     -15.083 -23.358  23.330  1.00  0.00    -0.000 C 
BRANCH  10  11
ATOM     11  C   UNL     1     -16.528 -23.158  23.819  1.00  0.00    -0.000 C 
BRANCH  11  12
ATOM     12  C   UNL     1     -16.597 -22.441  25.177  1.00  0.00    -0.000 C 
BRANCH  12  13
ATOM     13  C   UNL     1     -17.931 -22.670  25.902  1.00  0.00    -0.003 C 
ATOM     14  C   UNL     1     -18.110 -21.680  27.049  1.00  0.00     0.004 C 
ENDBRANCH  12  13
ENDBRANCH  11  12
ENDBRANCH  10  11
ENDBRANCH   9  10
ENDBRANCH   1   9
TORSDOF 10
ENDMDL
MODEL 7
REMARK VINA RESULT:    -3.401     17.408     18.410
REMARK INTER + INTRA:          -5.770
REMARK INTER:                  -5.008
REMARK INTRA:                  -0.763
REMARK UNBOUND:                -0.381
REMARK SMILES CCCCCCCCCCCC(=O)[O-]
REMARK SMILES IDX 7 1 8 2 9 3 10 4 11 5 12 6 13 7 14 8 6 9 5 10 4 11 3 12 2 13
REMARK SMILES IDX 1 14
REMARK H PARENT
REMARK Flexibility Score: inf
ROOT
ATOM      1  C   UNL     1     -15.601 -22.523  23.971  1.00  0.00     0.000 C 
ENDROOT
BRANCH   1   2
ATOM      2  C   UNL     1     -14.185 -22.325  23.409  1.00  0.00     0.000 C 
BRANCH   2   3
ATOM      3  C   UNL     1     -13.829 -23.352  22.325  1.00  0.00     0.000 C 
BRANCH   3   4
ATOM      4  C   UNL     1     -13.197 -22.667  21.105  1.00  0.00     0.006 C 
BRANCH   4   5
ATOM      5  C   UNL     1     -13.521 -21.168  21.048  1.00  0.00     0.053 C 
BRANCH   5   6
ATOM      6  C   UNL     1     -13.597 -20.670  19.637  1.00  0.00     0.041 C 
ATOM      7  O   UNL     1     -13.792 -21.476  18.689  1.00  0.00    -0.550 OA
ATOM      8  O   UNL     1     -13.485 -19.311  19.372  1.00  0.00    -0.550 OA
ENDBRANCH   5   6
ENDBRANCH   4   5
ENDBRANCH   3   4
ENDBRANCH   2   3
ENDBRANCH   1   2
BRANCH   1   9
ATOM      9  C   UNL     1     -16.090 -23.977  23.841  1.00  0.00     0.000 C 
BRANCH   9  10
ATOM     10  C   UNL     1     -17.622 -24.083  23.755  1.00  0.00    -0.000 C 
BRANCH  10  11
ATOM     11  C   UNL     1     -18.232 -24.806  24.968  1.00  0.00    -0.000 C 
BRANCH  11  12
ATOM     12  C   UNL     1     -18.947 -23.844  25.930  1.00  0.00    -0.000 C 
BRANCH  12  13
ATOM     13  C   UNL     1     -17.990 -23.198  26.943  1.00  0.00    -0.003 C 
ATOM     14  C   UNL     1     -18.067 -21.676  26.878  1.00  0.00     0.004 C 
ENDBRANCH  12  13
ENDBRANCH  11  12
ENDBRANCH  10  11
ENDBRANCH   9  10
ENDBRANCH   1   9
TORSDOF 10
ENDMDL
MODEL 8
REMARK VINA RESULT:    -3.374     18.774     19.311
REMARK INTER + INTRA:          -5.728
REMARK INTER:                  -5.325
REMARK INTRA:                  -0.404
REMARK UNBOUND:                -0.381
REMARK SMILES CCCCCCCCCCCC(=O)[O-]
REMARK SMILES IDX 7 1 8 2 9 3 10 4 11 5 12 6 13 7 14 8 6 9 5 10 4 11 3 12 2 13
REMARK SMILES IDX 1 14
REMARK H PARENT
REMARK Flexibility Score: inf
ROOT
ATOM      1  C   UNL     1     -12.354 -15.364  13.240  1.00  0.00     0.000 C 
ENDROOT
BRANCH   1   2
ATOM      2  C   UNL     1     -12.412 -14.048  14.031  1.00  0.00     0.000 C 
BRANCH   2   3
ATOM      3  C   UNL     1     -11.773 -12.875  13.273  1.00  0.00     0.000 C 
BRANCH   3   4
ATOM      4  C   UNL     1     -11.745 -13.148  11.762  1.00  0.00     0.006 C 
BRANCH   4   5
ATOM      5  C   UNL     1     -12.050 -11.889  10.939  1.00  0.00     0.053 C 
BRANCH   5   6
ATOM      6  C   UNL     1     -12.741 -12.221   9.651  1.00  0.00     0.041 C 
ATOM      7  O   UNL     1     -13.881 -11.747   9.403  1.00  0.00    -0.550 OA
ATOM      8  O   UNL     1     -12.110 -13.026   8.711  1.00  0.00    -0.550 OA
ENDBRANCH   5   6
ENDBRANCH   4   5
ENDBRANCH   3   4
ENDBRANCH   2   3
ENDBRANCH   1   2
BRANCH   1   9
ATOM      9  C   UNL     1     -11.625 -16.483  14.005  1.00  0.00     0.000 C 
BRANCH   9  10
ATOM     10  C   UNL     1     -11.670 -16.285  15.530  1.00  0.00    -0.000 C 
BRANCH  10  11
ATOM     11  C   UNL     1     -11.326 -17.571  16.301  1.00  0.00    -0.000 C 
BRANCH  11  12
ATOM     12  C   UNL     1     -11.834 -17.543  17.751  1.00  0.00    -0.000 C 
BRANCH  12  13
ATOM     13  C   UNL     1     -11.898 -18.940  18.385  1.00  0.00    -0.003 C 
ATOM     14  C   UNL     1     -13.086 -19.058  19.336  1.00  0.00     0.004 C 
ENDBRANCH  12  13
ENDBRANCH  11  12
ENDBRANCH  10  11
ENDBRANCH   9  10
ENDBRANCH   1   9
TORSDOF 10
ENDMDL
MODEL 9
REMARK VINA RESULT:    -3.362     17.879     19.291
REMARK INTER + INTRA:          -5.709
REMARK INTER:                  -5.348
REMARK INTRA:                  -0.361
REMARK UNBOUND:                -0.381
REMARK SMILES CCCCCCCCCCCC(=O)[O-]
REMARK SMILES IDX 7 1 8 2 9 3 10 4 11 5 12 6 13 7 14 8 6 9 5 10 4 11 3 12 2 13
REMARK SMILES IDX 1 14
REMARK H PARENT
REMARK Flexibility Score: inf
ROOT
ATOM      1  C   UNL     1     -13.611 -22.797  22.130  1.00  0.00     0.000 C 
ENDROOT
BRANCH   1   2
ATOM      2  C   UNL     1     -14.589 -22.471  23.270  1.00  0.00     0.000 C 
BRANCH   2   3
ATOM      3  C   UNL     1     -15.465 -23.671  23.658  1.00  0.00     0.000 C 
BRANCH   3   4
ATOM      4  C   UNL     1     -16.905 -23.226  23.956  1.00  0.00     0.006 C 
BRANCH   4   5
ATOM      5  C   UNL     1     -17.000 -22.391  25.240  1.00  0.00     0.053 C 
BRANCH   5   6
ATOM      6  C   UNL     1     -18.203 -22.761  26.054  1.00  0.00     0.041 C 
ATOM      7  O   UNL     1     -19.007 -23.636  25.636  1.00  0.00    -0.550 OA
ATOM      8  O   UNL     1     -18.417 -22.164  27.290  1.00  0.00    -0.550 OA
ENDBRANCH   5   6
ENDBRANCH   4   5
ENDBRANCH   3   4
ENDBRANCH   2   3
ENDBRANCH   1   2
BRANCH   1   9
ATOM      9  C   UNL     1     -13.493 -21.653  21.107  1.00  0.00     0.000 C 
BRANCH   9  10
ATOM     10  C   UNL     1     -13.081 -22.147  19.710  1.00  0.00    -0.000 C 
BRANCH  10  11
ATOM     11  C   UNL     1     -12.763 -20.990  18.746  1.00  0.00    -0.000 C 
BRANCH  11  12
ATOM     12  C   UNL     1     -13.198 -19.624  19.301  1.00  0.00    -0.000 C 
BRANCH  12  13
ATOM     13  C   UNL     1     -12.072 -18.581  19.259  1.00  0.00    -0.003 C 
ATOM     14  C   UNL     1     -12.027 -17.875  17.906  1.00  0.00     0.004 C 
ENDBRANCH  12  13
ENDBRANCH  11  12
ENDBRANCH  10  11
ENDBRANCH   9  10
ENDBRANCH   1   9
TORSDOF 10
ENDMDL
