MODEL 1
REMARK VINA RESULT:    -6.496      0.000      0.000
REMARK INTER + INTRA:          -6.731
REMARK INTER:                  -7.065
REMARK INTRA:                   0.334
REMARK UNBOUND:                 0.334
REMARK SMILES C[C@H]1[C@@H](C)CC[C@]2(C(=O)[O-])CC[C@@]3(C)C(=CC[C@H]4[C@@]5(C)CC[C@H](O)C(C)(C)[C@@H]5CC[C@]43C)[C@@H]12
REMARK SMILES IDX 7 1 6 2 11 3 33 4 5 5 12 6 15 7 2 8 3 9 13 10 16 11 1 12
REMARK SMILES IDX 4 13 14 14 31 15 17 16 18 17 30 18 32 19 19 20 29 21 28 22
REMARK SMILES IDX 21 23 20 24 25 25 22 26 23 27 26 28 27 29 8 30 9 31 10 32
REMARK SMILES IDX 24 33
REMARK H PARENT 24 34
REMARK Flexibility Score: inf
ROOT
ATOM      1  C   UNL     1      49.370  47.026  69.973  1.00  0.00     0.017 C 
ATOM      2  C   UNL     1      48.454  46.615  68.780  1.00  0.00     0.014 C 
ATOM      3  C   UNL     1      50.650  46.112  69.951  1.00  0.00     0.014 C 
ATOM      4  C   UNL     1      48.558  46.812  71.295  1.00  0.00     0.030 C 
ATOM      5  C   UNL     1      47.095  47.344  68.769  1.00  0.00     0.004 C 
ATOM      6  C   UNL     1      50.807  45.188  71.180  1.00  0.00     0.013 C 
ATOM      7  C   UNL     1      49.460  46.830  72.542  1.00  0.00    -0.063 C 
ATOM      8  C   UNL     1      47.202  47.589  71.322  1.00  0.00    -0.003 C 
ATOM      9  C   UNL     1      46.343  47.167  70.098  1.00  0.00    -0.011 C 
ATOM     10  C   UNL     1      50.701  45.930  72.561  1.00  0.00    -0.006 C 
ATOM     11  C   UNL     1      49.017  47.323  73.709  1.00  0.00    -0.027 C 
ATOM     12  C   UNL     1      47.336  49.125  71.457  1.00  0.00     0.008 C 
ATOM     13  C   UNL     1      44.979  47.868  70.062  1.00  0.00     0.008 C 
ATOM     14  C   UNL     1      51.970  46.820  72.690  1.00  0.00     0.017 C 
ATOM     15  C   UNL     1      50.573  44.922  73.818  1.00  0.00    -0.020 C 
ATOM     16  C   UNL     1      49.691  47.085  75.030  1.00  0.00     0.032 C 
ATOM     17  C   UNL     1      50.556  45.767  75.177  1.00  0.00     0.006 C 
ATOM     18  C   UNL     1      49.249  44.081  73.737  1.00  0.00     0.008 C 
ATOM     19  C   UNL     1      51.779  43.931  73.783  1.00  0.00     0.012 C 
ATOM     20  C   UNL     1      50.206  44.942  76.506  1.00  0.00    -0.025 C 
ATOM     21  C   UNL     1      48.879  43.311  75.021  1.00  0.00     0.005 C 
ATOM     22  C   UNL     1      48.817  44.239  76.266  1.00  0.00     0.003 C 
ATOM     23  C   UNL     1      50.128  45.886  77.762  1.00  0.00     0.010 C 
ATOM     24  C   UNL     1      51.365  43.930  76.829  1.00  0.00     0.012 C 
ATOM     25  C   UNL     1      48.125  43.601  77.534  1.00  0.00    -0.006 C 
ATOM     26  C   UNL     1      49.531  45.200  79.001  1.00  0.00     0.033 C 
ATOM     27  C   UNL     1      48.126  44.646  78.704  1.00  0.00     0.120 C 
ATOM     28  C   UNL     1      48.781  42.271  77.982  1.00  0.00     0.014 C 
ATOM     29  C   UNL     1      46.638  43.289  77.210  1.00  0.00     0.014 C 
ENDROOT
BRANCH   1  30
ATOM     30  C   UNL     1      49.824  48.479  69.827  1.00  0.00     0.048 C 
ATOM     31  O   UNL     1      49.599  49.124  68.766  1.00  0.00    -0.550 OA
ATOM     32  O   UNL     1      50.530  49.105  70.852  1.00  0.00    -0.550 OA
ENDBRANCH   1  30
BRANCH  27  33
ATOM     33  O   UNL     1      47.574  44.069  79.864  1.00  0.00    -0.393 OA
ATOM     34  H   UNL     1      48.167  43.313  80.146  1.00  0.00     0.210 HD
ENDBRANCH  27  33
TORSDOF 2
ENDMDL
MODEL 2
REMARK VINA RESULT:    -5.646      1.000      1.294
REMARK INTER + INTRA:          -5.807
REMARK INTER:                  -6.210
REMARK INTRA:                   0.403
REMARK UNBOUND:                 0.334
REMARK SMILES C[C@H]1[C@@H](C)CC[C@]2(C(=O)[O-])CC[C@@]3(C)C(=CC[C@H]4[C@@]5(C)CC[C@H](O)C(C)(C)[C@@H]5CC[C@]43C)[C@@H]12
REMARK SMILES IDX 7 1 6 2 11 3 33 4 5 5 12 6 15 7 2 8 3 9 13 10 16 11 1 12
REMARK SMILES IDX 4 13 14 14 31 15 17 16 18 17 30 18 32 19 19 20 29 21 28 22
REMARK SMILES IDX 21 23 20 24 25 25 22 26 23 27 26 28 27 29 8 30 9 31 10 32
REMARK SMILES IDX 24 33
REMARK H PARENT 24 34
REMARK Flexibility Score: inf
ROOT
ATOM      1  C   UNL     1      50.993  46.983  70.269  1.00  0.00     0.017 C 
ATOM      2  C   UNL     1      50.360  46.589  68.900  1.00  0.00     0.014 C 
ATOM      3  C   UNL     1      52.237  46.055  70.525  1.00  0.00     0.014 C 
ATOM      4  C   UNL     1      49.906  46.772  71.376  1.00  0.00     0.030 C 
ATOM      5  C   UNL     1      49.046  47.333  68.592  1.00  0.00     0.004 C 
ATOM      6  C   UNL     1      52.109  45.124  71.751  1.00  0.00     0.013 C 
ATOM      7  C   UNL     1      50.509  46.773  72.793  1.00  0.00    -0.063 C 
ATOM      8  C   UNL     1      48.585  47.564  71.107  1.00  0.00    -0.003 C 
ATOM      9  C   UNL     1      48.015  47.158  69.720  1.00  0.00    -0.011 C 
ATOM     10  C   UNL     1      51.705  45.860  73.080  1.00  0.00    -0.006 C 
ATOM     11  C   UNL     1      49.822  47.266  73.836  1.00  0.00    -0.027 C 
ATOM     12  C   UNL     1      48.700  49.098  71.280  1.00  0.00     0.008 C 
ATOM     13  C   UNL     1      46.700  47.874  69.388  1.00  0.00     0.008 C 
ATOM     14  C   UNL     1      52.922  46.736  73.494  1.00  0.00     0.017 C 
ATOM     15  C   UNL     1      51.291  44.847  74.270  1.00  0.00    -0.020 C 
ATOM     16  C   UNL     1      50.184  47.014  75.271  1.00  0.00     0.032 C 
ATOM     17  C   UNL     1      50.981  45.685  75.597  1.00  0.00     0.006 C 
ATOM     18  C   UNL     1      50.011  44.021  73.891  1.00  0.00     0.008 C 
ATOM     19  C   UNL     1      52.465  43.843  74.496  1.00  0.00     0.012 C 
ATOM     20  C   UNL     1      50.337  44.858  76.809  1.00  0.00    -0.025 C 
ATOM     21  C   UNL     1      49.357  43.249  75.055  1.00  0.00     0.005 C 
ATOM     22  C   UNL     1      49.029  44.172  76.262  1.00  0.00     0.003 C 
ATOM     23  C   UNL     1      49.991  45.796  78.024  1.00  0.00     0.010 C 
ATOM     24  C   UNL     1      51.386  43.832  77.374  1.00  0.00     0.012 C 
ATOM     25  C   UNL     1      48.067  43.535  77.340  1.00  0.00    -0.006 C 
ATOM     26  C   UNL     1      49.127  45.111  79.094  1.00  0.00     0.033 C 
ATOM     27  C   UNL     1      47.818  44.573  78.488  1.00  0.00     0.120 C 
ATOM     28  C   UNL     1      48.593  42.195  77.912  1.00  0.00     0.014 C 
ATOM     29  C   UNL     1      46.685  43.241  76.691  1.00  0.00     0.014 C 
ENDROOT
BRANCH   1  30
ATOM     30  C   UNL     1      51.482  48.433  70.238  1.00  0.00     0.048 C 
ATOM     31  O   UNL     1      51.789  49.036  71.302  1.00  0.00    -0.550 OA
ATOM     32  O   UNL     1      51.561  49.125  69.032  1.00  0.00    -0.550 OA
ENDBRANCH   1  30
BRANCH  27  33
ATOM     33  O   UNL     1      47.017  43.997  79.493  1.00  0.00    -0.393 OA
ATOM     34  H   UNL     1      46.431  44.715  79.872  1.00  0.00     0.210 HD
ENDBRANCH  27  33
TORSDOF 2
ENDMDL
MODEL 3
REMARK VINA RESULT:    -5.623      2.148      7.437
REMARK INTER + INTRA:          -5.781
REMARK INTER:                  -6.209
REMARK INTRA:                   0.427
REMARK UNBOUND:                 0.334
REMARK SMILES C[C@H]1[C@@H](C)CC[C@]2(C(=O)[O-])CC[C@@]3(C)C(=CC[C@H]4[C@@]5(C)CC[C@H](O)C(C)(C)[C@@H]5CC[C@]43C)[C@@H]12
REMARK SMILES IDX 7 1 6 2 11 3 33 4 5 5 12 6 15 7 2 8 3 9 13 10 16 11 1 12
REMARK SMILES IDX 4 13 14 14 31 15 17 16 18 17 30 18 32 19 19 20 29 21 28 22
REMARK SMILES IDX 21 23 20 24 25 25 22 26 23 27 26 28 27 29 8 30 9 31 10 32
REMARK SMILES IDX 24 33
REMARK H PARENT 24 34
REMARK Flexibility Score: inf
ROOT
ATOM      1  C   UNL     1      51.453  46.063  76.953  1.00  0.00     0.017 C 
ATOM      2  C   UNL     1      51.017  46.360  78.421  1.00  0.00     0.014 C 
ATOM      3  C   UNL     1      52.243  47.310  76.410  1.00  0.00     0.014 C 
ATOM      4  C   UNL     1      50.156  45.817  76.111  1.00  0.00     0.030 C 
ATOM      5  C   UNL     1      50.111  45.270  79.026  1.00  0.00     0.004 C 
ATOM      6  C   UNL     1      51.570  48.036  75.224  1.00  0.00     0.013 C 
ATOM      7  C   UNL     1      50.426  45.877  74.596  1.00  0.00    -0.063 C 
ATOM      8  C   UNL     1      49.253  44.676  76.681  1.00  0.00    -0.003 C 
ATOM      9  C   UNL     1      48.875  45.006  78.152  1.00  0.00    -0.011 C 
ATOM     10  C   UNL     1      51.171  47.092  74.033  1.00  0.00    -0.006 C 
ATOM     11  C   UNL     1      49.743  45.099  73.741  1.00  0.00    -0.027 C 
ATOM     12  C   UNL     1      49.829  43.249  76.518  1.00  0.00     0.008 C 
ATOM     13  C   UNL     1      47.965  43.944  78.781  1.00  0.00     0.008 C 
ATOM     14  C   UNL     1      52.498  46.613  73.377  1.00  0.00     0.017 C 
ATOM     15  C   UNL     1      50.215  47.808  72.943  1.00  0.00    -0.020 C 
ATOM     16  C   UNL     1      49.703  45.320  72.256  1.00  0.00     0.032 C 
ATOM     17  C   UNL     1      49.936  46.797  71.735  1.00  0.00     0.006 C 
ATOM     18  C   UNL     1      48.839  48.217  73.580  1.00  0.00     0.008 C 
ATOM     19  C   UNL     1      50.922  49.107  72.443  1.00  0.00     0.012 C 
ATOM     20  C   UNL     1      48.824  47.264  70.679  1.00  0.00    -0.025 C 
ATOM     21  C   UNL     1      47.747  48.633  72.574  1.00  0.00     0.005 C 
ATOM     22  C   UNL     1      47.503  47.548  71.489  1.00  0.00     0.003 C 
ATOM     23  C   UNL     1      48.568  46.158  69.591  1.00  0.00     0.010 C 
ATOM     24  C   UNL     1      49.340  48.513  69.876  1.00  0.00     0.012 C 
ATOM     25  C   UNL     1      46.188  47.745  70.637  1.00  0.00    -0.006 C 
ATOM     26  C   UNL     1      47.329  46.433  68.724  1.00  0.00     0.033 C 
ATOM     27  C   UNL     1      46.068  46.582  69.594  1.00  0.00     0.120 C 
ATOM     28  C   UNL     1      46.117  49.125  69.936  1.00  0.00     0.014 C 
ATOM     29  C   UNL     1      44.948  47.645  71.570  1.00  0.00     0.014 C 
ENDROOT
BRANCH   1  30
ATOM     30  C   UNL     1      52.388  44.852  76.905  1.00  0.00     0.048 C 
ATOM     31  O   UNL     1      53.004  44.469  77.937  1.00  0.00    -0.550 OA
ATOM     32  O   UNL     1      52.603  44.174  75.707  1.00  0.00    -0.550 OA
ENDBRANCH   1  30
BRANCH  27  33
ATOM     33  O   UNL     1      44.935  46.780  68.780  1.00  0.00    -0.393 OA
ATOM     34  H   UNL     1      44.122  46.722  69.362  1.00  0.00     0.210 HD
ENDBRANCH  27  33
TORSDOF 2
ENDMDL
MODEL 4
REMARK VINA RESULT:    -3.919      2.204      4.274
REMARK INTER + INTRA:          -3.928
REMARK INTER:                  -4.409
REMARK INTRA:                   0.481
REMARK UNBOUND:                 0.334
REMARK SMILES C[C@H]1[C@@H](C)CC[C@]2(C(=O)[O-])CC[C@@]3(C)C(=CC[C@H]4[C@@]5(C)CC[C@H](O)C(C)(C)[C@@H]5CC[C@]43C)[C@@H]12
REMARK SMILES IDX 7 1 6 2 11 3 33 4 5 5 12 6 15 7 2 8 3 9 13 10 16 11 1 12
REMARK SMILES IDX 4 13 14 14 31 15 17 16 18 17 30 18 32 19 19 20 29 21 28 22
REMARK SMILES IDX 21 23 20 24 25 25 22 26 23 27 26 28 27 29 8 30 9 31 10 32
REMARK SMILES IDX 24 33
REMARK H PARENT 24 34
REMARK Flexibility Score: inf
ROOT
ATOM      1  C   UNL     1      48.940  47.976  69.472  1.00  0.00     0.017 C 
ATOM      2  C   UNL     1      49.748  48.702  68.353  1.00  0.00     0.014 C 
ATOM      3  C   UNL     1      48.216  49.065  70.345  1.00  0.00     0.014 C 
ATOM      4  C   UNL     1      49.954  47.154  70.337  1.00  0.00     0.030 C 
ATOM      5  C   UNL     1      50.619  47.751  67.508  1.00  0.00     0.004 C 
ATOM      6  C   UNL     1      48.677  49.125  71.818  1.00  0.00     0.013 C 
ATOM      7  C   UNL     1      49.341  46.695  71.673  1.00  0.00    -0.063 C 
ATOM      8  C   UNL     1      50.806  46.144  69.501  1.00  0.00    -0.003 C 
ATOM      9  C   UNL     1      51.565  46.914  68.384  1.00  0.00    -0.011 C 
ATOM     10  C   UNL     1      48.652  47.738  72.558  1.00  0.00    -0.006 C 
ATOM     11  C   UNL     1      49.690  45.524  72.227  1.00  0.00    -0.027 C 
ATOM     12  C   UNL     1      50.023  44.924  68.960  1.00  0.00     0.008 C 
ATOM     13  C   UNL     1      52.449  45.997  67.530  1.00  0.00     0.008 C 
ATOM     14  C   UNL     1      47.155  47.350  72.728  1.00  0.00     0.017 C 
ATOM     15  C   UNL     1      49.407  47.764  73.988  1.00  0.00    -0.020 C 
ATOM     16  C   UNL     1      49.404  45.154  73.654  1.00  0.00     0.032 C 
ATOM     17  C   UNL     1      49.253  46.337  74.695  1.00  0.00     0.006 C 
ATOM     18  C   UNL     1      50.937  48.072  73.814  1.00  0.00     0.008 C 
ATOM     19  C   UNL     1      48.781  48.899  74.858  1.00  0.00     0.012 C 
ATOM     20  C   UNL     1      50.132  46.116  76.016  1.00  0.00    -0.025 C 
ATOM     21  C   UNL     1      51.803  47.828  75.066  1.00  0.00     0.005 C 
ATOM     22  C   UNL     1      51.634  46.389  75.627  1.00  0.00     0.003 C 
ATOM     23  C   UNL     1      49.972  44.654  76.574  1.00  0.00     0.010 C 
ATOM     24  C   UNL     1      49.612  47.051  77.169  1.00  0.00     0.012 C 
ATOM     25  C   UNL     1      52.723  45.959  76.687  1.00  0.00    -0.006 C 
ATOM     26  C   UNL     1      50.994  44.305  77.667  1.00  0.00     0.033 C 
ATOM     27  C   UNL     1      52.435  44.492  77.158  1.00  0.00     0.120 C 
ATOM     28  C   UNL     1      52.808  46.921  77.899  1.00  0.00     0.014 C 
ATOM     29  C   UNL     1      54.124  45.950  76.015  1.00  0.00     0.014 C 
ENDROOT
BRANCH   1  30
ATOM     30  C   UNL     1      47.868  47.072  68.859  1.00  0.00     0.048 C 
ATOM     31  O   UNL     1      47.418  47.294  67.701  1.00  0.00    -0.550 OA
ATOM     32  O   UNL     1      47.343  46.007  69.587  1.00  0.00    -0.550 OA
ENDBRANCH   1  30
BRANCH  27  33
ATOM     33  O   UNL     1      53.357  44.116  78.155  1.00  0.00    -0.393 OA
ATOM     34  H   UNL     1      53.248  44.743  78.928  1.00  0.00     0.210 HD
ENDBRANCH  27  33
TORSDOF 2
ENDMDL
MODEL 5
REMARK VINA RESULT:    -3.706      1.937      7.598
REMARK INTER + INTRA:          -3.696
REMARK INTER:                  -4.032
REMARK INTRA:                   0.335
REMARK UNBOUND:                 0.334
REMARK SMILES C[C@H]1[C@@H](C)CC[C@]2(C(=O)[O-])CC[C@@]3(C)C(=CC[C@H]4[C@@]5(C)CC[C@H](O)C(C)(C)[C@@H]5CC[C@]43C)[C@@H]12
REMARK SMILES IDX 7 1 6 2 11 3 33 4 5 5 12 6 15 7 2 8 3 9 13 10 16 11 1 12
REMARK SMILES IDX 4 13 14 14 31 15 17 16 18 17 30 18 32 19 19 20 29 21 28 22
REMARK SMILES IDX 21 23 20 24 25 25 22 26 23 27 26 28 27 29 8 30 9 31 10 32
REMARK SMILES IDX 24 33
REMARK H PARENT 24 34
REMARK Flexibility Score: inf
ROOT
ATOM      1  C   UNL     1      51.077  45.826  77.670  1.00  0.00     0.017 C 
ATOM      2  C   UNL     1      50.248  46.014  78.977  1.00  0.00     0.014 C 
ATOM      3  C   UNL     1      51.914  47.134  77.423  1.00  0.00     0.014 C 
ATOM      4  C   UNL     1      50.069  45.582  76.497  1.00  0.00     0.030 C 
ATOM      5  C   UNL     1      49.274  44.853  79.260  1.00  0.00     0.004 C 
ATOM      6  C   UNL     1      51.545  47.906  76.137  1.00  0.00     0.013 C 
ATOM      7  C   UNL     1      50.731  45.747  75.116  1.00  0.00    -0.063 C 
ATOM      8  C   UNL     1      49.110  44.373  76.744  1.00  0.00    -0.003 C 
ATOM      9  C   UNL     1      48.334  44.595  78.071  1.00  0.00    -0.011 C 
ATOM     10  C   UNL     1      51.532  47.023  74.837  1.00  0.00    -0.006 C 
ATOM     11  C   UNL     1      50.346  44.998  74.071  1.00  0.00    -0.027 C 
ATOM     12  C   UNL     1      49.786  42.982  76.672  1.00  0.00     0.008 C 
ATOM     13  C   UNL     1      47.348  43.461  78.378  1.00  0.00     0.008 C 
ATOM     14  C   UNL     1      53.011  46.639  74.542  1.00  0.00     0.017 C 
ATOM     15  C   UNL     1      50.866  47.768  73.566  1.00  0.00    -0.020 C 
ATOM     16  C   UNL     1      50.694  45.310  72.644  1.00  0.00     0.032 C 
ATOM     17  C   UNL     1      50.977  46.824  72.279  1.00  0.00     0.006 C 
ATOM     18  C   UNL     1      49.349  48.082  73.826  1.00  0.00     0.008 C 
ATOM     19  C   UNL     1      51.609  49.123  73.340  1.00  0.00     0.012 C 
ATOM     20  C   UNL     1      50.165  47.312  70.986  1.00  0.00    -0.025 C 
ATOM     21  C   UNL     1      48.545  48.516  72.583  1.00  0.00     0.005 C 
ATOM     22  C   UNL     1      48.662  47.492  71.420  1.00  0.00     0.003 C 
ATOM     23  C   UNL     1      50.271  46.266  69.815  1.00  0.00     0.010 C 
ATOM     24  C   UNL     1      50.807  48.628  70.415  1.00  0.00     0.012 C 
ATOM     25  C   UNL     1      47.614  47.691  70.255  1.00  0.00    -0.006 C 
ATOM     26  C   UNL     1      49.296  46.546  68.660  1.00  0.00     0.033 C 
ATOM     27  C   UNL     1      47.842  46.590  69.162  1.00  0.00     0.120 C 
ATOM     28  C   UNL     1      47.658  49.107  69.630  1.00  0.00     0.014 C 
ATOM     29  C   UNL     1      46.177  47.483  70.811  1.00  0.00     0.014 C 
ENDROOT
BRANCH   1  30
ATOM     30  C   UNL     1      52.055  44.659  77.817  1.00  0.00     0.048 C 
ATOM     31  O   UNL     1      52.146  44.023  78.903  1.00  0.00    -0.550 OA
ATOM     32  O   UNL     1      52.891  44.302  76.762  1.00  0.00    -0.550 OA
ENDBRANCH   1  30
BRANCH  27  33
ATOM     33  O   UNL     1      46.960  46.795  68.082  1.00  0.00    -0.393 OA
ATOM     34  H   UNL     1      47.388  47.444  67.452  1.00  0.00     0.210 HD
ENDBRANCH  27  33
TORSDOF 2
ENDMDL
