MODEL 1
REMARK VINA RESULT:    -2.362      0.000      0.000
REMARK INTER + INTRA:          -7.378
REMARK INTER:                  -5.952
REMARK INTRA:                  -1.426
REMARK UNBOUND:                -1.426
REMARK SMILES CCCCCCCCCCCCCCCCCCCCCCCCCCCC(=O)[O-]
REMARK SMILES IDX 15 1 16 2 17 3 18 4 19 5 20 6 21 7 22 8 23 9 24 10 25 11
REMARK SMILES IDX 26 12 27 13 28 14 29 15 30 16 14 17 13 18 12 19 11 20 10 21
REMARK SMILES IDX 9 22 8 23 7 24 6 25 5 26 4 27 3 28 2 29 1 30
REMARK H PARENT
REMARK Flexibility Score: inf
ROOT
ATOM      1  C   UNL     1       1.676 -22.216  16.079  1.00  0.00     0.000 C 
ENDROOT
BRANCH   1   2
ATOM      2  C   UNL     1       2.931 -23.109  16.099  1.00  0.00     0.000 C 
BRANCH   2   3
ATOM      3  C   UNL     1       4.241 -22.301  16.065  1.00  0.00     0.000 C 
BRANCH   3   4
ATOM      4  C   UNL     1       4.906 -22.093  17.438  1.00  0.00     0.000 C 
BRANCH   4   5
ATOM      5  C   UNL     1       6.353 -21.577  17.333  1.00  0.00     0.000 C 
BRANCH   5   6
ATOM      6  C   UNL     1       7.371 -22.707  17.107  1.00  0.00     0.000 C 
BRANCH   6   7
ATOM      7  C   UNL     1       8.679 -22.207  16.477  1.00  0.00     0.000 C 
BRANCH   7   8
ATOM      8  C   UNL     1       9.120 -23.124  15.325  1.00  0.00     0.000 C 
BRANCH   8   9
ATOM      9  C   UNL     1       8.693 -22.589  13.944  1.00  0.00     0.000 C 
BRANCH   9  10
ATOM     10  C   UNL     1       7.172 -22.411  13.791  1.00  0.00     0.000 C 
BRANCH  10  11
ATOM     11  C   UNL     1       6.747 -22.215  12.323  1.00  0.00     0.000 C 
BRANCH  11  12
ATOM     12  C   UNL     1       7.288 -20.902  11.733  1.00  0.00     0.006 C 
BRANCH  12  13
ATOM     13  C   UNL     1       8.462 -21.146  10.771  1.00  0.00     0.053 C 
BRANCH  13  14
ATOM     14  C   UNL     1       8.016 -21.015   9.348  1.00  0.00     0.041 C 
ATOM     15  O   UNL     1       8.350 -20.008   8.667  1.00  0.00    -0.550 OA
ATOM     16  O   UNL     1       7.238 -22.011   8.774  1.00  0.00    -0.550 OA
ENDBRANCH  13  14
ENDBRANCH  12  13
ENDBRANCH  11  12
ENDBRANCH  10  11
ENDBRANCH   9  10
ENDBRANCH   8   9
ENDBRANCH   7   8
ENDBRANCH   6   7
ENDBRANCH   5   6
ENDBRANCH   4   5
ENDBRANCH   3   4
ENDBRANCH   2   3
ENDBRANCH   1   2
BRANCH   1  17
ATOM     17  C   UNL     1       0.385 -23.014  15.837  1.00  0.00     0.000 C 
BRANCH  17  18
ATOM     18  C   UNL     1      -0.880 -22.176  16.091  1.00  0.00     0.000 C 
BRANCH  18  19
ATOM     19  C   UNL     1      -2.158 -23.029  16.095  1.00  0.00     0.000 C 
BRANCH  19  20
ATOM     20  C   UNL     1      -3.354 -22.301  16.733  1.00  0.00     0.000 C 
BRANCH  20  21
ATOM     21  C   UNL     1      -4.707 -22.916  16.333  1.00  0.00     0.000 C 
BRANCH  21  22
ATOM     22  C   UNL     1      -5.892 -22.525  17.239  1.00  0.00    -0.000 C 
BRANCH  22  23
ATOM     23  C   UNL     1      -7.264 -22.493  16.541  1.00  0.00    -0.000 C 
BRANCH  23  24
ATOM     24  C   UNL     1      -7.237 -21.734  15.205  1.00  0.00    -0.000 C 
BRANCH  24  25
ATOM     25  C   UNL     1      -8.085 -20.456  15.276  1.00  0.00    -0.000 C 
BRANCH  25  26
ATOM     26  C   UNL     1      -9.364 -20.535  14.423  1.00  0.00    -0.000 C 
BRANCH  26  27
ATOM     27  C   UNL     1     -10.682 -20.445  15.214  1.00  0.00    -0.000 C 
BRANCH  27  28
ATOM     28  C   UNL     1     -10.462 -20.323  16.729  1.00  0.00    -0.000 C 
BRANCH  28  29
ATOM     29  C   UNL     1     -10.850 -21.622  17.445  1.00  0.00    -0.003 C 
ATOM     30  C   UNL     1     -10.735 -21.474  18.959  1.00  0.00     0.004 C 
ENDBRANCH  28  29
ENDBRANCH  27  28
ENDBRANCH  26  27
ENDBRANCH  25  26
ENDBRANCH  24  25
ENDBRANCH  23  24
ENDBRANCH  22  23
ENDBRANCH  21  22
ENDBRANCH  20  21
ENDBRANCH  19  20
ENDBRANCH  18  19
ENDBRANCH  17  18
ENDBRANCH   1  17
TORSDOF 26
ENDMDL
MODEL 2
REMARK VINA RESULT:    -2.170      5.934     15.633
REMARK INTER + INTRA:          -6.895
REMARK INTER:                  -5.802
REMARK INTRA:                  -1.093
REMARK UNBOUND:                -1.426
REMARK SMILES CCCCCCCCCCCCCCCCCCCCCCCCCCCC(=O)[O-]
REMARK SMILES IDX 15 1 16 2 17 3 18 4 19 5 20 6 21 7 22 8 23 9 24 10 25 11
REMARK SMILES IDX 26 12 27 13 28 14 29 15 30 16 14 17 13 18 12 19 11 20 10 21
REMARK SMILES IDX 9 22 8 23 7 24 6 25 5 26 4 27 3 28 2 29 1 30
REMARK H PARENT
REMARK Flexibility Score: inf
ROOT
ATOM      1  C   UNL     1      -0.460 -22.333  16.248  1.00  0.00     0.000 C 
ENDROOT
BRANCH   1   2
ATOM      2  C   UNL     1      -1.797 -23.070  16.450  1.00  0.00     0.000 C 
BRANCH   2   3
ATOM      3  C   UNL     1      -3.020 -22.189  16.136  1.00  0.00     0.000 C 
BRANCH   3   4
ATOM      4  C   UNL     1      -4.375 -22.804  16.530  1.00  0.00     0.000 C 
BRANCH   4   5
ATOM      5  C   UNL     1      -5.575 -21.941  16.098  1.00  0.00     0.000 C 
BRANCH   5   6
ATOM      6  C   UNL     1      -6.879 -22.748  15.993  1.00  0.00     0.000 C 
BRANCH   6   7
ATOM      7  C   UNL     1      -7.455 -23.123  17.366  1.00  0.00     0.000 C 
BRANCH   7   8
ATOM      8  C   UNL     1      -7.694 -21.870  18.224  1.00  0.00     0.000 C 
BRANCH   8   9
ATOM      9  C   UNL     1      -9.131 -21.328  18.093  1.00  0.00     0.000 C 
BRANCH   9  10
ATOM     10  C   UNL     1     -10.215 -22.417  18.181  1.00  0.00     0.000 C 
BRANCH  10  11
ATOM     11  C   UNL     1     -11.022 -22.340  19.492  1.00  0.00     0.000 C 
BRANCH  11  12
ATOM     12  C   UNL     1     -10.146 -22.605  20.728  1.00  0.00     0.006 C 
BRANCH  12  13
ATOM     13  C   UNL     1      -9.566 -21.306  21.310  1.00  0.00     0.053 C 
BRANCH  13  14
ATOM     14  C   UNL     1      -9.558 -21.354  22.806  1.00  0.00     0.041 C 
ATOM     15  O   UNL     1     -10.638 -21.269  23.451  1.00  0.00    -0.550 OA
ATOM     16  O   UNL     1      -8.356 -21.498  23.486  1.00  0.00    -0.550 OA
ENDBRANCH  13  14
ENDBRANCH  12  13
ENDBRANCH  11  12
ENDBRANCH  10  11
ENDBRANCH   9  10
ENDBRANCH   8   9
ENDBRANCH   7   8
ENDBRANCH   6   7
ENDBRANCH   5   6
ENDBRANCH   4   5
ENDBRANCH   3   4
ENDBRANCH   2   3
ENDBRANCH   1   2
BRANCH   1  17
ATOM     17  C   UNL     1       0.529 -23.125  15.379  1.00  0.00     0.000 C 
BRANCH  17  18
ATOM     18  C   UNL     1       1.959 -23.101  15.945  1.00  0.00     0.000 C 
BRANCH  18  19
ATOM     19  C   UNL     1       2.501 -21.672  16.111  1.00  0.00     0.000 C 
BRANCH  19  20
ATOM     20  C   UNL     1       3.497 -21.548  17.276  1.00  0.00     0.000 C 
BRANCH  20  21
ATOM     21  C   UNL     1       4.770 -22.388  17.062  1.00  0.00     0.000 C 
BRANCH  21  22
ATOM     22  C   UNL     1       6.078 -21.714  17.523  1.00  0.00    -0.000 C 
BRANCH  22  23
ATOM     23  C   UNL     1       7.368 -22.342  16.965  1.00  0.00    -0.000 C 
BRANCH  23  24
ATOM     24  C   UNL     1       7.214 -22.832  15.517  1.00  0.00    -0.000 C 
BRANCH  24  25
ATOM     25  C   UNL     1       8.340 -22.288  14.625  1.00  0.00    -0.000 C 
BRANCH  25  26
ATOM     26  C   UNL     1       7.824 -21.382  13.493  1.00  0.00    -0.000 C 
BRANCH  26  27
ATOM     27  C   UNL     1       8.742 -21.295  12.259  1.00  0.00    -0.000 C 
BRANCH  27  28
ATOM     28  C   UNL     1       8.845 -19.874  11.689  1.00  0.00    -0.000 C 
BRANCH  28  29
ATOM     29  C   UNL     1       7.499 -19.412  11.120  1.00  0.00    -0.003 C 
ATOM     30  C   UNL     1       7.155 -20.161   9.836  1.00  0.00     0.004 C 
ENDBRANCH  28  29
ENDBRANCH  27  28
ENDBRANCH  26  27
ENDBRANCH  25  26
ENDBRANCH  24  25
ENDBRANCH  23  24
ENDBRANCH  22  23
ENDBRANCH  21  22
ENDBRANCH  20  21
ENDBRANCH  19  20
ENDBRANCH  18  19
ENDBRANCH  17  18
ENDBRANCH   1  17
TORSDOF 26
ENDMDL
MODEL 3
REMARK VINA RESULT:    -1.933      1.835      3.236
REMARK INTER + INTRA:          -6.296
REMARK INTER:                  -4.655
REMARK INTRA:                  -1.641
REMARK UNBOUND:                -1.426
REMARK SMILES CCCCCCCCCCCCCCCCCCCCCCCCCCCC(=O)[O-]
REMARK SMILES IDX 15 1 16 2 17 3 18 4 19 5 20 6 21 7 22 8 23 9 24 10 25 11
REMARK SMILES IDX 26 12 27 13 28 14 29 15 30 16 14 17 13 18 12 19 11 20 10 21
REMARK SMILES IDX 9 22 8 23 7 24 6 25 5 26 4 27 3 28 2 29 1 30
REMARK H PARENT
REMARK Flexibility Score: inf
ROOT
ATOM      1  C   UNL     1      -0.970 -21.657  16.659  1.00  0.00     0.000 C 
ENDROOT
BRANCH   1   2
ATOM      2  C   UNL     1       0.511 -21.956  16.961  1.00  0.00     0.000 C 
BRANCH   2   3
ATOM      3  C   UNL     1       1.298 -22.399  15.715  1.00  0.00     0.000 C 
BRANCH   3   4
ATOM      4  C   UNL     1       2.623 -23.125  16.014  1.00  0.00     0.000 C 
BRANCH   4   5
ATOM      5  C   UNL     1       3.631 -23.038  14.853  1.00  0.00     0.000 C 
BRANCH   5   6
ATOM      6  C   UNL     1       5.091 -23.117  15.329  1.00  0.00     0.000 C 
BRANCH   6   7
ATOM      7  C   UNL     1       5.394 -22.137  16.471  1.00  0.00     0.000 C 
BRANCH   7   8
ATOM      8  C   UNL     1       6.855 -22.265  16.932  1.00  0.00     0.000 C 
BRANCH   8   9
ATOM      9  C   UNL     1       7.846 -22.322  15.752  1.00  0.00     0.000 C 
BRANCH   9  10
ATOM     10  C   UNL     1       8.169 -20.944  15.145  1.00  0.00     0.000 C 
BRANCH  10  11
ATOM     11  C   UNL     1       8.570 -21.035  13.660  1.00  0.00     0.000 C 
BRANCH  11  12
ATOM     12  C   UNL     1       7.455 -21.644  12.794  1.00  0.00     0.006 C 
BRANCH  12  13
ATOM     13  C   UNL     1       7.208 -20.826  11.517  1.00  0.00     0.053 C 
BRANCH  13  14
ATOM     14  C   UNL     1       7.603 -21.608  10.303  1.00  0.00     0.041 C 
ATOM     15  O   UNL     1       8.726 -22.178  10.251  1.00  0.00    -0.550 OA
ATOM     16  O   UNL     1       6.725 -21.711   9.233  1.00  0.00    -0.550 OA
ENDBRANCH  13  14
ENDBRANCH  12  13
ENDBRANCH  11  12
ENDBRANCH  10  11
ENDBRANCH   9  10
ENDBRANCH   8   9
ENDBRANCH   7   8
ENDBRANCH   6   7
ENDBRANCH   5   6
ENDBRANCH   4   5
ENDBRANCH   3   4
ENDBRANCH   2   3
ENDBRANCH   1   2
BRANCH   1  17
ATOM     17  C   UNL     1      -1.644 -22.768  15.837  1.00  0.00     0.000 C 
BRANCH  17  18
ATOM     18  C   UNL     1      -3.168 -22.583  15.737  1.00  0.00     0.000 C 
BRANCH  18  19
ATOM     19  C   UNL     1      -3.907 -23.124  16.970  1.00  0.00     0.000 C 
BRANCH  19  20
ATOM     20  C   UNL     1      -5.275 -22.453  17.183  1.00  0.00     0.000 C 
BRANCH  20  21
ATOM     21  C   UNL     1      -5.836 -21.826  15.894  1.00  0.00     0.000 C 
BRANCH  21  22
ATOM     22  C   UNL     1      -7.367 -21.927  15.737  1.00  0.00    -0.000 C 
BRANCH  22  23
ATOM     23  C   UNL     1      -8.146 -22.130  17.049  1.00  0.00    -0.000 C 
BRANCH  23  24
ATOM     24  C   UNL     1      -9.443 -21.308  17.106  1.00  0.00    -0.000 C 
BRANCH  24  25
ATOM     25  C   UNL     1      -9.896 -21.085  18.555  1.00  0.00    -0.000 C 
BRANCH  25  26
ATOM     26  C   UNL     1      -9.627 -22.300  19.462  1.00  0.00    -0.000 C 
BRANCH  26  27
ATOM     27  C   UNL     1      -9.671 -22.008  20.973  1.00  0.00    -0.000 C 
BRANCH  27  28
ATOM     28  C   UNL     1      -8.373 -22.392  21.695  1.00  0.00    -0.000 C 
BRANCH  28  29
ATOM     29  C   UNL     1      -8.531 -22.262  23.215  1.00  0.00    -0.003 C 
ATOM     30  C   UNL     1      -9.995 -22.082  23.605  1.00  0.00     0.004 C 
ENDBRANCH  28  29
ENDBRANCH  27  28
ENDBRANCH  26  27
ENDBRANCH  25  26
ENDBRANCH  24  25
ENDBRANCH  23  24
ENDBRANCH  22  23
ENDBRANCH  21  22
ENDBRANCH  20  21
ENDBRANCH  19  20
ENDBRANCH  18  19
ENDBRANCH  17  18
ENDBRANCH   1  17
TORSDOF 26
ENDMDL
MODEL 4
REMARK VINA RESULT:    -1.635      5.631     15.185
REMARK INTER + INTRA:          -5.546
REMARK INTER:                  -4.947
REMARK INTRA:                  -0.600
REMARK UNBOUND:                -1.426
REMARK SMILES CCCCCCCCCCCCCCCCCCCCCCCCCCCC(=O)[O-]
REMARK SMILES IDX 15 1 16 2 17 3 18 4 19 5 20 6 21 7 22 8 23 9 24 10 25 11
REMARK SMILES IDX 26 12 27 13 28 14 29 15 30 16 14 17 13 18 12 19 11 20 10 21
REMARK SMILES IDX 9 22 8 23 7 24 6 25 5 26 4 27 3 28 2 29 1 30
REMARK H PARENT
REMARK Flexibility Score: inf
ROOT
ATOM      1  C   UNL     1      -2.437 -22.982  16.501  1.00  0.00     0.000 C 
ENDROOT
BRANCH   1   2
ATOM      2  C   UNL     1      -3.259 -22.023  15.621  1.00  0.00     0.000 C 
BRANCH   2   3
ATOM      3  C   UNL     1      -4.718 -21.882  16.091  1.00  0.00     0.000 C 
BRANCH   3   4
ATOM      4  C   UNL     1      -5.244 -23.066  16.923  1.00  0.00     0.000 C 
BRANCH   4   5
ATOM      5  C   UNL     1      -6.747 -22.956  17.242  1.00  0.00     0.000 C 
BRANCH   5   6
ATOM      6  C   UNL     1      -7.591 -22.609  16.004  1.00  0.00     0.000 C 
BRANCH   6   7
ATOM      7  C   UNL     1      -7.109 -21.334  15.298  1.00  0.00     0.000 C 
BRANCH   7   8
ATOM      8  C   UNL     1      -8.255 -20.321  15.148  1.00  0.00     0.000 C 
BRANCH   8   9
ATOM      9  C   UNL     1      -9.366 -20.818  14.203  1.00  0.00     0.000 C 
BRANCH   9  10
ATOM     10  C   UNL     1     -10.787 -20.640  14.767  1.00  0.00     0.000 C 
BRANCH  10  11
ATOM     11  C   UNL     1     -10.909 -21.137  16.221  1.00  0.00     0.000 C 
BRANCH  11  12
ATOM     12  C   UNL     1     -10.898 -19.979  17.233  1.00  0.00     0.006 C 
BRANCH  12  13
ATOM     13  C   UNL     1     -10.896 -20.485  18.684  1.00  0.00     0.053 C 
BRANCH  13  14
ATOM     14  C   UNL     1     -10.476 -19.397  19.622  1.00  0.00     0.041 C 
ATOM     15  O   UNL     1      -9.810 -19.672  20.657  1.00  0.00    -0.550 OA
ATOM     16  O   UNL     1     -10.814 -18.079  19.348  1.00  0.00    -0.550 OA
ENDBRANCH  13  14
ENDBRANCH  12  13
ENDBRANCH  11  12
ENDBRANCH  10  11
ENDBRANCH   9  10
ENDBRANCH   8   9
ENDBRANCH   7   8
ENDBRANCH   6   7
ENDBRANCH   5   6
ENDBRANCH   4   5
ENDBRANCH   3   4
ENDBRANCH   2   3
ENDBRANCH   1   2
BRANCH   1  17
ATOM     17  C   UNL     1      -0.982 -23.124  16.027  1.00  0.00     0.000 C 
BRANCH  17  18
ATOM     18  C   UNL     1      -0.257 -21.770  15.942  1.00  0.00     0.000 C 
BRANCH  18  19
ATOM     19  C   UNL     1       1.144 -21.815  16.573  1.00  0.00     0.000 C 
BRANCH  19  20
ATOM     20  C   UNL     1       2.193 -22.446  15.641  1.00  0.00     0.000 C 
BRANCH  20  21
ATOM     21  C   UNL     1       3.419 -22.982  16.402  1.00  0.00     0.000 C 
BRANCH  21  22
ATOM     22  C   UNL     1       4.304 -21.900  17.052  1.00  0.00    -0.000 C 
BRANCH  22  23
ATOM     23  C   UNL     1       5.717 -22.365  17.450  1.00  0.00    -0.000 C 
BRANCH  23  24
ATOM     24  C   UNL     1       6.787 -21.285  17.223  1.00  0.00    -0.000 C 
BRANCH  24  25
ATOM     25  C   UNL     1       8.152 -21.914  16.912  1.00  0.00    -0.000 C 
BRANCH  25  26
ATOM     26  C   UNL     1       8.059 -23.102  15.938  1.00  0.00    -0.000 C 
BRANCH  26  27
ATOM     27  C   UNL     1       8.658 -22.849  14.542  1.00  0.00    -0.000 C 
BRANCH  27  28
ATOM     28  C   UNL     1       8.076 -21.604  13.858  1.00  0.00    -0.000 C 
BRANCH  28  29
ATOM     29  C   UNL     1       7.054 -21.996  12.784  1.00  0.00    -0.003 C 
ATOM     30  C   UNL     1       5.914 -22.818  13.379  1.00  0.00     0.004 C 
ENDBRANCH  28  29
ENDBRANCH  27  28
ENDBRANCH  26  27
ENDBRANCH  25  26
ENDBRANCH  24  25
ENDBRANCH  23  24
ENDBRANCH  22  23
ENDBRANCH  21  22
ENDBRANCH  20  21
ENDBRANCH  19  20
ENDBRANCH  18  19
ENDBRANCH  17  18
ENDBRANCH   1  17
TORSDOF 26
ENDMDL
MODEL 5
REMARK VINA RESULT:    -1.567      5.794     15.788
REMARK INTER + INTRA:          -5.374
REMARK INTER:                  -3.630
REMARK INTRA:                  -1.744
REMARK UNBOUND:                -1.426
REMARK SMILES CCCCCCCCCCCCCCCCCCCCCCCCCCCC(=O)[O-]
REMARK SMILES IDX 15 1 16 2 17 3 18 4 19 5 20 6 21 7 22 8 23 9 24 10 25 11
REMARK SMILES IDX 26 12 27 13 28 14 29 15 30 16 14 17 13 18 12 19 11 20 10 21
REMARK SMILES IDX 9 22 8 23 7 24 6 25 5 26 4 27 3 28 2 29 1 30
REMARK H PARENT
REMARK Flexibility Score: inf
ROOT
ATOM      1  C   UNL     1      -3.374 -21.263  15.356  1.00  0.00     0.000 C 
ENDROOT
BRANCH   1   2
ATOM      2  C   UNL     1      -4.911 -21.280  15.262  1.00  0.00     0.000 C 
BRANCH   2   3
ATOM      3  C   UNL     1      -5.563 -22.214  16.296  1.00  0.00     0.000 C 
BRANCH   3   4
ATOM      4  C   UNL     1      -7.073 -21.993  16.503  1.00  0.00     0.000 C 
BRANCH   4   5
ATOM      5  C   UNL     1      -7.763 -21.369  15.276  1.00  0.00     0.000 C 
BRANCH   5   6
ATOM      6  C   UNL     1      -9.238 -21.022  15.536  1.00  0.00     0.000 C 
BRANCH   6   7
ATOM      7  C   UNL     1      -9.569 -20.936  17.033  1.00  0.00     0.000 C 
BRANCH   7   8
ATOM      8  C   UNL     1     -10.943 -21.557  17.330  1.00  0.00     0.000 C 
BRANCH   8   9
ATOM      9  C   UNL     1     -10.861 -22.725  18.334  1.00  0.00     0.000 C 
BRANCH   9  10
ATOM     10  C   UNL     1     -10.001 -22.418  19.573  1.00  0.00     0.000 C 
BRANCH  10  11
ATOM     11  C   UNL     1     -10.790 -21.672  20.666  1.00  0.00     0.000 C 
BRANCH  11  12
ATOM     12  C   UNL     1     -10.066 -20.400  21.138  1.00  0.00     0.006 C 
BRANCH  12  13
ATOM     13  C   UNL     1      -9.812 -20.413  22.653  1.00  0.00     0.053 C 
BRANCH  13  14
ATOM     14  C   UNL     1      -9.168 -21.698  23.071  1.00  0.00     0.041 C 
ATOM     15  O   UNL     1      -9.710 -22.427  23.945  1.00  0.00    -0.550 OA
ATOM     16  O   UNL     1      -7.971 -22.092  22.488  1.00  0.00    -0.550 OA
ENDBRANCH  13  14
ENDBRANCH  12  13
ENDBRANCH  11  12
ENDBRANCH  10  11
ENDBRANCH   9  10
ENDBRANCH   8   9
ENDBRANCH   7   8
ENDBRANCH   6   7
ENDBRANCH   5   6
ENDBRANCH   4   5
ENDBRANCH   3   4
ENDBRANCH   2   3
ENDBRANCH   1   2
BRANCH   1  17
ATOM     17  C   UNL     1      -2.823 -22.363  16.277  1.00  0.00     0.000 C 
BRANCH  17  18
ATOM     18  C   UNL     1      -1.646 -23.125  15.645  1.00  0.00     0.000 C 
BRANCH  18  19
ATOM     19  C   UNL     1      -0.309 -22.817  16.336  1.00  0.00     0.000 C 
BRANCH  19  20
ATOM     20  C   UNL     1       0.867 -22.745  15.347  1.00  0.00     0.000 C 
BRANCH  20  21
ATOM     21  C   UNL     1       2.218 -23.079  16.003  1.00  0.00     0.000 C 
BRANCH  21  22
ATOM     22  C   UNL     1       3.441 -22.961  15.070  1.00  0.00    -0.000 C 
BRANCH  22  23
ATOM     23  C   UNL     1       4.800 -22.863  15.786  1.00  0.00    -0.000 C 
BRANCH  23  24
ATOM     24  C   UNL     1       4.789 -21.868  16.957  1.00  0.00    -0.000 C 
BRANCH  24  25
ATOM     25  C   UNL     1       6.199 -21.668  17.529  1.00  0.00    -0.000 C 
BRANCH  25  26
ATOM     26  C   UNL     1       7.182 -22.775  17.105  1.00  0.00    -0.000 C 
BRANCH  26  27
ATOM     27  C   UNL     1       8.444 -22.279  16.374  1.00  0.00    -0.000 C 
BRANCH  27  28
ATOM     28  C   UNL     1       8.139 -21.225  15.302  1.00  0.00    -0.000 C 
BRANCH  28  29
ATOM     29  C   UNL     1       8.808 -21.586  13.971  1.00  0.00    -0.003 C 
ATOM     30  C   UNL     1       8.011 -21.046  12.787  1.00  0.00     0.004 C 
ENDBRANCH  28  29
ENDBRANCH  27  28
ENDBRANCH  26  27
ENDBRANCH  25  26
ENDBRANCH  24  25
ENDBRANCH  23  24
ENDBRANCH  22  23
ENDBRANCH  21  22
ENDBRANCH  20  21
ENDBRANCH  19  20
ENDBRANCH  18  19
ENDBRANCH  17  18
ENDBRANCH   1  17
TORSDOF 26
ENDMDL
MODEL 6
REMARK VINA RESULT:    -1.491      1.665      4.420
REMARK INTER + INTRA:          -5.183
REMARK INTER:                  -3.398
REMARK INTRA:                  -1.785
REMARK UNBOUND:                -1.426
REMARK SMILES CCCCCCCCCCCCCCCCCCCCCCCCCCCC(=O)[O-]
REMARK SMILES IDX 15 1 16 2 17 3 18 4 19 5 20 6 21 7 22 8 23 9 24 10 25 11
REMARK SMILES IDX 26 12 27 13 28 14 29 15 30 16 14 17 13 18 12 19 11 20 10 21
REMARK SMILES IDX 9 22 8 23 7 24 6 25 5 26 4 27 3 28 2 29 1 30
REMARK H PARENT
REMARK Flexibility Score: inf
ROOT
ATOM      1  C   UNL     1      -3.232 -22.988  15.832  1.00  0.00     0.000 C 
ENDROOT
BRANCH   1   2
ATOM      2  C   UNL     1      -2.021 -22.055  16.018  1.00  0.00     0.000 C 
BRANCH   2   3
ATOM      3  C   UNL     1      -0.783 -22.785  16.569  1.00  0.00     0.000 C 
BRANCH   3   4
ATOM      4  C   UNL     1       0.564 -22.126  16.216  1.00  0.00     0.000 C 
BRANCH   4   5
ATOM      5  C   UNL     1       1.177 -22.671  14.914  1.00  0.00     0.000 C 
BRANCH   5   6
ATOM      6  C   UNL     1       2.684 -22.950  15.039  1.00  0.00     0.000 C 
BRANCH   6   7
ATOM      7  C   UNL     1       3.228 -22.638  16.440  1.00  0.00     0.000 C 
BRANCH   7   8
ATOM      8  C   UNL     1       4.711 -22.237  16.377  1.00  0.00     0.000 C 
BRANCH   8   9
ATOM      9  C   UNL     1       5.492 -23.022  15.305  1.00  0.00     0.000 C 
BRANCH   9  10
ATOM     10  C   UNL     1       6.932 -22.521  15.094  1.00  0.00     0.000 C 
BRANCH  10  11
ATOM     11  C   UNL     1       7.295 -22.385  13.603  1.00  0.00     0.000 C 
BRANCH  11  12
ATOM     12  C   UNL     1       6.070 -22.557  12.689  1.00  0.00     0.006 C 
BRANCH  12  13
ATOM     13  C   UNL     1       6.453 -22.514  11.202  1.00  0.00     0.053 C 
BRANCH  13  14
ATOM     14  C   UNL     1       7.674 -21.674  10.993  1.00  0.00     0.041 C 
ATOM     15  O   UNL     1       8.777 -22.214  10.710  1.00  0.00    -0.550 OA
ATOM     16  O   UNL     1       7.589 -20.293  11.106  1.00  0.00    -0.550 OA
ENDBRANCH  13  14
ENDBRANCH  12  13
ENDBRANCH  11  12
ENDBRANCH  10  11
ENDBRANCH   9  10
ENDBRANCH   8   9
ENDBRANCH   7   8
ENDBRANCH   6   7
ENDBRANCH   5   6
ENDBRANCH   4   5
ENDBRANCH   3   4
ENDBRANCH   2   3
ENDBRANCH   1   2
BRANCH   1  17
ATOM     17  C   UNL     1      -4.556 -22.335  16.263  1.00  0.00     0.000 C 
BRANCH  17  18
ATOM     18  C   UNL     1      -5.228 -23.082  17.428  1.00  0.00     0.000 C 
BRANCH  18  19
ATOM     19  C   UNL     1      -6.760 -23.089  17.314  1.00  0.00     0.000 C 
BRANCH  19  20
ATOM     20  C   UNL     1      -7.361 -21.672  17.311  1.00  0.00     0.000 C 
BRANCH  20  21
ATOM     21  C   UNL     1      -8.878 -21.671  17.051  1.00  0.00     0.000 C 
BRANCH  21  22
ATOM     22  C   UNL     1      -9.635 -22.889  17.617  1.00  0.00    -0.000 C 
BRANCH  22  23
ATOM     23  C   UNL     1     -10.868 -22.551  18.475  1.00  0.00    -0.000 C 
BRANCH  23  24
ATOM     24  C   UNL     1     -10.779 -23.123  19.898  1.00  0.00    -0.000 C 
BRANCH  24  25
ATOM     25  C   UNL     1     -11.079 -22.045  20.949  1.00  0.00    -0.000 C 
BRANCH  25  26
ATOM     26  C   UNL     1      -9.830 -21.247  21.365  1.00  0.00    -0.000 C 
BRANCH  26  27
ATOM     27  C   UNL     1      -9.907 -19.732  21.102  1.00  0.00    -0.000 C 
BRANCH  27  28
ATOM     28  C   UNL     1      -9.754 -19.374  19.618  1.00  0.00    -0.000 C 
BRANCH  28  29
ATOM     29  C   UNL     1     -11.125 -19.206  18.950  1.00  0.00    -0.003 C 
ATOM     30  C   UNL     1     -11.004 -18.482  17.613  1.00  0.00     0.004 C 
ENDBRANCH  28  29
ENDBRANCH  27  28
ENDBRANCH  26  27
ENDBRANCH  25  26
ENDBRANCH  24  25
ENDBRANCH  23  24
ENDBRANCH  22  23
ENDBRANCH  21  22
ENDBRANCH  20  21
ENDBRANCH  19  20
ENDBRANCH  18  19
ENDBRANCH  17  18
ENDBRANCH   1  17
TORSDOF 26
ENDMDL
MODEL 7
REMARK VINA RESULT:    -1.344      2.040      4.826
REMARK INTER + INTRA:          -4.812
REMARK INTER:                  -3.356
REMARK INTRA:                  -1.457
REMARK UNBOUND:                -1.426
REMARK SMILES CCCCCCCCCCCCCCCCCCCCCCCCCCCC(=O)[O-]
REMARK SMILES IDX 15 1 16 2 17 3 18 4 19 5 20 6 21 7 22 8 23 9 24 10 25 11
REMARK SMILES IDX 26 12 27 13 28 14 29 15 30 16 14 17 13 18 12 19 11 20 10 21
REMARK SMILES IDX 9 22 8 23 7 24 6 25 5 26 4 27 3 28 2 29 1 30
REMARK H PARENT
REMARK Flexibility Score: inf
ROOT
ATOM      1  C   UNL     1      -3.291 -22.717  15.717  1.00  0.00     0.000 C 
ENDROOT
BRANCH   1   2
ATOM      2  C   UNL     1      -1.975 -22.010  16.093  1.00  0.00     0.000 C 
BRANCH   2   3
ATOM      3  C   UNL     1      -0.815 -22.992  16.333  1.00  0.00     0.000 C 
BRANCH   3   4
ATOM      4  C   UNL     1       0.589 -22.369  16.231  1.00  0.00     0.000 C 
BRANCH   4   5
ATOM      5  C   UNL     1       1.355 -22.817  14.973  1.00  0.00     0.000 C 
BRANCH   5   6
ATOM      6  C   UNL     1       2.877 -22.640  15.111  1.00  0.00     0.000 C 
BRANCH   6   7
ATOM      7  C   UNL     1       3.375 -22.905  16.539  1.00  0.00     0.000 C 
BRANCH   7   8
ATOM      8  C   UNL     1       4.424 -21.862  16.958  1.00  0.00     0.000 C 
BRANCH   8   9
ATOM      9  C   UNL     1       5.862 -22.415  16.904  1.00  0.00     0.000 C 
BRANCH   9  10
ATOM     10  C   UNL     1       6.945 -21.323  16.840  1.00  0.00     0.000 C 
BRANCH  10  11
ATOM     11  C   UNL     1       8.365 -21.909  16.712  1.00  0.00     0.000 C 
BRANCH  11  12
ATOM     12  C   UNL     1       8.855 -21.927  15.255  1.00  0.00     0.006 C 
BRANCH  12  13
ATOM     13  C   UNL     1       7.688 -21.904  14.256  1.00  0.00     0.053 C 
BRANCH  13  14
ATOM     14  C   UNL     1       8.159 -21.476  12.901  1.00  0.00     0.041 C 
ATOM     15  O   UNL     1       9.040 -20.581  12.788  1.00  0.00    -0.550 OA
ATOM     16  O   UNL     1       7.628 -22.071  11.765  1.00  0.00    -0.550 OA
ENDBRANCH  13  14
ENDBRANCH  12  13
ENDBRANCH  11  12
ENDBRANCH  10  11
ENDBRANCH   9  10
ENDBRANCH   8   9
ENDBRANCH   7   8
ENDBRANCH   6   7
ENDBRANCH   5   6
ENDBRANCH   4   5
ENDBRANCH   3   4
ENDBRANCH   2   3
ENDBRANCH   1   2
BRANCH   1  17
ATOM     17  C   UNL     1      -4.523 -22.059  16.359  1.00  0.00     0.000 C 
BRANCH  17  18
ATOM     18  C   UNL     1      -5.576 -23.090  16.801  1.00  0.00     0.000 C 
BRANCH  18  19
ATOM     19  C   UNL     1      -6.953 -22.829  16.170  1.00  0.00     0.000 C 
BRANCH  19  20
ATOM     20  C   UNL     1      -7.396 -21.361  16.298  1.00  0.00     0.000 C 
BRANCH  20  21
ATOM     21  C   UNL     1      -8.873 -21.151  15.920  1.00  0.00     0.000 C 
BRANCH  21  22
ATOM     22  C   UNL     1      -9.849 -22.188  16.511  1.00  0.00    -0.000 C 
BRANCH  22  23
ATOM     23  C   UNL     1     -10.868 -21.625  17.518  1.00  0.00    -0.000 C 
BRANCH  23  24
ATOM     24  C   UNL     1     -11.000 -22.491  18.781  1.00  0.00    -0.000 C 
BRANCH  24  25
ATOM     25  C   UNL     1     -10.777 -21.658  20.051  1.00  0.00    -0.000 C 
BRANCH  25  26
ATOM     26  C   UNL     1      -9.309 -21.238  20.243  1.00  0.00    -0.000 C 
BRANCH  26  27
ATOM     27  C   UNL     1      -8.368 -22.360  20.721  1.00  0.00    -0.000 C 
BRANCH  27  28
ATOM     28  C   UNL     1      -8.908 -23.114  21.944  1.00  0.00    -0.000 C 
BRANCH  28  29
ATOM     29  C   UNL     1      -8.782 -22.263  23.213  1.00  0.00    -0.003 C 
ATOM     30  C   UNL     1     -10.153 -21.927  23.793  1.00  0.00     0.004 C 
ENDBRANCH  28  29
ENDBRANCH  27  28
ENDBRANCH  26  27
ENDBRANCH  25  26
ENDBRANCH  24  25
ENDBRANCH  23  24
ENDBRANCH  22  23
ENDBRANCH  21  22
ENDBRANCH  20  21
ENDBRANCH  19  20
ENDBRANCH  18  19
ENDBRANCH  17  18
ENDBRANCH   1  17
TORSDOF 26
ENDMDL
MODEL 8
REMARK VINA RESULT:    -1.247      5.706     15.317
REMARK INTER + INTRA:          -4.569
REMARK INTER:                  -3.792
REMARK INTRA:                  -0.776
REMARK UNBOUND:                -1.426
REMARK SMILES CCCCCCCCCCCCCCCCCCCCCCCCCCCC(=O)[O-]
REMARK SMILES IDX 15 1 16 2 17 3 18 4 19 5 20 6 21 7 22 8 23 9 24 10 25 11
REMARK SMILES IDX 26 12 27 13 28 14 29 15 30 16 14 17 13 18 12 19 11 20 10 21
REMARK SMILES IDX 9 22 8 23 7 24 6 25 5 26 4 27 3 28 2 29 1 30
REMARK H PARENT
REMARK Flexibility Score: inf
ROOT
ATOM      1  C   UNL     1       1.883 -21.691  16.246  1.00  0.00     0.000 C 
ENDROOT
BRANCH   1   2
ATOM      2  C   UNL     1       0.546 -21.903  16.981  1.00  0.00     0.000 C 
BRANCH   2   3
ATOM      3  C   UNL     1      -0.610 -22.257  16.029  1.00  0.00     0.000 C 
BRANCH   3   4
ATOM      4  C   UNL     1      -1.954 -22.540  16.726  1.00  0.00     0.000 C 
BRANCH   4   5
ATOM      5  C   UNL     1      -3.137 -22.609  15.743  1.00  0.00     0.000 C 
BRANCH   5   6
ATOM      6  C   UNL     1      -4.346 -21.783  16.211  1.00  0.00     0.000 C 
BRANCH   6   7
ATOM      7  C   UNL     1      -5.677 -22.526  16.026  1.00  0.00     0.000 C 
BRANCH   7   8
ATOM      8  C   UNL     1      -6.219 -23.028  17.374  1.00  0.00     0.000 C 
BRANCH   8   9
ATOM      9  C   UNL     1      -7.758 -23.125  17.395  1.00  0.00     0.000 C 
BRANCH   9  10
ATOM     10  C   UNL     1      -8.463 -21.766  17.551  1.00  0.00     0.000 C 
BRANCH  10  11
ATOM     11  C   UNL     1      -9.488 -21.764  18.702  1.00  0.00     0.000 C 
BRANCH  11  12
ATOM     12  C   UNL     1     -10.610 -20.737  18.477  1.00  0.00     0.006 C 
BRANCH  12  13
ATOM     13  C   UNL     1     -11.057 -20.079  19.792  1.00  0.00     0.053 C 
BRANCH  13  14
ATOM     14  C   UNL     1     -10.305 -20.650  20.952  1.00  0.00     0.041 C 
ATOM     15  O   UNL     1      -9.340 -20.017  21.459  1.00  0.00    -0.550 OA
ATOM     16  O   UNL     1     -10.676 -21.880  21.478  1.00  0.00    -0.550 OA
ENDBRANCH  13  14
ENDBRANCH  12  13
ENDBRANCH  11  12
ENDBRANCH  10  11
ENDBRANCH   9  10
ENDBRANCH   8   9
ENDBRANCH   7   8
ENDBRANCH   6   7
ENDBRANCH   5   6
ENDBRANCH   4   5
ENDBRANCH   3   4
ENDBRANCH   2   3
ENDBRANCH   1   2
BRANCH   1  17
ATOM     17  C   UNL     1       2.719 -22.978  16.153  1.00  0.00     0.000 C 
BRANCH  17  18
ATOM     18  C   UNL     1       3.684 -22.966  14.955  1.00  0.00     0.000 C 
BRANCH  18  19
ATOM     19  C   UNL     1       5.152 -22.812  15.385  1.00  0.00     0.000 C 
BRANCH  19  20
ATOM     20  C   UNL     1       5.331 -21.800  16.529  1.00  0.00     0.000 C 
BRANCH  20  21
ATOM     21  C   UNL     1       6.133 -22.374  17.711  1.00  0.00     0.000 C 
BRANCH  21  22
ATOM     22  C   UNL     1       7.593 -21.885  17.803  1.00  0.00    -0.000 C 
BRANCH  22  23
ATOM     23  C   UNL     1       8.249 -21.532  16.456  1.00  0.00    -0.000 C 
BRANCH  23  24
ATOM     24  C   UNL     1       8.550 -22.770  15.596  1.00  0.00    -0.000 C 
BRANCH  24  25
ATOM     25  C   UNL     1       9.099 -22.368  14.220  1.00  0.00    -0.000 C 
BRANCH  25  26
ATOM     26  C   UNL     1       8.004 -21.879  13.255  1.00  0.00    -0.000 C 
BRANCH  26  27
ATOM     27  C   UNL     1       8.248 -22.209  11.771  1.00  0.00    -0.000 C 
BRANCH  27  28
ATOM     28  C   UNL     1       9.045 -21.121  11.039  1.00  0.00    -0.000 C 
BRANCH  28  29
ATOM     29  C   UNL     1       8.146 -19.931  10.680  1.00  0.00    -0.003 C 
ATOM     30  C   UNL     1       7.395 -20.180   9.375  1.00  0.00     0.004 C 
ENDBRANCH  28  29
ENDBRANCH  27  28
ENDBRANCH  26  27
ENDBRANCH  25  26
ENDBRANCH  24  25
ENDBRANCH  23  24
ENDBRANCH  22  23
ENDBRANCH  21  22
ENDBRANCH  20  21
ENDBRANCH  19  20
ENDBRANCH  18  19
ENDBRANCH  17  18
ENDBRANCH   1  17
TORSDOF 26
ENDMDL
