MODEL 1
REMARK VINA RESULT:    -2.903      0.000      0.000
REMARK INTER + INTRA:          -9.287
REMARK INTER:                  -7.317
REMARK INTRA:                  -1.971
REMARK UNBOUND:                -1.971
REMARK SMILES CCCCCCCCCCCCCCCCCCCCCCCCCCCC(=O)[O-]
REMARK SMILES IDX 15 1 16 2 17 3 18 4 19 5 20 6 21 7 22 8 23 9 24 10 25 11
REMARK SMILES IDX 26 12 27 13 28 14 29 15 30 16 14 17 13 18 12 19 11 20 10 21
REMARK SMILES IDX 9 22 8 23 7 24 6 25 5 26 4 27 3 28 2 29 1 30
REMARK H PARENT
REMARK Flexibility Score: inf
ROOT
ATOM      1  C   UNL     1     -10.367  -3.772  -7.285  1.00  0.00     0.000 C 
ENDROOT
BRANCH   1   2
ATOM      2  C   UNL     1     -10.911  -5.062  -6.635  1.00  0.00     0.000 C 
BRANCH   2   3
ATOM      3  C   UNL     1      -9.923  -5.792  -5.708  1.00  0.00     0.000 C 
BRANCH   3   4
ATOM      4  C   UNL     1      -9.772  -5.107  -4.339  1.00  0.00     0.000 C 
BRANCH   4   5
ATOM      5  C   UNL     1     -11.125  -4.705  -3.730  1.00  0.00     0.000 C 
BRANCH   5   6
ATOM      6  C   UNL     1     -11.085  -3.311  -3.080  1.00  0.00     0.000 C 
BRANCH   6   7
ATOM      7  C   UNL     1     -10.778  -3.368  -1.575  1.00  0.00     0.000 C 
BRANCH   7   8
ATOM      8  C   UNL     1      -9.359  -3.884  -1.279  1.00  0.00     0.000 C 
BRANCH   8   9
ATOM      9  C   UNL     1      -8.340  -2.748  -1.096  1.00  0.00     0.000 C 
BRANCH   9  10
ATOM     10  C   UNL     1      -7.758  -2.255  -2.430  1.00  0.00     0.000 C 
BRANCH  10  11
ATOM     11  C   UNL     1      -7.152  -0.855  -2.283  1.00  0.00     0.000 C 
BRANCH  11  12
ATOM     12  C   UNL     1      -7.717  -0.137  -1.048  1.00  0.00     0.006 C 
BRANCH  12  13
ATOM     13  C   UNL     1      -7.115   1.262  -0.860  1.00  0.00     0.053 C 
BRANCH  13  14
ATOM     14  C   UNL     1      -8.155   2.266  -0.464  1.00  0.00     0.041 C 
ATOM     15  O   UNL     1      -8.181   2.723   0.710  1.00  0.00    -0.550 OA
ATOM     16  O   UNL     1      -9.082   2.716  -1.399  1.00  0.00    -0.550 OA
ENDBRANCH  13  14
ENDBRANCH  12  13
ENDBRANCH  11  12
ENDBRANCH  10  11
ENDBRANCH   9  10
ENDBRANCH   8   9
ENDBRANCH   7   8
ENDBRANCH   6   7
ENDBRANCH   5   6
ENDBRANCH   4   5
ENDBRANCH   3   4
ENDBRANCH   2   3
ENDBRANCH   1   2
BRANCH   1  17
ATOM     17  C   UNL     1     -11.037  -3.377  -8.613  1.00  0.00     0.000 C 
BRANCH  17  18
ATOM     18  C   UNL     1     -10.899  -4.456  -9.698  1.00  0.00     0.000 C 
BRANCH  18  19
ATOM     19  C   UNL     1      -9.510  -5.104  -9.649  1.00  0.00     0.000 C 
BRANCH  19  20
ATOM     20  C   UNL     1      -8.401  -4.042  -9.729  1.00  0.00     0.000 C 
BRANCH  20  21
ATOM     21  C   UNL     1      -7.031  -4.587  -9.295  1.00  0.00     0.000 C 
BRANCH  21  22
ATOM     22  C   UNL     1      -6.734  -5.974  -9.881  1.00  0.00    -0.000 C 
BRANCH  22  23
ATOM     23  C   UNL     1      -6.699  -7.046  -8.785  1.00  0.00    -0.000 C 
BRANCH  23  24
ATOM     24  C   UNL     1      -6.654  -6.455  -7.365  1.00  0.00    -0.000 C 
BRANCH  24  25
ATOM     25  C   UNL     1      -5.269  -6.546  -6.690  1.00  0.00    -0.000 C 
BRANCH  25  26
ATOM     26  C   UNL     1      -4.629  -5.164  -6.458  1.00  0.00    -0.000 C 
BRANCH  26  27
ATOM     27  C   UNL     1      -3.351  -5.253  -5.598  1.00  0.00    -0.000 C 
BRANCH  27  28
ATOM     28  C   UNL     1      -2.639  -3.902  -5.393  1.00  0.00    -0.000 C 
BRANCH  28  29
ATOM     29  C   UNL     1      -3.587  -2.683  -5.359  1.00  0.00    -0.003 C 
ATOM     30  C   UNL     1      -3.219  -1.615  -6.391  1.00  0.00     0.004 C 
ENDBRANCH  28  29
ENDBRANCH  27  28
ENDBRANCH  26  27
ENDBRANCH  25  26
ENDBRANCH  24  25
ENDBRANCH  23  24
ENDBRANCH  22  23
ENDBRANCH  21  22
ENDBRANCH  20  21
ENDBRANCH  19  20
ENDBRANCH  18  19
ENDBRANCH  17  18
ENDBRANCH   1  17
TORSDOF 26
ENDMDL
MODEL 2
REMARK VINA RESULT:    -2.029      2.792      7.771
REMARK INTER + INTRA:          -7.083
REMARK INTER:                  -6.341
REMARK INTRA:                  -0.743
REMARK UNBOUND:                -1.971
REMARK SMILES CCCCCCCCCCCCCCCCCCCCCCCCCCCC(=O)[O-]
REMARK SMILES IDX 15 1 16 2 17 3 18 4 19 5 20 6 21 7 22 8 23 9 24 10 25 11
REMARK SMILES IDX 26 12 27 13 28 14 29 15 30 16 14 17 13 18 12 19 11 20 10 21
REMARK SMILES IDX 9 22 8 23 7 24 6 25 5 26 4 27 3 28 2 29 1 30
REMARK H PARENT
REMARK Flexibility Score: inf
ROOT
ATOM      1  C   UNL     1      -9.808  -4.106  -5.614  1.00  0.00     0.000 C 
ENDROOT
BRANCH   1   2
ATOM      2  C   UNL     1     -11.087  -3.854  -6.437  1.00  0.00     0.000 C 
BRANCH   2   3
ATOM      3  C   UNL     1     -10.878  -3.070  -7.745  1.00  0.00     0.000 C 
BRANCH   3   4
ATOM      4  C   UNL     1     -10.201  -3.910  -8.842  1.00  0.00     0.000 C 
BRANCH   4   5
ATOM      5  C   UNL     1      -9.523  -3.040  -9.913  1.00  0.00     0.000 C 
BRANCH   5   6
ATOM      6  C   UNL     1      -8.043  -3.407 -10.116  1.00  0.00     0.000 C 
BRANCH   6   7
ATOM      7  C   UNL     1      -7.801  -4.925 -10.094  1.00  0.00     0.000 C 
BRANCH   7   8
ATOM      8  C   UNL     1      -7.168  -5.405  -8.776  1.00  0.00     0.000 C 
BRANCH   8   9
ATOM      9  C   UNL     1      -5.791  -6.056  -8.982  1.00  0.00     0.000 C 
BRANCH   9  10
ATOM     10  C   UNL     1      -5.340  -6.882  -7.766  1.00  0.00     0.000 C 
BRANCH  10  11
ATOM     11  C   UNL     1      -6.241  -6.617  -6.555  1.00  0.00     0.000 C 
BRANCH  11  12
ATOM     12  C   UNL     1      -5.416  -6.140  -5.349  1.00  0.00     0.006 C 
BRANCH  12  13
ATOM     13  C   UNL     1      -3.932  -5.957  -5.694  1.00  0.00     0.053 C 
BRANCH  13  14
ATOM     14  C   UNL     1      -3.579  -4.513  -5.887  1.00  0.00     0.041 C 
ATOM     15  O   UNL     1      -4.386  -3.734  -6.461  1.00  0.00    -0.550 OA
ATOM     16  O   UNL     1      -2.368  -4.022  -5.410  1.00  0.00    -0.550 OA
ENDBRANCH  13  14
ENDBRANCH  12  13
ENDBRANCH  11  12
ENDBRANCH  10  11
ENDBRANCH   9  10
ENDBRANCH   8   9
ENDBRANCH   7   8
ENDBRANCH   6   7
ENDBRANCH   5   6
ENDBRANCH   4   5
ENDBRANCH   3   4
ENDBRANCH   2   3
ENDBRANCH   1   2
BRANCH   1  17
ATOM     17  C   UNL     1     -10.003  -4.961  -4.349  1.00  0.00     0.000 C 
BRANCH  17  18
ATOM     18  C   UNL     1     -11.109  -4.425  -3.427  1.00  0.00     0.000 C 
BRANCH  18  19
ATOM     19  C   UNL     1     -11.070  -2.893  -3.364  1.00  0.00     0.000 C 
BRANCH  19  20
ATOM     20  C   UNL     1     -11.125  -2.397  -1.910  1.00  0.00     0.000 C 
BRANCH  20  21
ATOM     21  C   UNL     1     -11.040  -3.545  -0.892  1.00  0.00     0.000 C 
BRANCH  21  22
ATOM     22  C   UNL     1      -9.678  -3.610  -0.187  1.00  0.00    -0.000 C 
BRANCH  22  23
ATOM     23  C   UNL     1      -8.684  -2.619  -0.804  1.00  0.00    -0.000 C 
BRANCH  23  24
ATOM     24  C   UNL     1      -8.125  -3.088  -2.157  1.00  0.00    -0.000 C 
BRANCH  24  25
ATOM     25  C   UNL     1      -7.568  -1.949  -3.038  1.00  0.00    -0.000 C 
BRANCH  25  26
ATOM     26  C   UNL     1      -6.919  -0.822  -2.213  1.00  0.00    -0.000 C 
BRANCH  26  27
ATOM     27  C   UNL     1      -7.956  -0.038  -1.384  1.00  0.00    -0.000 C 
BRANCH  27  28
ATOM     28  C   UNL     1      -7.454   1.331  -0.884  1.00  0.00    -0.000 C 
BRANCH  28  29
ATOM     29  C   UNL     1      -8.566   2.258  -0.348  1.00  0.00    -0.003 C 
ATOM     30  C   UNL     1      -8.882   3.416  -1.297  1.00  0.00     0.004 C 
ENDBRANCH  28  29
ENDBRANCH  27  28
ENDBRANCH  26  27
ENDBRANCH  25  26
ENDBRANCH  24  25
ENDBRANCH  23  24
ENDBRANCH  22  23
ENDBRANCH  21  22
ENDBRANCH  20  21
ENDBRANCH  19  20
ENDBRANCH  18  19
ENDBRANCH  17  18
ENDBRANCH   1  17
TORSDOF 26
ENDMDL
MODEL 3
REMARK VINA RESULT:    -1.950      3.027      8.438
REMARK INTER + INTRA:          -6.884
REMARK INTER:                  -4.883
REMARK INTRA:                  -2.001
REMARK UNBOUND:                -1.971
REMARK SMILES CCCCCCCCCCCCCCCCCCCCCCCCCCCC(=O)[O-]
REMARK SMILES IDX 15 1 16 2 17 3 18 4 19 5 20 6 21 7 22 8 23 9 24 10 25 11
REMARK SMILES IDX 26 12 27 13 28 14 29 15 30 16 14 17 13 18 12 19 11 20 10 21
REMARK SMILES IDX 9 22 8 23 7 24 6 25 5 26 4 27 3 28 2 29 1 30
REMARK H PARENT
REMARK Flexibility Score: inf
ROOT
ATOM      1  C   UNL     1     -10.005  -4.698  -4.793  1.00  0.00     0.000 C 
ENDROOT
BRANCH   1   2
ATOM      2  C   UNL     1      -9.650  -5.122  -6.233  1.00  0.00     0.000 C 
BRANCH   2   3
ATOM      3  C   UNL     1      -9.861  -4.037  -7.304  1.00  0.00     0.000 C 
BRANCH   3   4
ATOM      4  C   UNL     1     -11.094  -4.302  -8.186  1.00  0.00     0.000 C 
BRANCH   4   5
ATOM      5  C   UNL     1     -11.067  -5.698  -8.828  1.00  0.00     0.000 C 
BRANCH   5   6
ATOM      6  C   UNL     1     -10.238  -5.733 -10.124  1.00  0.00     0.000 C 
BRANCH   6   7
ATOM      7  C   UNL     1      -9.070  -6.729 -10.053  1.00  0.00     0.000 C 
BRANCH   7   8
ATOM      8  C   UNL     1      -8.010  -6.328  -9.011  1.00  0.00     0.000 C 
BRANCH   8   9
ATOM      9  C   UNL     1      -6.635  -6.052  -9.639  1.00  0.00     0.000 C 
BRANCH   9  10
ATOM     10  C   UNL     1      -5.498  -6.800  -8.924  1.00  0.00     0.000 C 
BRANCH  10  11
ATOM     11  C   UNL     1      -5.639  -6.691  -7.402  1.00  0.00     0.000 C 
BRANCH  11  12
ATOM     12  C   UNL     1      -5.016  -5.386  -6.883  1.00  0.00     0.006 C 
BRANCH  12  13
ATOM     13  C   UNL     1      -4.066  -5.623  -5.701  1.00  0.00     0.053 C 
BRANCH  13  14
ATOM     14  C   UNL     1      -3.042  -4.535  -5.584  1.00  0.00     0.041 C 
ATOM     15  O   UNL     1      -3.403  -3.334  -5.464  1.00  0.00    -0.550 OA
ATOM     16  O   UNL     1      -1.687  -4.850  -5.583  1.00  0.00    -0.550 OA
ENDBRANCH  13  14
ENDBRANCH  12  13
ENDBRANCH  11  12
ENDBRANCH  10  11
ENDBRANCH   9  10
ENDBRANCH   8   9
ENDBRANCH   7   8
ENDBRANCH   6   7
ENDBRANCH   5   6
ENDBRANCH   4   5
ENDBRANCH   3   4
ENDBRANCH   2   3
ENDBRANCH   1   2
BRANCH   1  17
ATOM     17  C   UNL     1     -11.023  -3.549  -4.683  1.00  0.00     0.000 C 
BRANCH  17  18
ATOM     18  C   UNL     1     -11.035  -2.889  -3.296  1.00  0.00     0.000 C 
BRANCH  18  19
ATOM     19  C   UNL     1     -10.838  -3.936  -2.193  1.00  0.00     0.000 C 
BRANCH  19  20
ATOM     20  C   UNL     1      -9.878  -3.423  -1.107  1.00  0.00     0.000 C 
BRANCH  20  21
ATOM     21  C   UNL     1      -8.411  -3.435  -1.564  1.00  0.00     0.000 C 
BRANCH  21  22
ATOM     22  C   UNL     1      -7.660  -2.154  -1.174  1.00  0.00    -0.000 C 
BRANCH  22  23
ATOM     23  C   UNL     1      -7.605  -1.163  -2.343  1.00  0.00    -0.000 C 
BRANCH  23  24
ATOM     24  C   UNL     1      -7.027   0.206  -1.948  1.00  0.00    -0.000 C 
BRANCH  24  25
ATOM     25  C   UNL     1      -7.614   0.784  -0.643  1.00  0.00    -0.000 C 
BRANCH  25  26
ATOM     26  C   UNL     1      -8.837   1.688  -0.888  1.00  0.00    -0.000 C 
BRANCH  26  27
ATOM     27  C   UNL     1      -8.513   3.178  -0.659  1.00  0.00    -0.000 C 
BRANCH  27  28
ATOM     28  C   UNL     1      -9.283   4.137  -1.588  1.00  0.00    -0.000 C 
BRANCH  28  29
ATOM     29  C   UNL     1      -8.695   5.562  -1.658  1.00  0.00    -0.003 C 
ATOM     30  C   UNL     1      -8.815   6.320  -0.334  1.00  0.00     0.004 C 
ENDBRANCH  28  29
ENDBRANCH  27  28
ENDBRANCH  26  27
ENDBRANCH  25  26
ENDBRANCH  24  25
ENDBRANCH  23  24
ENDBRANCH  22  23
ENDBRANCH  21  22
ENDBRANCH  20  21
ENDBRANCH  19  20
ENDBRANCH  18  19
ENDBRANCH  17  18
ENDBRANCH   1  17
TORSDOF 26
ENDMDL
MODEL 4
REMARK VINA RESULT:    -1.701      2.534      7.693
REMARK INTER + INTRA:          -6.258
REMARK INTER:                  -3.490
REMARK INTRA:                  -2.768
REMARK UNBOUND:                -1.971
REMARK SMILES CCCCCCCCCCCCCCCCCCCCCCCCCCCC(=O)[O-]
REMARK SMILES IDX 15 1 16 2 17 3 18 4 19 5 20 6 21 7 22 8 23 9 24 10 25 11
REMARK SMILES IDX 26 12 27 13 28 14 29 15 30 16 14 17 13 18 12 19 11 20 10 21
REMARK SMILES IDX 9 22 8 23 7 24 6 25 5 26 4 27 3 28 2 29 1 30
REMARK H PARENT
REMARK Flexibility Score: inf
ROOT
ATOM      1  C   UNL     1     -10.023  -5.605  -6.097  1.00  0.00     0.000 C 
ENDROOT
BRANCH   1   2
ATOM      2  C   UNL     1     -10.729  -6.093  -7.380  1.00  0.00     0.000 C 
BRANCH   2   3
ATOM      3  C   UNL     1     -10.523  -5.202  -8.617  1.00  0.00     0.000 C 
BRANCH   3   4
ATOM      4  C   UNL     1      -9.910  -5.964  -9.806  1.00  0.00     0.000 C 
BRANCH   4   5
ATOM      5  C   UNL     1      -8.378  -6.052  -9.719  1.00  0.00     0.000 C 
BRANCH   5   6
ATOM      6  C   UNL     1      -7.737  -4.720  -9.291  1.00  0.00     0.000 C 
BRANCH   6   7
ATOM      7  C   UNL     1      -6.842  -4.865  -8.050  1.00  0.00     0.000 C 
BRANCH   7   8
ATOM      8  C   UNL     1      -6.094  -6.210  -8.013  1.00  0.00     0.000 C 
BRANCH   8   9
ATOM      9  C   UNL     1      -6.133  -6.872  -6.627  1.00  0.00     0.000 C 
BRANCH   9  10
ATOM     10  C   UNL     1      -5.189  -6.193  -5.621  1.00  0.00     0.000 C 
BRANCH  10  11
ATOM     11  C   UNL     1      -3.722  -6.398  -6.017  1.00  0.00     0.000 C 
BRANCH  11  12
ATOM     12  C   UNL     1      -2.793  -5.530  -5.155  1.00  0.00     0.006 C 
BRANCH  12  13
ATOM     13  C   UNL     1      -2.331  -4.264  -5.889  1.00  0.00     0.053 C 
BRANCH  13  14
ATOM     14  C   UNL     1      -3.286  -3.126  -5.691  1.00  0.00     0.041 C 
ATOM     15  O   UNL     1      -3.171  -2.368  -4.691  1.00  0.00    -0.550 OA
ATOM     16  O   UNL     1      -4.290  -2.888  -6.623  1.00  0.00    -0.550 OA
ENDBRANCH  13  14
ENDBRANCH  12  13
ENDBRANCH  11  12
ENDBRANCH  10  11
ENDBRANCH   9  10
ENDBRANCH   8   9
ENDBRANCH   7   8
ENDBRANCH   6   7
ENDBRANCH   5   6
ENDBRANCH   4   5
ENDBRANCH   3   4
ENDBRANCH   2   3
ENDBRANCH   1   2
BRANCH   1  17
ATOM     17  C   UNL     1      -9.953  -4.077  -5.932  1.00  0.00     0.000 C 
BRANCH  17  18
ATOM     18  C   UNL     1      -9.889  -3.635  -4.462  1.00  0.00     0.000 C 
BRANCH  18  19
ATOM     19  C   UNL     1     -11.093  -4.172  -3.679  1.00  0.00     0.000 C 
BRANCH  19  20
ATOM     20  C   UNL     1     -11.054  -3.705  -2.214  1.00  0.00     0.000 C 
BRANCH  20  21
ATOM     21  C   UNL     1      -9.641  -3.770  -1.613  1.00  0.00     0.000 C 
BRANCH  21  22
ATOM     22  C   UNL     1      -9.266  -2.494  -0.846  1.00  0.00    -0.000 C 
BRANCH  22  23
ATOM     23  C   UNL     1      -8.713  -1.419  -1.789  1.00  0.00    -0.000 C 
BRANCH  23  24
ATOM     24  C   UNL     1      -7.179  -1.438  -1.892  1.00  0.00    -0.000 C 
BRANCH  24  25
ATOM     25  C   UNL     1      -6.507  -0.093  -1.545  1.00  0.00    -0.000 C 
BRANCH  25  26
ATOM     26  C   UNL     1      -7.506   1.080  -1.513  1.00  0.00    -0.000 C 
BRANCH  26  27
ATOM     27  C   UNL     1      -7.822   1.532  -0.072  1.00  0.00    -0.000 C 
BRANCH  27  28
ATOM     28  C   UNL     1      -8.494   2.916   0.016  1.00  0.00    -0.000 C 
BRANCH  28  29
ATOM     29  C   UNL     1      -8.995   3.466  -1.338  1.00  0.00    -0.003 C 
ATOM     30  C   UNL     1      -8.890   4.990  -1.436  1.00  0.00     0.004 C 
ENDBRANCH  28  29
ENDBRANCH  27  28
ENDBRANCH  26  27
ENDBRANCH  25  26
ENDBRANCH  24  25
ENDBRANCH  23  24
ENDBRANCH  22  23
ENDBRANCH  21  22
ENDBRANCH  20  21
ENDBRANCH  19  20
ENDBRANCH  18  19
ENDBRANCH  17  18
ENDBRANCH   1  17
TORSDOF 26
ENDMDL
MODEL 5
REMARK VINA RESULT:    -1.429      1.538      2.523
REMARK INTER + INTRA:          -5.571
REMARK INTER:                  -3.904
REMARK INTRA:                  -1.667
REMARK UNBOUND:                -1.971
REMARK SMILES CCCCCCCCCCCCCCCCCCCCCCCCCCCC(=O)[O-]
REMARK SMILES IDX 15 1 16 2 17 3 18 4 19 5 20 6 21 7 22 8 23 9 24 10 25 11
REMARK SMILES IDX 26 12 27 13 28 14 29 15 30 16 14 17 13 18 12 19 11 20 10 21
REMARK SMILES IDX 9 22 8 23 7 24 6 25 5 26 4 27 3 28 2 29 1 30
REMARK H PARENT
REMARK Flexibility Score: inf
ROOT
ATOM      1  C   UNL     1     -11.119  -3.580  -6.015  1.00  0.00     0.000 C 
ENDROOT
BRANCH   1   2
ATOM      2  C   UNL     1     -10.317  -3.446  -4.705  1.00  0.00     0.000 C 
BRANCH   2   3
ATOM      3  C   UNL     1     -11.082  -3.838  -3.428  1.00  0.00     0.000 C 
BRANCH   3   4
ATOM      4  C   UNL     1     -11.077  -2.727  -2.364  1.00  0.00     0.000 C 
BRANCH   4   5
ATOM      5  C   UNL     1     -10.346  -3.148  -1.079  1.00  0.00     0.000 C 
BRANCH   5   6
ATOM      6  C   UNL     1      -9.033  -3.895  -1.369  1.00  0.00     0.000 C 
BRANCH   6   7
ATOM      7  C   UNL     1      -7.965  -2.990  -2.004  1.00  0.00     0.000 C 
BRANCH   7   8
ATOM      8  C   UNL     1      -7.578  -1.806  -1.102  1.00  0.00     0.000 C 
BRANCH   8   9
ATOM      9  C   UNL     1      -7.658  -0.454  -1.830  1.00  0.00     0.000 C 
BRANCH   9  10
ATOM     10  C   UNL     1      -7.700   0.738  -0.860  1.00  0.00     0.000 C 
BRANCH  10  11
ATOM     11  C   UNL     1      -8.823   1.713  -1.234  1.00  0.00     0.000 C 
BRANCH  11  12
ATOM     12  C   UNL     1      -8.577   3.098  -0.616  1.00  0.00     0.006 C 
BRANCH  12  13
ATOM     13  C   UNL     1      -9.450   4.185  -1.256  1.00  0.00     0.053 C 
BRANCH  13  14
ATOM     14  C   UNL     1      -8.677   5.446  -1.500  1.00  0.00     0.041 C 
ATOM     15  O   UNL     1      -8.687   6.372  -0.645  1.00  0.00    -0.550 OA
ATOM     16  O   UNL     1      -7.927   5.590  -2.662  1.00  0.00    -0.550 OA
ENDBRANCH  13  14
ENDBRANCH  12  13
ENDBRANCH  11  12
ENDBRANCH  10  11
ENDBRANCH   9  10
ENDBRANCH   8   9
ENDBRANCH   7   8
ENDBRANCH   6   7
ENDBRANCH   5   6
ENDBRANCH   4   5
ENDBRANCH   3   4
ENDBRANCH   2   3
ENDBRANCH   1   2
BRANCH   1  17
ATOM     17  C   UNL     1     -10.434  -4.406  -7.119  1.00  0.00     0.000 C 
BRANCH  17  18
ATOM     18  C   UNL     1     -10.849  -3.976  -8.534  1.00  0.00     0.000 C 
BRANCH  18  19
ATOM     19  C   UNL     1     -10.138  -4.828  -9.593  1.00  0.00     0.000 C 
BRANCH  19  20
ATOM     20  C   UNL     1      -9.601  -6.133  -8.984  1.00  0.00     0.000 C 
BRANCH  20  21
ATOM     21  C   UNL     1      -8.227  -6.525  -9.549  1.00  0.00     0.000 C 
BRANCH  21  22
ATOM     22  C   UNL     1      -7.233  -5.355  -9.551  1.00  0.00    -0.000 C 
BRANCH  22  23
ATOM     23  C   UNL     1      -6.666  -5.103  -8.149  1.00  0.00    -0.000 C 
BRANCH  23  24
ATOM     24  C   UNL     1      -7.166  -6.115  -7.105  1.00  0.00    -0.000 C 
BRANCH  24  25
ATOM     25  C   UNL     1      -6.388  -6.083  -5.773  1.00  0.00    -0.000 C 
BRANCH  25  26
ATOM     26  C   UNL     1      -5.124  -6.963  -5.801  1.00  0.00    -0.000 C 
BRANCH  26  27
ATOM     27  C   UNL     1      -3.910  -6.217  -6.391  1.00  0.00    -0.000 C 
BRANCH  27  28
ATOM     28  C   UNL     1      -3.433  -5.025  -5.539  1.00  0.00    -0.000 C 
BRANCH  28  29
ATOM     29  C   UNL     1      -4.104  -3.681  -5.896  1.00  0.00    -0.003 C 
ATOM     30  C   UNL     1      -3.138  -2.496  -5.821  1.00  0.00     0.004 C 
ENDBRANCH  28  29
ENDBRANCH  27  28
ENDBRANCH  26  27
ENDBRANCH  25  26
ENDBRANCH  24  25
ENDBRANCH  23  24
ENDBRANCH  22  23
ENDBRANCH  21  22
ENDBRANCH  20  21
ENDBRANCH  19  20
ENDBRANCH  18  19
ENDBRANCH  17  18
ENDBRANCH   1  17
TORSDOF 26
ENDMDL
MODEL 6
REMARK VINA RESULT:    -1.417      2.703      7.409
REMARK INTER + INTRA:          -5.543
REMARK INTER:                  -3.817
REMARK INTRA:                  -1.725
REMARK UNBOUND:                -1.971
REMARK SMILES CCCCCCCCCCCCCCCCCCCCCCCCCCCC(=O)[O-]
REMARK SMILES IDX 15 1 16 2 17 3 18 4 19 5 20 6 21 7 22 8 23 9 24 10 25 11
REMARK SMILES IDX 26 12 27 13 28 14 29 15 30 16 14 17 13 18 12 19 11 20 10 21
REMARK SMILES IDX 9 22 8 23 7 24 6 25 5 26 4 27 3 28 2 29 1 30
REMARK H PARENT
REMARK Flexibility Score: inf
ROOT
ATOM      1  C   UNL     1      -6.057  -6.749  -4.890  1.00  0.00     0.000 C 
ENDROOT
BRANCH   1   2
ATOM      2  C   UNL     1      -5.167  -7.029  -6.118  1.00  0.00     0.000 C 
BRANCH   2   3
ATOM      3  C   UNL     1      -5.901  -7.618  -7.335  1.00  0.00     0.000 C 
BRANCH   3   4
ATOM      4  C   UNL     1      -5.356  -7.089  -8.674  1.00  0.00     0.000 C 
BRANCH   4   5
ATOM      5  C   UNL     1      -6.245  -7.481  -9.865  1.00  0.00     0.000 C 
BRANCH   5   6
ATOM      6  C   UNL     1      -7.694  -7.781  -9.442  1.00  0.00     0.000 C 
BRANCH   6   7
ATOM      7  C   UNL     1      -8.714  -6.852 -10.121  1.00  0.00     0.000 C 
BRANCH   7   8
ATOM      8  C   UNL     1      -9.247  -5.763  -9.173  1.00  0.00     0.000 C 
BRANCH   8   9
ATOM      9  C   UNL     1      -8.775  -4.353  -9.563  1.00  0.00     0.000 C 
BRANCH   9  10
ATOM     10  C   UNL     1      -7.260  -4.166  -9.383  1.00  0.00     0.000 C 
BRANCH  10  11
ATOM     11  C   UNL     1      -6.852  -4.358  -7.917  1.00  0.00     0.000 C 
BRANCH  11  12
ATOM     12  C   UNL     1      -5.463  -3.757  -7.650  1.00  0.00     0.006 C 
BRANCH  12  13
ATOM     13  C   UNL     1      -4.869  -4.232  -6.317  1.00  0.00     0.053 C 
BRANCH  13  14
ATOM     14  C   UNL     1      -3.685  -3.407  -5.911  1.00  0.00     0.041 C 
ATOM     15  O   UNL     1      -2.742  -3.930  -5.258  1.00  0.00    -0.550 OA
ATOM     16  O   UNL     1      -3.611  -2.067  -6.275  1.00  0.00    -0.550 OA
ENDBRANCH  13  14
ENDBRANCH  12  13
ENDBRANCH  11  12
ENDBRANCH  10  11
ENDBRANCH   9  10
ENDBRANCH   8   9
ENDBRANCH   7   8
ENDBRANCH   6   7
ENDBRANCH   5   6
ENDBRANCH   4   5
ENDBRANCH   3   4
ENDBRANCH   2   3
ENDBRANCH   1   2
BRANCH   1  17
ATOM     17  C   UNL     1      -7.572  -6.787  -5.159  1.00  0.00     0.000 C 
BRANCH  17  18
ATOM     18  C   UNL     1      -8.219  -5.393  -5.141  1.00  0.00     0.000 C 
BRANCH  18  19
ATOM     19  C   UNL     1      -9.461  -5.358  -6.039  1.00  0.00     0.000 C 
BRANCH  19  20
ATOM     20  C   UNL     1     -10.185  -4.006  -5.930  1.00  0.00     0.000 C 
BRANCH  20  21
ATOM     21  C   UNL     1      -9.930  -3.308  -4.585  1.00  0.00     0.000 C 
BRANCH  21  22
ATOM     22  C   UNL     1     -11.114  -3.439  -3.617  1.00  0.00    -0.000 C 
BRANCH  22  23
ATOM     23  C   UNL     1     -10.676  -3.200  -2.167  1.00  0.00    -0.000 C 
BRANCH  23  24
ATOM     24  C   UNL     1      -9.440  -4.022  -1.766  1.00  0.00    -0.000 C 
BRANCH  24  25
ATOM     25  C   UNL     1      -8.153  -3.187  -1.602  1.00  0.00    -0.000 C 
BRANCH  25  26
ATOM     26  C   UNL     1      -8.200  -1.861  -2.386  1.00  0.00    -0.000 C 
BRANCH  26  27
ATOM     27  C   UNL     1      -7.348  -0.762  -1.719  1.00  0.00    -0.000 C 
BRANCH  27  28
ATOM     28  C   UNL     1      -8.110   0.068  -0.667  1.00  0.00    -0.000 C 
BRANCH  28  29
ATOM     29  C   UNL     1      -7.707   1.558  -0.622  1.00  0.00    -0.003 C 
ATOM     30  C   UNL     1      -8.822   2.490  -1.101  1.00  0.00     0.004 C 
ENDBRANCH  28  29
ENDBRANCH  27  28
ENDBRANCH  26  27
ENDBRANCH  25  26
ENDBRANCH  24  25
ENDBRANCH  23  24
ENDBRANCH  22  23
ENDBRANCH  21  22
ENDBRANCH  20  21
ENDBRANCH  19  20
ENDBRANCH  18  19
ENDBRANCH  17  18
ENDBRANCH   1  17
TORSDOF 26
ENDMDL
MODEL 7
REMARK VINA RESULT:    -0.867      1.327      1.994
REMARK INTER + INTRA:          -4.156
REMARK INTER:                  -5.482
REMARK INTRA:                   1.327
REMARK UNBOUND:                -1.971
REMARK SMILES CCCCCCCCCCCCCCCCCCCCCCCCCCCC(=O)[O-]
REMARK SMILES IDX 15 1 16 2 17 3 18 4 19 5 20 6 21 7 22 8 23 9 24 10 25 11
REMARK SMILES IDX 26 12 27 13 28 14 29 15 30 16 14 17 13 18 12 19 11 20 10 21
REMARK SMILES IDX 9 22 8 23 7 24 6 25 5 26 4 27 3 28 2 29 1 30
REMARK H PARENT
REMARK Flexibility Score: inf
ROOT
ATOM      1  C   UNL     1     -10.461  -6.354  -7.580  1.00  0.00     0.000 C 
ENDROOT
BRANCH   1   2
ATOM      2  C   UNL     1     -10.525  -6.378  -6.039  1.00  0.00     0.000 C 
BRANCH   2   3
ATOM      3  C   UNL     1     -11.119  -5.114  -5.391  1.00  0.00     0.000 C 
BRANCH   3   4
ATOM      4  C   UNL     1     -10.194  -3.890  -5.513  1.00  0.00     0.000 C 
BRANCH   4   5
ATOM      5  C   UNL     1      -8.713  -4.283  -5.632  1.00  0.00     0.000 C 
BRANCH   5   6
ATOM      6  C   UNL     1      -8.248  -5.179  -4.470  1.00  0.00     0.000 C 
BRANCH   6   7
ATOM      7  C   UNL     1      -8.753  -4.686  -3.104  1.00  0.00     0.000 C 
BRANCH   7   8
ATOM      8  C   UNL     1      -9.305  -3.250  -3.159  1.00  0.00     0.000 C 
BRANCH   8   9
ATOM      9  C   UNL     1     -10.518  -3.046  -2.237  1.00  0.00     0.000 C 
BRANCH   9  10
ATOM     10  C   UNL     1     -10.136  -3.045  -0.749  1.00  0.00     0.000 C 
BRANCH  10  11
ATOM     11  C   UNL     1      -9.068  -1.984  -0.455  1.00  0.00     0.000 C 
BRANCH  11  12
ATOM     12  C   UNL     1      -7.850  -2.161  -1.375  1.00  0.00     0.006 C 
BRANCH  12  13
ATOM     13  C   UNL     1      -7.569  -0.909  -2.217  1.00  0.00     0.053 C 
BRANCH  13  14
ATOM     14  C   UNL     1      -7.234   0.274  -1.359  1.00  0.00     0.041 C 
ATOM     15  O   UNL     1      -6.052   0.707  -1.309  1.00  0.00    -0.550 OA
ATOM     16  O   UNL     1      -8.234   0.915  -0.635  1.00  0.00    -0.550 OA
ENDBRANCH  13  14
ENDBRANCH  12  13
ENDBRANCH  11  12
ENDBRANCH  10  11
ENDBRANCH   9  10
ENDBRANCH   8   9
ENDBRANCH   7   8
ENDBRANCH   6   7
ENDBRANCH   5   6
ENDBRANCH   4   5
ENDBRANCH   3   4
ENDBRANCH   2   3
ENDBRANCH   1   2
BRANCH   1  17
ATOM     17  C   UNL     1     -11.117  -5.129  -8.242  1.00  0.00     0.000 C 
BRANCH  17  18
ATOM     18  C   UNL     1     -10.869  -5.062  -9.757  1.00  0.00     0.000 C 
BRANCH  18  19
ATOM     19  C   UNL     1     -10.078  -3.801 -10.124  1.00  0.00     0.000 C 
BRANCH  19  20
ATOM     20  C   UNL     1      -9.013  -3.485  -9.062  1.00  0.00     0.000 C 
BRANCH  20  21
ATOM     21  C   UNL     1      -7.602  -3.912  -9.498  1.00  0.00     0.000 C 
BRANCH  21  22
ATOM     22  C   UNL     1      -7.433  -5.437  -9.543  1.00  0.00    -0.000 C 
BRANCH  22  23
ATOM     23  C   UNL     1      -6.228  -5.888  -8.708  1.00  0.00    -0.000 C 
BRANCH  23  24
ATOM     24  C   UNL     1      -6.609  -6.846  -7.567  1.00  0.00    -0.000 C 
BRANCH  24  25
ATOM     25  C   UNL     1      -5.496  -7.050  -6.518  1.00  0.00    -0.000 C 
BRANCH  25  26
ATOM     26  C   UNL     1      -5.006  -5.725  -5.905  1.00  0.00    -0.000 C 
BRANCH  26  27
ATOM     27  C   UNL     1      -3.492  -5.747  -5.609  1.00  0.00    -0.000 C 
BRANCH  27  28
ATOM     28  C   UNL     1      -2.793  -4.389  -5.815  1.00  0.00    -0.000 C 
BRANCH  28  29
ATOM     29  C   UNL     1      -3.706  -3.165  -5.588  1.00  0.00    -0.003 C 
ATOM     30  C   UNL     1      -3.096  -1.863  -6.111  1.00  0.00     0.004 C 
ENDBRANCH  28  29
ENDBRANCH  27  28
ENDBRANCH  26  27
ENDBRANCH  25  26
ENDBRANCH  24  25
ENDBRANCH  23  24
ENDBRANCH  22  23
ENDBRANCH  21  22
ENDBRANCH  20  21
ENDBRANCH  19  20
ENDBRANCH  18  19
ENDBRANCH  17  18
ENDBRANCH   1  17
TORSDOF 26
ENDMDL
MODEL 8
REMARK VINA RESULT:    -0.713      2.291      4.186
REMARK INTER + INTRA:          -3.766
REMARK INTER:                  -1.634
REMARK INTRA:                  -2.132
REMARK UNBOUND:                -1.971
REMARK SMILES CCCCCCCCCCCCCCCCCCCCCCCCCCCC(=O)[O-]
REMARK SMILES IDX 15 1 16 2 17 3 18 4 19 5 20 6 21 7 22 8 23 9 24 10 25 11
REMARK SMILES IDX 26 12 27 13 28 14 29 15 30 16 14 17 13 18 12 19 11 20 10 21
REMARK SMILES IDX 9 22 8 23 7 24 6 25 5 26 4 27 3 28 2 29 1 30
REMARK H PARENT
REMARK Flexibility Score: inf
ROOT
ATOM      1  C   UNL     1      -9.780  -3.394  -4.280  1.00  0.00     0.000 C 
ENDROOT
BRANCH   1   2
ATOM      2  C   UNL     1     -11.058  -3.701  -3.472  1.00  0.00     0.000 C 
BRANCH   2   3
ATOM      3  C   UNL     1     -11.008  -3.287  -1.991  1.00  0.00     0.000 C 
BRANCH   3   4
ATOM      4  C   UNL     1      -9.715  -3.737  -1.288  1.00  0.00     0.000 C 
BRANCH   4   5
ATOM      5  C   UNL     1      -8.833  -2.551  -0.867  1.00  0.00     0.000 C 
BRANCH   5   6
ATOM      6  C   UNL     1      -7.794  -2.181  -1.940  1.00  0.00     0.000 C 
BRANCH   6   7
ATOM      7  C   UNL     1      -7.244  -0.757  -1.765  1.00  0.00     0.000 C 
BRANCH   7   8
ATOM      8  C   UNL     1      -8.196   0.154  -0.969  1.00  0.00     0.000 C 
BRANCH   8   9
ATOM      9  C   UNL     1      -7.754   1.626  -0.978  1.00  0.00     0.000 C 
BRANCH   9  10
ATOM     10  C   UNL     1      -8.923   2.595  -0.734  1.00  0.00     0.000 C 
BRANCH  10  11
ATOM     11  C   UNL     1      -8.727   3.900  -1.513  1.00  0.00     0.000 C 
BRANCH  11  12
ATOM     12  C   UNL     1      -8.614   5.099  -0.558  1.00  0.00     0.006 C 
BRANCH  12  13
ATOM     13  C   UNL     1      -9.034   6.416  -1.224  1.00  0.00     0.053 C 
BRANCH  13  14
ATOM     14  C   UNL     1      -9.359   7.472  -0.211  1.00  0.00     0.041 C 
ATOM     15  O   UNL     1      -8.965   8.657  -0.381  1.00  0.00    -0.550 OA
ATOM     16  O   UNL     1     -10.119   7.153   0.910  1.00  0.00    -0.550 OA
ENDBRANCH  13  14
ENDBRANCH  12  13
ENDBRANCH  11  12
ENDBRANCH  10  11
ENDBRANCH   9  10
ENDBRANCH   8   9
ENDBRANCH   7   8
ENDBRANCH   6   7
ENDBRANCH   5   6
ENDBRANCH   4   5
ENDBRANCH   3   4
ENDBRANCH   2   3
ENDBRANCH   1   2
BRANCH   1  17
ATOM     17  C   UNL     1      -9.713  -4.051  -5.670  1.00  0.00     0.000 C 
BRANCH  17  18
ATOM     18  C   UNL     1     -10.700  -3.434  -6.673  1.00  0.00     0.000 C 
BRANCH  18  19
ATOM     19  C   UNL     1     -10.828  -4.314  -7.923  1.00  0.00     0.000 C 
BRANCH  19  20
ATOM     20  C   UNL     1     -10.594  -5.795  -7.584  1.00  0.00     0.000 C 
BRANCH  20  21
ATOM     21  C   UNL     1     -10.789  -6.715  -8.799  1.00  0.00     0.000 C 
BRANCH  21  22
ATOM     22  C   UNL     1      -9.868  -6.349  -9.971  1.00  0.00    -0.000 C 
BRANCH  22  23
ATOM     23  C   UNL     1      -8.676  -7.309 -10.063  1.00  0.00    -0.000 C 
BRANCH  23  24
ATOM     24  C   UNL     1      -7.446  -6.821  -9.280  1.00  0.00    -0.000 C 
BRANCH  24  25
ATOM     25  C   UNL     1      -7.360  -5.287  -9.134  1.00  0.00    -0.000 C 
BRANCH  25  26
ATOM     26  C   UNL     1      -6.562  -4.851  -7.890  1.00  0.00    -0.000 C 
BRANCH  26  27
ATOM     27  C   UNL     1      -5.390  -5.807  -7.588  1.00  0.00    -0.000 C 
BRANCH  27  28
ATOM     28  C   UNL     1      -5.020  -5.893  -6.095  1.00  0.00    -0.000 C 
BRANCH  28  29
ATOM     29  C   UNL     1      -5.841  -6.928  -5.296  1.00  0.00    -0.003 C 
ATOM     30  C   UNL     1      -7.309  -6.525  -5.133  1.00  0.00     0.004 C 
ENDBRANCH  28  29
ENDBRANCH  27  28
ENDBRANCH  26  27
ENDBRANCH  25  26
ENDBRANCH  24  25
ENDBRANCH  23  24
ENDBRANCH  22  23
ENDBRANCH  21  22
ENDBRANCH  20  21
ENDBRANCH  19  20
ENDBRANCH  18  19
ENDBRANCH  17  18
ENDBRANCH   1  17
TORSDOF 26
ENDMDL
MODEL 9
REMARK VINA RESULT:    -0.010      2.303      7.241
REMARK INTER + INTRA:          -1.995
REMARK INTER:                   0.972
REMARK INTRA:                  -2.967
REMARK UNBOUND:                -1.971
REMARK SMILES CCCCCCCCCCCCCCCCCCCCCCCCCCCC(=O)[O-]
REMARK SMILES IDX 15 1 16 2 17 3 18 4 19 5 20 6 21 7 22 8 23 9 24 10 25 11
REMARK SMILES IDX 26 12 27 13 28 14 29 15 30 16 14 17 13 18 12 19 11 20 10 21
REMARK SMILES IDX 9 22 8 23 7 24 6 25 5 26 4 27 3 28 2 29 1 30
REMARK H PARENT
REMARK Flexibility Score: inf
ROOT
ATOM      1  C   UNL     1      -8.931  -4.158  -6.693  1.00  0.00     0.000 C 
ENDROOT
BRANCH   1   2
ATOM      2  C   UNL     1      -8.868  -4.464  -8.203  1.00  0.00     0.000 C 
BRANCH   2   3
ATOM      3  C   UNL     1      -7.473  -4.330  -8.839  1.00  0.00     0.000 C 
BRANCH   3   4
ATOM      4  C   UNL     1      -7.321  -5.161 -10.125  1.00  0.00     0.000 C 
BRANCH   4   5
ATOM      5  C   UNL     1      -6.143  -6.146 -10.051  1.00  0.00     0.000 C 
BRANCH   5   6
ATOM      6  C   UNL     1      -6.570  -7.534  -9.542  1.00  0.00     0.000 C 
BRANCH   6   7
ATOM      7  C   UNL     1      -6.618  -7.612  -8.007  1.00  0.00     0.000 C 
BRANCH   7   8
ATOM      8  C   UNL     1      -5.280  -7.226  -7.352  1.00  0.00     0.000 C 
BRANCH   8   9
ATOM      9  C   UNL     1      -5.430  -6.867  -5.865  1.00  0.00     0.000 C 
BRANCH   9  10
ATOM     10  C   UNL     1      -5.566  -5.353  -5.633  1.00  0.00     0.000 C 
BRANCH  10  11
ATOM     11  C   UNL     1      -4.508  -4.577  -6.426  1.00  0.00     0.000 C 
BRANCH  11  12
ATOM     12  C   UNL     1      -3.374  -4.098  -5.507  1.00  0.00     0.006 C 
BRANCH  12  13
ATOM     13  C   UNL     1      -2.644  -2.873  -6.072  1.00  0.00     0.053 C 
BRANCH  13  14
ATOM     14  C   UNL     1      -3.291  -1.592  -5.640  1.00  0.00     0.041 C 
ATOM     15  O   UNL     1      -3.825  -1.503  -4.502  1.00  0.00    -0.550 OA
ATOM     16  O   UNL     1      -3.284  -0.487  -6.485  1.00  0.00    -0.550 OA
ENDBRANCH  13  14
ENDBRANCH  12  13
ENDBRANCH  11  12
ENDBRANCH  10  11
ENDBRANCH   9  10
ENDBRANCH   8   9
ENDBRANCH   7   8
ENDBRANCH   6   7
ENDBRANCH   5   6
ENDBRANCH   4   5
ENDBRANCH   3   4
ENDBRANCH   2   3
ENDBRANCH   1   2
BRANCH   1  17
ATOM     17  C   UNL     1      -8.988  -5.395  -5.778  1.00  0.00     0.000 C 
BRANCH  17  18
ATOM     18  C   UNL     1     -10.340  -5.550  -5.064  1.00  0.00     0.000 C 
BRANCH  18  19
ATOM     19  C   UNL     1     -11.114  -4.227  -5.070  1.00  0.00     0.000 C 
BRANCH  19  20
ATOM     20  C   UNL     1     -11.023  -3.526  -3.704  1.00  0.00     0.000 C 
BRANCH  20  21
ATOM     21  C   UNL     1     -11.125  -4.510  -2.529  1.00  0.00     0.000 C 
BRANCH  21  22
ATOM     22  C   UNL     1     -11.006  -3.816  -1.165  1.00  0.00    -0.000 C 
BRANCH  22  23
ATOM     23  C   UNL     1     -10.161  -2.540  -1.261  1.00  0.00    -0.000 C 
BRANCH  23  24
ATOM     24  C   UNL     1      -8.655  -2.823  -1.400  1.00  0.00    -0.000 C 
BRANCH  24  25
ATOM     25  C   UNL     1      -7.947  -1.957  -2.462  1.00  0.00    -0.000 C 
BRANCH  25  26
ATOM     26  C   UNL     1      -6.734  -1.193  -1.896  1.00  0.00    -0.000 C 
BRANCH  26  27
ATOM     27  C   UNL     1      -6.994   0.324  -1.807  1.00  0.00    -0.000 C 
BRANCH  27  28
ATOM     28  C   UNL     1      -8.062   0.717  -0.768  1.00  0.00    -0.000 C 
BRANCH  28  29
ATOM     29  C   UNL     1      -8.585   2.163  -0.911  1.00  0.00    -0.003 C 
ATOM     30  C   UNL     1      -8.315   3.018   0.328  1.00  0.00     0.004 C 
ENDBRANCH  28  29
ENDBRANCH  27  28
ENDBRANCH  26  27
ENDBRANCH  25  26
ENDBRANCH  24  25
ENDBRANCH  23  24
ENDBRANCH  22  23
ENDBRANCH  21  22
ENDBRANCH  20  21
ENDBRANCH  19  20
ENDBRANCH  18  19
ENDBRANCH  17  18
ENDBRANCH   1  17
TORSDOF 26
ENDMDL
