MODEL 1
REMARK VINA RESULT:    -6.283      0.000      0.000
REMARK INTER + INTRA:          -7.673
REMARK INTER:                  -7.385
REMARK INTRA:                  -0.288
REMARK UNBOUND:                -0.288
REMARK SMILES O=c1cc(-c2ccc(O)c(O)c2)oc2cc(O)cc(O)c12
REMARK SMILES IDX 4 1 3 2 2 3 1 4 21 5 19 6 18 7 16 8 15 9 14 10 13 11 5 12
REMARK SMILES IDX 6 13 7 14 8 15 12 16 10 17 9 18 11 20 20 22 17 24
REMARK H PARENT 9 19 11 21 20 23 17 25
REMARK Flexibility Score: inf
ROOT
ATOM      1  C   UNL     1      18.136  29.743  30.969  1.00  0.00     0.138 A 
ATOM      2  C   UNL     1      18.367  30.750  30.021  1.00  0.00     0.100 A 
ATOM      3  C   UNL     1      18.672  30.401  28.705  1.00  0.00     0.197 A 
ATOM      4  O   UNL     1      18.814  31.326  27.864  1.00  0.00    -0.289 OA
ATOM      5  C   UNL     1      18.777  29.037  28.345  1.00  0.00     0.107 A 
ATOM      6  C   UNL     1      19.122  28.565  27.042  1.00  0.00     0.134 A 
ATOM      7  C   UNL     1      19.081  27.191  26.774  1.00  0.00     0.093 A 
ATOM      8  C   UNL     1      18.767  26.269  27.776  1.00  0.00     0.123 A 
ATOM      9  C   UNL     1      18.481  26.717  29.063  1.00  0.00     0.094 A 
ATOM     10  C   UNL     1      18.479  28.083  29.354  1.00  0.00     0.146 A 
ATOM     11  O   UNL     1      18.187  28.469  30.592  1.00  0.00    -0.456 OA
ENDROOT
BRANCH   1  12
ATOM     12  C   UNL     1      17.808  30.057  32.383  1.00  0.00     0.021 A 
ATOM     13  C   UNL     1      18.034  29.129  33.418  1.00  0.00     0.016 A 
ATOM     14  C   UNL     1      17.706  29.447  34.738  1.00  0.00     0.051 A 
ATOM     15  C   UNL     1      17.141  30.691  35.048  1.00  0.00     0.157 A 
ATOM     16  C   UNL     1      17.228  31.298  32.701  1.00  0.00     0.062 A 
ATOM     17  C   UNL     1      16.899  31.619  34.023  1.00  0.00     0.158 A 
BRANCH  15  18
ATOM     18  O   UNL     1      16.816  31.004  36.366  1.00  0.00    -0.504 OA
ATOM     19  H   UNL     1      17.322  30.603  37.148  1.00  0.00     0.293 HD
ENDBRANCH  15  18
BRANCH  17  20
ATOM     20  O   UNL     1      16.334  32.864  34.297  1.00  0.00    -0.504 OA
ATOM     21  H   UNL     1      15.332  33.005  34.328  1.00  0.00     0.293 HD
ENDBRANCH  17  20
ENDBRANCH   1  12
BRANCH   6  22
ATOM     22  O   UNL     1      19.534  29.394  25.995  1.00  0.00    -0.507 OA
ATOM     23  H   UNL     1      19.481  30.401  26.002  1.00  0.00     0.293 HD
ENDBRANCH   6  22
BRANCH   8  24
ATOM     24  O   UNL     1      18.744  24.904  27.503  1.00  0.00    -0.508 OA
ATOM     25  H   UNL     1      18.079  24.505  26.850  1.00  0.00     0.293 HD
ENDBRANCH   8  24
TORSDOF 5
ENDMDL
MODEL 2
REMARK VINA RESULT:    -6.280      1.553      7.439
REMARK INTER + INTRA:          -7.670
REMARK INTER:                  -7.382
REMARK INTRA:                  -0.288
REMARK UNBOUND:                -0.288
REMARK SMILES O=c1cc(-c2ccc(O)c(O)c2)oc2cc(O)cc(O)c12
REMARK SMILES IDX 4 1 3 2 2 3 1 4 21 5 19 6 18 7 16 8 15 9 14 10 13 11 5 12
REMARK SMILES IDX 6 13 7 14 8 15 12 16 10 17 9 18 11 20 20 22 17 24
REMARK H PARENT 9 19 11 21 20 23 17 25
REMARK Flexibility Score: inf
ROOT
ATOM      1  C   UNL     1      18.545  28.513  31.255  1.00  0.00     0.138 A 
ATOM      2  C   UNL     1      19.249  27.756  32.202  1.00  0.00     0.100 A 
ATOM      3  C   UNL     1      19.216  28.127  33.546  1.00  0.00     0.197 A 
ATOM      4  O   UNL     1      19.808  27.393  34.379  1.00  0.00    -0.289 OA
ATOM      5  C   UNL     1      18.500  29.282  33.940  1.00  0.00     0.107 A 
ATOM      6  C   UNL     1      18.431  29.779  35.276  1.00  0.00     0.134 A 
ATOM      7  C   UNL     1      17.596  30.866  35.565  1.00  0.00     0.093 A 
ATOM      8  C   UNL     1      16.875  31.510  34.556  1.00  0.00     0.123 A 
ATOM      9  C   UNL     1      16.978  31.066  33.240  1.00  0.00     0.094 A 
ATOM     10  C   UNL     1      17.776  29.963  32.925  1.00  0.00     0.146 A 
ATOM     11  O   UNL     1      17.835  29.562  31.660  1.00  0.00    -0.456 OA
ENDROOT
BRANCH   1  12
ATOM     12  C   UNL     1      18.545  28.164  29.812  1.00  0.00     0.021 A 
ATOM     13  C   UNL     1      18.289  29.127  28.818  1.00  0.00     0.016 A 
ATOM     14  C   UNL     1      18.284  28.768  27.468  1.00  0.00     0.051 A 
ATOM     15  C   UNL     1      18.528  27.442  27.087  1.00  0.00     0.157 A 
ATOM     16  C   UNL     1      18.775  26.832  29.422  1.00  0.00     0.062 A 
ATOM     17  C   UNL     1      18.772  26.470  28.070  1.00  0.00     0.158 A 
BRANCH  15  18
ATOM     18  O   UNL     1      18.524  27.088  25.739  1.00  0.00    -0.504 OA
ATOM     19  H   UNL     1      17.930  27.561  25.068  1.00  0.00     0.293 HD
ENDBRANCH  15  18
BRANCH  17  20
ATOM     20  O   UNL     1      19.014  25.140  27.724  1.00  0.00    -0.504 OA
ATOM     21  H   UNL     1      19.719  24.583  28.191  1.00  0.00     0.293 HD
ENDBRANCH  17  20
ENDBRANCH   1  12
BRANCH   6  22
ATOM     22  O   UNL     1      19.175  29.263  36.341  1.00  0.00    -0.507 OA
ATOM     23  H   UNL     1      19.152  28.303  36.648  1.00  0.00     0.293 HD
ENDBRANCH   6  22
BRANCH   8  24
ATOM     24  O   UNL     1      16.059  32.600  34.852  1.00  0.00    -0.508 OA
ATOM     25  H   UNL     1      15.159  32.481  35.301  1.00  0.00     0.293 HD
ENDBRANCH   8  24
TORSDOF 5
ENDMDL
MODEL 3
REMARK VINA RESULT:    -6.257      3.046      4.607
REMARK INTER + INTRA:          -7.643
REMARK INTER:                  -7.329
REMARK INTRA:                  -0.313
REMARK UNBOUND:                -0.288
REMARK SMILES O=c1cc(-c2ccc(O)c(O)c2)oc2cc(O)cc(O)c12
REMARK SMILES IDX 4 1 3 2 2 3 1 4 21 5 19 6 18 7 16 8 15 9 14 10 13 11 5 12
REMARK SMILES IDX 6 13 7 14 8 15 12 16 10 17 9 18 11 20 20 22 17 24
REMARK H PARENT 9 19 11 21 20 23 17 25
REMARK Flexibility Score: inf
ROOT
ATOM      1  C   UNL     1      17.595  30.424  33.771  1.00  0.00     0.138 A 
ATOM      2  C   UNL     1      17.502  30.234  32.385  1.00  0.00     0.100 A 
ATOM      3  C   UNL     1      18.141  29.144  31.794  1.00  0.00     0.197 A 
ATOM      4  O   UNL     1      17.988  28.966  30.557  1.00  0.00    -0.289 OA
ATOM      5  C   UNL     1      18.902  28.256  32.591  1.00  0.00     0.107 A 
ATOM      6  C   UNL     1      19.629  27.135  32.090  1.00  0.00     0.134 A 
ATOM      7  C   UNL     1      20.252  26.260  32.989  1.00  0.00     0.093 A 
ATOM      8  C   UNL     1      20.225  26.500  34.365  1.00  0.00     0.123 A 
ATOM      9  C   UNL     1      19.563  27.622  34.859  1.00  0.00     0.094 A 
ATOM     10  C   UNL     1      18.903  28.494  33.991  1.00  0.00     0.146 A 
ATOM     11  O   UNL     1      18.271  29.544  34.504  1.00  0.00    -0.456 OA
ENDROOT
BRANCH   1  12
ATOM     12  C   UNL     1      16.936  31.567  34.453  1.00  0.00     0.021 A 
ATOM     13  C   UNL     1      16.549  32.723  33.749  1.00  0.00     0.016 A 
ATOM     14  C   UNL     1      15.940  33.789  34.418  1.00  0.00     0.051 A 
ATOM     15  C   UNL     1      15.715  33.722  35.799  1.00  0.00     0.157 A 
ATOM     16  C   UNL     1      16.719  31.513  35.841  1.00  0.00     0.062 A 
ATOM     17  C   UNL     1      16.110  32.579  36.513  1.00  0.00     0.158 A 
BRANCH  15  18
ATOM     18  O   UNL     1      15.107  34.786  36.462  1.00  0.00    -0.504 OA
ATOM     19  H   UNL     1      14.889  35.654  35.985  1.00  0.00     0.293 HD
ENDBRANCH  15  18
BRANCH  17  20
ATOM     20  O   UNL     1      15.903  32.483  37.889  1.00  0.00    -0.504 OA
ATOM     21  H   UNL     1      16.625  32.157  38.520  1.00  0.00     0.293 HD
ENDBRANCH  17  20
ENDBRANCH   1  12
BRANCH   6  22
ATOM     22  O   UNL     1      19.791  26.852  30.730  1.00  0.00    -0.507 OA
ATOM     23  H   UNL     1      20.267  26.044  30.363  1.00  0.00     0.293 HD
ENDBRANCH   6  22
BRANCH   8  24
ATOM     24  O   UNL     1      20.860  25.632  35.250  1.00  0.00    -0.508 OA
ATOM     25  H   UNL     1      20.337  25.090  35.928  1.00  0.00     0.293 HD
ENDBRANCH   8  24
TORSDOF 5
ENDMDL
MODEL 4
REMARK VINA RESULT:    -6.228      1.508      7.640
REMARK INTER + INTRA:          -7.609
REMARK INTER:                  -7.328
REMARK INTRA:                  -0.280
REMARK UNBOUND:                -0.288
REMARK SMILES O=c1cc(-c2ccc(O)c(O)c2)oc2cc(O)cc(O)c12
REMARK SMILES IDX 4 1 3 2 2 3 1 4 21 5 19 6 18 7 16 8 15 9 14 10 13 11 5 12
REMARK SMILES IDX 6 13 7 14 8 15 12 16 10 17 9 18 11 20 20 22 17 24
REMARK H PARENT 9 19 11 21 20 23 17 25
REMARK Flexibility Score: inf
ROOT
ATOM      1  C   UNL     1      18.001  30.002  32.090  1.00  0.00     0.138 A 
ATOM      2  C   UNL     1      18.527  29.274  33.166  1.00  0.00     0.100 A 
ATOM      3  C   UNL     1      18.357  29.746  34.468  1.00  0.00     0.197 A 
ATOM      4  O   UNL     1      18.786  29.039  35.416  1.00  0.00    -0.289 OA
ATOM      5  C   UNL     1      17.685  30.971  34.690  1.00  0.00     0.107 A 
ATOM      6  C   UNL     1      17.490  31.570  35.971  1.00  0.00     0.134 A 
ATOM      7  C   UNL     1      16.707  32.726  36.079  1.00  0.00     0.093 A 
ATOM      8  C   UNL     1      16.165  33.339  34.947  1.00  0.00     0.123 A 
ATOM      9  C   UNL     1      16.395  32.792  33.687  1.00  0.00     0.094 A 
ATOM     10  C   UNL     1      17.142  31.620  33.549  1.00  0.00     0.146 A 
ATOM     11  O   UNL     1      17.326  31.123  32.331  1.00  0.00    -0.456 OA
ENDROOT
BRANCH   1  12
ATOM     12  C   UNL     1      18.153  29.547  30.685  1.00  0.00     0.021 A 
ATOM     13  C   UNL     1      18.351  30.458  29.630  1.00  0.00     0.016 A 
ATOM     14  C   UNL     1      18.479  30.002  28.315  1.00  0.00     0.051 A 
ATOM     15  C   UNL     1      18.404  28.632  28.030  1.00  0.00     0.157 A 
ATOM     16  C   UNL     1      18.064  28.175  30.389  1.00  0.00     0.062 A 
ATOM     17  C   UNL     1      18.193  27.716  29.073  1.00  0.00     0.158 A 
BRANCH  15  18
ATOM     18  O   UNL     1      18.534  28.181  26.718  1.00  0.00    -0.504 OA
ATOM     19  H   UNL     1      18.189  28.724  25.934  1.00  0.00     0.293 HD
ENDBRANCH  15  18
BRANCH  17  20
ATOM     20  O   UNL     1      18.109  26.346  28.822  1.00  0.00    -0.504 OA
ATOM     21  H   UNL     1      18.402  25.942  27.941  1.00  0.00     0.293 HD
ENDBRANCH  17  20
ENDBRANCH   1  12
BRANCH   6  22
ATOM     22  O   UNL     1      18.058  31.087  37.154  1.00  0.00    -0.507 OA
ATOM     23  H   UNL     1      18.271  30.120  37.337  1.00  0.00     0.293 HD
ENDBRANCH   6  22
BRANCH   8  24
ATOM     24  O   UNL     1      15.401  34.498  35.063  1.00  0.00    -0.508 OA
ATOM     25  H   UNL     1      15.730  35.388  34.709  1.00  0.00     0.293 HD
ENDBRANCH   8  24
TORSDOF 5
ENDMDL
MODEL 5
REMARK VINA RESULT:    -6.205      2.341      7.101
REMARK INTER + INTRA:          -7.582
REMARK INTER:                  -7.268
REMARK INTRA:                  -0.314
REMARK UNBOUND:                -0.288
REMARK SMILES O=c1cc(-c2ccc(O)c(O)c2)oc2cc(O)cc(O)c12
REMARK SMILES IDX 4 1 3 2 2 3 1 4 21 5 19 6 18 7 16 8 15 9 14 10 13 11 5 12
REMARK SMILES IDX 6 13 7 14 8 15 12 16 10 17 9 18 11 20 20 22 17 24
REMARK H PARENT 9 19 11 21 20 23 17 25
REMARK Flexibility Score: inf
ROOT
ATOM      1  C   UNL     1      18.601  28.177  31.075  1.00  0.00     0.138 A 
ATOM      2  C   UNL     1      18.025  29.347  31.587  1.00  0.00     0.100 A 
ATOM      3  C   UNL     1      18.191  29.665  32.935  1.00  0.00     0.197 A 
ATOM      4  O   UNL     1      17.714  30.753  33.352  1.00  0.00    -0.289 OA
ATOM      5  C   UNL     1      18.912  28.790  33.781  1.00  0.00     0.107 A 
ATOM      6  C   UNL     1      19.111  28.992  35.181  1.00  0.00     0.134 A 
ATOM      7  C   UNL     1      19.941  28.117  35.892  1.00  0.00     0.093 A 
ATOM      8  C   UNL     1      20.530  27.014  35.269  1.00  0.00     0.123 A 
ATOM      9  C   UNL     1      20.299  26.779  33.916  1.00  0.00     0.094 A 
ATOM     10  C   UNL     1      19.504  27.652  33.170  1.00  0.00     0.146 A 
ATOM     11  O   UNL     1      19.320  27.399  31.879  1.00  0.00    -0.456 OA
ENDROOT
BRANCH   1  12
ATOM     12  C   UNL     1      18.455  27.790  29.648  1.00  0.00     0.021 A 
ATOM     13  C   UNL     1      18.027  28.710  28.673  1.00  0.00     0.016 A 
ATOM     14  C   UNL     1      17.888  28.316  27.339  1.00  0.00     0.051 A 
ATOM     15  C   UNL     1      18.166  26.997  26.959  1.00  0.00     0.157 A 
ATOM     16  C   UNL     1      18.718  26.464  29.260  1.00  0.00     0.062 A 
ATOM     17  C   UNL     1      18.580  26.067  27.925  1.00  0.00     0.158 A 
BRANCH  15  18
ATOM     18  O   UNL     1      18.027  26.608  25.628  1.00  0.00    -0.504 OA
ATOM     19  H   UNL     1      18.394  25.725  25.292  1.00  0.00     0.293 HD
ENDBRANCH  15  18
BRANCH  17  20
ATOM     20  O   UNL     1      18.861  24.745  27.579  1.00  0.00    -0.504 OA
ATOM     21  H   UNL     1      19.619  24.502  26.955  1.00  0.00     0.293 HD
ENDBRANCH  17  20
ENDBRANCH   1  12
BRANCH   6  22
ATOM     22  O   UNL     1      18.500  30.011  35.917  1.00  0.00    -0.507 OA
ATOM     23  H   UNL     1      18.049  30.819  35.517  1.00  0.00     0.293 HD
ENDBRANCH   6  22
BRANCH   8  24
ATOM     24  O   UNL     1      21.342  26.141  35.989  1.00  0.00    -0.508 OA
ATOM     25  H   UNL     1      21.908  26.462  36.765  1.00  0.00     0.293 HD
ENDBRANCH   8  24
TORSDOF 5
ENDMDL
MODEL 6
REMARK VINA RESULT:    -6.124      2.827      5.502
REMARK INTER + INTRA:          -7.487
REMARK INTER:                  -7.168
REMARK INTRA:                  -0.318
REMARK UNBOUND:                -0.288
REMARK SMILES O=c1cc(-c2ccc(O)c(O)c2)oc2cc(O)cc(O)c12
REMARK SMILES IDX 4 1 3 2 2 3 1 4 21 5 19 6 18 7 16 8 15 9 14 10 13 11 5 12
REMARK SMILES IDX 6 13 7 14 8 15 12 16 10 17 9 18 11 20 20 22 17 24
REMARK H PARENT 9 19 11 21 20 23 17 25
REMARK Flexibility Score: inf
ROOT
ATOM      1  C   UNL     1      17.045  31.897  34.293  1.00  0.00     0.138 A 
ATOM      2  C   UNL     1      17.664  31.331  35.415  1.00  0.00     0.100 A 
ATOM      3  C   UNL     1      18.352  30.124  35.288  1.00  0.00     0.197 A 
ATOM      4  O   UNL     1      18.949  29.671  36.300  1.00  0.00    -0.289 OA
ATOM      5  C   UNL     1      18.394  29.466  34.036  1.00  0.00     0.107 A 
ATOM      6  C   UNL     1      19.031  28.210  33.799  1.00  0.00     0.134 A 
ATOM      7  C   UNL     1      19.107  27.713  32.492  1.00  0.00     0.093 A 
ATOM      8  C   UNL     1      18.516  28.394  31.424  1.00  0.00     0.123 A 
ATOM      9  C   UNL     1      17.846  29.593  31.655  1.00  0.00     0.094 A 
ATOM     10  C   UNL     1      17.782  30.133  32.942  1.00  0.00     0.146 A 
ATOM     11  O   UNL     1      17.146  31.286  33.116  1.00  0.00    -0.456 OA
ENDROOT
BRANCH   1  12
ATOM     12  C   UNL     1      16.299  33.179  34.371  1.00  0.00     0.021 A 
ATOM     13  C   UNL     1      16.132  33.864  35.590  1.00  0.00     0.016 A 
ATOM     14  C   UNL     1      15.417  35.063  35.637  1.00  0.00     0.051 A 
ATOM     15  C   UNL     1      14.850  35.595  34.472  1.00  0.00     0.157 A 
ATOM     16  C   UNL     1      15.714  33.713  33.209  1.00  0.00     0.062 A 
ATOM     17  C   UNL     1      14.998  34.914  33.253  1.00  0.00     0.158 A 
BRANCH  15  18
ATOM     18  O   UNL     1      14.137  36.792  34.522  1.00  0.00    -0.504 OA
ATOM     19  H   UNL     1      14.319  37.488  35.237  1.00  0.00     0.293 HD
ENDBRANCH  15  18
BRANCH  17  20
ATOM     20  O   UNL     1      14.442  35.415  32.076  1.00  0.00    -0.504 OA
ATOM     21  H   UNL     1      13.522  35.138  31.755  1.00  0.00     0.293 HD
ENDBRANCH  17  20
ENDBRANCH   1  12
BRANCH   6  22
ATOM     22  O   UNL     1      19.577  27.409  34.805  1.00  0.00    -0.507 OA
ATOM     23  H   UNL     1      19.796  27.724  35.737  1.00  0.00     0.293 HD
ENDBRANCH   6  22
BRANCH   8  24
ATOM     24  O   UNL     1      18.584  27.883  30.130  1.00  0.00    -0.508 OA
ATOM     25  H   UNL     1      19.429  27.957  29.575  1.00  0.00     0.293 HD
ENDBRANCH   8  24
TORSDOF 5
ENDMDL
MODEL 7
REMARK VINA RESULT:    -5.990      2.492      4.864
REMARK INTER + INTRA:          -7.329
REMARK INTER:                  -7.018
REMARK INTRA:                  -0.311
REMARK UNBOUND:                -0.288
REMARK SMILES O=c1cc(-c2ccc(O)c(O)c2)oc2cc(O)cc(O)c12
REMARK SMILES IDX 4 1 3 2 2 3 1 4 21 5 19 6 18 7 16 8 15 9 14 10 13 11 5 12
REMARK SMILES IDX 6 13 7 14 8 15 12 16 10 17 9 18 11 20 20 22 17 24
REMARK H PARENT 9 19 11 21 20 23 17 25
REMARK Flexibility Score: inf
ROOT
ATOM      1  C   UNL     1      17.412  30.890  34.778  1.00  0.00     0.138 A 
ATOM      2  C   UNL     1      18.164  29.947  35.491  1.00  0.00     0.100 A 
ATOM      3  C   UNL     1      18.793  28.905  34.808  1.00  0.00     0.197 A 
ATOM      4  O   UNL     1      19.511  28.110  35.468  1.00  0.00    -0.289 OA
ATOM      5  C   UNL     1      18.641  28.791  33.406  1.00  0.00     0.107 A 
ATOM      6  C   UNL     1      19.202  27.747  32.610  1.00  0.00     0.134 A 
ATOM      7  C   UNL     1      19.081  27.802  31.216  1.00  0.00     0.093 A 
ATOM      8  C   UNL     1      18.368  28.830  30.594  1.00  0.00     0.123 A 
ATOM      9  C   UNL     1      17.771  29.823  31.366  1.00  0.00     0.094 A 
ATOM     10  C   UNL     1      17.903  29.816  32.756  1.00  0.00     0.146 A 
ATOM     11  O   UNL     1      17.330  30.791  33.454  1.00  0.00    -0.456 OA
ENDROOT
BRANCH   1  12
ATOM     12  C   UNL     1      16.722  32.018  35.454  1.00  0.00     0.021 A 
ATOM     13  C   UNL     1      16.350  31.950  36.810  1.00  0.00     0.016 A 
ATOM     14  C   UNL     1      15.691  33.022  37.418  1.00  0.00     0.051 A 
ATOM     15  C   UNL     1      15.387  34.175  36.683  1.00  0.00     0.157 A 
ATOM     16  C   UNL     1      16.400  33.173  34.719  1.00  0.00     0.062 A 
ATOM     17  C   UNL     1      15.741  34.248  35.327  1.00  0.00     0.158 A 
BRANCH  15  18
ATOM     18  O   UNL     1      14.731  35.242  37.294  1.00  0.00    -0.504 OA
ATOM     19  H   UNL     1      14.979  35.554  38.226  1.00  0.00     0.293 HD
ENDBRANCH  15  18
BRANCH  17  20
ATOM     20  O   UNL     1      15.449  35.380  34.566  1.00  0.00    -0.504 OA
ATOM     21  H   UNL     1      16.033  35.675  33.794  1.00  0.00     0.293 HD
ENDBRANCH  17  20
ENDBRANCH   1  12
BRANCH   6  22
ATOM     22  O   UNL     1      19.859  26.631  33.137  1.00  0.00    -0.507 OA
ATOM     23  H   UNL     1      20.607  26.134  32.680  1.00  0.00     0.293 HD
ENDBRANCH   6  22
BRANCH   8  24
ATOM     24  O   UNL     1      18.241  28.867  29.207  1.00  0.00    -0.508 OA
ATOM     25  H   UNL     1      18.776  29.517  28.643  1.00  0.00     0.293 HD
ENDBRANCH   8  24
TORSDOF 5
ENDMDL
MODEL 8
REMARK VINA RESULT:    -5.987      1.767      2.097
REMARK INTER + INTRA:          -7.325
REMARK INTER:                  -7.031
REMARK INTRA:                  -0.294
REMARK UNBOUND:                -0.288
REMARK SMILES O=c1cc(-c2ccc(O)c(O)c2)oc2cc(O)cc(O)c12
REMARK SMILES IDX 4 1 3 2 2 3 1 4 21 5 19 6 18 7 16 8 15 9 14 10 13 11 5 12
REMARK SMILES IDX 6 13 7 14 8 15 12 16 10 17 9 18 11 20 20 22 17 24
REMARK H PARENT 9 19 11 21 20 23 17 25
REMARK Flexibility Score: inf
ROOT
ATOM      1  C   UNL     1      18.449  28.604  31.538  1.00  0.00     0.138 A 
ATOM      2  C   UNL     1      18.023  29.001  30.263  1.00  0.00     0.100 A 
ATOM      3  C   UNL     1      18.438  28.281  29.142  1.00  0.00     0.197 A 
ATOM      4  O   UNL     1      17.990  28.624  28.017  1.00  0.00    -0.289 OA
ATOM      5  C   UNL     1      19.309  27.177  29.297  1.00  0.00     0.107 A 
ATOM      6  C   UNL     1      19.830  26.396  28.222  1.00  0.00     0.134 A 
ATOM      7  C   UNL     1      20.591  25.255  28.506  1.00  0.00     0.093 A 
ATOM      8  C   UNL     1      20.901  24.903  29.822  1.00  0.00     0.123 A 
ATOM      9  C   UNL     1      20.443  25.690  30.875  1.00  0.00     0.094 A 
ATOM     10  C   UNL     1      19.652  26.815  30.627  1.00  0.00     0.146 A 
ATOM     11  O   UNL     1      19.223  27.530  31.661  1.00  0.00    -0.456 OA
ENDROOT
BRANCH   1  12
ATOM     12  C   UNL     1      18.039  29.334  32.765  1.00  0.00     0.021 A 
ATOM     13  C   UNL     1      18.346  28.849  34.051  1.00  0.00     0.016 A 
ATOM     14  C   UNL     1      17.938  29.550  35.188  1.00  0.00     0.051 A 
ATOM     15  C   UNL     1      17.210  30.741  35.063  1.00  0.00     0.157 A 
ATOM     16  C   UNL     1      17.296  30.522  32.648  1.00  0.00     0.062 A 
ATOM     17  C   UNL     1      16.886  31.226  33.786  1.00  0.00     0.158 A 
BRANCH  15  18
ATOM     18  O   UNL     1      16.806  31.438  36.200  1.00  0.00    -0.504 OA
ATOM     19  H   UNL     1      15.902  31.895  36.249  1.00  0.00     0.293 HD
ENDBRANCH  15  18
BRANCH  17  20
ATOM     20  O   UNL     1      16.160  32.407  33.628  1.00  0.00    -0.504 OA
ATOM     21  H   UNL     1      16.604  33.316  33.633  1.00  0.00     0.293 HD
ENDBRANCH  17  20
ENDBRANCH   1  12
BRANCH   6  22
ATOM     22  O   UNL     1      19.651  26.708  26.872  1.00  0.00    -0.507 OA
ATOM     23  H   UNL     1      20.384  27.003  26.246  1.00  0.00     0.293 HD
ENDBRANCH   6  22
BRANCH   8  24
ATOM     24  O   UNL     1      21.672  23.774  30.092  1.00  0.00    -0.508 OA
ATOM     25  H   UNL     1      22.371  23.440  29.439  1.00  0.00     0.293 HD
ENDBRANCH   8  24
TORSDOF 5
ENDMDL
MODEL 9
REMARK VINA RESULT:    -5.975      1.773      2.952
REMARK INTER + INTRA:          -7.311
REMARK INTER:                  -7.019
REMARK INTRA:                  -0.292
REMARK UNBOUND:                -0.288
REMARK SMILES O=c1cc(-c2ccc(O)c(O)c2)oc2cc(O)cc(O)c12
REMARK SMILES IDX 4 1 3 2 2 3 1 4 21 5 19 6 18 7 16 8 15 9 14 10 13 11 5 12
REMARK SMILES IDX 6 13 7 14 8 15 12 16 10 17 9 18 11 20 20 22 17 24
REMARK H PARENT 9 19 11 21 20 23 17 25
REMARK Flexibility Score: inf
ROOT
ATOM      1  C   UNL     1      18.383  28.837  32.231  1.00  0.00     0.138 A 
ATOM      2  C   UNL     1      19.336  27.939  32.731  1.00  0.00     0.100 A 
ATOM      3  C   UNL     1      19.876  26.966  31.890  1.00  0.00     0.197 A 
ATOM      4  O   UNL     1      20.774  26.215  32.351  1.00  0.00    -0.289 OA
ATOM      5  C   UNL     1      19.434  26.872  30.549  1.00  0.00     0.107 A 
ATOM      6  C   UNL     1      19.884  25.893  29.612  1.00  0.00     0.134 A 
ATOM      7  C   UNL     1      19.462  25.970  28.279  1.00  0.00     0.093 A 
ATOM      8  C   UNL     1      18.560  26.953  27.863  1.00  0.00     0.123 A 
ATOM      9  C   UNL     1      18.074  27.880  28.782  1.00  0.00     0.094 A 
ATOM     10  C   UNL     1      18.502  27.851  30.111  1.00  0.00     0.146 A 
ATOM     11  O   UNL     1      18.025  28.762  30.953  1.00  0.00    -0.456 OA
ENDROOT
BRANCH   1  12
ATOM     12  C   UNL     1      17.776  29.892  33.082  1.00  0.00     0.021 A 
ATOM     13  C   UNL     1      17.272  29.607  34.366  1.00  0.00     0.016 A 
ATOM     14  C   UNL     1      16.696  30.617  35.141  1.00  0.00     0.051 A 
ATOM     15  C   UNL     1      16.606  31.925  34.646  1.00  0.00     0.157 A 
ATOM     16  C   UNL     1      17.668  31.204  32.588  1.00  0.00     0.062 A 
ATOM     17  C   UNL     1      17.092  32.217  33.363  1.00  0.00     0.158 A 
BRANCH  15  18
ATOM     18  O   UNL     1      16.032  32.929  35.423  1.00  0.00    -0.504 OA
ATOM     19  H   UNL     1      15.051  33.170  35.339  1.00  0.00     0.293 HD
ENDBRANCH  15  18
BRANCH  17  20
ATOM     20  O   UNL     1      17.014  33.508  32.839  1.00  0.00    -0.504 OA
ATOM     21  H   UNL     1      16.814  34.313  33.421  1.00  0.00     0.293 HD
ENDBRANCH  17  20
ENDBRANCH   1  12
BRANCH   6  22
ATOM     22  O   UNL     1      20.717  24.820  29.943  1.00  0.00    -0.507 OA
ATOM     23  H   UNL     1      20.411  23.970  30.390  1.00  0.00     0.293 HD
ENDBRANCH   6  22
BRANCH   8  24
ATOM     24  O   UNL     1      18.135  27.012  26.538  1.00  0.00    -0.508 OA
ATOM     25  H   UNL     1      18.744  26.744  25.773  1.00  0.00     0.293 HD
ENDBRANCH   8  24
TORSDOF 5
ENDMDL
