MODEL 1
REMARK VINA RESULT:    -7.189      0.000      0.000
REMARK INTER + INTRA:         -12.016
REMARK INTER:                 -10.552
REMARK INTRA:                  -1.464
REMARK UNBOUND:                -1.464
REMARK SMILES O=c1c(O[C@H]2O[C@@H](CO)[C@H](O)[C@H](O)[C@H]2O)c(-c2ccc(O)c(O)c2)oc2cc(O)cc(O)c12
REMARK SMILES IDX 4 1 3 2 16 3 25 4 2 5 26 6 1 7 33 8 27 9 31 10 28 11 30 12
REMARK SMILES IDX 17 13 18 14 19 15 20 16 24 17 22 18 21 19 23 21 32 23 29 25
REMARK SMILES IDX 5 27 14 28 6 29 12 30 7 31 10 32 15 33 13 35 8 37 9 38 11 40
REMARK H PARENT 21 20 23 22 32 24 29 26 15 34 13 36 9 39 11 41
REMARK Flexibility Score: inf
ROOT
ATOM      1  O   UNL     1     -37.332   4.250  80.147  1.00  0.00    -0.454 OA
ENDROOT
BRANCH   1   2
ATOM      2  C   UNL     1     -37.710   5.284  79.275  1.00  0.00     0.214 A 
ATOM      3  C   UNL     1     -38.935   5.277  78.575  1.00  0.00     0.180 A 
ATOM      4  O   UNL     1     -39.196   6.226  77.684  1.00  0.00    -0.452 OA
ATOM      5  C   UNL     1     -36.813   6.334  79.048  1.00  0.00     0.239 A 
ATOM      6  C   UNL     1     -38.359   7.218  77.411  1.00  0.00     0.146 A 
ATOM      7  O   UNL     1     -35.724   6.363  79.682  1.00  0.00    -0.285 OA
ATOM      8  C   UNL     1     -37.121   7.320  78.087  1.00  0.00     0.111 A 
ATOM      9  C   UNL     1     -38.716   8.159  76.443  1.00  0.00     0.094 A 
ATOM     10  C   UNL     1     -36.241   8.379  77.756  1.00  0.00     0.134 A 
ATOM     11  C   UNL     1     -37.837   9.194  76.111  1.00  0.00     0.123 A 
ATOM     12  C   UNL     1     -36.606   9.297  76.759  1.00  0.00     0.093 A 
BRANCH   3  13
ATOM     13  C   UNL     1     -39.963   4.252  78.797  1.00  0.00     0.025 A 
ATOM     14  C   UNL     1     -40.147   3.244  77.843  1.00  0.00     0.016 A 
ATOM     15  C   UNL     1     -41.188   2.323  77.990  1.00  0.00     0.051 A 
ATOM     16  C   UNL     1     -42.077   2.426  79.066  1.00  0.00     0.157 A 
ATOM     17  C   UNL     1     -40.835   4.344  79.893  1.00  0.00     0.062 A 
ATOM     18  C   UNL     1     -41.897   3.437  80.027  1.00  0.00     0.158 A 
BRANCH  16  19
ATOM     19  O   UNL     1     -43.142   1.529  79.151  1.00  0.00    -0.504 OA
ATOM     20  H   UNL     1     -43.877   1.500  78.454  1.00  0.00     0.293 HD
ENDBRANCH  16  19
BRANCH  18  21
ATOM     21  O   UNL     1     -42.784   3.541  81.096  1.00  0.00    -0.504 OA
ATOM     22  H   UNL     1     -43.311   2.744  81.433  1.00  0.00     0.293 HD
ENDBRANCH  18  21
ENDBRANCH   3  13
BRANCH  10  23
ATOM     23  O   UNL     1     -35.011   8.522  78.403  1.00  0.00    -0.507 OA
ATOM     24  H   UNL     1     -34.484   7.721  78.729  1.00  0.00     0.293 HD
ENDBRANCH  10  23
BRANCH  11  25
ATOM     25  O   UNL     1     -38.177  10.125  75.132  1.00  0.00    -0.508 OA
ATOM     26  H   UNL     1     -38.265  11.115  75.343  1.00  0.00     0.293 HD
ENDBRANCH  11  25
ENDBRANCH   1   2
BRANCH   1  27
ATOM     27  C   UNL     1     -37.626   4.257  81.547  1.00  0.00     0.339 C 
ATOM     28  C   UNL     1     -36.311   4.368  82.374  1.00  0.00     0.214 C 
ATOM     29  O   UNL     1     -38.333   3.069  81.875  1.00  0.00    -0.332 OA
ATOM     30  C   UNL     1     -36.263   3.297  83.480  1.00  0.00     0.180 C 
ATOM     31  C   UNL     1     -38.797   3.124  83.216  1.00  0.00     0.179 C 
ATOM     32  C   UNL     1     -37.612   3.229  84.224  1.00  0.00     0.177 C 
BRANCH  28  33
ATOM     33  O   UNL     1     -35.180   4.220  81.553  1.00  0.00    -0.384 OA
ATOM     34  H   UNL     1     -34.660   3.454  81.916  1.00  0.00     0.211 HD
ENDBRANCH  28  33
BRANCH  30  35
ATOM     35  O   UNL     1     -35.218   3.588  84.373  1.00  0.00    -0.387 OA
ATOM     36  H   UNL     1     -34.907   2.720  84.745  1.00  0.00     0.211 HD
ENDBRANCH  30  35
BRANCH  31  37
ATOM     37  C   UNL     1     -39.635   1.866  83.490  1.00  0.00     0.191 C 
BRANCH  37  38
ATOM     38  O   UNL     1     -39.061   0.743  82.874  1.00  0.00    -0.394 OA
ATOM     39  H   UNL     1     -39.547  -0.053  83.216  1.00  0.00     0.210 HD
ENDBRANCH  37  38
ENDBRANCH  31  37
BRANCH  32  40
ATOM     40  O   UNL     1     -37.762   4.377  85.017  1.00  0.00    -0.387 OA
ATOM     41  H   UNL     1     -37.366   4.170  85.906  1.00  0.00     0.211 HD
ENDBRANCH  32  40
ENDBRANCH   1  27
TORSDOF 12
ENDMDL
MODEL 2
REMARK VINA RESULT:    -6.710      2.515      5.721
REMARK INTER + INTRA:         -11.312
REMARK INTER:                 -10.168
REMARK INTRA:                  -1.144
REMARK UNBOUND:                -1.464
REMARK SMILES O=c1c(O[C@H]2O[C@@H](CO)[C@H](O)[C@H](O)[C@H]2O)c(-c2ccc(O)c(O)c2)oc2cc(O)cc(O)c12
REMARK SMILES IDX 4 1 3 2 16 3 25 4 2 5 26 6 1 7 33 8 27 9 31 10 28 11 30 12
REMARK SMILES IDX 17 13 18 14 19 15 20 16 24 17 22 18 21 19 23 21 32 23 29 25
REMARK SMILES IDX 5 27 14 28 6 29 12 30 7 31 10 32 15 33 13 35 8 37 9 38 11 40
REMARK H PARENT 21 20 23 22 32 24 29 26 15 34 13 36 9 39 11 41
REMARK Flexibility Score: inf
ROOT
ATOM      1  O   UNL     1     -36.936   3.962  79.964  1.00  0.00    -0.454 OA
ENDROOT
BRANCH   1   2
ATOM      2  C   UNL     1     -36.031   4.844  80.577  1.00  0.00     0.214 A 
ATOM      3  C   UNL     1     -36.117   5.193  81.942  1.00  0.00     0.180 A 
ATOM      4  O   UNL     1     -35.301   6.111  82.445  1.00  0.00    -0.452 OA
ATOM      5  C   UNL     1     -35.038   5.443  79.792  1.00  0.00     0.239 A 
ATOM      6  C   UNL     1     -34.372   6.730  81.729  1.00  0.00     0.146 A 
ATOM      7  O   UNL     1     -34.937   5.124  78.577  1.00  0.00    -0.285 OA
ATOM      8  C   UNL     1     -34.195   6.421  80.360  1.00  0.00     0.111 A 
ATOM      9  C   UNL     1     -33.573   7.696  82.345  1.00  0.00     0.094 A 
ATOM     10  C   UNL     1     -33.209   7.116  79.619  1.00  0.00     0.134 A 
ATOM     11  C   UNL     1     -32.610   8.388  81.605  1.00  0.00     0.123 A 
ATOM     12  C   UNL     1     -32.437   8.104  80.249  1.00  0.00     0.093 A 
BRANCH   3  13
ATOM     13  C   UNL     1     -37.083   4.568  82.855  1.00  0.00     0.025 A 
ATOM     14  C   UNL     1     -36.901   3.237  83.246  1.00  0.00     0.016 A 
ATOM     15  C   UNL     1     -37.865   2.598  84.030  1.00  0.00     0.051 A 
ATOM     16  C   UNL     1     -39.037   3.270  84.394  1.00  0.00     0.157 A 
ATOM     17  C   UNL     1     -38.246   5.256  83.240  1.00  0.00     0.062 A 
ATOM     18  C   UNL     1     -39.227   4.608  84.004  1.00  0.00     0.158 A 
BRANCH  16  19
ATOM     19  O   UNL     1     -40.009   2.586  85.125  1.00  0.00    -0.504 OA
ATOM     20  H   UNL     1     -40.851   2.224  84.693  1.00  0.00     0.293 HD
ENDBRANCH  16  19
BRANCH  18  21
ATOM     21  O   UNL     1     -40.396   5.275  84.364  1.00  0.00    -0.504 OA
ATOM     22  H   UNL     1     -41.232   5.237  83.792  1.00  0.00     0.293 HD
ENDBRANCH  18  21
ENDBRANCH   3  13
BRANCH  10  23
ATOM     23  O   UNL     1     -32.996   6.838  78.266  1.00  0.00    -0.507 OA
ATOM     24  H   UNL     1     -32.524   7.493  77.656  1.00  0.00     0.293 HD
ENDBRANCH  10  23
BRANCH  11  25
ATOM     25  O   UNL     1     -31.823   9.367  82.207  1.00  0.00    -0.508 OA
ATOM     26  H   UNL     1     -31.628   9.357  83.204  1.00  0.00     0.293 HD
ENDBRANCH  11  25
ENDBRANCH   1   2
BRANCH   1  27
ATOM     27  C   UNL     1     -38.311   4.281  79.735  1.00  0.00     0.339 C 
ATOM     28  C   UNL     1     -39.108   2.995  79.365  1.00  0.00     0.214 C 
ATOM     29  O   UNL     1     -38.394   5.247  78.697  1.00  0.00    -0.332 OA
ATOM     30  C   UNL     1     -39.956   3.218  78.098  1.00  0.00     0.180 C 
ATOM     31  C   UNL     1     -39.727   5.718  78.565  1.00  0.00     0.179 C 
ATOM     32  C   UNL     1     -40.703   4.565  78.178  1.00  0.00     0.177 C 
BRANCH  28  33
ATOM     33  O   UNL     1     -38.246   1.908  79.144  1.00  0.00    -0.384 OA
ATOM     34  H   UNL     1     -38.275   1.710  78.170  1.00  0.00     0.211 HD
ENDBRANCH  28  33
BRANCH  30  35
ATOM     35  O   UNL     1     -40.863   2.156  77.945  1.00  0.00    -0.387 OA
ATOM     36  H   UNL     1     -40.658   1.726  77.073  1.00  0.00     0.211 HD
ENDBRANCH  30  35
BRANCH  31  37
ATOM     37  C   UNL     1     -39.745   6.826  77.500  1.00  0.00     0.191 C 
BRANCH  37  38
ATOM     38  O   UNL     1     -39.050   6.422  76.351  1.00  0.00    -0.394 OA
ATOM     39  H   UNL     1     -38.129   6.786  76.427  1.00  0.00     0.210 HD
ENDBRANCH  37  38
ENDBRANCH  31  37
BRANCH  32  40
ATOM     40  O   UNL     1     -41.728   4.470  79.132  1.00  0.00    -0.387 OA
ATOM     41  H   UNL     1     -41.308   4.163  79.980  1.00  0.00     0.211 HD
ENDBRANCH  32  40
ENDBRANCH   1  27
TORSDOF 12
ENDMDL
MODEL 3
REMARK VINA RESULT:    -6.703      1.827      6.154
REMARK INTER + INTRA:         -11.301
REMARK INTER:                  -9.880
REMARK INTRA:                  -1.422
REMARK UNBOUND:                -1.464
REMARK SMILES O=c1c(O[C@H]2O[C@@H](CO)[C@H](O)[C@H](O)[C@H]2O)c(-c2ccc(O)c(O)c2)oc2cc(O)cc(O)c12
REMARK SMILES IDX 4 1 3 2 16 3 25 4 2 5 26 6 1 7 33 8 27 9 31 10 28 11 30 12
REMARK SMILES IDX 17 13 18 14 19 15 20 16 24 17 22 18 21 19 23 21 32 23 29 25
REMARK SMILES IDX 5 27 14 28 6 29 12 30 7 31 10 32 15 33 13 35 8 37 9 38 11 40
REMARK H PARENT 21 20 23 22 32 24 29 26 15 34 13 36 9 39 11 41
REMARK Flexibility Score: inf
ROOT
ATOM      1  O   UNL     1     -38.020   5.658  81.381  1.00  0.00    -0.454 OA
ENDROOT
BRANCH   1   2
ATOM      2  C   UNL     1     -38.802   5.018  80.406  1.00  0.00     0.214 A 
ATOM      3  C   UNL     1     -38.513   5.098  79.028  1.00  0.00     0.180 A 
ATOM      4  O   UNL     1     -39.344   4.561  78.142  1.00  0.00    -0.452 OA
ATOM      5  C   UNL     1     -39.945   4.318  80.813  1.00  0.00     0.239 A 
ATOM      6  C   UNL     1     -40.456   3.924  78.483  1.00  0.00     0.146 A 
ATOM      7  O   UNL     1     -40.203   4.221  82.043  1.00  0.00    -0.285 OA
ATOM      8  C   UNL     1     -40.809   3.769  79.843  1.00  0.00     0.111 A 
ATOM      9  C   UNL     1     -41.277   3.408  77.476  1.00  0.00     0.094 A 
ATOM     10  C   UNL     1     -42.014   3.101  80.171  1.00  0.00     0.134 A 
ATOM     11  C   UNL     1     -42.472   2.762  77.806  1.00  0.00     0.123 A 
ATOM     12  C   UNL     1     -42.839   2.618  79.144  1.00  0.00     0.093 A 
BRANCH   3  13
ATOM     13  C   UNL     1     -37.304   5.755  78.514  1.00  0.00     0.025 A 
ATOM     14  C   UNL     1     -36.092   5.055  78.502  1.00  0.00     0.016 A 
ATOM     15  C   UNL     1     -34.915   5.699  78.113  1.00  0.00     0.051 A 
ATOM     16  C   UNL     1     -34.932   7.057  77.774  1.00  0.00     0.157 A 
ATOM     17  C   UNL     1     -37.332   7.111  78.148  1.00  0.00     0.062 A 
ATOM     18  C   UNL     1     -36.146   7.766  77.784  1.00  0.00     0.158 A 
BRANCH  16  19
ATOM     19  O   UNL     1     -33.730   7.688  77.449  1.00  0.00    -0.504 OA
ATOM     20  H   UNL     1     -33.594   8.161  76.563  1.00  0.00     0.293 HD
ENDBRANCH  16  19
BRANCH  18  21
ATOM     21  O   UNL     1     -36.161   9.119  77.449  1.00  0.00    -0.504 OA
ATOM     22  H   UNL     1     -36.244   9.430  76.488  1.00  0.00     0.293 HD
ENDBRANCH  18  21
ENDBRANCH   3  13
BRANCH  10  23
ATOM     23  O   UNL     1     -42.398   2.921  81.502  1.00  0.00    -0.507 OA
ATOM     24  H   UNL     1     -43.265   2.458  81.749  1.00  0.00     0.293 HD
ENDBRANCH  10  23
BRANCH  11  25
ATOM     25  O   UNL     1     -43.305   2.264  76.807  1.00  0.00    -0.508 OA
ATOM     26  H   UNL     1     -43.792   2.879  76.162  1.00  0.00     0.293 HD
ENDBRANCH  11  25
ENDBRANCH   1   2
BRANCH   1  27
ATOM     27  C   UNL     1     -36.691   5.248  81.717  1.00  0.00     0.339 C 
ATOM     28  C   UNL     1     -36.686   4.503  83.084  1.00  0.00     0.214 C 
ATOM     29  O   UNL     1     -35.851   6.393  81.758  1.00  0.00    -0.332 OA
ATOM     30  C   UNL     1     -35.597   5.069  84.015  1.00  0.00     0.180 C 
ATOM     31  C   UNL     1     -34.494   6.006  81.911  1.00  0.00     0.179 C 
ATOM     32  C   UNL     1     -34.268   5.240  83.251  1.00  0.00     0.177 C 
BRANCH  28  33
ATOM     33  O   UNL     1     -37.930   4.612  83.728  1.00  0.00    -0.384 OA
ATOM     34  H   UNL     1     -38.277   3.687  83.842  1.00  0.00     0.211 HD
ENDBRANCH  28  33
BRANCH  30  35
ATOM     35  O   UNL     1     -35.428   4.214  85.117  1.00  0.00    -0.387 OA
ATOM     36  H   UNL     1     -34.561   3.744  84.987  1.00  0.00     0.211 HD
ENDBRANCH  30  35
BRANCH  31  37
ATOM     37  C   UNL     1     -33.622   7.269  81.853  1.00  0.00     0.191 C 
BRANCH  37  38
ATOM     38  O   UNL     1     -33.147   7.485  80.551  1.00  0.00    -0.394 OA
ATOM     39  H   UNL     1     -33.769   8.130  80.120  1.00  0.00     0.210 HD
ENDBRANCH  37  38
ENDBRANCH  31  37
BRANCH  32  40
ATOM     40  O   UNL     1     -33.719   3.975  82.989  1.00  0.00    -0.387 OA
ATOM     41  H   UNL     1     -33.255   3.683  83.819  1.00  0.00     0.211 HD
ENDBRANCH  32  40
ENDBRANCH   1  27
TORSDOF 12
ENDMDL
MODEL 4
REMARK VINA RESULT:    -6.694      2.022      5.941
REMARK INTER + INTRA:         -11.288
REMARK INTER:                 -10.241
REMARK INTRA:                  -1.047
REMARK UNBOUND:                -1.464
REMARK SMILES O=c1c(O[C@H]2O[C@@H](CO)[C@H](O)[C@H](O)[C@H]2O)c(-c2ccc(O)c(O)c2)oc2cc(O)cc(O)c12
REMARK SMILES IDX 4 1 3 2 16 3 25 4 2 5 26 6 1 7 33 8 27 9 31 10 28 11 30 12
REMARK SMILES IDX 17 13 18 14 19 15 20 16 24 17 22 18 21 19 23 21 32 23 29 25
REMARK SMILES IDX 5 27 14 28 6 29 12 30 7 31 10 32 15 33 13 35 8 37 9 38 11 40
REMARK H PARENT 21 20 23 22 32 24 29 26 15 34 13 36 9 39 11 41
REMARK Flexibility Score: inf
ROOT
ATOM      1  O   UNL     1     -38.632   6.131  81.155  1.00  0.00    -0.454 OA
ENDROOT
BRANCH   1   2
ATOM      2  C   UNL     1     -39.259   5.320  80.196  1.00  0.00     0.214 A 
ATOM      3  C   UNL     1     -38.757   5.164  78.886  1.00  0.00     0.180 A 
ATOM      4  O   UNL     1     -39.445   4.470  77.989  1.00  0.00    -0.452 OA
ATOM      5  C   UNL     1     -40.459   4.683  80.534  1.00  0.00     0.239 A 
ATOM      6  C   UNL     1     -40.604   3.882  78.257  1.00  0.00     0.146 A 
ATOM      7  O   UNL     1     -40.908   4.796  81.707  1.00  0.00    -0.285 OA
ATOM      8  C   UNL     1     -41.167   3.960  79.551  1.00  0.00     0.111 A 
ATOM      9  C   UNL     1     -41.262   3.187  77.239  1.00  0.00     0.094 A 
ATOM     10  C   UNL     1     -42.416   3.339  79.798  1.00  0.00     0.134 A 
ATOM     11  C   UNL     1     -42.501   2.589  77.485  1.00  0.00     0.123 A 
ATOM     12  C   UNL     1     -43.076   2.672  78.754  1.00  0.00     0.093 A 
BRANCH   3  13
ATOM     13  C   UNL     1     -37.475   5.742  78.462  1.00  0.00     0.025 A 
ATOM     14  C   UNL     1     -36.295   5.012  78.647  1.00  0.00     0.016 A 
ATOM     15  C   UNL     1     -35.059   5.589  78.343  1.00  0.00     0.051 A 
ATOM     16  C   UNL     1     -34.989   6.912  77.893  1.00  0.00     0.157 A 
ATOM     17  C   UNL     1     -37.412   7.061  77.984  1.00  0.00     0.062 A 
ATOM     18  C   UNL     1     -36.170   7.651  77.705  1.00  0.00     0.158 A 
BRANCH  16  19
ATOM     19  O   UNL     1     -33.737   7.480  77.656  1.00  0.00    -0.504 OA
ATOM     20  H   UNL     1     -33.617   8.475  77.508  1.00  0.00     0.293 HD
ENDBRANCH  16  19
BRANCH  18  21
ATOM     21  O   UNL     1     -36.099   8.969  77.259  1.00  0.00    -0.504 OA
ATOM     22  H   UNL     1     -35.462   9.251  76.523  1.00  0.00     0.293 HD
ENDBRANCH  18  21
ENDBRANCH   3  13
BRANCH  10  23
ATOM     23  O   UNL     1     -43.006   3.386  81.063  1.00  0.00    -0.507 OA
ATOM     24  H   UNL     1     -43.404   2.562  81.497  1.00  0.00     0.293 HD
ENDBRANCH  10  23
BRANCH  11  25
ATOM     25  O   UNL     1     -43.174   1.912  76.470  1.00  0.00    -0.508 OA
ATOM     26  H   UNL     1     -43.096   0.906  76.356  1.00  0.00     0.293 HD
ENDBRANCH  11  25
ENDBRANCH   1   2
BRANCH   1  27
ATOM     27  C   UNL     1     -37.845   5.612  82.231  1.00  0.00     0.339 C 
ATOM     28  C   UNL     1     -37.714   6.672  83.364  1.00  0.00     0.214 C 
ATOM     29  O   UNL     1     -36.569   5.240  81.732  1.00  0.00    -0.332 OA
ATOM     30  C   UNL     1     -36.244   6.842  83.791  1.00  0.00     0.180 C 
ATOM     31  C   UNL     1     -35.826   4.557  82.730  1.00  0.00     0.179 C 
ATOM     32  C   UNL     1     -35.571   5.466  83.971  1.00  0.00     0.177 C 
BRANCH  28  33
ATOM     33  O   UNL     1     -38.212   7.920  82.953  1.00  0.00    -0.384 OA
ATOM     34  H   UNL     1     -37.929   8.582  83.639  1.00  0.00     0.211 HD
ENDBRANCH  28  33
BRANCH  30  35
ATOM     35  O   UNL     1     -36.181   7.584  84.982  1.00  0.00    -0.387 OA
ATOM     36  H   UNL     1     -36.256   6.934  85.730  1.00  0.00     0.211 HD
ENDBRANCH  30  35
BRANCH  31  37
ATOM     37  C   UNL     1     -34.498   4.094  82.113  1.00  0.00     0.191 C 
BRANCH  37  38
ATOM     38  O   UNL     1     -33.762   3.330  83.032  1.00  0.00    -0.394 OA
ATOM     39  H   UNL     1     -33.070   2.842  82.512  1.00  0.00     0.210 HD
ENDBRANCH  37  38
ENDBRANCH  31  37
BRANCH  32  40
ATOM     40  O   UNL     1     -36.080   4.850  85.125  1.00  0.00    -0.387 OA
ATOM     41  H   UNL     1     -35.462   5.076  85.871  1.00  0.00     0.211 HD
ENDBRANCH  32  40
ENDBRANCH   1  27
TORSDOF 12
ENDMDL
MODEL 5
REMARK VINA RESULT:    -6.670      2.716      6.487
REMARK INTER + INTRA:         -11.253
REMARK INTER:                 -10.017
REMARK INTRA:                  -1.236
REMARK UNBOUND:                -1.464
REMARK SMILES O=c1c(O[C@H]2O[C@@H](CO)[C@H](O)[C@H](O)[C@H]2O)c(-c2ccc(O)c(O)c2)oc2cc(O)cc(O)c12
REMARK SMILES IDX 4 1 3 2 16 3 25 4 2 5 26 6 1 7 33 8 27 9 31 10 28 11 30 12
REMARK SMILES IDX 17 13 18 14 19 15 20 16 24 17 22 18 21 19 23 21 32 23 29 25
REMARK SMILES IDX 5 27 14 28 6 29 12 30 7 31 10 32 15 33 13 35 8 37 9 38 11 40
REMARK H PARENT 21 20 23 22 32 24 29 26 15 34 13 36 9 39 11 41
REMARK Flexibility Score: inf
ROOT
ATOM      1  O   UNL     1     -37.975   5.370  81.911  1.00  0.00    -0.454 OA
ENDROOT
BRANCH   1   2
ATOM      2  C   UNL     1     -38.664   4.750  80.855  1.00  0.00     0.214 A 
ATOM      3  C   UNL     1     -38.114   4.619  79.562  1.00  0.00     0.180 A 
ATOM      4  O   UNL     1     -38.848   4.119  78.576  1.00  0.00    -0.452 OA
ATOM      5  C   UNL     1     -39.968   4.293  81.079  1.00  0.00     0.239 A 
ATOM      6  C   UNL     1     -40.099   3.710  78.736  1.00  0.00     0.146 A 
ATOM      7  O   UNL     1     -40.463   4.385  82.235  1.00  0.00    -0.285 OA
ATOM      8  C   UNL     1     -40.721   3.776  80.004  1.00  0.00     0.111 A 
ATOM      9  C   UNL     1     -40.797   3.214  77.632  1.00  0.00     0.094 A 
ATOM     10  C   UNL     1     -42.065   3.350  80.137  1.00  0.00     0.134 A 
ATOM     11  C   UNL     1     -42.128   2.809  77.765  1.00  0.00     0.123 A 
ATOM     12  C   UNL     1     -42.758   2.884  79.008  1.00  0.00     0.093 A 
BRANCH   3  13
ATOM     13  C   UNL     1     -36.733   5.011  79.251  1.00  0.00     0.025 A 
ATOM     14  C   UNL     1     -35.670   4.284  79.799  1.00  0.00     0.016 A 
ATOM     15  C   UNL     1     -34.354   4.707  79.596  1.00  0.00     0.051 A 
ATOM     16  C   UNL     1     -34.091   5.881  78.880  1.00  0.00     0.157 A 
ATOM     17  C   UNL     1     -36.474   6.175  78.509  1.00  0.00     0.062 A 
ATOM     18  C   UNL     1     -35.155   6.616  78.327  1.00  0.00     0.158 A 
BRANCH  16  19
ATOM     19  O   UNL     1     -32.770   6.310  78.746  1.00  0.00    -0.504 OA
ATOM     20  H   UNL     1     -32.538   7.255  78.466  1.00  0.00     0.293 HD
ENDBRANCH  16  19
BRANCH  18  21
ATOM     21  O   UNL     1     -34.892   7.786  77.617  1.00  0.00    -0.504 OA
ATOM     22  H   UNL     1     -34.383   8.558  78.030  1.00  0.00     0.293 HD
ENDBRANCH  18  21
ENDBRANCH   3  13
BRANCH  10  23
ATOM     23  O   UNL     1     -42.716   3.392  81.372  1.00  0.00    -0.507 OA
ATOM     24  H   UNL     1     -42.294   3.011  82.210  1.00  0.00     0.293 HD
ENDBRANCH  10  23
BRANCH  11  25
ATOM     25  O   UNL     1     -42.837   2.333  76.664  1.00  0.00    -0.508 OA
ATOM     26  H   UNL     1     -43.612   2.853  76.263  1.00  0.00     0.293 HD
ENDBRANCH  11  25
ENDBRANCH   1   2
BRANCH   1  27
ATOM     27  C   UNL     1     -37.793   6.786  82.006  1.00  0.00     0.339 C 
ATOM     28  C   UNL     1     -37.676   7.215  83.499  1.00  0.00     0.214 C 
ATOM     29  O   UNL     1     -38.887   7.436  81.375  1.00  0.00    -0.332 OA
ATOM     30  C   UNL     1     -38.618   8.394  83.808  1.00  0.00     0.180 C 
ATOM     31  C   UNL     1     -38.653   8.833  81.293  1.00  0.00     0.179 C 
ATOM     32  C   UNL     1     -38.514   9.471  82.709  1.00  0.00     0.177 C 
BRANCH  28  33
ATOM     33  O   UNL     1     -37.989   6.150  84.360  1.00  0.00    -0.384 OA
ATOM     34  H   UNL     1     -38.088   6.536  85.271  1.00  0.00     0.211 HD
ENDBRANCH  28  33
BRANCH  30  35
ATOM     35  O   UNL     1     -38.298   8.936  85.065  1.00  0.00    -0.387 OA
ATOM     36  H   UNL     1     -37.501   9.515  84.934  1.00  0.00     0.211 HD
ENDBRANCH  30  35
BRANCH  31  37
ATOM     37  C   UNL     1     -39.815   9.474  80.519  1.00  0.00     0.191 C 
BRANCH  37  38
ATOM     38  O   UNL     1     -40.509   8.508  79.775  1.00  0.00    -0.394 OA
ATOM     39  H   UNL     1     -41.172   8.995  79.218  1.00  0.00     0.210 HD
ENDBRANCH  37  38
ENDBRANCH  31  37
BRANCH  32  40
ATOM     40  O   UNL     1     -37.277  10.125  82.817  1.00  0.00    -0.387 OA
ATOM     41  H   UNL     1     -36.831  10.049  81.931  1.00  0.00     0.211 HD
ENDBRANCH  32  40
ENDBRANCH   1  27
TORSDOF 12
ENDMDL
MODEL 6
REMARK VINA RESULT:    -6.502      1.814      2.946
REMARK INTER + INTRA:         -11.007
REMARK INTER:                  -9.480
REMARK INTRA:                  -1.527
REMARK UNBOUND:                -1.464
REMARK SMILES O=c1c(O[C@H]2O[C@@H](CO)[C@H](O)[C@H](O)[C@H]2O)c(-c2ccc(O)c(O)c2)oc2cc(O)cc(O)c12
REMARK SMILES IDX 4 1 3 2 16 3 25 4 2 5 26 6 1 7 33 8 27 9 31 10 28 11 30 12
REMARK SMILES IDX 17 13 18 14 19 15 20 16 24 17 22 18 21 19 23 21 32 23 29 25
REMARK SMILES IDX 5 27 14 28 6 29 12 30 7 31 10 32 15 33 13 35 8 37 9 38 11 40
REMARK H PARENT 21 20 23 22 32 24 29 26 15 34 13 36 9 39 11 41
REMARK Flexibility Score: inf
ROOT
ATOM      1  O   UNL     1     -36.883   3.772  80.485  1.00  0.00    -0.454 OA
ENDROOT
BRANCH   1   2
ATOM      2  C   UNL     1     -36.683   4.957  79.758  1.00  0.00     0.214 A 
ATOM      3  C   UNL     1     -37.692   5.542  78.966  1.00  0.00     0.180 A 
ATOM      4  O   UNL     1     -37.418   6.604  78.217  1.00  0.00    -0.452 OA
ATOM      5  C   UNL     1     -35.415   5.551  79.777  1.00  0.00     0.239 A 
ATOM      6  C   UNL     1     -36.221   7.174  78.176  1.00  0.00     0.146 A 
ATOM      7  O   UNL     1     -34.510   5.050  80.498  1.00  0.00    -0.285 OA
ATOM      8  C   UNL     1     -35.158   6.673  78.961  1.00  0.00     0.111 A 
ATOM      9  C   UNL     1     -36.026   8.278  77.342  1.00  0.00     0.094 A 
ATOM     10  C   UNL     1     -33.887   7.293  78.878  1.00  0.00     0.134 A 
ATOM     11  C   UNL     1     -34.766   8.877  77.254  1.00  0.00     0.123 A 
ATOM     12  C   UNL     1     -33.704   8.382  78.011  1.00  0.00     0.093 A 
BRANCH   3  13
ATOM     13  C   UNL     1     -39.067   5.026  78.935  1.00  0.00     0.025 A 
ATOM     14  C   UNL     1     -39.969   5.408  79.935  1.00  0.00     0.016 A 
ATOM     15  C   UNL     1     -41.247   4.846  79.977  1.00  0.00     0.051 A 
ATOM     16  C   UNL     1     -41.620   3.867  79.048  1.00  0.00     0.157 A 
ATOM     17  C   UNL     1     -39.445   4.064  77.984  1.00  0.00     0.062 A 
ATOM     18  C   UNL     1     -40.718   3.479  78.042  1.00  0.00     0.158 A 
BRANCH  16  19
ATOM     19  O   UNL     1     -42.881   3.280  79.154  1.00  0.00    -0.504 OA
ATOM     20  H   UNL     1     -43.267   2.992  80.046  1.00  0.00     0.293 HD
ENDBRANCH  16  19
BRANCH  18  21
ATOM     21  O   UNL     1     -41.089   2.503  77.119  1.00  0.00    -0.504 OA
ATOM     22  H   UNL     1     -42.009   2.078  77.131  1.00  0.00     0.293 HD
ENDBRANCH  18  21
ENDBRANCH   3  13
BRANCH  10  23
ATOM     23  O   UNL     1     -32.811   6.835  79.640  1.00  0.00    -0.507 OA
ATOM     24  H   UNL     1     -31.855   6.913  79.315  1.00  0.00     0.293 HD
ENDBRANCH  10  23
BRANCH  11  25
ATOM     25  O   UNL     1     -34.558   9.965  76.409  1.00  0.00    -0.508 OA
ATOM     26  H   UNL     1     -33.931  10.724  76.660  1.00  0.00     0.293 HD
ENDBRANCH  11  25
ENDBRANCH   1   2
BRANCH   1  27
ATOM     27  C   UNL     1     -37.228   3.751  81.874  1.00  0.00     0.339 C 
ATOM     28  C   UNL     1     -38.358   2.711  82.132  1.00  0.00     0.214 C 
ATOM     29  O   UNL     1     -37.635   5.053  82.268  1.00  0.00    -0.332 OA
ATOM     30  C   UNL     1     -39.500   3.334  82.958  1.00  0.00     0.180 C 
ATOM     31  C   UNL     1     -37.812   5.111  83.675  1.00  0.00     0.179 C 
ATOM     32  C   UNL     1     -38.932   4.133  84.148  1.00  0.00     0.177 C 
BRANCH  28  33
ATOM     33  O   UNL     1     -38.889   2.225  80.925  1.00  0.00    -0.384 OA
ATOM     34  H   UNL     1     -39.566   2.887  80.622  1.00  0.00     0.211 HD
ENDBRANCH  28  33
BRANCH  30  35
ATOM     35  O   UNL     1     -40.362   2.320  83.409  1.00  0.00    -0.387 OA
ATOM     36  H   UNL     1     -39.871   1.461  83.315  1.00  0.00     0.211 HD
ENDBRANCH  30  35
BRANCH  31  37
ATOM     37  C   UNL     1     -38.156   6.558  84.060  1.00  0.00     0.191 C 
BRANCH  37  38
ATOM     38  O   UNL     1     -39.323   6.982  83.407  1.00  0.00    -0.394 OA
ATOM     39  H   UNL     1     -39.574   7.858  83.804  1.00  0.00     0.210 HD
ENDBRANCH  37  38
ENDBRANCH  31  37
BRANCH  32  40
ATOM     40  O   UNL     1     -38.413   3.242  85.100  1.00  0.00    -0.387 OA
ATOM     41  H   UNL     1     -38.522   3.672  85.990  1.00  0.00     0.211 HD
ENDBRANCH  32  40
ENDBRANCH   1  27
TORSDOF 12
ENDMDL
MODEL 7
REMARK VINA RESULT:    -6.410      2.195      3.432
REMARK INTER + INTRA:         -10.872
REMARK INTER:                  -9.690
REMARK INTRA:                  -1.182
REMARK UNBOUND:                -1.464
REMARK SMILES O=c1c(O[C@H]2O[C@@H](CO)[C@H](O)[C@H](O)[C@H]2O)c(-c2ccc(O)c(O)c2)oc2cc(O)cc(O)c12
REMARK SMILES IDX 4 1 3 2 16 3 25 4 2 5 26 6 1 7 33 8 27 9 31 10 28 11 30 12
REMARK SMILES IDX 17 13 18 14 19 15 20 16 24 17 22 18 21 19 23 21 32 23 29 25
REMARK SMILES IDX 5 27 14 28 6 29 12 30 7 31 10 32 15 33 13 35 8 37 9 38 11 40
REMARK H PARENT 21 20 23 22 32 24 29 26 15 34 13 36 9 39 11 41
REMARK Flexibility Score: inf
ROOT
ATOM      1  O   UNL     1     -37.051   4.068  81.777  1.00  0.00    -0.454 OA
ENDROOT
BRANCH   1   2
ATOM      2  C   UNL     1     -36.577   5.154  81.023  1.00  0.00     0.214 A 
ATOM      3  C   UNL     1     -36.988   5.395  79.695  1.00  0.00     0.180 A 
ATOM      4  O   UNL     1     -36.430   6.374  78.994  1.00  0.00    -0.452 OA
ATOM      5  C   UNL     1     -35.619   6.001  81.593  1.00  0.00     0.239 A 
ATOM      6  C   UNL     1     -35.492   7.175  79.483  1.00  0.00     0.146 A 
ATOM      7  O   UNL     1     -35.260   5.810  82.787  1.00  0.00    -0.285 OA
ATOM      8  C   UNL     1     -35.042   7.027  80.815  1.00  0.00     0.111 A 
ATOM      9  C   UNL     1     -34.953   8.167  78.661  1.00  0.00     0.094 A 
ATOM     10  C   UNL     1     -34.025   7.885  81.299  1.00  0.00     0.134 A 
ATOM     11  C   UNL     1     -33.939   9.002  79.139  1.00  0.00     0.123 A 
ATOM     12  C   UNL     1     -33.475   8.855  80.447  1.00  0.00     0.093 A 
BRANCH   3  13
ATOM     13  C   UNL     1     -38.033   4.599  79.038  1.00  0.00     0.025 A 
ATOM     14  C   UNL     1     -39.285   5.174  78.793  1.00  0.00     0.016 A 
ATOM     15  C   UNL     1     -40.320   4.399  78.263  1.00  0.00     0.051 A 
ATOM     16  C   UNL     1     -40.126   3.036  78.014  1.00  0.00     0.157 A 
ATOM     17  C   UNL     1     -37.824   3.237  78.764  1.00  0.00     0.062 A 
ATOM     18  C   UNL     1     -38.871   2.452  78.258  1.00  0.00     0.158 A 
BRANCH  16  19
ATOM     19  O   UNL     1     -41.197   2.275  77.543  1.00  0.00    -0.504 OA
ATOM     20  H   UNL     1     -41.282   2.014  76.568  1.00  0.00     0.293 HD
ENDBRANCH  16  19
BRANCH  18  21
ATOM     21  O   UNL     1     -38.679   1.094  78.013  1.00  0.00    -0.504 OA
ATOM     22  H   UNL     1     -39.312   0.390  78.375  1.00  0.00     0.293 HD
ENDBRANCH  18  21
ENDBRANCH   3  13
BRANCH  10  23
ATOM     23  O   UNL     1     -33.555   7.777  82.610  1.00  0.00    -0.507 OA
ATOM     24  H   UNL     1     -33.050   6.959  82.929  1.00  0.00     0.293 HD
ENDBRANCH  10  23
BRANCH  11  25
ATOM     25  O   UNL     1     -33.381   9.980  78.319  1.00  0.00    -0.508 OA
ATOM     26  H   UNL     1     -32.440   9.892  77.947  1.00  0.00     0.293 HD
ENDBRANCH  11  25
ENDBRANCH   1   2
BRANCH   1  27
ATOM     27  C   UNL     1     -38.219   4.132  82.600  1.00  0.00     0.339 C 
ATOM     28  C   UNL     1     -38.101   3.127  83.783  1.00  0.00     0.214 C 
ATOM     29  O   UNL     1     -39.361   3.849  81.804  1.00  0.00    -0.332 OA
ATOM     30  C   UNL     1     -39.372   2.265  83.902  1.00  0.00     0.180 C 
ATOM     31  C   UNL     1     -40.550   4.079  82.545  1.00  0.00     0.179 C 
ATOM     32  C   UNL     1     -40.634   3.144  83.791  1.00  0.00     0.177 C 
BRANCH  28  33
ATOM     33  O   UNL     1     -36.994   2.277  83.620  1.00  0.00    -0.384 OA
ATOM     34  H   UNL     1     -37.159   1.477  84.186  1.00  0.00     0.211 HD
ENDBRANCH  28  33
BRANCH  30  35
ATOM     35  O   UNL     1     -39.358   1.571  85.124  1.00  0.00    -0.387 OA
ATOM     36  H   UNL     1     -40.175   1.845  85.620  1.00  0.00     0.211 HD
ENDBRANCH  30  35
BRANCH  31  37
ATOM     37  C   UNL     1     -41.751   3.852  81.614  1.00  0.00     0.191 C 
BRANCH  37  38
ATOM     38  O   UNL     1     -41.758   2.539  81.122  1.00  0.00    -0.394 OA
ATOM     39  H   UNL     1     -41.485   1.948  81.873  1.00  0.00     0.210 HD
ENDBRANCH  37  38
ENDBRANCH  31  37
BRANCH  32  40
ATOM     40  O   UNL     1     -40.764   3.917  84.956  1.00  0.00    -0.387 OA
ATOM     41  H   UNL     1     -41.738   4.003  85.138  1.00  0.00     0.211 HD
ENDBRANCH  32  40
ENDBRANCH   1  27
TORSDOF 12
ENDMDL
MODEL 8
REMARK VINA RESULT:    -6.196      2.007      7.775
REMARK INTER + INTRA:         -10.557
REMARK INTER:                  -9.398
REMARK INTRA:                  -1.159
REMARK UNBOUND:                -1.464
REMARK SMILES O=c1c(O[C@H]2O[C@@H](CO)[C@H](O)[C@H](O)[C@H]2O)c(-c2ccc(O)c(O)c2)oc2cc(O)cc(O)c12
REMARK SMILES IDX 4 1 3 2 16 3 25 4 2 5 26 6 1 7 33 8 27 9 31 10 28 11 30 12
REMARK SMILES IDX 17 13 18 14 19 15 20 16 24 17 22 18 21 19 23 21 32 23 29 25
REMARK SMILES IDX 5 27 14 28 6 29 12 30 7 31 10 32 15 33 13 35 8 37 9 38 11 40
REMARK H PARENT 21 20 23 22 32 24 29 26 15 34 13 36 9 39 11 41
REMARK Flexibility Score: inf
ROOT
ATOM      1  O   UNL     1     -38.983   5.284  77.953  1.00  0.00    -0.454 OA
ENDROOT
BRANCH   1   2
ATOM      2  C   UNL     1     -39.024   4.920  79.309  1.00  0.00     0.214 A 
ATOM      3  C   UNL     1     -37.875   4.905  80.127  1.00  0.00     0.180 A 
ATOM      4  O   UNL     1     -37.952   4.453  81.373  1.00  0.00    -0.452 OA
ATOM      5  C   UNL     1     -40.244   4.504  79.858  1.00  0.00     0.239 A 
ATOM      6  C   UNL     1     -39.078   4.015  81.919  1.00  0.00     0.146 A 
ATOM      7  O   UNL     1     -41.283   4.534  79.144  1.00  0.00    -0.285 OA
ATOM      8  C   UNL     1     -40.285   4.023  81.183  1.00  0.00     0.111 A 
ATOM      9  C   UNL     1     -39.054   3.542  83.233  1.00  0.00     0.094 A 
ATOM     10  C   UNL     1     -41.466   3.528  81.789  1.00  0.00     0.134 A 
ATOM     11  C   UNL     1     -40.220   3.042  83.821  1.00  0.00     0.123 A 
ATOM     12  C   UNL     1     -41.414   3.029  83.100  1.00  0.00     0.093 A 
BRANCH   3  13
ATOM     13  C   UNL     1     -36.568   5.384  79.657  1.00  0.00     0.025 A 
ATOM     14  C   UNL     1     -35.532   4.466  79.449  1.00  0.00     0.016 A 
ATOM     15  C   UNL     1     -34.256   4.917  79.102  1.00  0.00     0.051 A 
ATOM     16  C   UNL     1     -33.994   6.288  79.001  1.00  0.00     0.157 A 
ATOM     17  C   UNL     1     -36.318   6.760  79.532  1.00  0.00     0.062 A 
ATOM     18  C   UNL     1     -35.030   7.215  79.210  1.00  0.00     0.158 A 
BRANCH  16  19
ATOM     19  O   UNL     1     -32.696   6.709  78.713  1.00  0.00    -0.504 OA
ATOM     20  H   UNL     1     -32.137   6.272  77.989  1.00  0.00     0.293 HD
ENDBRANCH  16  19
BRANCH  18  21
ATOM     21  O   UNL     1     -34.768   8.581  79.113  1.00  0.00    -0.504 OA
ATOM     22  H   UNL     1     -35.395   9.212  78.628  1.00  0.00     0.293 HD
ENDBRANCH  18  21
ENDBRANCH   3  13
BRANCH  10  23
ATOM     23  O   UNL     1     -42.681   3.522  81.100  1.00  0.00    -0.507 OA
ATOM     24  H   UNL     1     -43.087   2.666  80.742  1.00  0.00     0.293 HD
ENDBRANCH  10  23
BRANCH  11  25
ATOM     25  O   UNL     1     -40.200   2.549  85.124  1.00  0.00    -0.508 OA
ATOM     26  H   UNL     1     -40.324   1.560  85.323  1.00  0.00     0.293 HD
ENDBRANCH  11  25
ENDBRANCH   1   2
BRANCH   1  27
ATOM     27  C   UNL     1     -39.585   6.476  77.441  1.00  0.00     0.339 C 
ATOM     28  C   UNL     1     -38.675   7.113  76.349  1.00  0.00     0.214 C 
ATOM     29  O   UNL     1     -39.802   7.381  78.514  1.00  0.00    -0.332 OA
ATOM     30  C   UNL     1     -38.464   8.615  76.617  1.00  0.00     0.180 C 
ATOM     31  C   UNL     1     -40.559   8.499  78.073  1.00  0.00     0.179 C 
ATOM     32  C   UNL     1     -39.803   9.296  76.965  1.00  0.00     0.177 C 
BRANCH  28  33
ATOM     33  O   UNL     1     -37.420   6.483  76.302  1.00  0.00    -0.384 OA
ATOM     34  H   UNL     1     -36.739   7.204  76.226  1.00  0.00     0.211 HD
ENDBRANCH  28  33
BRANCH  30  35
ATOM     35  O   UNL     1     -37.881   9.218  75.489  1.00  0.00    -0.387 OA
ATOM     36  H   UNL     1     -38.443  10.004  75.260  1.00  0.00     0.211 HD
ENDBRANCH  30  35
BRANCH  31  37
ATOM     37  C   UNL     1     -40.848   9.396  79.286  1.00  0.00     0.191 C 
BRANCH  37  38
ATOM     38  O   UNL     1     -40.093   8.989  80.396  1.00  0.00    -0.394 OA
ATOM     39  H   UNL     1     -40.117   7.996  80.413  1.00  0.00     0.210 HD
ENDBRANCH  37  38
ENDBRANCH  31  37
BRANCH  32  40
ATOM     40  O   UNL     1     -40.598   9.372  75.810  1.00  0.00    -0.387 OA
ATOM     41  H   UNL     1     -40.232  10.113  75.255  1.00  0.00     0.211 HD
ENDBRANCH  32  40
ENDBRANCH   1  27
TORSDOF 12
ENDMDL
MODEL 9
REMARK VINA RESULT:    -6.123      2.177      6.142
REMARK INTER + INTRA:         -10.451
REMARK INTER:                  -9.005
REMARK INTRA:                  -1.445
REMARK UNBOUND:                -1.464
REMARK SMILES O=c1c(O[C@H]2O[C@@H](CO)[C@H](O)[C@H](O)[C@H]2O)c(-c2ccc(O)c(O)c2)oc2cc(O)cc(O)c12
REMARK SMILES IDX 4 1 3 2 16 3 25 4 2 5 26 6 1 7 33 8 27 9 31 10 28 11 30 12
REMARK SMILES IDX 17 13 18 14 19 15 20 16 24 17 22 18 21 19 23 21 32 23 29 25
REMARK SMILES IDX 5 27 14 28 6 29 12 30 7 31 10 32 15 33 13 35 8 37 9 38 11 40
REMARK H PARENT 21 20 23 22 32 24 29 26 15 34 13 36 9 39 11 41
REMARK Flexibility Score: inf
ROOT
ATOM      1  O   UNL     1     -37.908   7.219  81.404  1.00  0.00    -0.454 OA
ENDROOT
BRANCH   1   2
ATOM      2  C   UNL     1     -38.483   6.336  80.476  1.00  0.00     0.214 A 
ATOM      3  C   UNL     1     -38.135   6.338  79.109  1.00  0.00     0.180 A 
ATOM      4  O   UNL     1     -38.784   5.555  78.256  1.00  0.00    -0.452 OA
ATOM      5  C   UNL     1     -39.481   5.457  80.913  1.00  0.00     0.239 A 
ATOM      6  C   UNL     1     -39.761   4.736  78.622  1.00  0.00     0.146 A 
ATOM      7  O   UNL     1     -39.787   5.430  82.136  1.00  0.00    -0.285 OA
ATOM      8  C   UNL     1     -40.156   4.646  79.976  1.00  0.00     0.111 A 
ATOM      9  C   UNL     1     -40.398   3.963  77.647  1.00  0.00     0.094 A 
ATOM     10  C   UNL     1     -41.217   3.777  80.329  1.00  0.00     0.134 A 
ATOM     11  C   UNL     1     -41.453   3.117  77.999  1.00  0.00     0.123 A 
ATOM     12  C   UNL     1     -41.863   3.032  79.330  1.00  0.00     0.093 A 
BRANCH   3  13
ATOM     13  C   UNL     1     -37.056   7.179  78.573  1.00  0.00     0.025 A 
ATOM     14  C   UNL     1     -37.377   8.361  77.894  1.00  0.00     0.016 A 
ATOM     15  C   UNL     1     -36.369   9.117  77.290  1.00  0.00     0.051 A 
ATOM     16  C   UNL     1     -35.041   8.678  77.322  1.00  0.00     0.157 A 
ATOM     17  C   UNL     1     -35.721   6.747  78.631  1.00  0.00     0.062 A 
ATOM     18  C   UNL     1     -34.712   7.491  78.001  1.00  0.00     0.158 A 
BRANCH  16  19
ATOM     19  O   UNL     1     -34.066   9.423  76.657  1.00  0.00    -0.504 OA
ATOM     20  H   UNL     1     -33.138   9.559  77.042  1.00  0.00     0.293 HD
ENDBRANCH  16  19
BRANCH  18  21
ATOM     21  O   UNL     1     -33.390   7.053  78.030  1.00  0.00    -0.504 OA
ATOM     22  H   UNL     1     -32.953   6.727  78.884  1.00  0.00     0.293 HD
ENDBRANCH  18  21
ENDBRANCH   3  13
BRANCH  10  23
ATOM     23  O   UNL     1     -41.635   3.652  81.656  1.00  0.00    -0.507 OA
ATOM     24  H   UNL     1     -40.996   3.379  82.393  1.00  0.00     0.293 HD
ENDBRANCH  10  23
BRANCH  11  25
ATOM     25  O   UNL     1     -42.107   2.360  77.030  1.00  0.00    -0.508 OA
ATOM     26  H   UNL     1     -42.993   1.900  77.219  1.00  0.00     0.293 HD
ENDBRANCH  11  25
ENDBRANCH   1   2
BRANCH   1  27
ATOM     27  C   UNL     1     -36.845   6.847  82.288  1.00  0.00     0.339 C 
ATOM     28  C   UNL     1     -35.756   7.960  82.319  1.00  0.00     0.214 C 
ATOM     29  O   UNL     1     -36.296   5.611  81.855  1.00  0.00    -0.332 OA
ATOM     30  C   UNL     1     -34.352   7.363  82.108  1.00  0.00     0.180 C 
ATOM     31  C   UNL     1     -35.362   5.124  82.806  1.00  0.00     0.179 C 
ATOM     32  C   UNL     1     -34.163   6.106  82.981  1.00  0.00     0.177 C 
BRANCH  28  33
ATOM     33  O   UNL     1     -35.988   8.928  81.326  1.00  0.00    -0.384 OA
ATOM     34  H   UNL     1     -35.477   8.643  80.523  1.00  0.00     0.211 HD
ENDBRANCH  28  33
BRANCH  30  35
ATOM     35  O   UNL     1     -33.378   8.329  82.413  1.00  0.00    -0.387 OA
ATOM     36  H   UNL     1     -33.137   8.774  81.558  1.00  0.00     0.211 HD
ENDBRANCH  30  35
BRANCH  31  37
ATOM     37  C   UNL     1     -34.872   3.744  82.340  1.00  0.00     0.191 C 
BRANCH  37  38
ATOM     38  O   UNL     1     -33.723   3.360  83.048  1.00  0.00    -0.394 OA
ATOM     39  H   UNL     1     -33.501   2.436  82.758  1.00  0.00     0.210 HD
ENDBRANCH  37  38
ENDBRANCH  31  37
BRANCH  32  40
ATOM     40  O   UNL     1     -34.055   6.489  84.327  1.00  0.00    -0.387 OA
ATOM     41  H   UNL     1     -34.587   7.322  84.435  1.00  0.00     0.211 HD
ENDBRANCH  32  40
ENDBRANCH   1  27
TORSDOF 12
ENDMDL
