MODEL 1
REMARK VINA RESULT:     2.933      0.000      0.000
REMARK INTER + INTRA:           5.184
REMARK INTER:                   5.676
REMARK INTRA:                  -0.492
REMARK UNBOUND:                -0.492
REMARK SMILES CCCCCCCCCCCCCCCCCC(=O)[O-]
REMARK SMILES IDX 10 1 11 2 12 3 13 4 14 5 15 6 16 7 17 8 18 9 19 10 20 11
REMARK SMILES IDX 9 12 8 13 7 14 6 15 5 16 4 17 3 18 2 19 1 20
REMARK H PARENT
REMARK Flexibility Score: inf
ROOT
ATOM      1  C   UNL     1       2.696 -27.376  -7.375  1.00  0.00     0.000 C 
ENDROOT
BRANCH   1   2
ATOM      2  C   UNL     1       2.517 -26.049  -6.618  1.00  0.00     0.000 C 
BRANCH   2   3
ATOM      3  C   UNL     1       1.289 -25.217  -7.037  1.00  0.00     0.000 C 
BRANCH   3   4
ATOM      4  C   UNL     1       1.111 -23.886  -6.283  1.00  0.00     0.000 C 
BRANCH   4   5
ATOM      5  C   UNL     1      -0.086 -23.066  -6.795  1.00  0.00     0.000 C 
BRANCH   5   6
ATOM      6  C   UNL     1      -0.840 -22.348  -5.665  1.00  0.00     0.000 C 
BRANCH   6   7
ATOM      7  C   UNL     1      -2.350 -22.243  -5.930  1.00  0.00     0.006 C 
BRANCH   7   8
ATOM      8  C   UNL     1      -2.862 -20.829  -5.636  1.00  0.00     0.053 C 
BRANCH   8   9
ATOM      9  C   UNL     1      -4.182 -20.602  -6.303  1.00  0.00     0.041 C 
ATOM     10  O   UNL     1      -4.794 -21.562  -6.840  1.00  0.00    -0.550 OA
ATOM     11  O   UNL     1      -4.708 -19.321  -6.384  1.00  0.00    -0.550 OA
ENDBRANCH   8   9
ENDBRANCH   7   8
ENDBRANCH   6   7
ENDBRANCH   5   6
ENDBRANCH   4   5
ENDBRANCH   3   4
ENDBRANCH   2   3
ENDBRANCH   1   2
BRANCH   1  12
ATOM     12  C   UNL     1       2.290 -28.598  -6.539  1.00  0.00     0.000 C 
BRANCH  12  13
ATOM     13  C   UNL     1       2.882 -29.887  -7.125  1.00  0.00    -0.000 C 
BRANCH  13  14
ATOM     14  C   UNL     1       2.908 -31.048  -6.114  1.00  0.00    -0.000 C 
BRANCH  14  15
ATOM     15  C   UNL     1       1.587 -31.835  -5.988  1.00  0.00    -0.000 C 
BRANCH  15  16
ATOM     16  C   UNL     1       0.694 -31.419  -4.806  1.00  0.00    -0.000 C 
BRANCH  16  17
ATOM     17  C   UNL     1      -0.752 -31.925  -4.947  1.00  0.00    -0.000 C 
BRANCH  17  18
ATOM     18  C   UNL     1      -1.703 -31.285  -3.924  1.00  0.00    -0.000 C 
BRANCH  18  19
ATOM     19  C   UNL     1      -3.022 -30.821  -4.559  1.00  0.00    -0.003 C 
ATOM     20  C   UNL     1      -3.713 -31.968  -5.290  1.00  0.00     0.004 C 
ENDBRANCH  18  19
ENDBRANCH  17  18
ENDBRANCH  16  17
ENDBRANCH  15  16
ENDBRANCH  14  15
ENDBRANCH  13  14
ENDBRANCH  12  13
ENDBRANCH   1  12
TORSDOF 16
ENDMDL
MODEL 2
REMARK VINA RESULT:     3.384      1.168      2.533
REMARK INTER + INTRA:           6.058
REMARK INTER:                   6.711
REMARK INTRA:                  -0.653
REMARK UNBOUND:                -0.492
REMARK SMILES CCCCCCCCCCCCCCCCCC(=O)[O-]
REMARK SMILES IDX 10 1 11 2 12 3 13 4 14 5 15 6 16 7 17 8 18 9 19 10 20 11
REMARK SMILES IDX 9 12 8 13 7 14 6 15 5 16 4 17 3 18 2 19 1 20
REMARK H PARENT
REMARK Flexibility Score: inf
ROOT
ATOM      1  C   UNL     1       2.630 -29.866  -7.130  1.00  0.00     0.000 C 
ENDROOT
BRANCH   1   2
ATOM      2  C   UNL     1       2.507 -28.511  -6.413  1.00  0.00     0.000 C 
BRANCH   2   3
ATOM      3  C   UNL     1       2.369 -27.288  -7.343  1.00  0.00     0.000 C 
BRANCH   3   4
ATOM      4  C   UNL     1       2.311 -25.925  -6.628  1.00  0.00     0.000 C 
BRANCH   4   5
ATOM      5  C   UNL     1       1.163 -25.035  -7.135  1.00  0.00     0.000 C 
BRANCH   5   6
ATOM      6  C   UNL     1       0.965 -23.776  -6.276  1.00  0.00     0.000 C 
BRANCH   6   7
ATOM      7  C   UNL     1      -0.266 -22.957  -6.695  1.00  0.00     0.006 C 
BRANCH   7   8
ATOM      8  C   UNL     1      -1.226 -22.768  -5.517  1.00  0.00     0.053 C 
BRANCH   8   9
ATOM      9  C   UNL     1      -2.083 -21.560  -5.730  1.00  0.00     0.041 C 
ATOM     10  O   UNL     1      -1.812 -20.480  -5.144  1.00  0.00    -0.550 OA
ATOM     11  O   UNL     1      -3.216 -21.643  -6.528  1.00  0.00    -0.550 OA
ENDBRANCH   8   9
ENDBRANCH   7   8
ENDBRANCH   6   7
ENDBRANCH   5   6
ENDBRANCH   4   5
ENDBRANCH   3   4
ENDBRANCH   2   3
ENDBRANCH   1   2
BRANCH   1  12
ATOM     12  C   UNL     1       2.728 -31.048  -6.155  1.00  0.00     0.000 C 
BRANCH  12  13
ATOM     13  C   UNL     1       1.338 -31.465  -5.654  1.00  0.00    -0.000 C 
BRANCH  13  14
ATOM     14  C   UNL     1       1.124 -31.161  -4.160  1.00  0.00    -0.000 C 
BRANCH  14  15
ATOM     15  C   UNL     1      -0.334 -31.273  -3.672  1.00  0.00    -0.000 C 
BRANCH  15  16
ATOM     16  C   UNL     1      -1.351 -31.683  -4.751  1.00  0.00    -0.000 C 
BRANCH  16  17
ATOM     17  C   UNL     1      -2.808 -31.443  -4.318  1.00  0.00    -0.000 C 
BRANCH  17  18
ATOM     18  C   UNL     1      -3.569 -30.530  -5.291  1.00  0.00    -0.000 C 
BRANCH  18  19
ATOM     19  C   UNL     1      -4.464 -31.319  -6.259  1.00  0.00    -0.003 C 
ATOM     20  C   UNL     1      -3.733 -31.612  -7.566  1.00  0.00     0.004 C 
ENDBRANCH  18  19
ENDBRANCH  17  18
ENDBRANCH  16  17
ENDBRANCH  15  16
ENDBRANCH  14  15
ENDBRANCH  13  14
ENDBRANCH  12  13
ENDBRANCH   1  12
TORSDOF 16
ENDMDL
MODEL 3
REMARK VINA RESULT:     3.850      3.655      8.602
REMARK INTER + INTRA:           6.959
REMARK INTER:                   7.599
REMARK INTRA:                  -0.639
REMARK UNBOUND:                -0.492
REMARK SMILES CCCCCCCCCCCCCCCCCC(=O)[O-]
REMARK SMILES IDX 10 1 11 2 12 3 13 4 14 5 15 6 16 7 17 8 18 9 19 10 20 11
REMARK SMILES IDX 9 12 8 13 7 14 6 15 5 16 4 17 3 18 2 19 1 20
REMARK H PARENT
REMARK Flexibility Score: inf
ROOT
ATOM      1  C   UNL     1       2.384 -28.520  -6.362  1.00  0.00     0.000 C 
ENDROOT
BRANCH   1   2
ATOM      2  C   UNL     1       2.390 -29.900  -7.041  1.00  0.00     0.000 C 
BRANCH   2   3
ATOM      3  C   UNL     1       3.121 -31.010  -6.260  1.00  0.00     0.000 C 
BRANCH   3   4
ATOM      4  C   UNL     1       2.289 -31.693  -5.159  1.00  0.00     0.000 C 
BRANCH   4   5
ATOM      5  C   UNL     1       0.792 -31.771  -5.505  1.00  0.00     0.000 C 
BRANCH   5   6
ATOM      6  C   UNL     1      -0.107 -31.274  -4.362  1.00  0.00     0.000 C 
BRANCH   6   7
ATOM      7  C   UNL     1      -1.422 -32.063  -4.253  1.00  0.00     0.006 C 
BRANCH   7   8
ATOM      8  C   UNL     1      -2.230 -31.966  -5.550  1.00  0.00     0.053 C 
BRANCH   8   9
ATOM      9  C   UNL     1      -3.693 -31.881  -5.250  1.00  0.00     0.041 C 
ATOM     10  O   UNL     1      -4.526 -31.767  -6.186  1.00  0.00    -0.550 OA
ATOM     11  O   UNL     1      -4.133 -31.867  -3.934  1.00  0.00    -0.550 OA
ENDBRANCH   8   9
ENDBRANCH   7   8
ENDBRANCH   6   7
ENDBRANCH   5   6
ENDBRANCH   4   5
ENDBRANCH   3   4
ENDBRANCH   2   3
ENDBRANCH   1   2
BRANCH   1  12
ATOM     12  C   UNL     1       2.367 -27.361  -7.370  1.00  0.00     0.000 C 
BRANCH  12  13
ATOM     13  C   UNL     1       2.388 -26.005  -6.650  1.00  0.00    -0.000 C 
BRANCH  13  14
ATOM     14  C   UNL     1       1.164 -25.132  -6.983  1.00  0.00    -0.000 C 
BRANCH  14  15
ATOM     15  C   UNL     1       1.110 -23.776  -6.251  1.00  0.00    -0.000 C 
BRANCH  15  16
ATOM     16  C   UNL     1      -0.142 -22.930  -6.542  1.00  0.00    -0.000 C 
BRANCH  16  17
ATOM     17  C   UNL     1      -0.803 -22.386  -5.263  1.00  0.00    -0.000 C 
BRANCH  17  18
ATOM     18  C   UNL     1      -2.337 -22.374  -5.353  1.00  0.00    -0.000 C 
BRANCH  18  19
ATOM     19  C   UNL     1      -2.863 -21.235  -6.240  1.00  0.00    -0.003 C 
ATOM     20  C   UNL     1      -4.366 -21.366  -6.467  1.00  0.00     0.004 C 
ENDBRANCH  18  19
ENDBRANCH  17  18
ENDBRANCH  16  17
ENDBRANCH  15  16
ENDBRANCH  14  15
ENDBRANCH  13  14
ENDBRANCH  12  13
ENDBRANCH   1  12
TORSDOF 16
ENDMDL
MODEL 4
REMARK VINA RESULT:     4.008      3.736      8.952
REMARK INTER + INTRA:           7.264
REMARK INTER:                   7.890
REMARK INTRA:                  -0.626
REMARK UNBOUND:                -0.492
REMARK SMILES CCCCCCCCCCCCCCCCCC(=O)[O-]
REMARK SMILES IDX 10 1 11 2 12 3 13 4 14 5 15 6 16 7 17 8 18 9 19 10 20 11
REMARK SMILES IDX 9 12 8 13 7 14 6 15 5 16 4 17 3 18 2 19 1 20
REMARK H PARENT
REMARK Flexibility Score: inf
ROOT
ATOM      1  C   UNL     1       2.417 -27.169  -7.386  1.00  0.00     0.000 C 
ENDROOT
BRANCH   1   2
ATOM      2  C   UNL     1       2.459 -28.399  -6.463  1.00  0.00     0.000 C 
BRANCH   2   3
ATOM      3  C   UNL     1       2.582 -29.756  -7.186  1.00  0.00     0.000 C 
BRANCH   3   4
ATOM      4  C   UNL     1       3.482 -30.792  -6.488  1.00  0.00     0.000 C 
BRANCH   4   5
ATOM      5  C   UNL     1       2.760 -32.123  -6.218  1.00  0.00     0.000 C 
BRANCH   5   6
ATOM      6  C   UNL     1       1.243 -32.031  -6.445  1.00  0.00     0.000 C 
BRANCH   6   7
ATOM      7  C   UNL     1       0.466 -31.722  -5.156  1.00  0.00     0.006 C 
BRANCH   7   8
ATOM      8  C   UNL     1      -1.008 -32.111  -5.297  1.00  0.00     0.053 C 
BRANCH   8   9
ATOM      9  C   UNL     1      -1.808 -31.551  -4.163  1.00  0.00     0.041 C 
ATOM     10  O   UNL     1      -1.228 -31.099  -3.142  1.00  0.00    -0.550 OA
ATOM     11  O   UNL     1      -3.195 -31.581  -4.208  1.00  0.00    -0.550 OA
ENDBRANCH   8   9
ENDBRANCH   7   8
ENDBRANCH   6   7
ENDBRANCH   5   6
ENDBRANCH   4   5
ENDBRANCH   3   4
ENDBRANCH   2   3
ENDBRANCH   1   2
BRANCH   1  12
ATOM     12  C   UNL     1       2.339 -25.846  -6.610  1.00  0.00     0.000 C 
BRANCH  12  13
ATOM     13  C   UNL     1       1.175 -24.981  -7.113  1.00  0.00    -0.000 C 
BRANCH  13  14
ATOM     14  C   UNL     1       0.908 -23.757  -6.218  1.00  0.00    -0.000 C 
BRANCH  14  15
ATOM     15  C   UNL     1      -0.251 -22.850  -6.679  1.00  0.00    -0.000 C 
BRANCH  15  16
ATOM     16  C   UNL     1      -1.467 -22.822  -5.736  1.00  0.00    -0.000 C 
BRANCH  16  17
ATOM     17  C   UNL     1      -1.783 -21.409  -5.216  1.00  0.00    -0.000 C 
BRANCH  17  18
ATOM     18  C   UNL     1      -2.793 -20.666  -6.103  1.00  0.00    -0.000 C 
BRANCH  18  19
ATOM     19  C   UNL     1      -4.249 -21.014  -5.754  1.00  0.00    -0.003 C 
ATOM     20  C   UNL     1      -4.990 -21.559  -6.970  1.00  0.00     0.004 C 
ENDBRANCH  18  19
ENDBRANCH  17  18
ENDBRANCH  16  17
ENDBRANCH  15  16
ENDBRANCH  14  15
ENDBRANCH  13  14
ENDBRANCH  12  13
ENDBRANCH   1  12
TORSDOF 16
ENDMDL
MODEL 5
REMARK VINA RESULT:     4.103      5.425      8.346
REMARK INTER + INTRA:           7.448
REMARK INTER:                   8.268
REMARK INTRA:                  -0.819
REMARK UNBOUND:                -0.492
REMARK SMILES CCCCCCCCCCCCCCCCCC(=O)[O-]
REMARK SMILES IDX 10 1 11 2 12 3 13 4 14 5 15 6 16 7 17 8 18 9 19 10 20 11
REMARK SMILES IDX 9 12 8 13 7 14 6 15 5 16 4 17 3 18 2 19 1 20
REMARK H PARENT
REMARK Flexibility Score: inf
ROOT
ATOM      1  C   UNL     1      -3.379 -31.899  -6.142  1.00  0.00     0.000 C 
ENDROOT
BRANCH   1   2
ATOM      2  C   UNL     1      -3.918 -30.492  -5.833  1.00  0.00     0.000 C 
BRANCH   2   3
ATOM      3  C   UNL     1      -3.784 -30.048  -4.362  1.00  0.00     0.000 C 
BRANCH   3   4
ATOM      4  C   UNL     1      -2.963 -30.992  -3.465  1.00  0.00     0.000 C 
BRANCH   4   5
ATOM      5  C   UNL     1      -1.447 -30.761  -3.588  1.00  0.00     0.000 C 
BRANCH   5   6
ATOM      6  C   UNL     1      -0.646 -31.484  -2.493  1.00  0.00     0.000 C 
BRANCH   6   7
ATOM      7  C   UNL     1       0.791 -30.956  -2.360  1.00  0.00     0.006 C 
BRANCH   7   8
ATOM      8  C   UNL     1       1.298 -31.102  -0.922  1.00  0.00     0.053 C 
BRANCH   8   9
ATOM      9  C   UNL     1       1.608 -29.760  -0.338  1.00  0.00     0.041 C 
ATOM     10  O   UNL     1       1.993 -28.820  -1.081  1.00  0.00    -0.550 OA
ATOM     11  O   UNL     1       1.531 -29.563   1.034  1.00  0.00    -0.550 OA
ENDBRANCH   8   9
ENDBRANCH   7   8
ENDBRANCH   6   7
ENDBRANCH   5   6
ENDBRANCH   4   5
ENDBRANCH   3   4
ENDBRANCH   2   3
ENDBRANCH   1   2
BRANCH   1  12
ATOM     12  C   UNL     1      -2.136 -31.875  -7.044  1.00  0.00     0.000 C 
BRANCH  12  13
ATOM     13  C   UNL     1      -0.860 -32.119  -6.228  1.00  0.00    -0.000 C 
BRANCH  13  14
ATOM     14  C   UNL     1       0.413 -32.124  -7.094  1.00  0.00    -0.000 C 
BRANCH  14  15
ATOM     15  C   UNL     1       1.713 -31.755  -6.350  1.00  0.00    -0.000 C 
BRANCH  15  16
ATOM     16  C   UNL     1       2.895 -31.374  -7.258  1.00  0.00    -0.000 C 
BRANCH  16  17
ATOM     17  C   UNL     1       2.842 -29.907  -7.718  1.00  0.00    -0.000 C 
BRANCH  17  18
ATOM     18  C   UNL     1       2.942 -28.918  -6.547  1.00  0.00    -0.000 C 
BRANCH  18  19
ATOM     19  C   UNL     1       2.129 -27.637  -6.790  1.00  0.00    -0.003 C 
ATOM     20  C   UNL     1       2.999 -26.541  -7.400  1.00  0.00     0.004 C 
ENDBRANCH  18  19
ENDBRANCH  17  18
ENDBRANCH  16  17
ENDBRANCH  15  16
ENDBRANCH  14  15
ENDBRANCH  13  14
ENDBRANCH  12  13
ENDBRANCH   1  12
TORSDOF 16
ENDMDL
MODEL 6
REMARK VINA RESULT:     4.252      4.768      6.578
REMARK INTER + INTRA:           7.737
REMARK INTER:                   8.642
REMARK INTRA:                  -0.905
REMARK UNBOUND:                -0.492
REMARK SMILES CCCCCCCCCCCCCCCCCC(=O)[O-]
REMARK SMILES IDX 10 1 11 2 12 3 13 4 14 5 15 6 16 7 17 8 18 9 19 10 20 11
REMARK SMILES IDX 9 12 8 13 7 14 6 15 5 16 4 17 3 18 2 19 1 20
REMARK H PARENT
REMARK Flexibility Score: inf
ROOT
ATOM      1  C   UNL     1       0.939 -31.020  -4.720  1.00  0.00     0.000 C 
ENDROOT
BRANCH   1   2
ATOM      2  C   UNL     1       2.173 -31.803  -5.200  1.00  0.00     0.000 C 
BRANCH   2   3
ATOM      3  C   UNL     1       2.308 -31.939  -6.730  1.00  0.00     0.000 C 
BRANCH   3   4
ATOM      4  C   UNL     1       3.042 -30.779  -7.428  1.00  0.00     0.000 C 
BRANCH   4   5
ATOM      5  C   UNL     1       3.272 -29.575  -6.498  1.00  0.00     0.000 C 
BRANCH   5   6
ATOM      6  C   UNL     1       2.322 -28.405  -6.798  1.00  0.00     0.000 C 
BRANCH   6   7
ATOM      7  C   UNL     1       3.042 -27.047  -6.833  1.00  0.00     0.006 C 
BRANCH   7   8
ATOM      8  C   UNL     1       3.609 -26.691  -5.456  1.00  0.00     0.053 C 
BRANCH   8   9
ATOM      9  C   UNL     1       3.833 -25.215  -5.349  1.00  0.00     0.041 C 
ATOM     10  O   UNL     1       4.466 -24.603  -6.247  1.00  0.00    -0.550 OA
ATOM     11  O   UNL     1       3.393 -24.525  -4.228  1.00  0.00    -0.550 OA
ENDBRANCH   8   9
ENDBRANCH   7   8
ENDBRANCH   6   7
ENDBRANCH   5   6
ENDBRANCH   4   5
ENDBRANCH   3   4
ENDBRANCH   2   3
ENDBRANCH   1   2
BRANCH   1  12
ATOM     12  C   UNL     1      -0.227 -31.935  -4.317  1.00  0.00     0.000 C 
BRANCH  12  13
ATOM     13  C   UNL     1      -1.261 -31.170  -3.478  1.00  0.00    -0.000 C 
BRANCH  13  14
ATOM     14  C   UNL     1      -2.272 -32.099  -2.782  1.00  0.00    -0.000 C 
BRANCH  14  15
ATOM     15  C   UNL     1      -3.682 -32.115  -3.406  1.00  0.00    -0.000 C 
BRANCH  15  16
ATOM     16  C   UNL     1      -3.897 -31.113  -4.554  1.00  0.00    -0.000 C 
BRANCH  16  17
ATOM     17  C   UNL     1      -4.360 -31.790  -5.856  1.00  0.00    -0.000 C 
BRANCH  17  18
ATOM     18  C   UNL     1      -3.190 -32.122  -6.795  1.00  0.00    -0.000 C 
BRANCH  18  19
ATOM     19  C   UNL     1      -3.204 -31.270  -8.073  1.00  0.00    -0.003 C 
ATOM     20  C   UNL     1      -4.249 -30.162  -7.983  1.00  0.00     0.004 C 
ENDBRANCH  18  19
ENDBRANCH  17  18
ENDBRANCH  16  17
ENDBRANCH  15  16
ENDBRANCH  14  15
ENDBRANCH  13  14
ENDBRANCH  12  13
ENDBRANCH   1  12
TORSDOF 16
ENDMDL
MODEL 7
REMARK VINA RESULT:     4.493      6.847      8.851
REMARK INTER + INTRA:           8.203
REMARK INTER:                   7.382
REMARK INTRA:                   0.821
REMARK UNBOUND:                -0.492
REMARK SMILES CCCCCCCCCCCCCCCCCC(=O)[O-]
REMARK SMILES IDX 10 1 11 2 12 3 13 4 14 5 15 6 16 7 17 8 18 9 19 10 20 11
REMARK SMILES IDX 9 12 8 13 7 14 6 15 5 16 4 17 3 18 2 19 1 20
REMARK H PARENT
REMARK Flexibility Score: inf
ROOT
ATOM      1  C   UNL     1      -2.686 -30.696  -3.661  1.00  0.00     0.000 C 
ENDROOT
BRANCH   1   2
ATOM      2  C   UNL     1      -3.748 -31.252  -4.624  1.00  0.00     0.000 C 
BRANCH   2   3
ATOM      3  C   UNL     1      -3.583 -30.827  -6.097  1.00  0.00     0.000 C 
BRANCH   3   4
ATOM      4  C   UNL     1      -3.445 -31.986  -7.102  1.00  0.00     0.000 C 
BRANCH   4   5
ATOM      5  C   UNL     1      -2.019 -32.123  -7.661  1.00  0.00     0.000 C 
BRANCH   5   6
ATOM      6  C   UNL     1      -0.942 -32.010  -6.570  1.00  0.00     0.000 C 
BRANCH   6   7
ATOM      7  C   UNL     1       0.485 -32.125  -7.128  1.00  0.00     0.006 C 
BRANCH   7   8
ATOM      8  C   UNL     1       1.403 -31.065  -6.512  1.00  0.00     0.053 C 
BRANCH   8   9
ATOM      9  C   UNL     1       2.835 -31.367  -6.825  1.00  0.00     0.041 C 
ATOM     10  O   UNL     1       3.622 -31.721  -5.910  1.00  0.00    -0.550 OA
ATOM     11  O   UNL     1       3.314 -31.199  -8.117  1.00  0.00    -0.550 OA
ENDBRANCH   8   9
ENDBRANCH   7   8
ENDBRANCH   6   7
ENDBRANCH   5   6
ENDBRANCH   4   5
ENDBRANCH   3   4
ENDBRANCH   2   3
ENDBRANCH   1   2
BRANCH   1  12
ATOM     12  C   UNL     1      -1.675 -31.761  -3.210  1.00  0.00     0.000 C 
BRANCH  12  13
ATOM     13  C   UNL     1      -0.368 -31.652  -4.008  1.00  0.00    -0.000 C 
BRANCH  13  14
ATOM     14  C   UNL     1       0.657 -30.709  -3.352  1.00  0.00    -0.000 C 
BRANCH  14  15
ATOM     15  C   UNL     1       1.367 -31.280  -2.108  1.00  0.00    -0.000 C 
BRANCH  15  16
ATOM     16  C   UNL     1       0.430 -31.756  -0.984  1.00  0.00    -0.000 C 
BRANCH  16  17
ATOM     17  C   UNL     1       0.411 -30.799   0.220  1.00  0.00    -0.000 C 
BRANCH  17  18
ATOM     18  C   UNL     1       1.760 -30.096   0.435  1.00  0.00    -0.000 C 
BRANCH  18  19
ATOM     19  C   UNL     1       1.693 -29.019   1.529  1.00  0.00    -0.003 C 
ATOM     20  C   UNL     1       2.885 -29.125   2.476  1.00  0.00     0.004 C 
ENDBRANCH  18  19
ENDBRANCH  17  18
ENDBRANCH  16  17
ENDBRANCH  15  16
ENDBRANCH  14  15
ENDBRANCH  13  14
ENDBRANCH  12  13
ENDBRANCH   1  12
TORSDOF 16
ENDMDL
MODEL 8
REMARK VINA RESULT:     4.689      4.077      9.448
REMARK INTER + INTRA:           8.582
REMARK INTER:                   9.264
REMARK INTRA:                  -0.682
REMARK UNBOUND:                -0.492
REMARK SMILES CCCCCCCCCCCCCCCCCC(=O)[O-]
REMARK SMILES IDX 10 1 11 2 12 3 13 4 14 5 15 6 16 7 17 8 18 9 19 10 20 11
REMARK SMILES IDX 9 12 8 13 7 14 6 15 5 16 4 17 3 18 2 19 1 20
REMARK H PARENT
REMARK Flexibility Score: inf
ROOT
ATOM      1  C   UNL     1       2.880 -24.424  -5.125  1.00  0.00     0.000 C 
ENDROOT
BRANCH   1   2
ATOM      2  C   UNL     1       3.381 -25.721  -5.782  1.00  0.00     0.000 C 
BRANCH   2   3
ATOM      3  C   UNL     1       2.402 -26.370  -6.780  1.00  0.00     0.000 C 
BRANCH   3   4
ATOM      4  C   UNL     1       2.851 -27.730  -7.348  1.00  0.00     0.000 C 
BRANCH   4   5
ATOM      5  C   UNL     1       2.432 -28.914  -6.459  1.00  0.00     0.000 C 
BRANCH   5   6
ATOM      6  C   UNL     1       2.818 -30.273  -7.064  1.00  0.00     0.000 C 
BRANCH   6   7
ATOM      7  C   UNL     1       2.658 -31.434  -6.069  1.00  0.00     0.006 C 
BRANCH   7   8
ATOM      8  C   UNL     1       1.219 -31.956  -6.060  1.00  0.00     0.053 C 
BRANCH   8   9
ATOM      9  C   UNL     1       0.503 -31.497  -4.830  1.00  0.00     0.041 C 
ATOM     10  O   UNL     1       1.154 -31.128  -3.818  1.00  0.00    -0.550 OA
ATOM     11  O   UNL     1      -0.884 -31.532  -4.777  1.00  0.00    -0.550 OA
ENDBRANCH   8   9
ENDBRANCH   7   8
ENDBRANCH   6   7
ENDBRANCH   5   6
ENDBRANCH   4   5
ENDBRANCH   3   4
ENDBRANCH   2   3
ENDBRANCH   1   2
BRANCH   1  12
ATOM     12  C   UNL     1       1.770 -23.737  -5.934  1.00  0.00     0.000 C 
BRANCH  12  13
ATOM     13  C   UNL     1       0.573 -23.387  -5.040  1.00  0.00    -0.000 C 
BRANCH  13  14
ATOM     14  C   UNL     1      -0.506 -22.571  -5.775  1.00  0.00    -0.000 C 
BRANCH  14  15
ATOM     15  C   UNL     1      -1.458 -21.771  -4.862  1.00  0.00    -0.000 C 
BRANCH  15  16
ATOM     16  C   UNL     1      -2.477 -20.887  -5.601  1.00  0.00    -0.000 C 
BRANCH  16  17
ATOM     17  C   UNL     1      -3.345 -21.681  -6.593  1.00  0.00    -0.000 C 
BRANCH  17  18
ATOM     18  C   UNL     1      -4.764 -21.107  -6.724  1.00  0.00    -0.000 C 
BRANCH  18  19
ATOM     19  C   UNL     1      -5.012 -19.931  -5.767  1.00  0.00    -0.003 C 
ATOM     20  C   UNL     1      -5.125 -18.615  -6.532  1.00  0.00     0.004 C 
ENDBRANCH  18  19
ENDBRANCH  17  18
ENDBRANCH  16  17
ENDBRANCH  15  16
ENDBRANCH  14  15
ENDBRANCH  13  14
ENDBRANCH  12  13
ENDBRANCH   1  12
TORSDOF 16
ENDMDL
