MODEL 1
REMARK VINA RESULT:    -3.987      0.000      0.000
REMARK INTER + INTRA:          -8.522
REMARK INTER:                  -6.783
REMARK INTRA:                  -1.739
REMARK UNBOUND:                -1.739
REMARK SMILES CCCCCCCCCCCCCC(=O)[O-]
REMARK SMILES IDX 8 1 9 2 10 3 11 4 12 5 13 6 14 7 15 8 16 9 7 10 6 11 5 12
REMARK SMILES IDX 4 13 3 14 2 15 1 16
REMARK H PARENT
REMARK Flexibility Score: inf
ROOT
ATOM      1  C   UNL     1     -23.039 117.991   0.727  1.00  0.00     0.000 C 
ENDROOT
BRANCH   1   2
ATOM      2  C   UNL     1     -22.279 116.672   0.514  1.00  0.00     0.000 C 
BRANCH   2   3
ATOM      3  C   UNL     1     -22.853 115.826  -0.639  1.00  0.00     0.000 C 
BRANCH   3   4
ATOM      4  C   UNL     1     -21.814 115.041  -1.460  1.00  0.00     0.000 C 
BRANCH   4   5
ATOM      5  C   UNL     1     -20.475 114.863  -0.723  1.00  0.00     0.006 C 
BRANCH   5   6
ATOM      6  C   UNL     1     -19.328 114.513  -1.681  1.00  0.00     0.053 C 
BRANCH   6   7
ATOM      7  C   UNL     1     -17.994 114.902  -1.119  1.00  0.00     0.041 C 
ATOM      8  O   UNL     1     -17.509 116.037  -1.367  1.00  0.00    -0.550 OA
ATOM      9  O   UNL     1     -17.301 114.022  -0.298  1.00  0.00    -0.550 OA
ENDBRANCH   6   7
ENDBRANCH   5   6
ENDBRANCH   4   5
ENDBRANCH   3   4
ENDBRANCH   2   3
ENDBRANCH   1   2
BRANCH   1  10
ATOM     10  C   UNL     1     -23.372 118.710  -0.595  1.00  0.00     0.000 C 
BRANCH  10  11
ATOM     11  C   UNL     1     -23.387 120.249  -0.516  1.00  0.00    -0.000 C 
BRANCH  11  12
ATOM     12  C   UNL     1     -22.265 120.953  -1.302  1.00  0.00    -0.000 C 
BRANCH  12  13
ATOM     13  C   UNL     1     -20.873 120.830  -0.646  1.00  0.00    -0.000 C 
BRANCH  13  14
ATOM     14  C   UNL     1     -19.832 120.208  -1.593  1.00  0.00    -0.000 C 
BRANCH  14  15
ATOM     15  C   UNL     1     -19.855 118.672  -1.570  1.00  0.00    -0.003 C 
ATOM     16  C   UNL     1     -20.482 118.070  -2.826  1.00  0.00     0.004 C 
ENDBRANCH  14  15
ENDBRANCH  13  14
ENDBRANCH  12  13
ENDBRANCH  11  12
ENDBRANCH  10  11
ENDBRANCH   1  10
TORSDOF 12
ENDMDL
MODEL 2
REMARK VINA RESULT:    -3.843      1.201      3.320
REMARK INTER + INTRA:          -8.277
REMARK INTER:                  -6.509
REMARK INTRA:                  -1.768
REMARK UNBOUND:                -1.739
REMARK SMILES CCCCCCCCCCCCCC(=O)[O-]
REMARK SMILES IDX 8 1 9 2 10 3 11 4 12 5 13 6 14 7 15 8 16 9 7 10 6 11 5 12
REMARK SMILES IDX 4 13 3 14 2 15 1 16
REMARK H PARENT
REMARK Flexibility Score: inf
ROOT
ATOM      1  C   UNL     1     -20.058 120.651  -2.194  1.00  0.00     0.000 C 
ENDROOT
BRANCH   1   2
ATOM      2  C   UNL     1     -21.055 120.149  -3.252  1.00  0.00     0.000 C 
BRANCH   2   3
ATOM      3  C   UNL     1     -21.149 118.613  -3.308  1.00  0.00     0.000 C 
BRANCH   3   4
ATOM      4  C   UNL     1     -20.210 117.860  -2.349  1.00  0.00     0.000 C 
BRANCH   4   5
ATOM      5  C   UNL     1     -20.394 116.334  -2.401  1.00  0.00     0.006 C 
BRANCH   5   6
ATOM      6  C   UNL     1     -19.468 115.604  -1.420  1.00  0.00     0.053 C 
BRANCH   6   7
ATOM      7  C   UNL     1     -18.056 115.552  -1.920  1.00  0.00     0.041 C 
ATOM      8  O   UNL     1     -17.802 115.061  -3.052  1.00  0.00    -0.550 OA
ATOM      9  O   UNL     1     -17.024 116.070  -1.148  1.00  0.00    -0.550 OA
ENDBRANCH   6   7
ENDBRANCH   5   6
ENDBRANCH   4   5
ENDBRANCH   3   4
ENDBRANCH   2   3
ENDBRANCH   1   2
BRANCH   1  10
ATOM     10  C   UNL     1     -20.751 121.186  -0.926  1.00  0.00     0.000 C 
BRANCH  10  11
ATOM     11  C   UNL     1     -22.275 120.967  -0.871  1.00  0.00    -0.000 C 
BRANCH  11  12
ATOM     12  C   UNL     1     -22.731 119.755  -0.035  1.00  0.00    -0.000 C 
BRANCH  12  13
ATOM     13  C   UNL     1     -21.608 119.133   0.821  1.00  0.00    -0.000 C 
BRANCH  13  14
ATOM     14  C   UNL     1     -21.781 117.614   0.999  1.00  0.00    -0.000 C 
BRANCH  14  15
ATOM     15  C   UNL     1     -23.173 117.124   0.573  1.00  0.00    -0.003 C 
ATOM     16  C   UNL     1     -23.135 115.763  -0.122  1.00  0.00     0.004 C 
ENDBRANCH  14  15
ENDBRANCH  13  14
ENDBRANCH  12  13
ENDBRANCH  11  12
ENDBRANCH  10  11
ENDBRANCH   1  10
TORSDOF 12
ENDMDL
MODEL 3
REMARK VINA RESULT:    -3.824      2.626      5.296
REMARK INTER + INTRA:          -8.246
REMARK INTER:                  -6.477
REMARK INTRA:                  -1.769
REMARK UNBOUND:                -1.739
REMARK SMILES CCCCCCCCCCCCCC(=O)[O-]
REMARK SMILES IDX 8 1 9 2 10 3 11 4 12 5 13 6 14 7 15 8 16 9 7 10 6 11 5 12
REMARK SMILES IDX 4 13 3 14 2 15 1 16
REMARK H PARENT
REMARK Flexibility Score: inf
ROOT
ATOM      1  C   UNL     1     -22.190 115.381  -0.641  1.00  0.00     0.000 C 
ENDROOT
BRANCH   1   2
ATOM      2  C   UNL     1     -22.185 116.858  -1.068  1.00  0.00     0.000 C 
BRANCH   2   3
ATOM      3  C   UNL     1     -21.804 117.055  -2.547  1.00  0.00     0.000 C 
BRANCH   3   4
ATOM      4  C   UNL     1     -20.913 118.276  -2.841  1.00  0.00     0.000 C 
BRANCH   4   5
ATOM      5  C   UNL     1     -19.927 118.589  -1.702  1.00  0.00     0.006 C 
BRANCH   5   6
ATOM      6  C   UNL     1     -19.905 120.082  -1.349  1.00  0.00     0.053 C 
BRANCH   6   7
ATOM      7  C   UNL     1     -21.083 120.474  -0.509  1.00  0.00     0.041 C 
ATOM      8  O   UNL     1     -21.876 121.367  -0.908  1.00  0.00    -0.550 OA
ATOM      9  O   UNL     1     -21.321 119.834   0.700  1.00  0.00    -0.550 OA
ENDBRANCH   6   7
ENDBRANCH   5   6
ENDBRANCH   4   5
ENDBRANCH   3   4
ENDBRANCH   2   3
ENDBRANCH   1   2
BRANCH   1  10
ATOM     10  C   UNL     1     -20.885 114.649  -1.006  1.00  0.00     0.000 C 
BRANCH  10  11
ATOM     11  C   UNL     1     -19.633 115.122  -0.242  1.00  0.00    -0.000 C 
BRANCH  11  12
ATOM     12  C   UNL     1     -18.290 114.655  -0.835  1.00  0.00    -0.000 C 
BRANCH  12  13
ATOM     13  C   UNL     1     -17.671 115.654  -1.835  1.00  0.00    -0.000 C 
BRANCH  13  14
ATOM     14  C   UNL     1     -17.249 114.979  -3.152  1.00  0.00    -0.000 C 
BRANCH  14  15
ATOM     15  C   UNL     1     -18.446 114.441  -3.950  1.00  0.00    -0.003 C 
ATOM     16  C   UNL     1     -19.183 115.533  -4.724  1.00  0.00     0.004 C 
ENDBRANCH  14  15
ENDBRANCH  13  14
ENDBRANCH  12  13
ENDBRANCH  11  12
ENDBRANCH  10  11
ENDBRANCH   1  10
TORSDOF 12
ENDMDL
MODEL 4
REMARK VINA RESULT:    -3.810      1.354      2.097
REMARK INTER + INTRA:          -8.221
REMARK INTER:                  -6.551
REMARK INTRA:                  -1.670
REMARK UNBOUND:                -1.739
REMARK SMILES CCCCCCCCCCCCCC(=O)[O-]
REMARK SMILES IDX 8 1 9 2 10 3 11 4 12 5 13 6 14 7 15 8 16 9 7 10 6 11 5 12
REMARK SMILES IDX 4 13 3 14 2 15 1 16
REMARK H PARENT
REMARK Flexibility Score: inf
ROOT
ATOM      1  C   UNL     1     -21.993 117.099   0.783  1.00  0.00     0.000 C 
ENDROOT
BRANCH   1   2
ATOM      2  C   UNL     1     -22.398 115.760   0.146  1.00  0.00     0.000 C 
BRANCH   2   3
ATOM      3  C   UNL     1     -21.259 115.108  -0.661  1.00  0.00     0.000 C 
BRANCH   3   4
ATOM      4  C   UNL     1     -21.139 115.572  -2.124  1.00  0.00     0.000 C 
BRANCH   4   5
ATOM      5  C   UNL     1     -19.968 116.544  -2.353  1.00  0.00     0.006 C 
BRANCH   5   6
ATOM      6  C   UNL     1     -18.912 115.966  -3.304  1.00  0.00     0.053 C 
BRANCH   6   7
ATOM      7  C   UNL     1     -17.683 115.522  -2.569  1.00  0.00     0.041 C 
ATOM      8  O   UNL     1     -16.795 114.857  -3.164  1.00  0.00    -0.550 OA
ATOM      9  O   UNL     1     -17.506 115.867  -1.236  1.00  0.00    -0.550 OA
ENDBRANCH   6   7
ENDBRANCH   5   6
ENDBRANCH   4   5
ENDBRANCH   3   4
ENDBRANCH   2   3
ENDBRANCH   1   2
BRANCH   1  10
ATOM     10  C   UNL     1     -22.702 118.306   0.140  1.00  0.00     0.000 C 
BRANCH  10  11
ATOM     11  C   UNL     1     -23.683 117.959  -0.997  1.00  0.00    -0.000 C 
BRANCH  11  12
ATOM     12  C   UNL     1     -23.467 118.740  -2.307  1.00  0.00    -0.000 C 
BRANCH  12  13
ATOM     13  C   UNL     1     -22.644 120.034  -2.131  1.00  0.00    -0.000 C 
BRANCH  13  14
ATOM     14  C   UNL     1     -21.346 120.020  -2.958  1.00  0.00    -0.000 C 
BRANCH  14  15
ATOM     15  C   UNL     1     -20.112 120.404  -2.127  1.00  0.00    -0.003 C 
ATOM     16  C   UNL     1     -20.475 121.038  -0.785  1.00  0.00     0.004 C 
ENDBRANCH  14  15
ENDBRANCH  13  14
ENDBRANCH  12  13
ENDBRANCH  11  12
ENDBRANCH  10  11
ENDBRANCH   1  10
TORSDOF 12
ENDMDL
MODEL 5
REMARK VINA RESULT:    -3.783      1.380      2.699
REMARK INTER + INTRA:          -8.176
REMARK INTER:                  -6.853
REMARK INTRA:                  -1.323
REMARK UNBOUND:                -1.739
REMARK SMILES CCCCCCCCCCCCCC(=O)[O-]
REMARK SMILES IDX 8 1 9 2 10 3 11 4 12 5 13 6 14 7 15 8 16 9 7 10 6 11 5 12
REMARK SMILES IDX 4 13 3 14 2 15 1 16
REMARK H PARENT
REMARK Flexibility Score: inf
ROOT
ATOM      1  C   UNL     1     -22.731 115.878  -1.334  1.00  0.00     0.000 C 
ENDROOT
BRANCH   1   2
ATOM      2  C   UNL     1     -21.734 115.343  -2.375  1.00  0.00     0.000 C 
BRANCH   2   3
ATOM      3  C   UNL     1     -21.097 116.457  -3.226  1.00  0.00     0.000 C 
BRANCH   3   4
ATOM      4  C   UNL     1     -19.558 116.457  -3.266  1.00  0.00     0.000 C 
BRANCH   4   5
ATOM      5  C   UNL     1     -18.920 116.588  -1.873  1.00  0.00     0.006 C 
BRANCH   5   6
ATOM      6  C   UNL     1     -17.498 116.013  -1.831  1.00  0.00     0.053 C 
BRANCH   6   7
ATOM      7  C   UNL     1     -17.375 114.902  -0.832  1.00  0.00     0.041 C 
ATOM      8  O   UNL     1     -18.397 114.471  -0.235  1.00  0.00    -0.550 OA
ATOM      9  O   UNL     1     -16.138 114.323  -0.582  1.00  0.00    -0.550 OA
ENDBRANCH   6   7
ENDBRANCH   5   6
ENDBRANCH   4   5
ENDBRANCH   3   4
ENDBRANCH   2   3
ENDBRANCH   1   2
BRANCH   1  10
ATOM     10  C   UNL     1     -22.214 115.749   0.112  1.00  0.00     0.000 C 
BRANCH  10  11
ATOM     11  C   UNL     1     -22.042 117.081   0.867  1.00  0.00    -0.000 C 
BRANCH  11  12
ATOM     12  C   UNL     1     -21.545 118.259   0.008  1.00  0.00    -0.000 C 
BRANCH  12  13
ATOM     13  C   UNL     1     -22.613 119.347  -0.233  1.00  0.00    -0.000 C 
BRANCH  13  14
ATOM     14  C   UNL     1     -22.001 120.669  -0.730  1.00  0.00    -0.000 C 
BRANCH  14  15
ATOM     15  C   UNL     1     -20.465 120.654  -0.706  1.00  0.00    -0.003 C 
ATOM     16  C   UNL     1     -19.849 120.724  -2.102  1.00  0.00     0.004 C 
ENDBRANCH  14  15
ENDBRANCH  13  14
ENDBRANCH  12  13
ENDBRANCH  11  12
ENDBRANCH  10  11
ENDBRANCH   1  10
TORSDOF 12
ENDMDL
MODEL 6
REMARK VINA RESULT:    -3.782      4.057      6.374
REMARK INTER + INTRA:          -8.174
REMARK INTER:                  -6.171
REMARK INTRA:                  -2.003
REMARK UNBOUND:                -1.739
REMARK SMILES CCCCCCCCCCCCCC(=O)[O-]
REMARK SMILES IDX 8 1 9 2 10 3 11 4 12 5 13 6 14 7 15 8 16 9 7 10 6 11 5 12
REMARK SMILES IDX 4 13 3 14 2 15 1 16
REMARK H PARENT
REMARK Flexibility Score: inf
ROOT
ATOM      1  C   UNL     1     -20.219 118.055  -1.679  1.00  0.00     0.000 C 
ENDROOT
BRANCH   1   2
ATOM      2  C   UNL     1     -19.555 119.434  -1.533  1.00  0.00     0.000 C 
BRANCH   2   3
ATOM      3  C   UNL     1     -20.455 120.588  -2.015  1.00  0.00     0.000 C 
BRANCH   3   4
ATOM      4  C   UNL     1     -21.259 121.300  -0.912  1.00  0.00     0.000 C 
BRANCH   4   5
ATOM      5  C   UNL     1     -22.760 120.967  -0.952  1.00  0.00     0.006 C 
BRANCH   5   6
ATOM      6  C   UNL     1     -23.316 120.967  -2.382  1.00  0.00     0.053 C 
BRANCH   6   7
ATOM      7  C   UNL     1     -24.775 121.309  -2.414  1.00  0.00     0.041 C 
ATOM      8  O   UNL     1     -25.448 121.310  -1.349  1.00  0.00    -0.550 OA
ATOM      9  O   UNL     1     -25.384 121.653  -3.613  1.00  0.00    -0.550 OA
ENDBRANCH   6   7
ENDBRANCH   5   6
ENDBRANCH   4   5
ENDBRANCH   3   4
ENDBRANCH   2   3
ENDBRANCH   1   2
BRANCH   1  10
ATOM     10  C   UNL     1     -20.821 117.825  -3.079  1.00  0.00     0.000 C 
BRANCH  10  11
ATOM     11  C   UNL     1     -22.339 117.565  -3.104  1.00  0.00    -0.000 C 
BRANCH  11  12
ATOM     12  C   UNL     1     -22.877 116.722  -1.933  1.00  0.00    -0.000 C 
BRANCH  12  13
ATOM     13  C   UNL     1     -24.109 117.338  -1.237  1.00  0.00    -0.000 C 
BRANCH  13  14
ATOM     14  C   UNL     1     -23.777 117.896   0.158  1.00  0.00    -0.000 C 
BRANCH  14  15
ATOM     15  C   UNL     1     -22.656 117.111   0.856  1.00  0.00    -0.003 C 
ATOM     16  C   UNL     1     -21.739 118.003   1.692  1.00  0.00     0.004 C 
ENDBRANCH  14  15
ENDBRANCH  13  14
ENDBRANCH  12  13
ENDBRANCH  11  12
ENDBRANCH  10  11
ENDBRANCH   1  10
TORSDOF 12
ENDMDL
MODEL 7
REMARK VINA RESULT:    -3.762      2.438      4.057
REMARK INTER + INTRA:          -8.140
REMARK INTER:                  -5.826
REMARK INTRA:                  -2.313
REMARK UNBOUND:                -1.739
REMARK SMILES CCCCCCCCCCCCCC(=O)[O-]
REMARK SMILES IDX 8 1 9 2 10 3 11 4 12 5 13 6 14 7 15 8 16 9 7 10 6 11 5 12
REMARK SMILES IDX 4 13 3 14 2 15 1 16
REMARK H PARENT
REMARK Flexibility Score: inf
ROOT
ATOM      1  C   UNL     1     -20.765 121.031  -1.007  1.00  0.00     0.000 C 
ENDROOT
BRANCH   1   2
ATOM      2  C   UNL     1     -20.338 120.058  -2.119  1.00  0.00     0.000 C 
BRANCH   2   3
ATOM      3  C   UNL     1     -19.700 118.766  -1.575  1.00  0.00     0.000 C 
BRANCH   3   4
ATOM      4  C   UNL     1     -20.245 117.458  -2.178  1.00  0.00     0.000 C 
BRANCH   4   5
ATOM      5  C   UNL     1     -20.981 117.672  -3.512  1.00  0.00     0.006 C 
BRANCH   5   6
ATOM      6  C   UNL     1     -22.114 116.658  -3.718  1.00  0.00     0.053 C 
BRANCH   6   7
ATOM      7  C   UNL     1     -21.590 115.301  -4.076  1.00  0.00     0.041 C 
ATOM      8  O   UNL     1     -21.161 115.074  -5.238  1.00  0.00    -0.550 OA
ATOM      9  O   UNL     1     -21.549 114.295  -3.120  1.00  0.00    -0.550 OA
ENDBRANCH   6   7
ENDBRANCH   5   6
ENDBRANCH   4   5
ENDBRANCH   3   4
ENDBRANCH   2   3
ENDBRANCH   1   2
BRANCH   1  10
ATOM     10  C   UNL     1     -22.292 121.080  -0.809  1.00  0.00     0.000 C 
BRANCH  10  11
ATOM     11  C   UNL     1     -23.123 120.567  -2.000  1.00  0.00    -0.000 C 
BRANCH  11  12
ATOM     12  C   UNL     1     -23.890 119.256  -1.746  1.00  0.00    -0.000 C 
BRANCH  12  13
ATOM     13  C   UNL     1     -23.727 118.708  -0.313  1.00  0.00    -0.000 C 
BRANCH  13  14
ATOM     14  C   UNL     1     -23.417 117.200  -0.293  1.00  0.00    -0.000 C 
BRANCH  14  15
ATOM     15  C   UNL     1     -22.322 116.835   0.720  1.00  0.00    -0.003 C 
ATOM     16  C   UNL     1     -21.757 118.054   1.448  1.00  0.00     0.004 C 
ENDBRANCH  14  15
ENDBRANCH  13  14
ENDBRANCH  12  13
ENDBRANCH  11  12
ENDBRANCH  10  11
ENDBRANCH   1  10
TORSDOF 12
ENDMDL
MODEL 8
REMARK VINA RESULT:    -3.757      2.750      5.753
REMARK INTER + INTRA:          -8.131
REMARK INTER:                  -6.469
REMARK INTRA:                  -1.662
REMARK UNBOUND:                -1.739
REMARK SMILES CCCCCCCCCCCCCC(=O)[O-]
REMARK SMILES IDX 8 1 9 2 10 3 11 4 12 5 13 6 14 7 15 8 16 9 7 10 6 11 5 12
REMARK SMILES IDX 4 13 3 14 2 15 1 16
REMARK H PARENT
REMARK Flexibility Score: inf
ROOT
ATOM      1  C   UNL     1     -20.709 118.036  -2.723  1.00  0.00     0.000 C 
ENDROOT
BRANCH   1   2
ATOM      2  C   UNL     1     -20.032 118.497  -1.422  1.00  0.00     0.000 C 
BRANCH   2   3
ATOM      3  C   UNL     1     -19.597 119.975  -1.462  1.00  0.00     0.000 C 
BRANCH   3   4
ATOM      4  C   UNL     1     -20.747 120.999  -1.492  1.00  0.00     0.000 C 
BRANCH   4   5
ATOM      5  C   UNL     1     -21.788 120.766  -0.383  1.00  0.00     0.006 C 
BRANCH   5   6
ATOM      6  C   UNL     1     -23.210 120.633  -0.943  1.00  0.00     0.053 C 
BRANCH   6   7
ATOM      7  C   UNL     1     -23.711 119.222  -0.863  1.00  0.00     0.041 C 
ATOM      8  O   UNL     1     -24.266 118.690  -1.860  1.00  0.00    -0.550 OA
ATOM      9  O   UNL     1     -23.540 118.488   0.303  1.00  0.00    -0.550 OA
ENDBRANCH   6   7
ENDBRANCH   5   6
ENDBRANCH   4   5
ENDBRANCH   3   4
ENDBRANCH   2   3
ENDBRANCH   1   2
BRANCH   1  10
ATOM     10  C   UNL     1     -21.013 116.525  -2.735  1.00  0.00     0.000 C 
BRANCH  10  11
ATOM     11  C   UNL     1     -21.815 116.009  -1.524  1.00  0.00    -0.000 C 
BRANCH  11  12
ATOM     12  C   UNL     1     -21.043 115.064  -0.584  1.00  0.00    -0.000 C 
BRANCH  12  13
ATOM     13  C   UNL     1     -19.855 114.347  -1.262  1.00  0.00    -0.000 C 
BRANCH  13  14
ATOM     14  C   UNL     1     -18.520 114.621  -0.545  1.00  0.00    -0.000 C 
BRANCH  14  15
ATOM     15  C   UNL     1     -17.655 115.654  -1.282  1.00  0.00    -0.003 C 
ATOM     16  C   UNL     1     -17.412 115.288  -2.746  1.00  0.00     0.004 C 
ENDBRANCH  14  15
ENDBRANCH  13  14
ENDBRANCH  12  13
ENDBRANCH  11  12
ENDBRANCH  10  11
ENDBRANCH   1  10
TORSDOF 12
ENDMDL
MODEL 9
REMARK VINA RESULT:    -3.741      3.810      6.544
REMARK INTER + INTRA:          -8.104
REMARK INTER:                  -6.808
REMARK INTRA:                  -1.296
REMARK UNBOUND:                -1.739
REMARK SMILES CCCCCCCCCCCCCC(=O)[O-]
REMARK SMILES IDX 8 1 9 2 10 3 11 4 12 5 13 6 14 7 15 8 16 9 7 10 6 11 5 12
REMARK SMILES IDX 4 13 3 14 2 15 1 16
REMARK H PARENT
REMARK Flexibility Score: inf
ROOT
ATOM      1  C   UNL     1     -20.235 117.881  -1.768  1.00  0.00     0.000 C 
ENDROOT
BRANCH   1   2
ATOM      2  C   UNL     1     -19.549 119.225  -1.473  1.00  0.00     0.000 C 
BRANCH   2   3
ATOM      3  C   UNL     1     -20.288 120.426  -2.093  1.00  0.00     0.000 C 
BRANCH   3   4
ATOM      4  C   UNL     1     -21.018 121.339  -1.091  1.00  0.00     0.000 C 
BRANCH   4   5
ATOM      5  C   UNL     1     -22.528 121.061  -1.014  1.00  0.00     0.006 C 
BRANCH   5   6
ATOM      6  C   UNL     1     -23.110 120.641  -2.370  1.00  0.00     0.053 C 
BRANCH   6   7
ATOM      7  C   UNL     1     -24.460 121.248  -2.610  1.00  0.00     0.041 C 
ATOM      8  O   UNL     1     -25.295 121.326  -1.671  1.00  0.00    -0.550 OA
ATOM      9  O   UNL     1     -24.783 121.754  -3.862  1.00  0.00    -0.550 OA
ENDBRANCH   6   7
ENDBRANCH   5   6
ENDBRANCH   4   5
ENDBRANCH   3   4
ENDBRANCH   2   3
ENDBRANCH   1   2
BRANCH   1  10
ATOM     10  C   UNL     1     -21.178 117.429  -0.636  1.00  0.00     0.000 C 
BRANCH  10  11
ATOM     11  C   UNL     1     -21.315 115.904  -0.469  1.00  0.00    -0.000 C 
BRANCH  11  12
ATOM     12  C   UNL     1     -21.253 115.095  -1.778  1.00  0.00    -0.000 C 
BRANCH  12  13
ATOM     13  C   UNL     1     -20.003 114.196  -1.895  1.00  0.00    -0.000 C 
BRANCH  13  14
ATOM     14  C   UNL     1     -19.199 114.137  -0.584  1.00  0.00    -0.000 C 
BRANCH  14  15
ATOM     15  C   UNL     1     -17.786 114.721  -0.730  1.00  0.00    -0.003 C 
ATOM     16  C   UNL     1     -17.575 115.434  -2.065  1.00  0.00     0.004 C 
ENDBRANCH  14  15
ENDBRANCH  13  14
ENDBRANCH  12  13
ENDBRANCH  11  12
ENDBRANCH  10  11
ENDBRANCH   1  10
TORSDOF 12
ENDMDL
