MODEL 1
REMARK VINA RESULT:    -2.813      0.000      0.000
REMARK INTER + INTRA:          -5.586
REMARK INTER:                  -4.457
REMARK INTRA:                  -1.129
REMARK UNBOUND:                -1.129
REMARK SMILES CCCCCCCCCCCC(=O)[O-]
REMARK SMILES IDX 7 1 8 2 9 3 10 4 11 5 12 6 13 7 14 8 6 9 5 10 4 11 3 12 2 13
REMARK SMILES IDX 1 14
REMARK H PARENT
REMARK Flexibility Score: inf
ROOT
ATOM      1  C   UNL     1      17.905 -15.999  13.921  1.00  0.00     0.000 C 
ENDROOT
BRANCH   1   2
ATOM      2  C   UNL     1      18.093 -15.909  15.446  1.00  0.00     0.000 C 
BRANCH   2   3
ATOM      3  C   UNL     1      18.783 -17.153  16.029  1.00  0.00     0.000 C 
BRANCH   3   4
ATOM      4  C   UNL     1      20.298 -17.164  15.778  1.00  0.00     0.006 C 
BRANCH   4   5
ATOM      5  C   UNL     1      20.965 -15.932  16.398  1.00  0.00     0.053 C 
BRANCH   5   6
ATOM      6  C   UNL     1      21.773 -15.200  15.374  1.00  0.00     0.041 C 
ATOM      7  O   UNL     1      22.880 -14.691  15.685  1.00  0.00    -0.550 OA
ATOM      8  O   UNL     1      21.324 -15.124  14.061  1.00  0.00    -0.550 OA
ENDBRANCH   5   6
ENDBRANCH   4   5
ENDBRANCH   3   4
ENDBRANCH   2   3
ENDBRANCH   1   2
BRANCH   1   9
ATOM      9  C   UNL     1      17.156 -17.273  13.495  1.00  0.00     0.000 C 
BRANCH   9  10
ATOM     10  C   UNL     1      17.902 -18.064  12.406  1.00  0.00    -0.000 C 
BRANCH  10  11
ATOM     11  C   UNL     1      19.331 -17.545  12.175  1.00  0.00    -0.000 C 
BRANCH  11  12
ATOM     12  C   UNL     1      19.604 -17.209  10.699  1.00  0.00    -0.000 C 
BRANCH  12  13
ATOM     13  C   UNL     1      18.337 -16.769   9.951  1.00  0.00    -0.003 C 
ATOM     14  C   UNL     1      18.541 -15.484   9.150  1.00  0.00     0.004 C 
ENDBRANCH  12  13
ENDBRANCH  11  12
ENDBRANCH  10  11
ENDBRANCH   9  10
ENDBRANCH   1   9
TORSDOF 10
ENDMDL
MODEL 2
REMARK VINA RESULT:    -2.754      2.619      5.193
REMARK INTER + INTRA:          -5.493
REMARK INTER:                  -4.312
REMARK INTRA:                  -1.180
REMARK UNBOUND:                -1.129
REMARK SMILES CCCCCCCCCCCC(=O)[O-]
REMARK SMILES IDX 7 1 8 2 9 3 10 4 11 5 12 6 13 7 14 8 6 9 5 10 4 11 3 12 2 13
REMARK SMILES IDX 1 14
REMARK H PARENT
REMARK Flexibility Score: inf
ROOT
ATOM      1  C   UNL     1      18.744 -15.521  15.134  1.00  0.00     0.000 C 
ENDROOT
BRANCH   1   2
ATOM      2  C   UNL     1      18.639 -15.674  13.606  1.00  0.00     0.000 C 
BRANCH   2   3
ATOM      3  C   UNL     1      17.881 -16.946  13.192  1.00  0.00     0.000 C 
BRANCH   3   4
ATOM      4  C   UNL     1      18.667 -17.807  12.192  1.00  0.00     0.006 C 
BRANCH   4   5
ATOM      5  C   UNL     1      19.411 -16.929  11.181  1.00  0.00     0.053 C 
BRANCH   5   6
ATOM      6  C   UNL     1      18.536 -16.624  10.006  1.00  0.00     0.041 C 
ATOM      7  O   UNL     1      17.677 -17.459   9.622  1.00  0.00    -0.550 OA
ATOM      8  O   UNL     1      18.635 -15.395   9.367  1.00  0.00    -0.550 OA
ENDBRANCH   5   6
ENDBRANCH   4   5
ENDBRANCH   3   4
ENDBRANCH   2   3
ENDBRANCH   1   2
BRANCH   1   9
ATOM      9  C   UNL     1      19.456 -16.712  15.797  1.00  0.00     0.000 C 
BRANCH   9  10
ATOM     10  C   UNL     1      20.547 -16.273  16.790  1.00  0.00    -0.000 C 
BRANCH  10  11
ATOM     11  C   UNL     1      21.952 -16.287  16.165  1.00  0.00    -0.000 C 
BRANCH  11  12
ATOM     12  C   UNL     1      22.317 -14.945  15.506  1.00  0.00    -0.000 C 
BRANCH  12  13
ATOM     13  C   UNL     1      22.797 -15.114  14.057  1.00  0.00    -0.003 C 
ATOM     14  C   UNL     1      22.364 -16.445  13.443  1.00  0.00     0.004 C 
ENDBRANCH  12  13
ENDBRANCH  11  12
ENDBRANCH  10  11
ENDBRANCH   9  10
ENDBRANCH   1   9
TORSDOF 10
ENDMDL
MODEL 3
REMARK VINA RESULT:    -2.723      2.550      5.645
REMARK INTER + INTRA:          -5.443
REMARK INTER:                  -4.141
REMARK INTRA:                  -1.303
REMARK UNBOUND:                -1.129
REMARK SMILES CCCCCCCCCCCC(=O)[O-]
REMARK SMILES IDX 7 1 8 2 9 3 10 4 11 5 12 6 13 7 14 8 6 9 5 10 4 11 3 12 2 13
REMARK SMILES IDX 1 14
REMARK H PARENT
REMARK Flexibility Score: inf
ROOT
ATOM      1  C   UNL     1      22.259 -16.036  14.178  1.00  0.00     0.000 C 
ENDROOT
BRANCH   1   2
ATOM      2  C   UNL     1      20.975 -16.448  13.435  1.00  0.00     0.000 C 
BRANCH   2   3
ATOM      3  C   UNL     1      19.897 -15.352  13.472  1.00  0.00     0.000 C 
BRANCH   3   4
ATOM      4  C   UNL     1      18.540 -15.835  12.936  1.00  0.00     0.006 C 
BRANCH   4   5
ATOM      5  C   UNL     1      18.689 -17.161  12.185  1.00  0.00     0.053 C 
BRANCH   5   6
ATOM      6  C   UNL     1      18.436 -16.968  10.723  1.00  0.00     0.041 C 
ATOM      7  O   UNL     1      18.848 -15.932  10.140  1.00  0.00    -0.550 OA
ATOM      8  O   UNL     1      17.786 -17.956   9.994  1.00  0.00    -0.550 OA
ENDBRANCH   5   6
ENDBRANCH   4   5
ENDBRANCH   3   4
ENDBRANCH   2   3
ENDBRANCH   1   2
BRANCH   1   9
ATOM      9  C   UNL     1      21.982 -15.072  15.343  1.00  0.00     0.000 C 
BRANCH   9  10
ATOM     10  C   UNL     1      22.178 -15.731  16.719  1.00  0.00    -0.000 C 
BRANCH  10  11
ATOM     11  C   UNL     1      20.986 -16.613  17.125  1.00  0.00    -0.000 C 
BRANCH  11  12
ATOM     12  C   UNL     1      19.655 -15.841  17.125  1.00  0.00    -0.000 C 
BRANCH  12  13
ATOM     13  C   UNL     1      18.475 -16.702  16.650  1.00  0.00    -0.003 C 
ATOM     14  C   UNL     1      17.209 -15.883  16.402  1.00  0.00     0.004 C 
ENDBRANCH  12  13
ENDBRANCH  11  12
ENDBRANCH  10  11
ENDBRANCH   9  10
ENDBRANCH   1   9
TORSDOF 10
ENDMDL
MODEL 4
REMARK VINA RESULT:    -2.632      1.530      2.103
REMARK INTER + INTRA:          -5.299
REMARK INTER:                  -4.302
REMARK INTRA:                  -0.998
REMARK UNBOUND:                -1.129
REMARK SMILES CCCCCCCCCCCC(=O)[O-]
REMARK SMILES IDX 7 1 8 2 9 3 10 4 11 5 12 6 13 7 14 8 6 9 5 10 4 11 3 12 2 13
REMARK SMILES IDX 1 14
REMARK H PARENT
REMARK Flexibility Score: inf
ROOT
ATOM      1  C   UNL     1      18.627 -15.347  13.320  1.00  0.00     0.000 C 
ENDROOT
BRANCH   1   2
ATOM      2  C   UNL     1      20.112 -15.250  13.715  1.00  0.00     0.000 C 
BRANCH   2   3
ATOM      3  C   UNL     1      20.785 -16.629  13.818  1.00  0.00     0.000 C 
BRANCH   3   4
ATOM      4  C   UNL     1      22.317 -16.549  13.748  1.00  0.00     0.006 C 
BRANCH   4   5
ATOM      5  C   UNL     1      22.858 -15.516  14.742  1.00  0.00     0.053 C 
BRANCH   5   6
ATOM      6  C   UNL     1      22.729 -16.020  16.145  1.00  0.00     0.041 C 
ATOM      7  O   UNL     1      22.221 -15.291  17.036  1.00  0.00    -0.550 OA
ATOM      8  O   UNL     1      23.124 -17.315  16.457  1.00  0.00    -0.550 OA
ENDBRANCH   5   6
ENDBRANCH   4   5
ENDBRANCH   3   4
ENDBRANCH   2   3
ENDBRANCH   1   2
BRANCH   1   9
ATOM      9  C   UNL     1      17.875 -16.424  14.119  1.00  0.00     0.000 C 
BRANCH   9  10
ATOM     10  C   UNL     1      17.062 -17.371  13.218  1.00  0.00    -0.000 C 
BRANCH  10  11
ATOM     11  C   UNL     1      17.943 -18.125  12.209  1.00  0.00    -0.000 C 
BRANCH  11  12
ATOM     12  C   UNL     1      17.674 -17.696  10.756  1.00  0.00    -0.000 C 
BRANCH  12  13
ATOM     13  C   UNL     1      18.900 -17.044  10.099  1.00  0.00    -0.003 C 
ATOM     14  C   UNL     1      18.580 -15.689   9.467  1.00  0.00     0.004 C 
ENDBRANCH  12  13
ENDBRANCH  11  12
ENDBRANCH  10  11
ENDBRANCH   9  10
ENDBRANCH   1   9
TORSDOF 10
ENDMDL
MODEL 5
REMARK VINA RESULT:    -2.574      2.255      4.163
REMARK INTER + INTRA:          -5.208
REMARK INTER:                  -4.057
REMARK INTRA:                  -1.151
REMARK UNBOUND:                -1.129
REMARK SMILES CCCCCCCCCCCC(=O)[O-]
REMARK SMILES IDX 7 1 8 2 9 3 10 4 11 5 12 6 13 7 14 8 6 9 5 10 4 11 3 12 2 13
REMARK SMILES IDX 1 14
REMARK H PARENT
REMARK Flexibility Score: inf
ROOT
ATOM      1  C   UNL     1      18.628 -16.776  11.092  1.00  0.00     0.000 C 
ENDROOT
BRANCH   1   2
ATOM      2  C   UNL     1      17.611 -17.841  11.540  1.00  0.00     0.000 C 
BRANCH   2   3
ATOM      3  C   UNL     1      16.825 -17.416  12.791  1.00  0.00     0.000 C 
BRANCH   3   4
ATOM      4  C   UNL     1      17.704 -17.346  14.049  1.00  0.00     0.006 C 
BRANCH   4   5
ATOM      5  C   UNL     1      17.864 -15.899  14.526  1.00  0.00     0.053 C 
BRANCH   5   6
ATOM      6  C   UNL     1      17.861 -15.835  16.020  1.00  0.00     0.041 C 
ATOM      7  O   UNL     1      16.832 -15.453  16.636  1.00  0.00    -0.550 OA
ATOM      8  O   UNL     1      18.978 -16.244  16.736  1.00  0.00    -0.550 OA
ENDBRANCH   5   6
ENDBRANCH   4   5
ENDBRANCH   3   4
ENDBRANCH   2   3
ENDBRANCH   1   2
BRANCH   1   9
ATOM      9  C   UNL     1      19.975 -17.387  10.674  1.00  0.00     0.000 C 
BRANCH   9  10
ATOM     10  C   UNL     1      20.709 -18.064  11.846  1.00  0.00    -0.000 C 
BRANCH  10  11
ATOM     11  C   UNL     1      22.222 -17.795  11.827  1.00  0.00    -0.000 C 
BRANCH  11  12
ATOM     12  C   UNL     1      22.713 -17.101  13.110  1.00  0.00    -0.000 C 
BRANCH  12  13
ATOM     13  C   UNL     1      21.559 -16.726  14.053  1.00  0.00    -0.003 C 
ATOM     14  C   UNL     1      21.382 -15.214  14.196  1.00  0.00     0.004 C 
ENDBRANCH  12  13
ENDBRANCH  11  12
ENDBRANCH  10  11
ENDBRANCH   9  10
ENDBRANCH   1   9
TORSDOF 10
ENDMDL
MODEL 6
REMARK VINA RESULT:    -2.570     15.950     17.106
REMARK INTER + INTRA:          -5.201
REMARK INTER:                  -4.227
REMARK INTRA:                  -0.974
REMARK UNBOUND:                -1.129
REMARK SMILES CCCCCCCCCCCC(=O)[O-]
REMARK SMILES IDX 7 1 8 2 9 3 10 4 11 5 12 6 13 7 14 8 6 9 5 10 4 11 3 12 2 13
REMARK SMILES IDX 1 14
REMARK H PARENT
REMARK Flexibility Score: inf
ROOT
ATOM      1  C   UNL     1      19.776 -12.024  -1.022  1.00  0.00     0.000 C 
ENDROOT
BRANCH   1   2
ATOM      2  C   UNL     1      19.018 -12.909  -2.027  1.00  0.00     0.000 C 
BRANCH   2   3
ATOM      3  C   UNL     1      18.956 -14.381  -1.587  1.00  0.00     0.000 C 
BRANCH   3   4
ATOM      4  C   UNL     1      17.701 -15.103  -2.100  1.00  0.00     0.006 C 
BRANCH   4   5
ATOM      5  C   UNL     1      16.719 -14.111  -2.731  1.00  0.00     0.053 C 
BRANCH   5   6
ATOM      6  C   UNL     1      15.366 -14.732  -2.875  1.00  0.00     0.041 C 
ATOM      7  O   UNL     1      15.248 -15.981  -2.969  1.00  0.00    -0.550 OA
ATOM      8  O   UNL     1      14.229 -13.934  -2.854  1.00  0.00    -0.550 OA
ENDBRANCH   5   6
ENDBRANCH   4   5
ENDBRANCH   3   4
ENDBRANCH   2   3
ENDBRANCH   1   2
BRANCH   1   9
ATOM      9  C   UNL     1      19.871 -10.560  -1.481  1.00  0.00     0.000 C 
BRANCH   9  10
ATOM     10  C   UNL     1      21.112 -10.289  -2.350  1.00  0.00    -0.000 C 
BRANCH  10  11
ATOM     11  C   UNL     1      22.397 -10.871  -1.739  1.00  0.00    -0.000 C 
BRANCH  11  12
ATOM     12  C   UNL     1      23.123 -11.830  -2.698  1.00  0.00    -0.000 C 
BRANCH  12  13
ATOM     13  C   UNL     1      23.108 -13.283  -2.200  1.00  0.00    -0.003 C 
ATOM     14  C   UNL     1      22.324 -14.215  -3.124  1.00  0.00     0.004 C 
ENDBRANCH  12  13
ENDBRANCH  11  12
ENDBRANCH  10  11
ENDBRANCH   9  10
ENDBRANCH   1   9
TORSDOF 10
ENDMDL
MODEL 7
REMARK VINA RESULT:    -2.544      2.886      5.630
REMARK INTER + INTRA:          -5.160
REMARK INTER:                  -4.104
REMARK INTRA:                  -1.056
REMARK UNBOUND:                -1.129
REMARK SMILES CCCCCCCCCCCC(=O)[O-]
REMARK SMILES IDX 7 1 8 2 9 3 10 4 11 5 12 6 13 7 14 8 6 9 5 10 4 11 3 12 2 13
REMARK SMILES IDX 1 14
REMARK H PARENT
REMARK Flexibility Score: inf
ROOT
ATOM      1  C   UNL     1      21.668 -17.428  13.454  1.00  0.00     0.000 C 
ENDROOT
BRANCH   1   2
ATOM      2  C   UNL     1      22.197 -17.921  12.095  1.00  0.00     0.000 C 
BRANCH   2   3
ATOM      3  C   UNL     1      21.148 -17.803  10.977  1.00  0.00     0.000 C 
BRANCH   3   4
ATOM      4  C   UNL     1      19.713 -17.712  11.516  1.00  0.00     0.006 C 
BRANCH   4   5
ATOM      5  C   UNL     1      19.081 -16.361  11.167  1.00  0.00     0.053 C 
BRANCH   5   6
ATOM      6  C   UNL     1      18.383 -16.433   9.846  1.00  0.00     0.041 C 
ATOM      7  O   UNL     1      17.741 -17.466   9.524  1.00  0.00    -0.550 OA
ATOM      8  O   UNL     1      18.400 -15.338   8.992  1.00  0.00    -0.550 OA
ENDBRANCH   5   6
ENDBRANCH   4   5
ENDBRANCH   3   4
ENDBRANCH   2   3
ENDBRANCH   1   2
BRANCH   1   9
ATOM      9  C   UNL     1      22.523 -16.292  14.040  1.00  0.00     0.000 C 
BRANCH   9  10
ATOM     10  C   UNL     1      21.674 -15.121  14.567  1.00  0.00    -0.000 C 
BRANCH  10  11
ATOM     11  C   UNL     1      20.167 -15.426  14.535  1.00  0.00    -0.000 C 
BRANCH  11  12
ATOM     12  C   UNL     1      19.590 -15.691  15.936  1.00  0.00    -0.000 C 
BRANCH  12  13
ATOM     13  C   UNL     1      18.122 -16.141  15.891  1.00  0.00    -0.003 C 
ATOM     14  C   UNL     1      17.622 -16.382  14.467  1.00  0.00     0.004 C 
ENDBRANCH  12  13
ENDBRANCH  11  12
ENDBRANCH  10  11
ENDBRANCH   9  10
ENDBRANCH   1   9
TORSDOF 10
ENDMDL
MODEL 8
REMARK VINA RESULT:    -2.424      1.624      3.968
REMARK INTER + INTRA:          -4.970
REMARK INTER:                  -3.702
REMARK INTRA:                  -1.268
REMARK UNBOUND:                -1.129
REMARK SMILES CCCCCCCCCCCC(=O)[O-]
REMARK SMILES IDX 7 1 8 2 9 3 10 4 11 5 12 6 13 7 14 8 6 9 5 10 4 11 3 12 2 13
REMARK SMILES IDX 1 14
REMARK H PARENT
REMARK Flexibility Score: inf
ROOT
ATOM      1  C   UNL     1      19.876 -17.475  10.944  1.00  0.00     0.000 C 
ENDROOT
BRANCH   1   2
ATOM      2  C   UNL     1      20.760 -17.952  12.110  1.00  0.00     0.000 C 
BRANCH   2   3
ATOM      3  C   UNL     1      22.193 -17.400  12.026  1.00  0.00     0.000 C 
BRANCH   3   4
ATOM      4  C   UNL     1      22.850 -17.240  13.405  1.00  0.00     0.006 C 
BRANCH   4   5
ATOM      5  C   UNL     1      21.792 -17.151  14.508  1.00  0.00     0.053 C 
BRANCH   5   6
ATOM      6  C   UNL     1      21.737 -15.766  15.073  1.00  0.00     0.041 C 
ATOM      7  O   UNL     1      22.035 -14.777  14.355  1.00  0.00    -0.550 OA
ATOM      8  O   UNL     1      21.308 -15.565  16.378  1.00  0.00    -0.550 OA
ENDBRANCH   5   6
ENDBRANCH   4   5
ENDBRANCH   3   4
ENDBRANCH   2   3
ENDBRANCH   1   2
BRANCH   1   9
ATOM      9  C   UNL     1      18.647 -16.684  11.423  1.00  0.00     0.000 C 
BRANCH   9  10
ATOM     10  C   UNL     1      18.963 -15.757  12.609  1.00  0.00    -0.000 C 
BRANCH  10  11
ATOM     11  C   UNL     1      17.947 -15.897  13.754  1.00  0.00    -0.000 C 
BRANCH  11  12
ATOM     12  C   UNL     1      18.107 -17.219  14.525  1.00  0.00    -0.000 C 
BRANCH  12  13
ATOM     13  C   UNL     1      18.104 -17.015  16.048  1.00  0.00    -0.003 C 
ATOM     14  C   UNL     1      17.567 -15.644  16.458  1.00  0.00     0.004 C 
ENDBRANCH  12  13
ENDBRANCH  11  12
ENDBRANCH  10  11
ENDBRANCH   9  10
ENDBRANCH   1   9
TORSDOF 10
ENDMDL
MODEL 9
REMARK VINA RESULT:    -2.395      1.880      4.539
REMARK INTER + INTRA:          -4.924
REMARK INTER:                  -3.834
REMARK INTRA:                  -1.090
REMARK UNBOUND:                -1.129
REMARK SMILES CCCCCCCCCCCC(=O)[O-]
REMARK SMILES IDX 7 1 8 2 9 3 10 4 11 5 12 6 13 7 14 8 6 9 5 10 4 11 3 12 2 13
REMARK SMILES IDX 1 14
REMARK H PARENT
REMARK Flexibility Score: inf
ROOT
ATOM      1  C   UNL     1      18.803 -16.950  12.297  1.00  0.00     0.000 C 
ENDROOT
BRANCH   1   2
ATOM      2  C   UNL     1      19.323 -17.044  10.851  1.00  0.00     0.000 C 
BRANCH   2   3
ATOM      3  C   UNL     1      20.674 -17.772  10.757  1.00  0.00     0.000 C 
BRANCH   3   4
ATOM      4  C   UNL     1      21.340 -17.968  12.128  1.00  0.00     0.006 C 
BRANCH   4   5
ATOM      5  C   UNL     1      22.656 -17.190  12.213  1.00  0.00     0.053 C 
BRANCH   5   6
ATOM      6  C   UNL     1      22.833 -16.606  13.579  1.00  0.00     0.041 C 
ATOM      7  O   UNL     1      22.877 -17.356  14.588  1.00  0.00    -0.550 OA
ATOM      8  O   UNL     1      22.999 -15.236  13.732  1.00  0.00    -0.550 OA
ENDBRANCH   5   6
ENDBRANCH   4   5
ENDBRANCH   3   4
ENDBRANCH   2   3
ENDBRANCH   1   2
BRANCH   1   9
ATOM      9  C   UNL     1      18.644 -15.496  12.771  1.00  0.00     0.000 C 
BRANCH   9  10
ATOM     10  C   UNL     1      19.362 -15.225  14.106  1.00  0.00    -0.000 C 
BRANCH  10  11
ATOM     11  C   UNL     1      19.442 -16.476  14.996  1.00  0.00    -0.000 C 
BRANCH  11  12
ATOM     12  C   UNL     1      18.938 -16.215  16.426  1.00  0.00    -0.000 C 
BRANCH  12  13
ATOM     13  C   UNL     1      17.413 -16.359  16.547  1.00  0.00    -0.003 C 
ATOM     14  C   UNL     1      16.746 -15.111  17.125  1.00  0.00     0.004 C 
ENDBRANCH  12  13
ENDBRANCH  11  12
ENDBRANCH  10  11
ENDBRANCH   9  10
ENDBRANCH   1   9
TORSDOF 10
ENDMDL
