MODEL 1
REMARK VINA RESULT:    -5.288      0.000      0.000
REMARK INTER + INTRA:         -17.261
REMARK INTER:                 -13.944
REMARK INTRA:                  -3.317
REMARK UNBOUND:                -3.317
REMARK SMILES CCCCCCCCCCCCCCCCCCCCCCCCCCCCCC(=O)[O-]
REMARK SMILES IDX 16 1 17 2 18 3 19 4 20 5 21 6 22 7 23 8 24 9 25 10 26 11
REMARK SMILES IDX 27 12 28 13 29 14 30 15 31 16 32 17 15 18 14 19 13 20 12 21
REMARK SMILES IDX 11 22 10 23 9 24 8 25 7 26 6 27 5 28 4 29 3 30 2 31 1 32
REMARK H PARENT
REMARK Flexibility Score: inf
ROOT
ATOM      1  C   UNL     1      23.375  -6.500 -36.481  1.00  0.00     0.000 C 
ENDROOT
BRANCH   1   2
ATOM      2  C   UNL     1      22.321  -7.146 -37.396  1.00  0.00     0.000 C 
BRANCH   2   3
ATOM      3  C   UNL     1      22.783  -8.487 -37.989  1.00  0.00     0.000 C 
BRANCH   3   4
ATOM      4  C   UNL     1      23.953  -8.334 -38.978  1.00  0.00     0.000 C 
BRANCH   4   5
ATOM      5  C   UNL     1      24.977  -9.490 -38.977  1.00  0.00     0.000 C 
BRANCH   5   6
ATOM      6  C   UNL     1      24.887 -10.446 -40.181  1.00  0.00     0.000 C 
BRANCH   6   7
ATOM      7  C   UNL     1      25.345 -11.889 -39.894  1.00  0.00     0.000 C 
BRANCH   7   8
ATOM      8  C   UNL     1      24.625 -12.950 -40.754  1.00  0.00     0.000 C 
BRANCH   8   9
ATOM      9  C   UNL     1      24.589 -14.331 -40.078  1.00  0.00     0.000 C 
BRANCH   9  10
ATOM     10  C   UNL     1      23.542 -15.264 -40.709  1.00  0.00     0.000 C 
BRANCH  10  11
ATOM     11  C   UNL     1      24.163 -16.249 -41.716  1.00  0.00     0.000 C 
BRANCH  11  12
ATOM     12  C   UNL     1      24.978 -17.365 -41.037  1.00  0.00     0.000 C 
BRANCH  12  13
ATOM     13  C   UNL     1      25.267 -18.596 -41.922  1.00  0.00     0.006 C 
BRANCH  13  14
ATOM     14  C   UNL     1      26.518 -18.463 -42.804  1.00  0.00     0.053 C 
BRANCH  14  15
ATOM     15  C   UNL     1      27.279 -19.749 -42.894  1.00  0.00     0.041 C 
ATOM     16  O   UNL     1      28.325 -19.817 -43.591  1.00  0.00    -0.550 OA
ATOM     17  O   UNL     1      26.852 -20.864 -42.182  1.00  0.00    -0.550 OA
ENDBRANCH  14  15
ENDBRANCH  13  14
ENDBRANCH  12  13
ENDBRANCH  11  12
ENDBRANCH  10  11
ENDBRANCH   9  10
ENDBRANCH   8   9
ENDBRANCH   7   8
ENDBRANCH   6   7
ENDBRANCH   5   6
ENDBRANCH   4   5
ENDBRANCH   3   4
ENDBRANCH   2   3
ENDBRANCH   1   2
BRANCH   1  18
ATOM     18  C   UNL     1      23.291  -4.964 -36.460  1.00  0.00     0.000 C 
BRANCH  18  19
ATOM     19  C   UNL     1      22.037  -4.450 -35.729  1.00  0.00     0.000 C 
BRANCH  19  20
ATOM     20  C   UNL     1      21.780  -2.935 -35.857  1.00  0.00     0.000 C 
BRANCH  20  21
ATOM     21  C   UNL     1      21.798  -2.379 -37.295  1.00  0.00     0.000 C 
BRANCH  21  22
ATOM     22  C   UNL     1      20.506  -2.653 -38.092  1.00  0.00     0.000 C 
BRANCH  22  23
ATOM     23  C   UNL     1      20.567  -3.966 -38.896  1.00  0.00     0.000 C 
BRANCH  23  24
ATOM     24  C   UNL     1      21.550  -3.903 -40.079  1.00  0.00    -0.000 C 
BRANCH  24  25
ATOM     25  C   UNL     1      22.471  -5.127 -40.238  1.00  0.00    -0.000 C 
BRANCH  25  26
ATOM     26  C   UNL     1      23.943  -4.825 -39.914  1.00  0.00    -0.000 C 
BRANCH  26  27
ATOM     27  C   UNL     1      24.206  -3.325 -39.687  1.00  0.00    -0.000 C 
BRANCH  27  28
ATOM     28  C   UNL     1      25.472  -3.031 -38.854  1.00  0.00    -0.000 C 
BRANCH  28  29
ATOM     29  C   UNL     1      25.948  -4.265 -38.067  1.00  0.00    -0.000 C 
BRANCH  29  30
ATOM     30  C   UNL     1      27.481  -4.363 -37.988  1.00  0.00    -0.000 C 
BRANCH  30  31
ATOM     31  C   UNL     1      27.975  -5.812 -37.868  1.00  0.00    -0.003 C 
ATOM     32  C   UNL     1      26.917  -6.701 -37.222  1.00  0.00     0.004 C 
ENDBRANCH  30  31
ENDBRANCH  29  30
ENDBRANCH  28  29
ENDBRANCH  27  28
ENDBRANCH  26  27
ENDBRANCH  25  26
ENDBRANCH  24  25
ENDBRANCH  23  24
ENDBRANCH  22  23
ENDBRANCH  21  22
ENDBRANCH  20  21
ENDBRANCH  19  20
ENDBRANCH  18  19
ENDBRANCH   1  18
TORSDOF 28
ENDMDL
MODEL 2
REMARK VINA RESULT:    -4.774      1.359      3.178
REMARK INTER + INTRA:         -15.906
REMARK INTER:                 -12.434
REMARK INTRA:                  -3.472
REMARK UNBOUND:                -3.317
REMARK SMILES CCCCCCCCCCCCCCCCCCCCCCCCCCCCCC(=O)[O-]
REMARK SMILES IDX 16 1 17 2 18 3 19 4 20 5 21 6 22 7 23 8 24 9 25 10 26 11
REMARK SMILES IDX 27 12 28 13 29 14 30 15 31 16 32 17 15 18 14 19 13 20 12 21
REMARK SMILES IDX 11 22 10 23 9 24 8 25 7 26 6 27 5 28 4 29 3 30 2 31 1 32
REMARK H PARENT
REMARK Flexibility Score: inf
ROOT
ATOM      1  C   UNL     1      21.649  -3.449 -35.604  1.00  0.00     0.000 C 
ENDROOT
BRANCH   1   2
ATOM      2  C   UNL     1      21.864  -4.850 -36.198  1.00  0.00     0.000 C 
BRANCH   2   3
ATOM      3  C   UNL     1      23.350  -5.221 -36.337  1.00  0.00     0.000 C 
BRANCH   3   4
ATOM      4  C   UNL     1      23.577  -6.736 -36.486  1.00  0.00     0.000 C 
BRANCH   4   5
ATOM      5  C   UNL     1      22.496  -7.492 -37.289  1.00  0.00     0.000 C 
BRANCH   5   6
ATOM      6  C   UNL     1      22.982  -8.763 -38.010  1.00  0.00     0.000 C 
BRANCH   6   7
ATOM      7  C   UNL     1      23.471  -8.538 -39.453  1.00  0.00     0.000 C 
BRANCH   7   8
ATOM      8  C   UNL     1      24.820  -9.221 -39.764  1.00  0.00     0.000 C 
BRANCH   8   9
ATOM      9  C   UNL     1      24.657 -10.478 -40.635  1.00  0.00     0.000 C 
BRANCH   9  10
ATOM     10  C   UNL     1      25.078 -11.760 -39.897  1.00  0.00     0.000 C 
BRANCH  10  11
ATOM     11  C   UNL     1      24.725 -13.035 -40.684  1.00  0.00     0.000 C 
BRANCH  11  12
ATOM     12  C   UNL     1      24.674 -14.292 -39.796  1.00  0.00     0.000 C 
BRANCH  12  13
ATOM     13  C   UNL     1      23.822 -15.452 -40.352  1.00  0.00     0.006 C 
BRANCH  13  14
ATOM     14  C   UNL     1      24.616 -16.731 -40.659  1.00  0.00     0.053 C 
BRANCH  14  15
ATOM     15  C   UNL     1      24.605 -17.060 -42.120  1.00  0.00     0.041 C 
ATOM     16  O   UNL     1      23.552 -16.910 -42.794  1.00  0.00    -0.550 OA
ATOM     17  O   UNL     1      25.766 -17.501 -42.745  1.00  0.00    -0.550 OA
ENDBRANCH  14  15
ENDBRANCH  13  14
ENDBRANCH  12  13
ENDBRANCH  11  12
ENDBRANCH  10  11
ENDBRANCH   9  10
ENDBRANCH   8   9
ENDBRANCH   7   8
ENDBRANCH   6   7
ENDBRANCH   5   6
ENDBRANCH   4   5
ENDBRANCH   3   4
ENDBRANCH   2   3
ENDBRANCH   1   2
BRANCH   1  18
ATOM     18  C   UNL     1      21.699  -2.334 -36.663  1.00  0.00     0.000 C 
BRANCH  18  19
ATOM     19  C   UNL     1      20.304  -1.965 -37.201  1.00  0.00     0.000 C 
BRANCH  19  20
ATOM     20  C   UNL     1      20.073  -2.279 -38.692  1.00  0.00     0.000 C 
BRANCH  20  21
ATOM     21  C   UNL     1      20.326  -3.742 -39.108  1.00  0.00     0.000 C 
BRANCH  21  22
ATOM     22  C   UNL     1      21.428  -3.912 -40.173  1.00  0.00     0.000 C 
BRANCH  22  23
ATOM     23  C   UNL     1      22.297  -5.162 -39.940  1.00  0.00     0.000 C 
BRANCH  23  24
ATOM     24  C   UNL     1      23.797  -4.836 -39.803  1.00  0.00    -0.000 C 
BRANCH  24  25
ATOM     25  C   UNL     1      24.157  -3.342 -39.892  1.00  0.00    -0.000 C 
BRANCH  25  26
ATOM     26  C   UNL     1      24.681  -2.765 -38.566  1.00  0.00    -0.000 C 
BRANCH  26  27
ATOM     27  C   UNL     1      25.945  -3.483 -38.063  1.00  0.00    -0.000 C 
BRANCH  27  28
ATOM     28  C   UNL     1      27.253  -2.965 -38.700  1.00  0.00    -0.000 C 
BRANCH  28  29
ATOM     29  C   UNL     1      28.420  -3.952 -38.516  1.00  0.00    -0.000 C 
BRANCH  29  30
ATOM     30  C   UNL     1      28.071  -5.113 -37.571  1.00  0.00    -0.000 C 
BRANCH  30  31
ATOM     31  C   UNL     1      27.541  -6.346 -38.319  1.00  0.00    -0.003 C 
ATOM     32  C   UNL     1      26.517  -7.101 -37.476  1.00  0.00     0.004 C 
ENDBRANCH  30  31
ENDBRANCH  29  30
ENDBRANCH  28  29
ENDBRANCH  27  28
ENDBRANCH  26  27
ENDBRANCH  25  26
ENDBRANCH  24  25
ENDBRANCH  23  24
ENDBRANCH  22  23
ENDBRANCH  21  22
ENDBRANCH  20  21
ENDBRANCH  19  20
ENDBRANCH  18  19
ENDBRANCH   1  18
TORSDOF 28
ENDMDL
MODEL 3
REMARK VINA RESULT:    -4.688      3.727     10.746
REMARK INTER + INTRA:         -15.678
REMARK INTER:                 -12.380
REMARK INTRA:                  -3.298
REMARK UNBOUND:                -3.317
REMARK SMILES CCCCCCCCCCCCCCCCCCCCCCCCCCCCCC(=O)[O-]
REMARK SMILES IDX 16 1 17 2 18 3 19 4 20 5 21 6 22 7 23 8 24 9 25 10 26 11
REMARK SMILES IDX 27 12 28 13 29 14 30 15 31 16 32 17 15 18 14 19 13 20 12 21
REMARK SMILES IDX 11 22 10 23 9 24 8 25 7 26 6 27 5 28 4 29 3 30 2 31 1 32
REMARK H PARENT
REMARK Flexibility Score: inf
ROOT
ATOM      1  C   UNL     1      23.481  -6.284 -36.361  1.00  0.00     0.000 C 
ENDROOT
BRANCH   1   2
ATOM      2  C   UNL     1      23.146  -4.796 -36.173  1.00  0.00     0.000 C 
BRANCH   2   3
ATOM      3  C   UNL     1      21.646  -4.495 -36.331  1.00  0.00     0.000 C 
BRANCH   3   4
ATOM      4  C   UNL     1      21.346  -3.544 -37.505  1.00  0.00     0.000 C 
BRANCH   4   5
ATOM      5  C   UNL     1      20.771  -4.217 -38.771  1.00  0.00     0.000 C 
BRANCH   5   6
ATOM      6  C   UNL     1      21.666  -4.133 -40.022  1.00  0.00     0.000 C 
BRANCH   6   7
ATOM      7  C   UNL     1      22.814  -5.159 -40.063  1.00  0.00     0.000 C 
BRANCH   7   8
ATOM      8  C   UNL     1      24.193  -4.561 -39.711  1.00  0.00     0.000 C 
BRANCH   8   9
ATOM      9  C   UNL     1      24.160  -3.026 -39.600  1.00  0.00     0.000 C 
BRANCH   9  10
ATOM     10  C   UNL     1      25.320  -2.476 -38.754  1.00  0.00     0.000 C 
BRANCH  10  11
ATOM     11  C   UNL     1      26.164  -3.594 -38.116  1.00  0.00     0.000 C 
BRANCH  11  12
ATOM     12  C   UNL     1      27.676  -3.403 -38.339  1.00  0.00     0.000 C 
BRANCH  12  13
ATOM     13  C   UNL     1      28.483  -4.708 -38.504  1.00  0.00     0.006 C 
BRANCH  13  14
ATOM     14  C   UNL     1      27.624  -5.976 -38.614  1.00  0.00     0.053 C 
BRANCH  14  15
ATOM     15  C   UNL     1      27.610  -6.757 -37.336  1.00  0.00     0.041 C 
ATOM     16  O   UNL     1      26.517  -7.049 -36.785  1.00  0.00    -0.550 OA
ATOM     17  O   UNL     1      28.804  -7.190 -36.770  1.00  0.00    -0.550 OA
ENDBRANCH  14  15
ENDBRANCH  13  14
ENDBRANCH  12  13
ENDBRANCH  11  12
ENDBRANCH  10  11
ENDBRANCH   9  10
ENDBRANCH   8   9
ENDBRANCH   7   8
ENDBRANCH   6   7
ENDBRANCH   5   6
ENDBRANCH   4   5
ENDBRANCH   3   4
ENDBRANCH   2   3
ENDBRANCH   1   2
BRANCH   1  18
ATOM     18  C   UNL     1      22.442  -7.031 -37.214  1.00  0.00     0.000 C 
BRANCH  18  19
ATOM     19  C   UNL     1      22.943  -8.409 -37.685  1.00  0.00     0.000 C 
BRANCH  19  20
ATOM     20  C   UNL     1      23.301  -8.499 -39.182  1.00  0.00     0.000 C 
BRANCH  20  21
ATOM     21  C   UNL     1      24.803  -8.633 -39.498  1.00  0.00     0.000 C 
BRANCH  21  22
ATOM     22  C   UNL     1      25.361 -10.059 -39.312  1.00  0.00     0.000 C 
BRANCH  22  23
ATOM     23  C   UNL     1      24.997 -11.000 -40.476  1.00  0.00     0.000 C 
BRANCH  23  24
ATOM     24  C   UNL     1      25.011 -12.488 -40.076  1.00  0.00    -0.000 C 
BRANCH  24  25
ATOM     25  C   UNL     1      24.255 -13.434 -41.027  1.00  0.00    -0.000 C 
BRANCH  25  26
ATOM     26  C   UNL     1      24.423 -14.919 -40.665  1.00  0.00    -0.000 C 
BRANCH  26  27
ATOM     27  C   UNL     1      23.323 -15.807 -41.273  1.00  0.00    -0.000 C 
BRANCH  27  28
ATOM     28  C   UNL     1      23.858 -16.897 -42.227  1.00  0.00    -0.000 C 
BRANCH  28  29
ATOM     29  C   UNL     1      25.340 -17.219 -41.969  1.00  0.00    -0.000 C 
BRANCH  29  30
ATOM     30  C   UNL     1      25.609 -18.729 -41.858  1.00  0.00    -0.000 C 
BRANCH  30  31
ATOM     31  C   UNL     1      26.311 -19.297 -43.100  1.00  0.00    -0.003 C 
ATOM     32  C   UNL     1      27.819 -19.074 -43.028  1.00  0.00     0.004 C 
ENDBRANCH  30  31
ENDBRANCH  29  30
ENDBRANCH  28  29
ENDBRANCH  27  28
ENDBRANCH  26  27
ENDBRANCH  25  26
ENDBRANCH  24  25
ENDBRANCH  23  24
ENDBRANCH  22  23
ENDBRANCH  21  22
ENDBRANCH  20  21
ENDBRANCH  19  20
ENDBRANCH  18  19
ENDBRANCH   1  18
TORSDOF 28
ENDMDL
MODEL 4
REMARK VINA RESULT:    -4.677      3.746     11.629
REMARK INTER + INTRA:         -15.650
REMARK INTER:                 -12.651
REMARK INTRA:                  -2.999
REMARK UNBOUND:                -3.317
REMARK SMILES CCCCCCCCCCCCCCCCCCCCCCCCCCCCCC(=O)[O-]
REMARK SMILES IDX 16 1 17 2 18 3 19 4 20 5 21 6 22 7 23 8 24 9 25 10 26 11
REMARK SMILES IDX 27 12 28 13 29 14 30 15 31 16 32 17 15 18 14 19 13 20 12 21
REMARK SMILES IDX 11 22 10 23 9 24 8 25 7 26 6 27 5 28 4 29 3 30 2 31 1 32
REMARK H PARENT
REMARK Flexibility Score: inf
ROOT
ATOM      1  C   UNL     1      23.262  -7.920 -39.380  1.00  0.00     0.000 C 
ENDROOT
BRANCH   1   2
ATOM      2  C   UNL     1      22.730  -8.341 -38.001  1.00  0.00     0.000 C 
BRANCH   2   3
ATOM      3  C   UNL     1      22.235  -7.152 -37.161  1.00  0.00     0.000 C 
BRANCH   3   4
ATOM      4  C   UNL     1      23.379  -6.401 -36.455  1.00  0.00     0.000 C 
BRANCH   4   5
ATOM      5  C   UNL     1      23.091  -4.920 -36.124  1.00  0.00     0.000 C 
BRANCH   5   6
ATOM      6  C   UNL     1      21.603  -4.527 -36.113  1.00  0.00     0.000 C 
BRANCH   6   7
ATOM      7  C   UNL     1      21.195  -3.515 -37.200  1.00  0.00     0.000 C 
BRANCH   7   8
ATOM      8  C   UNL     1      20.837  -4.168 -38.552  1.00  0.00     0.000 C 
BRANCH   8   9
ATOM      9  C   UNL     1      21.678  -3.615 -39.715  1.00  0.00     0.000 C 
BRANCH   9  10
ATOM     10  C   UNL     1      22.964  -4.426 -39.944  1.00  0.00     0.000 C 
BRANCH  10  11
ATOM     11  C   UNL     1      24.186  -3.800 -39.246  1.00  0.00     0.000 C 
BRANCH  11  12
ATOM     12  C   UNL     1      25.334  -4.805 -39.034  1.00  0.00     0.000 C 
BRANCH  12  13
ATOM     13  C   UNL     1      26.345  -4.421 -37.934  1.00  0.00     0.006 C 
BRANCH  13  14
ATOM     14  C   UNL     1      27.696  -5.145 -38.034  1.00  0.00     0.053 C 
BRANCH  14  15
ATOM     15  C   UNL     1      27.690  -6.446 -37.292  1.00  0.00     0.041 C 
ATOM     16  O   UNL     1      28.776  -6.977 -36.938  1.00  0.00    -0.550 OA
ATOM     17  O   UNL     1      26.486  -7.057 -36.962  1.00  0.00    -0.550 OA
ENDBRANCH  14  15
ENDBRANCH  13  14
ENDBRANCH  12  13
ENDBRANCH  11  12
ENDBRANCH  10  11
ENDBRANCH   9  10
ENDBRANCH   8   9
ENDBRANCH   7   8
ENDBRANCH   6   7
ENDBRANCH   5   6
ENDBRANCH   4   5
ENDBRANCH   3   4
ENDBRANCH   2   3
ENDBRANCH   1   2
BRANCH   1  18
ATOM     18  C   UNL     1      24.724  -8.337 -39.613  1.00  0.00     0.000 C 
BRANCH  18  19
ATOM     19  C   UNL     1      25.005  -9.785 -39.170  1.00  0.00     0.000 C 
BRANCH  19  20
ATOM     20  C   UNL     1      24.931 -10.839 -40.292  1.00  0.00     0.000 C 
BRANCH  20  21
ATOM     21  C   UNL     1      25.346 -12.267 -39.889  1.00  0.00     0.000 C 
BRANCH  21  22
ATOM     22  C   UNL     1      24.547 -13.379 -40.599  1.00  0.00     0.000 C 
BRANCH  22  23
ATOM     23  C   UNL     1      24.569 -14.715 -39.832  1.00  0.00     0.000 C 
BRANCH  23  24
ATOM     24  C   UNL     1      23.401 -15.646 -40.210  1.00  0.00    -0.000 C 
BRANCH  24  25
ATOM     25  C   UNL     1      23.078 -15.721 -41.714  1.00  0.00    -0.000 C 
BRANCH  25  26
ATOM     26  C   UNL     1      23.733 -16.922 -42.416  1.00  0.00    -0.000 C 
BRANCH  26  27
ATOM     27  C   UNL     1      25.250 -16.745 -42.605  1.00  0.00    -0.000 C 
BRANCH  27  28
ATOM     28  C   UNL     1      26.022 -18.075 -42.738  1.00  0.00    -0.000 C 
BRANCH  28  29
ATOM     29  C   UNL     1      25.602 -19.100 -41.669  1.00  0.00    -0.000 C 
BRANCH  29  30
ATOM     30  C   UNL     1      26.201 -20.494 -41.915  1.00  0.00    -0.000 C 
BRANCH  30  31
ATOM     31  C   UNL     1      27.248 -20.497 -43.040  1.00  0.00    -0.003 C 
ATOM     32  C   UNL     1      28.382 -21.470 -42.730  1.00  0.00     0.004 C 
ENDBRANCH  30  31
ENDBRANCH  29  30
ENDBRANCH  28  29
ENDBRANCH  27  28
ENDBRANCH  26  27
ENDBRANCH  25  26
ENDBRANCH  24  25
ENDBRANCH  23  24
ENDBRANCH  22  23
ENDBRANCH  21  22
ENDBRANCH  20  21
ENDBRANCH  19  20
ENDBRANCH  18  19
ENDBRANCH   1  18
TORSDOF 28
ENDMDL
MODEL 5
REMARK VINA RESULT:    -4.674      4.386     12.156
REMARK INTER + INTRA:         -15.643
REMARK INTER:                 -12.597
REMARK INTRA:                  -3.046
REMARK UNBOUND:                -3.317
REMARK SMILES CCCCCCCCCCCCCCCCCCCCCCCCCCCCCC(=O)[O-]
REMARK SMILES IDX 16 1 17 2 18 3 19 4 20 5 21 6 22 7 23 8 24 9 25 10 26 11
REMARK SMILES IDX 27 12 28 13 29 14 30 15 31 16 32 17 15 18 14 19 13 20 12 21
REMARK SMILES IDX 11 22 10 23 9 24 8 25 7 26 6 27 5 28 4 29 3 30 2 31 1 32
REMARK H PARENT
REMARK Flexibility Score: inf
ROOT
ATOM      1  C   UNL     1      24.572  -8.195 -38.025  1.00  0.00     0.000 C 
ENDROOT
BRANCH   1   2
ATOM      2  C   UNL     1      25.698  -7.419 -37.325  1.00  0.00     0.000 C 
BRANCH   2   3
ATOM      3  C   UNL     1      26.619  -6.680 -38.310  1.00  0.00     0.000 C 
BRANCH   3   4
ATOM      4  C   UNL     1      26.759  -5.181 -37.989  1.00  0.00     0.000 C 
BRANCH   4   5
ATOM      5  C   UNL     1      25.432  -4.395 -37.905  1.00  0.00     0.000 C 
BRANCH   5   6
ATOM      6  C   UNL     1      25.161  -3.438 -39.080  1.00  0.00     0.000 C 
BRANCH   6   7
ATOM      7  C   UNL     1      24.087  -2.369 -38.806  1.00  0.00     0.000 C 
BRANCH   7   8
ATOM      8  C   UNL     1      23.650  -2.293 -37.327  1.00  0.00     0.000 C 
BRANCH   8   9
ATOM      9  C   UNL     1      22.128  -2.138 -37.168  1.00  0.00     0.000 C 
BRANCH   9  10
ATOM     10  C   UNL     1      21.525  -3.206 -36.241  1.00  0.00     0.000 C 
BRANCH  10  11
ATOM     11  C   UNL     1      22.533  -4.313 -35.885  1.00  0.00     0.000 C 
BRANCH  11  12
ATOM     12  C   UNL     1      22.294  -5.616 -36.669  1.00  0.00     0.000 C 
BRANCH  12  13
ATOM     13  C   UNL     1      21.389  -5.477 -37.911  1.00  0.00     0.006 C 
BRANCH  13  14
ATOM     14  C   UNL     1      22.098  -5.749 -39.246  1.00  0.00     0.053 C 
BRANCH  14  15
ATOM     15  C   UNL     1      21.577  -4.875 -40.345  1.00  0.00     0.041 C 
ATOM     16  O   UNL     1      21.139  -3.724 -40.085  1.00  0.00    -0.550 OA
ATOM     17  O   UNL     1      21.604  -5.320 -41.663  1.00  0.00    -0.550 OA
ENDBRANCH  14  15
ENDBRANCH  13  14
ENDBRANCH  12  13
ENDBRANCH  11  12
ENDBRANCH  10  11
ENDBRANCH   9  10
ENDBRANCH   8   9
ENDBRANCH   7   8
ENDBRANCH   6   7
ENDBRANCH   5   6
ENDBRANCH   4   5
ENDBRANCH   3   4
ENDBRANCH   2   3
ENDBRANCH   1   2
BRANCH   1  18
ATOM     18  C   UNL     1      25.088  -9.378 -38.862  1.00  0.00     0.000 C 
BRANCH  18  19
ATOM     19  C   UNL     1      24.293  -9.572 -40.167  1.00  0.00     0.000 C 
BRANCH  19  20
ATOM     20  C   UNL     1      24.655 -10.835 -40.972  1.00  0.00     0.000 C 
BRANCH  20  21
ATOM     21  C   UNL     1      25.048 -12.067 -40.132  1.00  0.00     0.000 C 
BRANCH  21  22
ATOM     22  C   UNL     1      24.607 -13.412 -40.744  1.00  0.00     0.000 C 
BRANCH  22  23
ATOM     23  C   UNL     1      24.595 -14.561 -39.717  1.00  0.00     0.000 C 
BRANCH  23  24
ATOM     24  C   UNL     1      23.749 -15.765 -40.171  1.00  0.00    -0.000 C 
BRANCH  24  25
ATOM     25  C   UNL     1      23.465 -15.840 -41.683  1.00  0.00    -0.000 C 
BRANCH  25  26
ATOM     26  C   UNL     1      24.153 -17.031 -42.370  1.00  0.00    -0.000 C 
BRANCH  26  27
ATOM     27  C   UNL     1      24.994 -17.875 -41.395  1.00  0.00    -0.000 C 
BRANCH  27  28
ATOM     28  C   UNL     1      25.816 -18.987 -42.081  1.00  0.00    -0.000 C 
BRANCH  28  29
ATOM     29  C   UNL     1      26.865 -18.418 -43.053  1.00  0.00    -0.000 C 
BRANCH  29  30
ATOM     30  C   UNL     1      28.046 -19.376 -43.279  1.00  0.00    -0.000 C 
BRANCH  30  31
ATOM     31  C   UNL     1      27.593 -20.810 -43.594  1.00  0.00    -0.003 C 
ATOM     32  C   UNL     1      28.047 -21.780 -42.507  1.00  0.00     0.004 C 
ENDBRANCH  30  31
ENDBRANCH  29  30
ENDBRANCH  28  29
ENDBRANCH  27  28
ENDBRANCH  26  27
ENDBRANCH  25  26
ENDBRANCH  24  25
ENDBRANCH  23  24
ENDBRANCH  22  23
ENDBRANCH  21  22
ENDBRANCH  20  21
ENDBRANCH  19  20
ENDBRANCH  18  19
ENDBRANCH   1  18
TORSDOF 28
ENDMDL
MODEL 6
REMARK VINA RESULT:    -4.578      4.295     11.598
REMARK INTER + INTRA:         -15.388
REMARK INTER:                 -12.569
REMARK INTRA:                  -2.819
REMARK UNBOUND:                -3.317
REMARK SMILES CCCCCCCCCCCCCCCCCCCCCCCCCCCCCC(=O)[O-]
REMARK SMILES IDX 16 1 17 2 18 3 19 4 20 5 21 6 22 7 23 8 24 9 25 10 26 11
REMARK SMILES IDX 27 12 28 13 29 14 30 15 31 16 32 17 15 18 14 19 13 20 12 21
REMARK SMILES IDX 11 22 10 23 9 24 8 25 7 26 6 27 5 28 4 29 3 30 2 31 1 32
REMARK H PARENT
REMARK Flexibility Score: inf
ROOT
ATOM      1  C   UNL     1      23.560  -6.730 -36.423  1.00  0.00     0.000 C 
ENDROOT
BRANCH   1   2
ATOM      2  C   UNL     1      24.790  -6.157 -37.145  1.00  0.00     0.000 C 
BRANCH   2   3
ATOM      3  C   UNL     1      26.029  -7.061 -37.026  1.00  0.00     0.000 C 
BRANCH   3   4
ATOM      4  C   UNL     1      27.146  -6.679 -38.014  1.00  0.00     0.000 C 
BRANCH   4   5
ATOM      5  C   UNL     1      27.885  -5.359 -37.701  1.00  0.00     0.000 C 
BRANCH   5   6
ATOM      6  C   UNL     1      27.510  -4.168 -38.602  1.00  0.00     0.000 C 
BRANCH   6   7
ATOM      7  C   UNL     1      26.393  -3.265 -38.046  1.00  0.00     0.000 C 
BRANCH   7   8
ATOM      8  C   UNL     1      25.273  -2.965 -39.065  1.00  0.00     0.000 C 
BRANCH   8   9
ATOM      9  C   UNL     1      23.994  -2.433 -38.397  1.00  0.00     0.000 C 
BRANCH   9  10
ATOM     10  C   UNL     1      23.825  -2.953 -36.960  1.00  0.00     0.000 C 
BRANCH  10  11
ATOM     11  C   UNL     1      22.346  -3.115 -36.563  1.00  0.00     0.000 C 
BRANCH  11  12
ATOM     12  C   UNL     1      21.395  -2.285 -37.445  1.00  0.00     0.000 C 
BRANCH  12  13
ATOM     13  C   UNL     1      20.436  -3.110 -38.329  1.00  0.00     0.006 C 
BRANCH  13  14
ATOM     14  C   UNL     1      20.939  -4.523 -38.663  1.00  0.00     0.053 C 
BRANCH  14  15
ATOM     15  C   UNL     1      21.541  -4.594 -40.032  1.00  0.00     0.041 C 
ATOM     16  O   UNL     1      22.661  -5.144 -40.203  1.00  0.00    -0.550 OA
ATOM     17  O   UNL     1      20.852  -4.082 -41.126  1.00  0.00    -0.550 OA
ENDBRANCH  14  15
ENDBRANCH  13  14
ENDBRANCH  12  13
ENDBRANCH  11  12
ENDBRANCH  10  11
ENDBRANCH   9  10
ENDBRANCH   8   9
ENDBRANCH   7   8
ENDBRANCH   6   7
ENDBRANCH   5   6
ENDBRANCH   4   5
ENDBRANCH   3   4
ENDBRANCH   2   3
ENDBRANCH   1   2
BRANCH   1  18
ATOM     18  C   UNL     1      22.504  -7.293 -37.390  1.00  0.00     0.000 C 
BRANCH  18  19
ATOM     19  C   UNL     1      22.920  -8.645 -37.999  1.00  0.00     0.000 C 
BRANCH  19  20
ATOM     20  C   UNL     1      23.476  -8.574 -39.435  1.00  0.00     0.000 C 
BRANCH  20  21
ATOM     21  C   UNL     1      24.789  -9.345 -39.676  1.00  0.00     0.000 C 
BRANCH  21  22
ATOM     22  C   UNL     1      24.648 -10.540 -40.641  1.00  0.00     0.000 C 
BRANCH  22  23
ATOM     23  C   UNL     1      25.251 -11.840 -40.074  1.00  0.00     0.000 C 
BRANCH  23  24
ATOM     24  C   UNL     1      24.638 -13.109 -40.696  1.00  0.00    -0.000 C 
BRANCH  24  25
ATOM     25  C   UNL     1      24.566 -14.332 -39.763  1.00  0.00    -0.000 C 
BRANCH  25  26
ATOM     26  C   UNL     1      23.865 -15.542 -40.402  1.00  0.00    -0.000 C 
BRANCH  26  27
ATOM     27  C   UNL     1      24.375 -15.842 -41.823  1.00  0.00    -0.000 C 
BRANCH  27  28
ATOM     28  C   UNL     1      24.278 -17.330 -42.221  1.00  0.00    -0.000 C 
BRANCH  28  29
ATOM     29  C   UNL     1      25.316 -18.197 -41.486  1.00  0.00    -0.000 C 
BRANCH  29  30
ATOM     30  C   UNL     1      25.725 -19.442 -42.289  1.00  0.00    -0.000 C 
BRANCH  30  31
ATOM     31  C   UNL     1      27.051 -19.252 -43.041  1.00  0.00    -0.003 C 
ATOM     32  C   UNL     1      27.877 -20.535 -43.028  1.00  0.00     0.004 C 
ENDBRANCH  30  31
ENDBRANCH  29  30
ENDBRANCH  28  29
ENDBRANCH  27  28
ENDBRANCH  26  27
ENDBRANCH  25  26
ENDBRANCH  24  25
ENDBRANCH  23  24
ENDBRANCH  22  23
ENDBRANCH  21  22
ENDBRANCH  20  21
ENDBRANCH  19  20
ENDBRANCH  18  19
ENDBRANCH   1  18
TORSDOF 28
ENDMDL
MODEL 7
REMARK VINA RESULT:    -4.510      3.802     11.940
REMARK INTER + INTRA:         -15.210
REMARK INTER:                 -12.451
REMARK INTRA:                  -2.759
REMARK UNBOUND:                -3.317
REMARK SMILES CCCCCCCCCCCCCCCCCCCCCCCCCCCCCC(=O)[O-]
REMARK SMILES IDX 16 1 17 2 18 3 19 4 20 5 21 6 22 7 23 8 24 9 25 10 26 11
REMARK SMILES IDX 27 12 28 13 29 14 30 15 31 16 32 17 15 18 14 19 13 20 12 21
REMARK SMILES IDX 11 22 10 23 9 24 8 25 7 26 6 27 5 28 4 29 3 30 2 31 1 32
REMARK H PARENT
REMARK Flexibility Score: inf
ROOT
ATOM      1  C   UNL     1      23.550  -8.497 -38.292  1.00  0.00     0.000 C 
ENDROOT
BRANCH   1   2
ATOM      2  C   UNL     1      22.415  -7.469 -38.417  1.00  0.00     0.000 C 
BRANCH   2   3
ATOM      3  C   UNL     1      21.715  -7.510 -39.786  1.00  0.00     0.000 C 
BRANCH   3   4
ATOM      4  C   UNL     1      21.985  -6.254 -40.635  1.00  0.00     0.000 C 
BRANCH   4   5
ATOM      5  C   UNL     1      22.329  -4.977 -39.836  1.00  0.00     0.000 C 
BRANCH   5   6
ATOM      6  C   UNL     1      21.340  -3.810 -40.011  1.00  0.00     0.000 C 
BRANCH   6   7
ATOM      7  C   UNL     1      20.351  -3.623 -38.846  1.00  0.00     0.000 C 
BRANCH   7   8
ATOM      8  C   UNL     1      21.018  -3.160 -37.533  1.00  0.00     0.000 C 
BRANCH   8   9
ATOM      9  C   UNL     1      21.263  -4.322 -36.554  1.00  0.00     0.000 C 
BRANCH   9  10
ATOM     10  C   UNL     1      22.550  -4.134 -35.734  1.00  0.00     0.000 C 
BRANCH  10  11
ATOM     11  C   UNL     1      23.736  -4.929 -36.309  1.00  0.00     0.000 C 
BRANCH  11  12
ATOM     12  C   UNL     1      24.612  -4.094 -37.260  1.00  0.00     0.000 C 
BRANCH  12  13
ATOM     13  C   UNL     1      25.429  -4.909 -38.284  1.00  0.00     0.006 C 
BRANCH  13  14
ATOM     14  C   UNL     1      26.922  -5.037 -37.945  1.00  0.00     0.053 C 
BRANCH  14  15
ATOM     15  C   UNL     1      27.245  -6.363 -37.328  1.00  0.00     0.041 C 
ATOM     16  O   UNL     1      28.442  -6.739 -37.227  1.00  0.00    -0.550 OA
ATOM     17  O   UNL     1      26.226  -7.170 -36.834  1.00  0.00    -0.550 OA
ENDBRANCH  14  15
ENDBRANCH  13  14
ENDBRANCH  12  13
ENDBRANCH  11  12
ENDBRANCH  10  11
ENDBRANCH   9  10
ENDBRANCH   8   9
ENDBRANCH   7   8
ENDBRANCH   6   7
ENDBRANCH   5   6
ENDBRANCH   4   5
ENDBRANCH   3   4
ENDBRANCH   2   3
ENDBRANCH   1   2
BRANCH   1  18
ATOM     18  C   UNL     1      24.205  -8.836 -39.642  1.00  0.00     0.000 C 
BRANCH  18  19
ATOM     19  C   UNL     1      25.248  -9.963 -39.529  1.00  0.00     0.000 C 
BRANCH  19  20
ATOM     20  C   UNL     1      24.996 -11.181 -40.439  1.00  0.00     0.000 C 
BRANCH  20  21
ATOM     21  C   UNL     1      25.113 -12.557 -39.753  1.00  0.00     0.000 C 
BRANCH  21  22
ATOM     22  C   UNL     1      24.620 -13.735 -40.618  1.00  0.00     0.000 C 
BRANCH  22  23
ATOM     23  C   UNL     1      24.262 -14.980 -39.784  1.00  0.00     0.000 C 
BRANCH  23  24
ATOM     24  C   UNL     1      23.633 -16.108 -40.625  1.00  0.00    -0.000 C 
BRANCH  24  25
ATOM     25  C   UNL     1      24.046 -16.133 -42.108  1.00  0.00    -0.000 C 
BRANCH  25  26
ATOM     26  C   UNL     1      25.317 -16.958 -42.369  1.00  0.00    -0.000 C 
BRANCH  26  27
ATOM     27  C   UNL     1      25.346 -18.273 -41.571  1.00  0.00    -0.000 C 
BRANCH  27  28
ATOM     28  C   UNL     1      25.339 -19.540 -42.454  1.00  0.00    -0.000 C 
BRANCH  28  29
ATOM     29  C   UNL     1      26.060 -20.721 -41.781  1.00  0.00    -0.000 C 
BRANCH  29  30
ATOM     30  C   UNL     1      27.235 -21.253 -42.617  1.00  0.00    -0.000 C 
BRANCH  30  31
ATOM     31  C   UNL     1      28.523 -20.442 -42.408  1.00  0.00    -0.003 C 
ATOM     32  C   UNL     1      28.934 -19.726 -43.692  1.00  0.00     0.004 C 
ENDBRANCH  30  31
ENDBRANCH  29  30
ENDBRANCH  28  29
ENDBRANCH  27  28
ENDBRANCH  26  27
ENDBRANCH  25  26
ENDBRANCH  24  25
ENDBRANCH  23  24
ENDBRANCH  22  23
ENDBRANCH  21  22
ENDBRANCH  20  21
ENDBRANCH  19  20
ENDBRANCH  18  19
ENDBRANCH   1  18
TORSDOF 28
ENDMDL
MODEL 8
REMARK VINA RESULT:    -4.486      1.279      4.348
REMARK INTER + INTRA:         -15.146
REMARK INTER:                 -11.773
REMARK INTRA:                  -3.373
REMARK UNBOUND:                -3.317
REMARK SMILES CCCCCCCCCCCCCCCCCCCCCCCCCCCCCC(=O)[O-]
REMARK SMILES IDX 16 1 17 2 18 3 19 4 20 5 21 6 22 7 23 8 24 9 25 10 26 11
REMARK SMILES IDX 27 12 28 13 29 14 30 15 31 16 32 17 15 18 14 19 13 20 12 21
REMARK SMILES IDX 11 22 10 23 9 24 8 25 7 26 6 27 5 28 4 29 3 30 2 31 1 32
REMARK H PARENT
REMARK Flexibility Score: inf
ROOT
ATOM      1  C   UNL     1      24.999  -9.310 -38.995  1.00  0.00     0.000 C 
ENDROOT
BRANCH   1   2
ATOM      2  C   UNL     1      24.125  -9.640 -40.215  1.00  0.00     0.000 C 
BRANCH   2   3
ATOM      3  C   UNL     1      24.637 -10.853 -41.010  1.00  0.00     0.000 C 
BRANCH   3   4
ATOM      4  C   UNL     1      25.019 -12.042 -40.108  1.00  0.00     0.000 C 
BRANCH   4   5
ATOM      5  C   UNL     1      24.640 -13.436 -40.655  1.00  0.00     0.000 C 
BRANCH   5   6
ATOM      6  C   UNL     1      24.464 -14.532 -39.588  1.00  0.00     0.000 C 
BRANCH   6   7
ATOM      7  C   UNL     1      24.164 -15.935 -40.149  1.00  0.00     0.000 C 
BRANCH   7   8
ATOM      8  C   UNL     1      23.379 -15.917 -41.478  1.00  0.00     0.000 C 
BRANCH   8   9
ATOM      9  C   UNL     1      24.001 -16.835 -42.544  1.00  0.00     0.000 C 
BRANCH   9  10
ATOM     10  C   UNL     1      25.459 -17.199 -42.223  1.00  0.00     0.000 C 
BRANCH  10  11
ATOM     11  C   UNL     1      26.308 -17.405 -43.491  1.00  0.00     0.000 C 
BRANCH  11  12
ATOM     12  C   UNL     1      27.504 -18.347 -43.265  1.00  0.00     0.000 C 
BRANCH  12  13
ATOM     13  C   UNL     1      27.259 -19.821 -43.648  1.00  0.00     0.006 C 
BRANCH  13  14
ATOM     14  C   UNL     1      27.288 -20.797 -42.462  1.00  0.00     0.053 C 
BRANCH  14  15
ATOM     15  C   UNL     1      25.928 -21.001 -41.870  1.00  0.00     0.041 C 
ATOM     16  O   UNL     1      25.789 -21.687 -40.824  1.00  0.00    -0.550 OA
ATOM     17  O   UNL     1      24.815 -20.405 -42.455  1.00  0.00    -0.550 OA
ENDBRANCH  14  15
ENDBRANCH  13  14
ENDBRANCH  12  13
ENDBRANCH  11  12
ENDBRANCH  10  11
ENDBRANCH   9  10
ENDBRANCH   8   9
ENDBRANCH   7   8
ENDBRANCH   6   7
ENDBRANCH   5   6
ENDBRANCH   4   5
ENDBRANCH   3   4
ENDBRANCH   2   3
ENDBRANCH   1   2
BRANCH   1  18
ATOM     18  C   UNL     1      25.736  -7.967 -39.130  1.00  0.00     0.000 C 
BRANCH  18  19
ATOM     19  C   UNL     1      25.932  -7.260 -37.776  1.00  0.00     0.000 C 
BRANCH  19  20
ATOM     20  C   UNL     1      27.171  -6.347 -37.688  1.00  0.00     0.000 C 
BRANCH  20  21
ATOM     21  C   UNL     1      26.887  -4.834 -37.771  1.00  0.00     0.000 C 
BRANCH  21  22
ATOM     22  C   UNL     1      25.391  -4.481 -37.897  1.00  0.00     0.000 C 
BRANCH  22  23
ATOM     23  C   UNL     1      24.981  -4.120 -39.338  1.00  0.00     0.000 C 
BRANCH  23  24
ATOM     24  C   UNL     1      23.457  -3.987 -39.515  1.00  0.00    -0.000 C 
BRANCH  24  25
ATOM     25  C   UNL     1      22.768  -5.173 -40.217  1.00  0.00    -0.000 C 
BRANCH  25  26
ATOM     26  C   UNL     1      21.715  -5.868 -39.340  1.00  0.00    -0.000 C 
BRANCH  26  27
ATOM     27  C   UNL     1      22.340  -6.813 -38.298  1.00  0.00    -0.000 C 
BRANCH  27  28
ATOM     28  C   UNL     1      22.321  -6.256 -36.858  1.00  0.00    -0.000 C 
BRANCH  28  29
ATOM     29  C   UNL     1      21.391  -5.037 -36.719  1.00  0.00    -0.000 C 
BRANCH  29  30
ATOM     30  C   UNL     1      22.056  -3.864 -35.981  1.00  0.00    -0.000 C 
BRANCH  30  31
ATOM     31  C   UNL     1      21.971  -2.547 -36.767  1.00  0.00    -0.003 C 
ATOM     32  C   UNL     1      20.657  -2.452 -37.537  1.00  0.00     0.004 C 
ENDBRANCH  30  31
ENDBRANCH  29  30
ENDBRANCH  28  29
ENDBRANCH  27  28
ENDBRANCH  26  27
ENDBRANCH  25  26
ENDBRANCH  24  25
ENDBRANCH  23  24
ENDBRANCH  22  23
ENDBRANCH  21  22
ENDBRANCH  20  21
ENDBRANCH  19  20
ENDBRANCH  18  19
ENDBRANCH   1  18
TORSDOF 28
ENDMDL
MODEL 9
REMARK VINA RESULT:    -4.461      1.009      3.780
REMARK INTER + INTRA:         -15.080
REMARK INTER:                 -11.901
REMARK INTRA:                  -3.178
REMARK UNBOUND:                -3.317
REMARK SMILES CCCCCCCCCCCCCCCCCCCCCCCCCCCCCC(=O)[O-]
REMARK SMILES IDX 16 1 17 2 18 3 19 4 20 5 21 6 22 7 23 8 24 9 25 10 26 11
REMARK SMILES IDX 27 12 28 13 29 14 30 15 31 16 32 17 15 18 14 19 13 20 12 21
REMARK SMILES IDX 11 22 10 23 9 24 8 25 7 26 6 27 5 28 4 29 3 30 2 31 1 32
REMARK H PARENT
REMARK Flexibility Score: inf
ROOT
ATOM      1  C   UNL     1      22.852  -8.082 -38.446  1.00  0.00     0.000 C 
ENDROOT
BRANCH   1   2
ATOM      2  C   UNL     1      23.608  -9.371 -38.086  1.00  0.00     0.000 C 
BRANCH   2   3
ATOM      3  C   UNL     1      24.999  -9.451 -38.737  1.00  0.00     0.000 C 
BRANCH   3   4
ATOM      4  C   UNL     1      24.938  -9.514 -40.274  1.00  0.00     0.000 C 
BRANCH   4   5
ATOM      5  C   UNL     1      24.530 -10.882 -40.865  1.00  0.00     0.000 C 
BRANCH   5   6
ATOM      6  C   UNL     1      25.168 -12.106 -40.183  1.00  0.00     0.000 C 
BRANCH   6   7
ATOM      7  C   UNL     1      24.606 -13.465 -40.643  1.00  0.00     0.000 C 
BRANCH   7   8
ATOM      8  C   UNL     1      24.551 -14.524 -39.522  1.00  0.00     0.000 C 
BRANCH   8   9
ATOM      9  C   UNL     1      23.529 -15.637 -39.811  1.00  0.00     0.000 C 
BRANCH   9  10
ATOM     10  C   UNL     1      23.207 -15.761 -41.309  1.00  0.00     0.000 C 
BRANCH  10  11
ATOM     11  C   UNL     1      23.961 -16.925 -41.978  1.00  0.00     0.000 C 
BRANCH  11  12
ATOM     12  C   UNL     1      25.335 -16.507 -42.534  1.00  0.00     0.000 C 
BRANCH  12  13
ATOM     13  C   UNL     1      26.060 -17.585 -43.367  1.00  0.00     0.006 C 
BRANCH  13  14
ATOM     14  C   UNL     1      26.048 -18.986 -42.737  1.00  0.00     0.053 C 
BRANCH  14  15
ATOM     15  C   UNL     1      27.341 -19.709 -42.957  1.00  0.00     0.041 C 
ATOM     16  O   UNL     1      27.346 -20.954 -43.144  1.00  0.00    -0.550 OA
ATOM     17  O   UNL     1      28.539 -19.004 -42.987  1.00  0.00    -0.550 OA
ENDBRANCH  14  15
ENDBRANCH  13  14
ENDBRANCH  12  13
ENDBRANCH  11  12
ENDBRANCH  10  11
ENDBRANCH   9  10
ENDBRANCH   8   9
ENDBRANCH   7   8
ENDBRANCH   6   7
ENDBRANCH   5   6
ENDBRANCH   4   5
ENDBRANCH   3   4
ENDBRANCH   2   3
ENDBRANCH   1   2
BRANCH   1  18
ATOM     18  C   UNL     1      22.573  -7.189 -37.224  1.00  0.00     0.000 C 
BRANCH  18  19
ATOM     19  C   UNL     1      23.699  -6.170 -36.966  1.00  0.00     0.000 C 
BRANCH  19  20
ATOM     20  C   UNL     1      24.986  -6.758 -36.356  1.00  0.00     0.000 C 
BRANCH  20  21
ATOM     21  C   UNL     1      26.263  -6.577 -37.200  1.00  0.00     0.000 C 
BRANCH  21  22
ATOM     22  C   UNL     1      26.096  -5.618 -38.397  1.00  0.00     0.000 C 
BRANCH  22  23
ATOM     23  C   UNL     1      26.041  -4.138 -37.973  1.00  0.00     0.000 C 
BRANCH  23  24
ATOM     24  C   UNL     1      25.516  -3.212 -39.087  1.00  0.00    -0.000 C 
BRANCH  24  25
ATOM     25  C   UNL     1      24.121  -2.609 -38.841  1.00  0.00    -0.000 C 
BRANCH  25  26
ATOM     26  C   UNL     1      23.700  -2.639 -37.362  1.00  0.00    -0.000 C 
BRANCH  26  27
ATOM     27  C   UNL     1      22.238  -2.206 -37.151  1.00  0.00    -0.000 C 
BRANCH  27  28
ATOM     28  C   UNL     1      21.305  -3.351 -36.703  1.00  0.00    -0.000 C 
BRANCH  28  29
ATOM     29  C   UNL     1      20.814  -4.199 -37.890  1.00  0.00    -0.000 C 
BRANCH  29  30
ATOM     30  C   UNL     1      20.360  -3.342 -39.083  1.00  0.00    -0.000 C 
BRANCH  30  31
ATOM     31  C   UNL     1      21.009  -3.778 -40.405  1.00  0.00    -0.003 C 
ATOM     32  C   UNL     1      21.861  -5.029 -40.211  1.00  0.00     0.004 C 
ENDBRANCH  30  31
ENDBRANCH  29  30
ENDBRANCH  28  29
ENDBRANCH  27  28
ENDBRANCH  26  27
ENDBRANCH  25  26
ENDBRANCH  24  25
ENDBRANCH  23  24
ENDBRANCH  22  23
ENDBRANCH  21  22
ENDBRANCH  20  21
ENDBRANCH  19  20
ENDBRANCH  18  19
ENDBRANCH   1  18
TORSDOF 28
ENDMDL
