MODEL 1
REMARK VINA RESULT:    -7.929      0.000      0.000
REMARK INTER + INTRA:         -11.844
REMARK INTER:                 -10.942
REMARK INTRA:                  -0.901
REMARK UNBOUND:                -0.901
REMARK SMILES CC[C@H](CC[C@@H](C)[C@@H]1CC[C@@H]2[C@H]3CC=C4C[C@@H](O)CC[C@]4(C)[C@@H]3CC[C@@]21C)C(C)C
REMARK SMILES IDX 5 1 4 2 3 3 2 4 1 5 28 6 29 7 30 8 6 9 7 10 8 11 9 12 26 13
REMARK SMILES IDX 10 14 11 15 25 16 27 17 12 18 24 19 23 20 13 21 21 22 14 23
REMARK SMILES IDX 15 24 20 25 22 26 16 27 19 28 17 29 18 30
REMARK H PARENT 18 31
REMARK Flexibility Score: inf
ROOT
ATOM      1  C   UNL     1      -4.186   3.266 -14.007  1.00  0.00     0.004 C 
ENDROOT
BRANCH   1   2
ATOM      2  C   UNL     1      -5.347   2.544 -13.272  1.00  0.00     0.004 C 
BRANCH   2   3
ATOM      3  C   UNL     1      -5.602   3.094 -11.837  1.00  0.00    -0.009 C 
BRANCH   3   4
ATOM      4  C   UNL     1      -6.666   2.245 -11.092  1.00  0.00     0.000 C 
ATOM      5  C   UNL     1      -7.968   3.009 -10.839  1.00  0.00     0.004 C 
ENDBRANCH   3   4
BRANCH   3   6
ATOM      6  C   UNL     1      -4.268   3.220 -11.025  1.00  0.00    -0.014 C 
ATOM      7  C   UNL     1      -3.472   1.907 -10.930  1.00  0.00     0.007 C 
ATOM      8  C   UNL     1      -4.512   3.789  -9.615  1.00  0.00     0.007 C 
ENDBRANCH   3   6
ENDBRANCH   2   3
ENDBRANCH   1   2
BRANCH   1   9
ATOM      9  C   UNL     1      -3.789   2.617 -15.359  1.00  0.00    -0.011 C 
ATOM     10  C   UNL     1      -3.489   3.732 -16.388  1.00  0.00     0.008 C 
BRANCH   9  11
ATOM     11  C   UNL     1      -2.553   1.650 -15.187  1.00  0.00    -0.002 C 
ATOM     12  C   UNL     1      -2.892   0.411 -14.361  1.00  0.00     0.005 C 
ATOM     13  C   UNL     1      -1.239   2.209 -14.515  1.00  0.00    -0.026 C 
ATOM     14  C   UNL     1      -1.561  -0.201 -13.998  1.00  0.00     0.005 C 
ATOM     15  C   UNL     1      -0.599   0.975 -13.778  1.00  0.00    -0.001 C 
ATOM     16  C   UNL     1      -1.544   3.347 -13.501  1.00  0.00     0.007 C 
ATOM     17  C   UNL     1      -0.239   2.713 -15.598  1.00  0.00     0.012 C 
ATOM     18  C   UNL     1      -0.309   1.182 -12.255  1.00  0.00     0.000 C 
ATOM     19  C   UNL     1      -0.309   3.746 -12.692  1.00  0.00     0.005 C 
ATOM     20  C   UNL     1       0.345   2.553 -11.934  1.00  0.00     0.003 C 
ATOM     21  C   UNL     1       0.642   0.085 -11.736  1.00  0.00     0.031 C 
ATOM     22  C   UNL     1       0.496   2.769 -10.371  1.00  0.00    -0.008 C 
ATOM     23  C   UNL     1       0.963   0.272 -10.283  1.00  0.00    -0.027 C 
ATOM     24  C   UNL     1       0.955   1.475  -9.668  1.00  0.00    -0.065 C 
ATOM     25  C   UNL     1      -0.855   3.192  -9.697  1.00  0.00     0.014 C 
ATOM     26  C   UNL     1       1.567   3.871 -10.151  1.00  0.00     0.016 C 
ATOM     27  C   UNL     1       1.074   1.503  -8.160  1.00  0.00     0.063 C 
ATOM     28  C   UNL     1      -0.804   3.213  -8.153  1.00  0.00     0.033 C 
ATOM     29  C   UNL     1      -0.291   1.882  -7.569  1.00  0.00     0.118 C 
BRANCH  29  30
ATOM     30  O   UNL     1      -0.230   1.944  -6.168  1.00  0.00    -0.393 OA
ATOM     31  H   UNL     1       0.026   1.042  -5.835  1.00  0.00     0.210 HD
ENDBRANCH  29  30
ENDBRANCH   9  11
ENDBRANCH   1   9
TORSDOF 7
ENDMDL
MODEL 2
REMARK VINA RESULT:    -7.800     13.064     15.493
REMARK INTER + INTRA:         -11.666
REMARK INTER:                 -10.439
REMARK INTRA:                  -1.226
REMARK UNBOUND:                -0.901
REMARK SMILES CC[C@H](CC[C@@H](C)[C@@H]1CC[C@@H]2[C@H]3CC=C4C[C@@H](O)CC[C@]4(C)[C@@H]3CC[C@@]21C)C(C)C
REMARK SMILES IDX 5 1 4 2 3 3 2 4 1 5 28 6 29 7 30 8 6 9 7 10 8 11 9 12 26 13
REMARK SMILES IDX 10 14 11 15 25 16 27 17 12 18 24 19 23 20 13 21 21 22 14 23
REMARK SMILES IDX 15 24 20 25 22 26 16 27 19 28 17 29 18 30
REMARK H PARENT 18 31
REMARK Flexibility Score: inf
ROOT
ATOM      1  C   UNL     1     -14.499  11.530 -12.138  1.00  0.00     0.004 C 
ENDROOT
BRANCH   1   2
ATOM      2  C   UNL     1     -13.373  11.650 -13.199  1.00  0.00     0.004 C 
BRANCH   2   3
ATOM      3  C   UNL     1     -13.183  13.102 -13.731  1.00  0.00    -0.009 C 
BRANCH   3   4
ATOM      4  C   UNL     1     -11.758  13.632 -13.418  1.00  0.00     0.000 C 
ATOM      5  C   UNL     1     -11.400  13.539 -11.933  1.00  0.00     0.004 C 
ENDBRANCH   3   4
BRANCH   3   6
ATOM      6  C   UNL     1     -13.534  13.207 -15.254  1.00  0.00    -0.014 C 
ATOM      7  C   UNL     1     -13.517  11.856 -15.990  1.00  0.00     0.007 C 
ATOM      8  C   UNL     1     -12.621  14.212 -15.980  1.00  0.00     0.007 C 
ENDBRANCH   3   6
ENDBRANCH   2   3
ENDBRANCH   1   2
BRANCH   1   9
ATOM      9  C   UNL     1     -14.136  10.631 -10.926  1.00  0.00    -0.011 C 
ATOM     10  C   UNL     1     -12.677  10.141 -11.078  1.00  0.00     0.008 C 
BRANCH   9  11
ATOM     11  C   UNL     1     -14.344  11.398  -9.563  1.00  0.00    -0.002 C 
ATOM     12  C   UNL     1     -13.029  11.891  -8.963  1.00  0.00     0.005 C 
ATOM     13  C   UNL     1     -15.050  10.648  -8.368  1.00  0.00    -0.026 C 
ATOM     14  C   UNL     1     -13.357  12.268  -7.540  1.00  0.00     0.005 C 
ATOM     15  C   UNL     1     -14.413  11.258  -7.066  1.00  0.00    -0.001 C 
ATOM     16  C   UNL     1     -14.809   9.114  -8.422  1.00  0.00     0.007 C 
ATOM     17  C   UNL     1     -16.580  10.947  -8.357  1.00  0.00     0.012 C 
ATOM     18  C   UNL     1     -13.788  10.220  -6.077  1.00  0.00     0.000 C 
ATOM     19  C   UNL     1     -15.304   8.406  -7.160  1.00  0.00     0.005 C 
ATOM     20  C   UNL     1     -14.683   8.972  -5.849  1.00  0.00     0.003 C 
ATOM     21  C   UNL     1     -13.544  10.870  -4.700  1.00  0.00     0.031 C 
ATOM     22  C   UNL     1     -13.951   7.893  -4.948  1.00  0.00    -0.008 C 
ATOM     23  C   UNL     1     -12.971   9.891  -3.718  1.00  0.00    -0.027 C 
ATOM     24  C   UNL     1     -13.188   8.559  -3.784  1.00  0.00    -0.065 C 
ATOM     25  C   UNL     1     -12.898   7.060  -5.757  1.00  0.00     0.014 C 
ATOM     26  C   UNL     1     -15.039   6.952  -4.367  1.00  0.00     0.016 C 
ATOM     27  C   UNL     1     -12.376   7.662  -2.875  1.00  0.00     0.063 C 
ATOM     28  C   UNL     1     -12.018   6.142  -4.879  1.00  0.00     0.033 C 
ATOM     29  C   UNL     1     -11.342   6.912  -3.727  1.00  0.00     0.118 C 
BRANCH  29  30
ATOM     30  O   UNL     1     -10.575   6.045  -2.933  1.00  0.00    -0.393 OA
ATOM     31  H   UNL     1      -9.741   5.835  -3.434  1.00  0.00     0.210 HD
ENDBRANCH  29  30
ENDBRANCH   9  11
ENDBRANCH   1   9
TORSDOF 7
ENDMDL
MODEL 3
REMARK VINA RESULT:    -7.220     13.522     15.710
REMARK INTER + INTRA:         -10.865
REMARK INTER:                 -10.344
REMARK INTRA:                  -0.521
REMARK UNBOUND:                -0.901
REMARK SMILES CC[C@H](CC[C@@H](C)[C@@H]1CC[C@@H]2[C@H]3CC=C4C[C@@H](O)CC[C@]4(C)[C@@H]3CC[C@@]21C)C(C)C
REMARK SMILES IDX 5 1 4 2 3 3 2 4 1 5 28 6 29 7 30 8 6 9 7 10 8 11 9 12 26 13
REMARK SMILES IDX 10 14 11 15 25 16 27 17 12 18 24 19 23 20 13 21 21 22 14 23
REMARK SMILES IDX 15 24 20 25 22 26 16 27 19 28 17 29 18 30
REMARK H PARENT 18 31
REMARK Flexibility Score: inf
ROOT
ATOM      1  C   UNL     1     -12.185  12.225 -11.052  1.00  0.00     0.004 C 
ENDROOT
BRANCH   1   2
ATOM      2  C   UNL     1     -11.363  13.235 -11.896  1.00  0.00     0.004 C 
BRANCH   2   3
ATOM      3  C   UNL     1     -12.171  13.846 -13.080  1.00  0.00    -0.009 C 
BRANCH   3   4
ATOM      4  C   UNL     1     -11.355  14.948 -13.807  1.00  0.00     0.000 C 
ATOM      5  C   UNL     1     -10.608  15.872 -12.842  1.00  0.00     0.004 C 
ENDBRANCH   3   4
BRANCH   3   6
ATOM      6  C   UNL     1     -12.677  12.736 -14.064  1.00  0.00    -0.014 C 
ATOM      7  C   UNL     1     -12.845  13.222 -15.514  1.00  0.00     0.007 C 
ATOM      8  C   UNL     1     -13.985  12.092 -13.571  1.00  0.00     0.007 C 
ENDBRANCH   3   6
ENDBRANCH   2   3
ENDBRANCH   1   2
BRANCH   1   9
ATOM      9  C   UNL     1     -12.236  12.556  -9.537  1.00  0.00    -0.011 C 
ATOM     10  C   UNL     1     -11.757  14.011  -9.320  1.00  0.00     0.008 C 
BRANCH   9  11
ATOM     11  C   UNL     1     -13.686  12.338  -8.954  1.00  0.00    -0.002 C 
ATOM     12  C   UNL     1     -13.784  12.708  -7.476  1.00  0.00     0.005 C 
ATOM     13  C   UNL     1     -14.326  10.898  -9.029  1.00  0.00    -0.026 C 
ATOM     14  C   UNL     1     -15.089  12.118  -7.003  1.00  0.00     0.005 C 
ATOM     15  C   UNL     1     -15.259  10.797  -7.767  1.00  0.00    -0.001 C 
ATOM     16  C   UNL     1     -13.247   9.780  -8.996  1.00  0.00     0.007 C 
ATOM     17  C   UNL     1     -15.206  10.752 -10.308  1.00  0.00     0.012 C 
ATOM     18  C   UNL     1     -14.989   9.573  -6.831  1.00  0.00     0.000 C 
ATOM     19  C   UNL     1     -13.862   8.387  -8.852  1.00  0.00     0.005 C 
ATOM     20  C   UNL     1     -14.781   8.243  -7.604  1.00  0.00     0.003 C 
ATOM     21  C   UNL     1     -16.173   9.364  -5.865  1.00  0.00     0.031 C 
ATOM     22  C   UNL     1     -14.380   7.062  -6.625  1.00  0.00    -0.008 C 
ATOM     23  C   UNL     1     -15.958   8.178  -4.972  1.00  0.00    -0.027 C 
ATOM     24  C   UNL     1     -15.201   7.114  -5.319  1.00  0.00    -0.065 C 
ATOM     25  C   UNL     1     -12.870   7.123  -6.209  1.00  0.00     0.014 C 
ATOM     26  C   UNL     1     -14.676   5.726  -7.355  1.00  0.00     0.016 C 
ATOM     27  C   UNL     1     -14.880   6.092  -4.250  1.00  0.00     0.063 C 
ATOM     28  C   UNL     1     -12.486   6.119  -5.099  1.00  0.00     0.033 C 
ATOM     29  C   UNL     1     -13.401   6.238  -3.864  1.00  0.00     0.118 C 
BRANCH  29  30
ATOM     30  O   UNL     1     -13.044   5.294  -2.888  1.00  0.00    -0.393 OA
ATOM     31  H   UNL     1     -12.170   5.574  -2.503  1.00  0.00     0.210 HD
ENDBRANCH  29  30
ENDBRANCH   9  11
ENDBRANCH   1   9
TORSDOF 7
ENDMDL
MODEL 4
REMARK VINA RESULT:    -7.177     13.956     16.133
REMARK INTER + INTRA:         -10.805
REMARK INTER:                  -9.246
REMARK INTRA:                  -1.560
REMARK UNBOUND:                -0.901
REMARK SMILES CC[C@H](CC[C@@H](C)[C@@H]1CC[C@@H]2[C@H]3CC=C4C[C@@H](O)CC[C@]4(C)[C@@H]3CC[C@@]21C)C(C)C
REMARK SMILES IDX 5 1 4 2 3 3 2 4 1 5 28 6 29 7 30 8 6 9 7 10 8 11 9 12 26 13
REMARK SMILES IDX 10 14 11 15 25 16 27 17 12 18 24 19 23 20 13 21 21 22 14 23
REMARK SMILES IDX 15 24 20 25 22 26 16 27 19 28 17 29 18 30
REMARK H PARENT 18 31
REMARK Flexibility Score: inf
ROOT
ATOM      1  C   UNL     1     -12.732  12.759  -8.772  1.00  0.00     0.004 C 
ENDROOT
BRANCH   1   2
ATOM      2  C   UNL     1     -12.078  12.134 -10.033  1.00  0.00     0.004 C 
BRANCH   2   3
ATOM      3  C   UNL     1     -12.557  12.791 -11.361  1.00  0.00    -0.009 C 
BRANCH   3   4
ATOM      4  C   UNL     1     -11.422  13.621 -12.018  1.00  0.00     0.000 C 
ATOM      5  C   UNL     1     -10.228  13.841 -11.087  1.00  0.00     0.004 C 
ENDBRANCH   3   4
BRANCH   3   6
ATOM      6  C   UNL     1     -13.159  11.729 -12.343  1.00  0.00    -0.014 C 
ATOM      7  C   UNL     1     -12.934  12.059 -13.830  1.00  0.00     0.007 C 
ATOM      8  C   UNL     1     -14.657  11.494 -12.079  1.00  0.00     0.007 C 
ENDBRANCH   3   6
ENDBRANCH   2   3
ENDBRANCH   1   2
BRANCH   1   9
ATOM      9  C   UNL     1     -13.485  11.740  -7.875  1.00  0.00    -0.011 C 
ATOM     10  C   UNL     1     -14.196  12.500  -6.732  1.00  0.00     0.008 C 
BRANCH   9  11
ATOM     11  C   UNL     1     -14.510  10.886  -8.719  1.00  0.00    -0.002 C 
ATOM     12  C   UNL     1     -15.954  11.093  -8.268  1.00  0.00     0.005 C 
ATOM     13  C   UNL     1     -14.343   9.317  -8.757  1.00  0.00    -0.026 C 
ATOM     14  C   UNL     1     -16.735   9.972  -8.910  1.00  0.00     0.005 C 
ATOM     15  C   UNL     1     -15.802   8.753  -8.916  1.00  0.00    -0.001 C 
ATOM     16  C   UNL     1     -13.689   8.772  -7.457  1.00  0.00     0.007 C 
ATOM     17  C   UNL     1     -13.506   8.883  -9.998  1.00  0.00     0.012 C 
ATOM     18  C   UNL     1     -16.238   7.712  -7.833  1.00  0.00     0.000 C 
ATOM     19  C   UNL     1     -13.718   7.245  -7.392  1.00  0.00     0.005 C 
ATOM     20  C   UNL     1     -15.150   6.647  -7.530  1.00  0.00     0.003 C 
ATOM     21  C   UNL     1     -17.504   6.960  -8.290  1.00  0.00     0.031 C 
ATOM     22  C   UNL     1     -15.585   5.699  -6.336  1.00  0.00    -0.008 C 
ATOM     23  C   UNL     1     -17.932   5.932  -7.285  1.00  0.00    -0.027 C 
ATOM     24  C   UNL     1     -17.076   5.318  -6.438  1.00  0.00    -0.065 C 
ATOM     25  C   UNL     1     -15.390   6.379  -4.937  1.00  0.00     0.014 C 
ATOM     26  C   UNL     1     -14.726   4.410  -6.424  1.00  0.00     0.016 C 
ATOM     27  C   UNL     1     -17.660   4.474  -5.327  1.00  0.00     0.063 C 
ATOM     28  C   UNL     1     -15.990   5.575  -3.762  1.00  0.00     0.033 C 
ATOM     29  C   UNL     1     -17.471   5.218  -3.998  1.00  0.00     0.118 C 
BRANCH  29  30
ATOM     30  O   UNL     1     -17.977   4.465  -2.927  1.00  0.00    -0.393 OA
ATOM     31  H   UNL     1     -18.807   4.912  -2.607  1.00  0.00     0.210 HD
ENDBRANCH  29  30
ENDBRANCH   9  11
ENDBRANCH   1   9
TORSDOF 7
ENDMDL
MODEL 5
REMARK VINA RESULT:    -7.058     13.887     16.567
REMARK INTER + INTRA:         -10.641
REMARK INTER:                  -9.267
REMARK INTRA:                  -1.374
REMARK UNBOUND:                -0.901
REMARK SMILES CC[C@H](CC[C@@H](C)[C@@H]1CC[C@@H]2[C@H]3CC=C4C[C@@H](O)CC[C@]4(C)[C@@H]3CC[C@@]21C)C(C)C
REMARK SMILES IDX 5 1 4 2 3 3 2 4 1 5 28 6 29 7 30 8 6 9 7 10 8 11 9 12 26 13
REMARK SMILES IDX 10 14 11 15 25 16 27 17 12 18 24 19 23 20 13 21 21 22 14 23
REMARK SMILES IDX 15 24 20 25 22 26 16 27 19 28 17 29 18 30
REMARK H PARENT 18 31
REMARK Flexibility Score: inf
ROOT
ATOM      1  C   UNL     1     -12.466  11.959  -8.405  1.00  0.00     0.004 C 
ENDROOT
BRANCH   1   2
ATOM      2  C   UNL     1     -13.137  12.540  -9.678  1.00  0.00     0.004 C 
BRANCH   2   3
ATOM      3  C   UNL     1     -12.351  12.223 -10.985  1.00  0.00    -0.009 C 
BRANCH   3   4
ATOM      4  C   UNL     1     -13.242  11.464 -12.006  1.00  0.00     0.000 C 
ATOM      5  C   UNL     1     -14.688  11.303 -11.531  1.00  0.00     0.004 C 
ENDBRANCH   3   4
BRANCH   3   6
ATOM      6  C   UNL     1     -11.713  13.514 -11.601  1.00  0.00    -0.014 C 
ATOM      7  C   UNL     1     -11.756  13.556 -13.139  1.00  0.00     0.007 C 
ATOM      8  C   UNL     1     -10.269  13.725 -11.110  1.00  0.00     0.007 C 
ENDBRANCH   3   6
ENDBRANCH   2   3
ENDBRANCH   1   2
BRANCH   1   9
ATOM      9  C   UNL     1     -12.994  10.559  -7.992  1.00  0.00    -0.011 C 
ATOM     10  C   UNL     1     -11.888   9.812  -7.210  1.00  0.00     0.008 C 
BRANCH   9  11
ATOM     11  C   UNL     1     -14.318  10.676  -7.142  1.00  0.00    -0.002 C 
ATOM     12  C   UNL     1     -14.095  10.354  -5.666  1.00  0.00     0.005 C 
ATOM     13  C   UNL     1     -15.560   9.789  -7.543  1.00  0.00    -0.026 C 
ATOM     14  C   UNL     1     -15.476  10.164  -5.087  1.00  0.00     0.005 C 
ATOM     15  C   UNL     1     -16.312   9.501  -6.192  1.00  0.00    -0.001 C 
ATOM     16  C   UNL     1     -15.128   8.457  -8.218  1.00  0.00     0.007 C 
ATOM     17  C   UNL     1     -16.519  10.578  -8.485  1.00  0.00     0.012 C 
ATOM     18  C   UNL     1     -16.559   7.989  -5.873  1.00  0.00     0.000 C 
ATOM     19  C   UNL     1     -16.305   7.501  -8.414  1.00  0.00     0.005 C 
ATOM     20  C   UNL     1     -17.066   7.178  -7.094  1.00  0.00     0.003 C 
ATOM     21  C   UNL     1     -17.608   7.842  -4.752  1.00  0.00     0.031 C 
ATOM     22  C   UNL     1     -17.174   5.633  -6.758  1.00  0.00    -0.008 C 
ATOM     23  C   UNL     1     -17.890   6.402  -4.442  1.00  0.00    -0.027 C 
ATOM     24  C   UNL     1     -17.752   5.406  -5.345  1.00  0.00    -0.065 C 
ATOM     25  C   UNL     1     -15.779   4.919  -6.792  1.00  0.00     0.014 C 
ATOM     26  C   UNL     1     -18.125   4.990  -7.802  1.00  0.00     0.016 C 
ATOM     27  C   UNL     1     -17.847   3.980  -4.850  1.00  0.00     0.063 C 
ATOM     28  C   UNL     1     -15.807   3.465  -6.272  1.00  0.00     0.033 C 
ATOM     29  C   UNL     1     -16.443   3.360  -4.871  1.00  0.00     0.118 C 
BRANCH  29  30
ATOM     30  O   UNL     1     -16.479   2.024  -4.441  1.00  0.00    -0.393 OA
ATOM     31  H   UNL     1     -16.065   1.987  -3.536  1.00  0.00     0.210 HD
ENDBRANCH  29  30
ENDBRANCH   9  11
ENDBRANCH   1   9
TORSDOF 7
ENDMDL
MODEL 6
REMARK VINA RESULT:    -7.006     13.776     15.854
REMARK INTER + INTRA:         -10.569
REMARK INTER:                 -10.169
REMARK INTRA:                  -0.401
REMARK UNBOUND:                -0.901
REMARK SMILES CC[C@H](CC[C@@H](C)[C@@H]1CC[C@@H]2[C@H]3CC=C4C[C@@H](O)CC[C@]4(C)[C@@H]3CC[C@@]21C)C(C)C
REMARK SMILES IDX 5 1 4 2 3 3 2 4 1 5 28 6 29 7 30 8 6 9 7 10 8 11 9 12 26 13
REMARK SMILES IDX 10 14 11 15 25 16 27 17 12 18 24 19 23 20 13 21 21 22 14 23
REMARK SMILES IDX 15 24 20 25 22 26 16 27 19 28 17 29 18 30
REMARK H PARENT 18 31
REMARK Flexibility Score: inf
ROOT
ATOM      1  C   UNL     1     -12.781  12.616 -10.536  1.00  0.00     0.004 C 
ENDROOT
BRANCH   1   2
ATOM      2  C   UNL     1     -12.737  12.158 -12.018  1.00  0.00     0.004 C 
BRANCH   2   3
ATOM      3  C   UNL     1     -12.313  13.291 -12.998  1.00  0.00    -0.009 C 
BRANCH   3   4
ATOM      4  C   UNL     1     -10.978  13.947 -12.553  1.00  0.00     0.000 C 
ATOM      5  C   UNL     1     -10.865  15.414 -12.974  1.00  0.00     0.004 C 
ENDBRANCH   3   4
BRANCH   3   6
ATOM      6  C   UNL     1     -12.258  12.781 -14.479  1.00  0.00    -0.014 C 
ATOM      7  C   UNL     1     -12.850  13.771 -15.499  1.00  0.00     0.007 C 
ATOM      8  C   UNL     1     -12.930  11.405 -14.632  1.00  0.00     0.007 C 
ENDBRANCH   3   6
ENDBRANCH   2   3
ENDBRANCH   1   2
BRANCH   1   9
ATOM      9  C   UNL     1     -13.799  11.837  -9.660  1.00  0.00    -0.011 C 
ATOM     10  C   UNL     1     -14.314  10.612 -10.451  1.00  0.00     0.008 C 
BRANCH   9  11
ATOM     11  C   UNL     1     -13.155  11.403  -8.287  1.00  0.00    -0.002 C 
ATOM     12  C   UNL     1     -12.122  10.290  -8.451  1.00  0.00     0.005 C 
ATOM     13  C   UNL     1     -14.099  10.879  -7.136  1.00  0.00    -0.026 C 
ATOM     14  C   UNL     1     -11.881   9.762  -7.059  1.00  0.00     0.005 C 
ATOM     15  C   UNL     1     -13.233   9.840  -6.334  1.00  0.00    -0.001 C 
ATOM     16  C   UNL     1     -15.378  10.199  -7.699  1.00  0.00     0.007 C 
ATOM     17  C   UNL     1     -14.493  12.042  -6.175  1.00  0.00     0.012 C 
ATOM     18  C   UNL     1     -13.866   8.418  -6.180  1.00  0.00     0.000 C 
ATOM     19  C   UNL     1     -16.191   9.502  -6.607  1.00  0.00     0.005 C 
ATOM     20  C   UNL     1     -15.370   8.453  -5.800  1.00  0.00     0.003 C 
ATOM     21  C   UNL     1     -13.131   7.619  -5.084  1.00  0.00     0.031 C 
ATOM     22  C   UNL     1     -15.997   6.997  -5.787  1.00  0.00    -0.008 C 
ATOM     23  C   UNL     1     -13.734   6.259  -4.892  1.00  0.00    -0.027 C 
ATOM     24  C   UNL     1     -15.030   5.976  -5.151  1.00  0.00    -0.065 C 
ATOM     25  C   UNL     1     -16.315   6.474  -7.230  1.00  0.00     0.014 C 
ATOM     26  C   UNL     1     -17.298   7.054  -4.943  1.00  0.00     0.016 C 
ATOM     27  C   UNL     1     -15.457   4.525  -5.132  1.00  0.00     0.063 C 
ATOM     28  C   UNL     1     -16.733   4.988  -7.279  1.00  0.00     0.033 C 
ATOM     29  C   UNL     1     -15.710   4.072  -6.576  1.00  0.00     0.118 C 
BRANCH  29  30
ATOM     30  O   UNL     1     -16.133   2.734  -6.614  1.00  0.00    -0.393 OA
ATOM     31  H   UNL     1     -15.628   2.237  -5.916  1.00  0.00     0.210 HD
ENDBRANCH  29  30
ENDBRANCH   9  11
ENDBRANCH   1   9
TORSDOF 7
ENDMDL
MODEL 7
REMARK VINA RESULT:    -6.587     13.059     15.814
REMARK INTER + INTRA:          -9.991
REMARK INTER:                  -8.080
REMARK INTRA:                  -1.912
REMARK UNBOUND:                -0.901
REMARK SMILES CC[C@H](CC[C@@H](C)[C@@H]1CC[C@@H]2[C@H]3CC=C4C[C@@H](O)CC[C@]4(C)[C@@H]3CC[C@@]21C)C(C)C
REMARK SMILES IDX 5 1 4 2 3 3 2 4 1 5 28 6 29 7 30 8 6 9 7 10 8 11 9 12 26 13
REMARK SMILES IDX 10 14 11 15 25 16 27 17 12 18 24 19 23 20 13 21 21 22 14 23
REMARK SMILES IDX 15 24 20 25 22 26 16 27 19 28 17 29 18 30
REMARK H PARENT 18 31
REMARK Flexibility Score: inf
ROOT
ATOM      1  C   UNL     1     -14.929   6.639  -3.823  1.00  0.00     0.004 C 
ENDROOT
BRANCH   1   2
ATOM      2  C   UNL     1     -13.707   6.770  -2.875  1.00  0.00     0.004 C 
BRANCH   2   3
ATOM      3  C   UNL     1     -12.621   7.751  -3.406  1.00  0.00    -0.009 C 
BRANCH   3   4
ATOM      4  C   UNL     1     -11.353   6.987  -3.873  1.00  0.00     0.000 C 
ATOM      5  C   UNL     1     -11.242   5.588  -3.261  1.00  0.00     0.004 C 
ENDBRANCH   3   4
BRANCH   3   6
ATOM      6  C   UNL     1     -13.191   8.691  -4.523  1.00  0.00    -0.014 C 
ATOM      7  C   UNL     1     -12.238   8.888  -5.715  1.00  0.00     0.007 C 
ATOM      8  C   UNL     1     -13.612  10.059  -3.956  1.00  0.00     0.007 C 
ENDBRANCH   3   6
ENDBRANCH   2   3
ENDBRANCH   1   2
BRANCH   1   9
ATOM      9  C   UNL     1     -15.135   5.213  -4.401  1.00  0.00    -0.011 C 
ATOM     10  C   UNL     1     -16.593   4.768  -4.142  1.00  0.00     0.008 C 
BRANCH   9  11
ATOM     11  C   UNL     1     -14.786   5.164  -5.939  1.00  0.00    -0.002 C 
ATOM     12  C   UNL     1     -13.317   5.474  -6.216  1.00  0.00     0.005 C 
ATOM     13  C   UNL     1     -15.569   6.116  -6.926  1.00  0.00    -0.026 C 
ATOM     14  C   UNL     1     -13.238   5.736  -7.699  1.00  0.00     0.005 C 
ATOM     15  C   UNL     1     -14.548   6.442  -8.077  1.00  0.00    -0.001 C 
ATOM     16  C   UNL     1     -16.032   7.424  -6.226  1.00  0.00     0.007 C 
ATOM     17  C   UNL     1     -16.794   5.379  -7.545  1.00  0.00     0.012 C 
ATOM     18  C   UNL     1     -14.303   7.965  -8.343  1.00  0.00     0.000 C 
ATOM     19  C   UNL     1     -16.598   8.441  -7.217  1.00  0.00     0.005 C 
ATOM     20  C   UNL     1     -15.610   8.802  -8.365  1.00  0.00     0.003 C 
ATOM     21  C   UNL     1     -13.603   8.166  -9.702  1.00  0.00     0.031 C 
ATOM     22  C   UNL     1     -15.301  10.351  -8.504  1.00  0.00    -0.008 C 
ATOM     23  C   UNL     1     -13.380   9.619 -10.001  1.00  0.00    -0.027 C 
ATOM     24  C   UNL     1     -14.164  10.607  -9.515  1.00  0.00    -0.065 C 
ATOM     25  C   UNL     1     -14.847  10.990  -7.147  1.00  0.00     0.014 C 
ATOM     26  C   UNL     1     -16.594  11.043  -9.011  1.00  0.00     0.016 C 
ATOM     27  C   UNL     1     -13.704  12.036  -9.703  1.00  0.00     0.063 C 
ATOM     28  C   UNL     1     -14.340  12.443  -7.278  1.00  0.00     0.033 C 
ATOM     29  C   UNL     1     -13.237  12.580  -8.346  1.00  0.00     0.118 C 
BRANCH  29  30
ATOM     30  O   UNL     1     -12.819  13.916  -8.460  1.00  0.00    -0.393 OA
ATOM     31  H   UNL     1     -12.541  14.067  -9.404  1.00  0.00     0.210 HD
ENDBRANCH  29  30
ENDBRANCH   9  11
ENDBRANCH   1   9
TORSDOF 7
ENDMDL
MODEL 8
REMARK VINA RESULT:    -6.155     13.607     16.583
REMARK INTER + INTRA:          -9.396
REMARK INTER:                  -7.295
REMARK INTRA:                  -2.101
REMARK UNBOUND:                -0.901
REMARK SMILES CC[C@H](CC[C@@H](C)[C@@H]1CC[C@@H]2[C@H]3CC=C4C[C@@H](O)CC[C@]4(C)[C@@H]3CC[C@@]21C)C(C)C
REMARK SMILES IDX 5 1 4 2 3 3 2 4 1 5 28 6 29 7 30 8 6 9 7 10 8 11 9 12 26 13
REMARK SMILES IDX 10 14 11 15 25 16 27 17 12 18 24 19 23 20 13 21 21 22 14 23
REMARK SMILES IDX 15 24 20 25 22 26 16 27 19 28 17 29 18 30
REMARK H PARENT 18 31
REMARK Flexibility Score: inf
ROOT
ATOM      1  C   UNL     1     -16.830   9.477  -5.139  1.00  0.00     0.004 C 
ENDROOT
BRANCH   1   2
ATOM      2  C   UNL     1     -17.086   8.118  -5.842  1.00  0.00     0.004 C 
BRANCH   2   3
ATOM      3  C   UNL     1     -15.832   7.194  -5.867  1.00  0.00    -0.009 C 
BRANCH   3   4
ATOM      4  C   UNL     1     -15.855   6.186  -4.687  1.00  0.00     0.000 C 
ATOM      5  C   UNL     1     -16.353   4.798  -5.098  1.00  0.00     0.004 C 
ENDBRANCH   3   4
BRANCH   3   6
ATOM      6  C   UNL     1     -15.669   6.482  -7.253  1.00  0.00    -0.014 C 
ATOM      7  C   UNL     1     -14.230   6.509  -7.799  1.00  0.00     0.007 C 
ATOM      8  C   UNL     1     -16.640   7.051  -8.303  1.00  0.00     0.007 C 
ENDBRANCH   3   6
ENDBRANCH   2   3
ENDBRANCH   1   2
BRANCH   1   9
ATOM      9  C   UNL     1     -16.816  10.697  -6.100  1.00  0.00    -0.011 C 
ATOM     10  C   UNL     1     -17.934  11.681  -5.685  1.00  0.00     0.008 C 
BRANCH   9  11
ATOM     11  C   UNL     1     -15.404  11.403  -6.105  1.00  0.00    -0.002 C 
ATOM     12  C   UNL     1     -15.493  12.885  -6.460  1.00  0.00     0.005 C 
ATOM     13  C   UNL     1     -14.281  10.848  -7.065  1.00  0.00    -0.026 C 
ATOM     14  C   UNL     1     -14.077  13.307  -6.766  1.00  0.00     0.005 C 
ATOM     15  C   UNL     1     -13.414  12.102  -7.450  1.00  0.00    -0.001 C 
ATOM     16  C   UNL     1     -14.879  10.190  -8.340  1.00  0.00     0.007 C 
ATOM     17  C   UNL     1     -13.370   9.828  -6.316  1.00  0.00     0.012 C 
ATOM     18  C   UNL     1     -13.248  12.355  -8.985  1.00  0.00     0.000 C 
ATOM     19  C   UNL     1     -13.803   9.844  -9.370  1.00  0.00     0.005 C 
ATOM     20  C   UNL     1     -12.933  11.065  -9.790  1.00  0.00     0.003 C 
ATOM     21  C   UNL     1     -12.099  13.351  -9.243  1.00  0.00     0.031 C 
ATOM     22  C   UNL     1     -12.906  11.350 -11.349  1.00  0.00    -0.008 C 
ATOM     23  C   UNL     1     -11.895  13.593 -10.710  1.00  0.00    -0.027 C 
ATOM     24  C   UNL     1     -12.201  12.686 -11.663  1.00  0.00    -0.065 C 
ATOM     25  C   UNL     1     -14.346  11.448 -11.960  1.00  0.00     0.014 C 
ATOM     26  C   UNL     1     -12.121  10.193 -12.023  1.00  0.00     0.016 C 
ATOM     27  C   UNL     1     -12.160  13.132 -13.108  1.00  0.00     0.063 C 
ATOM     28  C   UNL     1     -14.371  11.925 -13.429  1.00  0.00     0.033 C 
ATOM     29  C   UNL     1     -13.600  13.246 -13.625  1.00  0.00     0.118 C 
BRANCH  29  30
ATOM     30  O   UNL     1     -13.619  13.636 -14.973  1.00  0.00    -0.393 OA
ATOM     31  H   UNL     1     -13.236  14.553 -15.028  1.00  0.00     0.210 HD
ENDBRANCH  29  30
ENDBRANCH   9  11
ENDBRANCH   1   9
TORSDOF 7
ENDMDL
MODEL 9
REMARK VINA RESULT:    -5.890     14.043     16.437
REMARK INTER + INTRA:          -9.030
REMARK INTER:                  -8.051
REMARK INTRA:                  -0.979
REMARK UNBOUND:                -0.901
REMARK SMILES CC[C@H](CC[C@@H](C)[C@@H]1CC[C@@H]2[C@H]3CC=C4C[C@@H](O)CC[C@]4(C)[C@@H]3CC[C@@]21C)C(C)C
REMARK SMILES IDX 5 1 4 2 3 3 2 4 1 5 28 6 29 7 30 8 6 9 7 10 8 11 9 12 26 13
REMARK SMILES IDX 10 14 11 15 25 16 27 17 12 18 24 19 23 20 13 21 21 22 14 23
REMARK SMILES IDX 15 24 20 25 22 26 16 27 19 28 17 29 18 30
REMARK H PARENT 18 31
REMARK Flexibility Score: inf
ROOT
ATOM      1  C   UNL     1     -15.289  11.236  -7.589  1.00  0.00     0.004 C 
ENDROOT
BRANCH   1   2
ATOM      2  C   UNL     1     -14.934  10.930  -9.069  1.00  0.00     0.004 C 
BRANCH   2   3
ATOM      3  C   UNL     1     -13.503  10.342  -9.247  1.00  0.00    -0.009 C 
BRANCH   3   4
ATOM      4  C   UNL     1     -13.557   8.836  -9.617  1.00  0.00     0.000 C 
ATOM      5  C   UNL     1     -14.116   7.964  -8.490  1.00  0.00     0.004 C 
ENDBRANCH   3   4
BRANCH   3   6
ATOM      6  C   UNL     1     -12.663  11.175 -10.275  1.00  0.00    -0.014 C 
ATOM      7  C   UNL     1     -12.186  12.533  -9.731  1.00  0.00     0.007 C 
ATOM      8  C   UNL     1     -13.421  11.377 -11.599  1.00  0.00     0.007 C 
ENDBRANCH   3   6
ENDBRANCH   2   3
ENDBRANCH   1   2
BRANCH   1   9
ATOM      9  C   UNL     1     -14.153  11.934  -6.794  1.00  0.00    -0.011 C 
ATOM     10  C   UNL     1     -14.657  13.307  -6.291  1.00  0.00     0.008 C 
BRANCH   9  11
ATOM     11  C   UNL     1     -13.657  11.032  -5.598  1.00  0.00    -0.002 C 
ATOM     12  C   UNL     1     -12.608  10.011  -6.032  1.00  0.00     0.005 C 
ATOM     13  C   UNL     1     -14.716  10.175  -4.802  1.00  0.00    -0.026 C 
ATOM     14  C   UNL     1     -12.513   9.028  -4.891  1.00  0.00     0.005 C 
ATOM     15  C   UNL     1     -13.935   8.896  -4.326  1.00  0.00    -0.001 C 
ATOM     16  C   UNL     1     -15.925   9.773  -5.692  1.00  0.00     0.007 C 
ATOM     17  C   UNL     1     -15.215  10.948  -3.543  1.00  0.00     0.012 C 
ATOM     18  C   UNL     1     -14.574   7.529  -4.738  1.00  0.00     0.000 C 
ATOM     19  C   UNL     1     -16.845   8.769  -4.997  1.00  0.00     0.005 C 
ATOM     20  C   UNL     1     -16.111   7.480  -4.524  1.00  0.00     0.003 C 
ATOM     21  C   UNL     1     -13.957   6.379  -3.918  1.00  0.00     0.031 C 
ATOM     22  C   UNL     1     -16.729   6.130  -5.079  1.00  0.00    -0.008 C 
ATOM     23  C   UNL     1     -14.571   5.056  -4.270  1.00  0.00    -0.027 C 
ATOM     24  C   UNL     1     -15.830   4.922  -4.741  1.00  0.00    -0.065 C 
ATOM     25  C   UNL     1     -16.890   6.147  -6.638  1.00  0.00     0.014 C 
ATOM     26  C   UNL     1     -18.112   5.935  -4.404  1.00  0.00     0.016 C 
ATOM     27  C   UNL     1     -16.251   3.568  -5.268  1.00  0.00     0.063 C 
ATOM     28  C   UNL     1     -17.293   4.783  -7.240  1.00  0.00     0.033 C 
ATOM     29  C   UNL     1     -16.347   3.649  -6.798  1.00  0.00     0.118 C 
BRANCH  29  30
ATOM     30  O   UNL     1     -16.758   2.420  -7.339  1.00  0.00    -0.393 OA
ATOM     31  H   UNL     1     -17.046   1.838  -6.585  1.00  0.00     0.210 HD
ENDBRANCH  29  30
ENDBRANCH   9  11
ENDBRANCH   1   9
TORSDOF 7
ENDMDL
