MODEL 1
REMARK VINA RESULT:    -5.168      0.000      0.000
REMARK INTER + INTRA:          -6.757
REMARK INTER:                  -6.377
REMARK INTRA:                  -0.380
REMARK UNBOUND:                -0.380
REMARK SMILES Oc1cc(O)c2cc(O)c(-c3cc(O)c(O)c(O)c3)[o+]c2c1
REMARK SMILES IDX 10 1 20 2 21 3 22 4 2 5 3 6 4 7 6 8 7 9 8 10 11 11 12 12
REMARK SMILES IDX 13 13 19 14 15 15 17 16 14 17 16 19 18 21 9 23 1 25 5 27
REMARK H PARENT 14 18 16 20 18 22 9 24 1 26 5 28
REMARK Flexibility Score: inf
ROOT
ATOM      1  C   UNL     1      54.334   7.202 -48.040  1.00  0.00     0.402 A 
ATOM      2  O   UNL     1      53.874   8.165 -48.835  1.00  0.00    -0.202 OA
ATOM      3  C   UNL     1      53.849   8.066 -50.160  1.00  0.00     0.368 A 
ATOM      4  C   UNL     1      53.344   9.130 -50.911  1.00  0.00     0.162 A 
ATOM      5  C   UNL     1      53.302   9.053 -52.304  1.00  0.00     0.128 A 
ATOM      6  C   UNL     1      53.766   7.903 -52.952  1.00  0.00     0.093 A 
ATOM      7  C   UNL     1      54.276   6.823 -52.223  1.00  0.00     0.136 A 
ATOM      8  C   UNL     1      54.324   6.899 -50.807  1.00  0.00     0.125 A 
ATOM      9  C   UNL     1      54.830   5.871 -49.995  1.00  0.00     0.078 A 
ATOM     10  C   UNL     1      54.849   6.019 -48.605  1.00  0.00     0.223 A 
ENDROOT
BRANCH   1  11
ATOM     11  C   UNL     1      54.302   7.427 -46.576  1.00  0.00     0.091 A 
ATOM     12  C   UNL     1      53.194   6.990 -45.837  1.00  0.00     0.068 A 
ATOM     13  C   UNL     1      53.148   7.173 -44.448  1.00  0.00     0.162 A 
ATOM     14  C   UNL     1      55.383   8.016 -45.903  1.00  0.00     0.068 A 
ATOM     15  C   UNL     1      54.219   7.783 -43.779  1.00  0.00     0.200 A 
ATOM     16  C   UNL     1      55.353   8.202 -44.515  1.00  0.00     0.162 A 
BRANCH  13  17
ATOM     17  O   UNL     1      52.035   6.750 -43.724  1.00  0.00    -0.504 OA
ATOM     18  H   UNL     1      52.013   5.850 -43.260  1.00  0.00     0.293 HD
ENDBRANCH  13  17
BRANCH  15  19
ATOM     19  O   UNL     1      54.119   7.949 -42.396  1.00  0.00    -0.502 OA
ATOM     20  H   UNL     1      54.640   8.634 -41.869  1.00  0.00     0.293 HD
ENDBRANCH  15  19
BRANCH  16  21
ATOM     21  O   UNL     1      56.464   8.797 -43.915  1.00  0.00    -0.504 OA
ATOM     22  H   UNL     1      57.161   9.329 -44.415  1.00  0.00     0.293 HD
ENDBRANCH  16  21
ENDBRANCH   1  11
BRANCH  10  23
ATOM     23  O   UNL     1      55.398   5.021 -47.801  1.00  0.00    -0.500 OA
ATOM     24  H   UNL     1      55.701   4.133 -48.186  1.00  0.00     0.294 HD
ENDBRANCH  10  23
BRANCH   5  25
ATOM     25  O   UNL     1      52.795  10.125 -53.035  1.00  0.00    -0.507 OA
ATOM     26  H   UNL     1      52.096   9.992 -53.757  1.00  0.00     0.293 HD
ENDBRANCH   5  25
BRANCH   7  27
ATOM     27  O   UNL     1      54.718   5.710 -52.944  1.00  0.00    -0.507 OA
ATOM     28  H   UNL     1      55.369   5.024 -52.591  1.00  0.00     0.293 HD
ENDBRANCH   7  27
TORSDOF 7
ENDMDL
MODEL 2
REMARK VINA RESULT:    -5.107      1.805      7.454
REMARK INTER + INTRA:          -6.681
REMARK INTER:                  -6.315
REMARK INTRA:                  -0.367
REMARK UNBOUND:                -0.380
REMARK SMILES Oc1cc(O)c2cc(O)c(-c3cc(O)c(O)c(O)c3)[o+]c2c1
REMARK SMILES IDX 10 1 20 2 21 3 22 4 2 5 3 6 4 7 6 8 7 9 8 10 11 11 12 12
REMARK SMILES IDX 13 13 19 14 15 15 17 16 14 17 16 19 18 21 9 23 1 25 5 27
REMARK H PARENT 14 18 16 20 18 22 9 24 1 26 5 28
REMARK Flexibility Score: inf
ROOT
ATOM      1  C   UNL     1      54.103   7.387 -46.023  1.00  0.00     0.402 A 
ATOM      2  O   UNL     1      55.038   7.994 -45.296  1.00  0.00    -0.202 OA
ATOM      3  C   UNL     1      55.064   7.961 -43.967  1.00  0.00     0.368 A 
ATOM      4  C   UNL     1      56.088   8.627 -43.291  1.00  0.00     0.162 A 
ATOM      5  C   UNL     1      56.143   8.607 -41.897  1.00  0.00     0.128 A 
ATOM      6  C   UNL     1      55.167   7.914 -41.171  1.00  0.00     0.093 A 
ATOM      7  C   UNL     1      54.130   7.238 -41.826  1.00  0.00     0.136 A 
ATOM      8  C   UNL     1      54.069   7.259 -43.243  1.00  0.00     0.125 A 
ATOM      9  C   UNL     1      53.060   6.622 -43.982  1.00  0.00     0.078 A 
ATOM     10  C   UNL     1      53.064   6.690 -45.379  1.00  0.00     0.223 A 
ENDROOT
BRANCH   1  11
ATOM     11  C   UNL     1      54.187   7.490 -47.498  1.00  0.00     0.091 A 
ATOM     12  C   UNL     1      53.472   8.496 -48.161  1.00  0.00     0.068 A 
ATOM     13  C   UNL     1      53.549   8.627 -49.553  1.00  0.00     0.162 A 
ATOM     14  C   UNL     1      55.014   6.636 -48.245  1.00  0.00     0.068 A 
ATOM     15  C   UNL     1      54.358   7.759 -50.301  1.00  0.00     0.200 A 
ATOM     16  C   UNL     1      55.105   6.756 -49.637  1.00  0.00     0.162 A 
BRANCH  13  17
ATOM     17  O   UNL     1      52.821   9.621 -50.205  1.00  0.00    -0.504 OA
ATOM     18  H   UNL     1      53.259  10.256 -50.862  1.00  0.00     0.293 HD
ENDBRANCH  13  17
BRANCH  15  19
ATOM     19  O   UNL     1      54.394   7.927 -51.687  1.00  0.00    -0.502 OA
ATOM     20  H   UNL     1      55.203   8.248 -52.197  1.00  0.00     0.293 HD
ENDBRANCH  15  19
BRANCH  16  21
ATOM     21  O   UNL     1      55.947   5.871 -50.313  1.00  0.00    -0.504 OA
ATOM     22  H   UNL     1      56.887   6.095 -50.604  1.00  0.00     0.293 HD
ENDBRANCH  16  21
ENDBRANCH   1  11
BRANCH  10  23
ATOM     23  O   UNL     1      52.034   6.100 -46.111  1.00  0.00    -0.500 OA
ATOM     24  H   UNL     1      51.790   5.123 -45.996  1.00  0.00     0.294 HD
ENDBRANCH  10  23
BRANCH   5  25
ATOM     25  O   UNL     1      57.173   9.278 -41.241  1.00  0.00    -0.507 OA
ATOM     26  H   UNL     1      57.782   9.922 -41.730  1.00  0.00     0.293 HD
ENDBRANCH   5  25
BRANCH   7  27
ATOM     27  O   UNL     1      53.197   6.568 -41.030  1.00  0.00    -0.507 OA
ATOM     28  H   UNL     1      52.272   6.914 -40.823  1.00  0.00     0.293 HD
ENDBRANCH   7  27
TORSDOF 7
ENDMDL
MODEL 3
REMARK VINA RESULT:    -5.063      1.158      7.227
REMARK INTER + INTRA:          -6.628
REMARK INTER:                  -6.249
REMARK INTRA:                  -0.379
REMARK UNBOUND:                -0.380
REMARK SMILES Oc1cc(O)c2cc(O)c(-c3cc(O)c(O)c(O)c3)[o+]c2c1
REMARK SMILES IDX 10 1 20 2 21 3 22 4 2 5 3 6 4 7 6 8 7 9 8 10 11 11 12 12
REMARK SMILES IDX 13 13 19 14 15 15 17 16 14 17 16 19 18 21 9 23 1 25 5 27
REMARK H PARENT 14 18 16 20 18 22 9 24 1 26 5 28
REMARK Flexibility Score: inf
ROOT
ATOM      1  C   UNL     1      53.290   7.628 -48.793  1.00  0.00     0.402 A 
ATOM      2  O   UNL     1      54.295   7.956 -47.985  1.00  0.00    -0.202 OA
ATOM      3  C   UNL     1      54.210   7.912 -46.659  1.00  0.00     0.368 A 
ATOM      4  C   UNL     1      55.321   8.274 -45.895  1.00  0.00     0.162 A 
ATOM      5  C   UNL     1      55.262   8.233 -44.501  1.00  0.00     0.128 A 
ATOM      6  C   UNL     1      54.084   7.827 -43.865  1.00  0.00     0.093 A 
ATOM      7  C   UNL     1      52.956   7.459 -44.609  1.00  0.00     0.136 A 
ATOM      8  C   UNL     1      53.011   7.502 -46.026  1.00  0.00     0.125 A 
ATOM      9  C   UNL     1      51.927   7.164 -46.852  1.00  0.00     0.078 A 
ATOM     10  C   UNL     1      52.055   7.235 -48.243  1.00  0.00     0.223 A 
ENDROOT
BRANCH   1  11
ATOM     11  C   UNL     1      53.510   7.710 -50.255  1.00  0.00     0.091 A 
ATOM     12  C   UNL     1      53.982   6.585 -50.945  1.00  0.00     0.068 A 
ATOM     13  C   UNL     1      54.181   6.631 -52.331  1.00  0.00     0.162 A 
ATOM     14  C   UNL     1      53.201   8.873 -50.977  1.00  0.00     0.068 A 
ATOM     15  C   UNL     1      53.893   7.801 -53.048  1.00  0.00     0.200 A 
ATOM     16  C   UNL     1      53.390   8.933 -52.363  1.00  0.00     0.162 A 
BRANCH  13  17
ATOM     17  O   UNL     1      54.666   5.512 -53.005  1.00  0.00    -0.504 OA
ATOM     18  H   UNL     1      55.108   4.744 -52.513  1.00  0.00     0.293 HD
ENDBRANCH  13  17
BRANCH  15  19
ATOM     19  O   UNL     1      54.116   7.796 -54.427  1.00  0.00    -0.502 OA
ATOM     20  H   UNL     1      53.420   8.046 -55.114  1.00  0.00     0.293 HD
ENDBRANCH  15  19
BRANCH  16  21
ATOM     21  O   UNL     1      53.062  10.124 -53.014  1.00  0.00    -0.504 OA
ATOM     22  H   UNL     1      52.715  10.948 -52.545  1.00  0.00     0.293 HD
ENDBRANCH  16  21
ENDBRANCH   1  11
BRANCH  10  23
ATOM     23  O   UNL     1      50.963   6.948 -49.062  1.00  0.00    -0.500 OA
ATOM     24  H   UNL     1      50.117   6.529 -48.695  1.00  0.00     0.294 HD
ENDBRANCH  10  23
BRANCH   5  25
ATOM     25  O   UNL     1      56.381   8.598 -43.756  1.00  0.00    -0.507 OA
ATOM     26  H   UNL     1      56.973   7.904 -43.313  1.00  0.00     0.293 HD
ENDBRANCH   5  25
BRANCH   7  27
ATOM     27  O   UNL     1      51.819   7.063 -43.900  1.00  0.00    -0.507 OA
ATOM     28  H   UNL     1      50.962   7.595 -43.853  1.00  0.00     0.293 HD
ENDBRANCH   7  27
TORSDOF 7
ENDMDL
MODEL 4
REMARK VINA RESULT:    -5.019      1.483      1.953
REMARK INTER + INTRA:          -6.573
REMARK INTER:                  -6.209
REMARK INTRA:                  -0.364
REMARK UNBOUND:                -0.380
REMARK SMILES Oc1cc(O)c2cc(O)c(-c3cc(O)c(O)c(O)c3)[o+]c2c1
REMARK SMILES IDX 10 1 20 2 21 3 22 4 2 5 3 6 4 7 6 8 7 9 8 10 11 11 12 12
REMARK SMILES IDX 13 13 19 14 15 15 17 16 14 17 16 19 18 21 9 23 1 25 5 27
REMARK H PARENT 14 18 16 20 18 22 9 24 1 26 5 28
REMARK Flexibility Score: inf
ROOT
ATOM      1  C   UNL     1      54.893   7.094 -46.186  1.00  0.00     0.402 A 
ATOM      2  O   UNL     1      54.206   7.873 -47.018  1.00  0.00    -0.202 OA
ATOM      3  C   UNL     1      54.222   7.724 -48.339  1.00  0.00     0.368 A 
ATOM      4  C   UNL     1      53.464   8.590 -49.130  1.00  0.00     0.162 A 
ATOM      5  C   UNL     1      53.459   8.455 -50.519  1.00  0.00     0.128 A 
ATOM      6  C   UNL     1      54.217   7.445 -51.123  1.00  0.00     0.093 A 
ATOM      7  C   UNL     1      54.985   6.564 -50.352  1.00  0.00     0.136 A 
ATOM      8  C   UNL     1      54.995   6.700 -48.940  1.00  0.00     0.125 A 
ATOM      9  C   UNL     1      55.744   5.872 -48.089  1.00  0.00     0.078 A 
ATOM     10  C   UNL     1      55.707   6.070 -46.706  1.00  0.00     0.223 A 
ENDROOT
BRANCH   1  11
ATOM     11  C   UNL     1      54.787   7.355 -44.733  1.00  0.00     0.091 A 
ATOM     12  C   UNL     1      53.739   6.776 -44.004  1.00  0.00     0.068 A 
ATOM     13  C   UNL     1      53.627   6.991 -42.624  1.00  0.00     0.162 A 
ATOM     14  C   UNL     1      55.746   8.124 -44.055  1.00  0.00     0.068 A 
ATOM     15  C   UNL     1      54.573   7.778 -41.952  1.00  0.00     0.200 A 
ATOM     16  C   UNL     1      55.650   8.344 -42.676  1.00  0.00     0.162 A 
BRANCH  13  17
ATOM     17  O   UNL     1      52.571   6.424 -41.911  1.00  0.00    -0.504 OA
ATOM     18  H   UNL     1      52.662   6.179 -40.932  1.00  0.00     0.293 HD
ENDBRANCH  13  17
BRANCH  15  19
ATOM     19  O   UNL     1      54.410   7.967 -40.578  1.00  0.00    -0.502 OA
ATOM     20  H   UNL     1      54.758   8.768 -40.072  1.00  0.00     0.293 HD
ENDBRANCH  15  19
BRANCH  16  21
ATOM     21  O   UNL     1      56.640   9.120 -42.070  1.00  0.00    -0.504 OA
ATOM     22  H   UNL     1      57.595   9.171 -42.392  1.00  0.00     0.293 HD
ENDBRANCH  16  21
ENDBRANCH   1  11
BRANCH  10  23
ATOM     23  O   UNL     1      56.491   5.280 -45.865  1.00  0.00    -0.500 OA
ATOM     24  H   UNL     1      56.759   4.336 -46.117  1.00  0.00     0.294 HD
ENDBRANCH  10  23
BRANCH   5  25
ATOM     25  O   UNL     1      52.697   9.329 -51.291  1.00  0.00    -0.507 OA
ATOM     26  H   UNL     1      52.106  10.034 -50.866  1.00  0.00     0.293 HD
ENDBRANCH   5  25
BRANCH   7  27
ATOM     27  O   UNL     1      55.712   5.582 -51.030  1.00  0.00    -0.507 OA
ATOM     28  H   UNL     1      56.389   4.972 -50.597  1.00  0.00     0.293 HD
ENDBRANCH   7  27
TORSDOF 7
ENDMDL
MODEL 5
REMARK VINA RESULT:    -4.938      9.562     12.925
REMARK INTER + INTRA:          -6.473
REMARK INTER:                  -6.096
REMARK INTRA:                  -0.377
REMARK UNBOUND:                -0.380
REMARK SMILES Oc1cc(O)c2cc(O)c(-c3cc(O)c(O)c(O)c3)[o+]c2c1
REMARK SMILES IDX 10 1 20 2 21 3 22 4 2 5 3 6 4 7 6 8 7 9 8 10 11 11 12 12
REMARK SMILES IDX 13 13 19 14 15 15 17 16 14 17 16 19 18 21 9 23 1 25 5 27
REMARK H PARENT 14 18 16 20 18 22 9 24 1 26 5 28
REMARK Flexibility Score: inf
ROOT
ATOM      1  C   UNL     1      56.429  -2.165 -51.945  1.00  0.00     0.402 A 
ATOM      2  O   UNL     1      57.471  -2.991 -51.889  1.00  0.00    -0.202 OA
ATOM      3  C   UNL     1      58.505  -2.806 -51.075  1.00  0.00     0.368 A 
ATOM      4  C   UNL     1      59.552  -3.731 -51.086  1.00  0.00     0.162 A 
ATOM      5  C   UNL     1      60.649  -3.564 -50.239  1.00  0.00     0.128 A 
ATOM      6  C   UNL     1      60.700  -2.466 -49.373  1.00  0.00     0.093 A 
ATOM      7  C   UNL     1      59.663  -1.526 -49.343  1.00  0.00     0.136 A 
ATOM      8  C   UNL     1      58.548  -1.689 -50.204  1.00  0.00     0.125 A 
ATOM      9  C   UNL     1      57.470  -0.791 -50.252  1.00  0.00     0.078 A 
ATOM     10  C   UNL     1      56.407  -1.017 -51.131  1.00  0.00     0.223 A 
ENDROOT
BRANCH   1  11
ATOM     11  C   UNL     1      55.332  -2.483 -52.888  1.00  0.00     0.091 A 
ATOM     12  C   UNL     1      55.369  -1.963 -54.189  1.00  0.00     0.068 A 
ATOM     13  C   UNL     1      54.354  -2.265 -55.106  1.00  0.00     0.162 A 
ATOM     14  C   UNL     1      54.283  -3.343 -52.527  1.00  0.00     0.068 A 
ATOM     15  C   UNL     1      53.295  -3.106 -54.737  1.00  0.00     0.200 A 
ATOM     16  C   UNL     1      53.264  -3.658 -53.434  1.00  0.00     0.162 A 
BRANCH  13  17
ATOM     17  O   UNL     1      54.392  -1.729 -56.392  1.00  0.00    -0.504 OA
ATOM     18  H   UNL     1      54.730  -2.265 -57.182  1.00  0.00     0.293 HD
ENDBRANCH  13  17
BRANCH  15  19
ATOM     19  O   UNL     1      52.305  -3.368 -55.686  1.00  0.00    -0.502 OA
ATOM     20  H   UNL     1      51.316  -3.382 -55.484  1.00  0.00     0.293 HD
ENDBRANCH  15  19
BRANCH  16  21
ATOM     21  O   UNL     1      52.253  -4.518 -53.003  1.00  0.00    -0.504 OA
ATOM     22  H   UNL     1      51.787  -4.443 -52.110  1.00  0.00     0.293 HD
ENDBRANCH  16  21
ENDBRANCH   1  11
BRANCH  10  23
ATOM     23  O   UNL     1      55.361  -0.098 -51.214  1.00  0.00    -0.500 OA
ATOM     24  H   UNL     1      54.536  -0.174 -50.629  1.00  0.00     0.294 HD
ENDBRANCH  10  23
BRANCH   5  25
ATOM     25  O   UNL     1      61.683  -4.497 -50.265  1.00  0.00    -0.507 OA
ATOM     26  H   UNL     1      61.876  -5.053 -51.091  1.00  0.00     0.293 HD
ENDBRANCH   5  25
BRANCH   7  27
ATOM     27  O   UNL     1      59.789  -0.459 -48.449  1.00  0.00    -0.507 OA
ATOM     28  H   UNL     1      59.150  -0.273 -47.690  1.00  0.00     0.293 HD
ENDBRANCH   7  27
TORSDOF 7
ENDMDL
MODEL 6
REMARK VINA RESULT:    -4.920      1.841      7.608
REMARK INTER + INTRA:          -6.451
REMARK INTER:                  -6.127
REMARK INTRA:                  -0.324
REMARK UNBOUND:                -0.380
REMARK SMILES Oc1cc(O)c2cc(O)c(-c3cc(O)c(O)c(O)c3)[o+]c2c1
REMARK SMILES IDX 10 1 20 2 21 3 22 4 2 5 3 6 4 7 6 8 7 9 8 10 11 11 12 12
REMARK SMILES IDX 13 13 19 14 15 15 17 16 14 17 16 19 18 21 9 23 1 25 5 27
REMARK H PARENT 14 18 16 20 18 22 9 24 1 26 5 28
REMARK Flexibility Score: inf
ROOT
ATOM      1  C   UNL     1      54.413   7.432 -45.606  1.00  0.00     0.402 A 
ATOM      2  O   UNL     1      53.432   6.812 -44.954  1.00  0.00    -0.202 OA
ATOM      3  C   UNL     1      53.323   6.810 -43.629  1.00  0.00     0.368 A 
ATOM      4  C   UNL     1      52.256   6.132 -43.036  1.00  0.00     0.162 A 
ATOM      5  C   UNL     1      52.114   6.116 -41.648  1.00  0.00     0.128 A 
ATOM      6  C   UNL     1      53.046   6.784 -40.845  1.00  0.00     0.093 A 
ATOM      7  C   UNL     1      54.124   7.471 -41.415  1.00  0.00     0.136 A 
ATOM      8  C   UNL     1      54.274   7.487 -42.826  1.00  0.00     0.125 A 
ATOM      9  C   UNL     1      55.329   8.137 -43.484  1.00  0.00     0.078 A 
ATOM     10  C   UNL     1      55.413   8.106 -44.879  1.00  0.00     0.223 A 
ENDROOT
BRANCH   1  11
ATOM     11  C   UNL     1      54.421   7.369 -47.085  1.00  0.00     0.091 A 
ATOM     12  C   UNL     1      53.566   8.207 -47.815  1.00  0.00     0.068 A 
ATOM     13  C   UNL     1      53.569   8.181 -49.215  1.00  0.00     0.162 A 
ATOM     14  C   UNL     1      55.307   6.529 -47.777  1.00  0.00     0.068 A 
ATOM     15  C   UNL     1      54.439   7.325 -49.905  1.00  0.00     0.200 A 
ATOM     16  C   UNL     1      55.324   6.495 -49.176  1.00  0.00     0.162 A 
BRANCH  13  17
ATOM     17  O   UNL     1      52.704   9.006 -49.932  1.00  0.00    -0.504 OA
ATOM     18  H   UNL     1      52.441   9.924 -49.592  1.00  0.00     0.293 HD
ENDBRANCH  13  17
BRANCH  15  19
ATOM     19  O   UNL     1      54.395   7.332 -51.301  1.00  0.00    -0.502 OA
ATOM     20  H   UNL     1      53.654   7.752 -51.842  1.00  0.00     0.293 HD
ENDBRANCH  15  19
BRANCH  16  21
ATOM     21  O   UNL     1      56.232   5.633 -49.795  1.00  0.00    -0.504 OA
ATOM     22  H   UNL     1      56.008   4.696 -50.096  1.00  0.00     0.293 HD
ENDBRANCH  16  21
ENDBRANCH   1  11
BRANCH  10  23
ATOM     23  O   UNL     1      56.489   8.709 -45.530  1.00  0.00    -0.500 OA
ATOM     24  H   UNL     1      57.440   8.605 -45.196  1.00  0.00     0.294 HD
ENDBRANCH  10  23
BRANCH   5  25
ATOM     25  O   UNL     1      51.043   5.435 -41.075  1.00  0.00    -0.507 OA
ATOM     26  H   UNL     1      51.157   4.874 -40.239  1.00  0.00     0.293 HD
ENDBRANCH   5  25
BRANCH   7  27
ATOM     27  O   UNL     1      55.009   8.114 -40.546  1.00  0.00    -0.507 OA
ATOM     28  H   UNL     1      55.599   8.892 -40.805  1.00  0.00     0.293 HD
ENDBRANCH   7  27
TORSDOF 7
ENDMDL
MODEL 7
REMARK VINA RESULT:    -4.920      1.341      3.323
REMARK INTER + INTRA:          -6.451
REMARK INTER:                  -6.105
REMARK INTRA:                  -0.346
REMARK UNBOUND:                -0.380
REMARK SMILES Oc1cc(O)c2cc(O)c(-c3cc(O)c(O)c(O)c3)[o+]c2c1
REMARK SMILES IDX 10 1 20 2 21 3 22 4 2 5 3 6 4 7 6 8 7 9 8 10 11 11 12 12
REMARK SMILES IDX 13 13 19 14 15 15 17 16 14 17 16 19 18 21 9 23 1 25 5 27
REMARK H PARENT 14 18 16 20 18 22 9 24 1 26 5 28
REMARK Flexibility Score: inf
ROOT
ATOM      1  C   UNL     1      53.847   7.584 -49.013  1.00  0.00     0.402 A 
ATOM      2  O   UNL     1      54.342   6.501 -49.607  1.00  0.00    -0.202 OA
ATOM      3  C   UNL     1      54.370   6.342 -50.927  1.00  0.00     0.368 A 
ATOM      4  C   UNL     1      54.913   5.170 -51.458  1.00  0.00     0.162 A 
ATOM      5  C   UNL     1      54.960   4.977 -52.839  1.00  0.00     0.128 A 
ATOM      6  C   UNL     1      54.462   5.963 -53.697  1.00  0.00     0.093 A 
ATOM      7  C   UNL     1      53.913   7.147 -53.190  1.00  0.00     0.136 A 
ATOM      8  C   UNL     1      53.860   7.345 -51.786  1.00  0.00     0.125 A 
ATOM      9  C   UNL     1      53.317   8.493 -51.188  1.00  0.00     0.078 A 
ATOM     10  C   UNL     1      53.296   8.617 -49.796  1.00  0.00     0.223 A 
ENDROOT
BRANCH   1  11
ATOM     11  C   UNL     1      53.879   7.649 -47.534  1.00  0.00     0.091 A 
ATOM     12  C   UNL     1      55.053   8.059 -46.888  1.00  0.00     0.068 A 
ATOM     13  C   UNL     1      55.104   8.147 -45.491  1.00  0.00     0.162 A 
ATOM     14  C   UNL     1      52.740   7.364 -46.764  1.00  0.00     0.068 A 
ATOM     15  C   UNL     1      53.972   7.840 -44.721  1.00  0.00     0.200 A 
ATOM     16  C   UNL     1      52.774   7.451 -45.367  1.00  0.00     0.162 A 
BRANCH  13  17
ATOM     17  O   UNL     1      56.282   8.540 -44.856  1.00  0.00    -0.504 OA
ATOM     18  H   UNL     1      57.040   8.978 -45.367  1.00  0.00     0.293 HD
ENDBRANCH  13  17
BRANCH  15  19
ATOM     19  O   UNL     1      54.079   7.936 -43.332  1.00  0.00    -0.502 OA
ATOM     20  H   UNL     1      54.849   7.565 -42.796  1.00  0.00     0.293 HD
ENDBRANCH  15  19
BRANCH  16  21
ATOM     21  O   UNL     1      51.604   7.151 -44.668  1.00  0.00    -0.504 OA
ATOM     22  H   UNL     1      51.362   6.228 -44.339  1.00  0.00     0.293 HD
ENDBRANCH  16  21
ENDBRANCH   1  11
BRANCH  10  23
ATOM     23  O   UNL     1      52.711   9.734 -49.200  1.00  0.00    -0.500 OA
ATOM     24  H   UNL     1      51.875  10.164 -49.580  1.00  0.00     0.294 HD
ENDBRANCH  10  23
BRANCH   5  25
ATOM     25  O   UNL     1      55.505   3.801 -53.349  1.00  0.00    -0.507 OA
ATOM     26  H   UNL     1      56.070   3.185 -52.775  1.00  0.00     0.293 HD
ENDBRANCH   5  25
BRANCH   7  27
ATOM     27  O   UNL     1      53.438   8.083 -54.113  1.00  0.00    -0.507 OA
ATOM     28  H   UNL     1      53.180   9.031 -53.881  1.00  0.00     0.293 HD
ENDBRANCH   7  27
TORSDOF 7
ENDMDL
MODEL 8
REMARK VINA RESULT:    -4.819      1.912      2.512
REMARK INTER + INTRA:          -6.326
REMARK INTER:                  -5.942
REMARK INTRA:                  -0.384
REMARK UNBOUND:                -0.380
REMARK SMILES Oc1cc(O)c2cc(O)c(-c3cc(O)c(O)c(O)c3)[o+]c2c1
REMARK SMILES IDX 10 1 20 2 21 3 22 4 2 5 3 6 4 7 6 8 7 9 8 10 11 11 12 12
REMARK SMILES IDX 13 13 19 14 15 15 17 16 14 17 16 19 18 21 9 23 1 25 5 27
REMARK H PARENT 14 18 16 20 18 22 9 24 1 26 5 28
REMARK Flexibility Score: inf
ROOT
ATOM      1  C   UNL     1      53.417   7.138 -48.453  1.00  0.00     0.402 A 
ATOM      2  O   UNL     1      53.961   7.939 -49.366  1.00  0.00    -0.202 OA
ATOM      3  C   UNL     1      53.427   8.149 -50.565  1.00  0.00     0.368 A 
ATOM      4  C   UNL     1      54.072   9.011 -51.454  1.00  0.00     0.162 A 
ATOM      5  C   UNL     1      53.532   9.253 -52.718  1.00  0.00     0.128 A 
ATOM      6  C   UNL     1      52.338   8.629 -53.097  1.00  0.00     0.093 A 
ATOM      7  C   UNL     1      51.673   7.760 -52.224  1.00  0.00     0.136 A 
ATOM      8  C   UNL     1      52.220   7.509 -50.939  1.00  0.00     0.125 A 
ATOM      9  C   UNL     1      51.630   6.645 -50.003  1.00  0.00     0.078 A 
ATOM     10  C   UNL     1      52.230   6.444 -48.757  1.00  0.00     0.223 A 
ENDROOT
BRANCH   1  11
ATOM     11  C   UNL     1      54.103   6.993 -47.149  1.00  0.00     0.091 A 
ATOM     12  C   UNL     1      55.104   6.023 -47.001  1.00  0.00     0.068 A 
ATOM     13  C   UNL     1      55.781   5.879 -45.783  1.00  0.00     0.162 A 
ATOM     14  C   UNL     1      53.813   7.845 -46.072  1.00  0.00     0.068 A 
ATOM     15  C   UNL     1      55.475   6.716 -44.700  1.00  0.00     0.200 A 
ATOM     16  C   UNL     1      54.484   7.715 -44.850  1.00  0.00     0.162 A 
BRANCH  13  17
ATOM     17  O   UNL     1      56.765   4.901 -45.641  1.00  0.00    -0.504 OA
ATOM     18  H   UNL     1      56.537   3.914 -45.647  1.00  0.00     0.293 HD
ENDBRANCH  13  17
BRANCH  15  19
ATOM     19  O   UNL     1      56.175   6.525 -43.507  1.00  0.00    -0.502 OA
ATOM     20  H   UNL     1      57.145   6.769 -43.374  1.00  0.00     0.293 HD
ENDBRANCH  15  19
BRANCH  16  21
ATOM     21  O   UNL     1      54.142   8.597 -43.823  1.00  0.00    -0.504 OA
ATOM     22  H   UNL     1      53.436   8.408 -43.127  1.00  0.00     0.293 HD
ENDBRANCH  16  21
ENDBRANCH   1  11
BRANCH  10  23
ATOM     23  O   UNL     1      51.671   5.547 -47.847  1.00  0.00    -0.500 OA
ATOM     24  H   UNL     1      50.670   5.488 -47.703  1.00  0.00     0.294 HD
ENDBRANCH  10  23
BRANCH   5  25
ATOM     25  O   UNL     1      54.190  10.116 -53.592  1.00  0.00    -0.507 OA
ATOM     26  H   UNL     1      54.849  10.809 -53.256  1.00  0.00     0.293 HD
ENDBRANCH   5  25
BRANCH   7  27
ATOM     27  O   UNL     1      50.485   7.178 -52.676  1.00  0.00    -0.507 OA
ATOM     28  H   UNL     1      49.619   7.679 -52.807  1.00  0.00     0.293 HD
ENDBRANCH   7  27
TORSDOF 7
ENDMDL
