MODEL 1
REMARK VINA RESULT:    -9.002      0.000      0.000
REMARK INTER + INTRA:         -17.163
REMARK INTER:                 -14.791
REMARK INTRA:                  -2.373
REMARK UNBOUND:                -2.373
REMARK SMILES C[C@@H]1O[C@@H](OC[C@H]2O[C@H](Oc3c(-c4ccc(O)c(O)c4)oc4cc(O)cc(O)c4c3=O)[C@@H](O)[C@@H](O)[C@H]2O)[C@@H](O)[C@H](O)[C@@H]1O
REMARK SMILES IDX 7 1 36 2 34 3 32 4 9 5 8 6 6 7 5 8 4 9 1 10 2 11 42 12 3 13
REMARK SMILES IDX 40 14 38 15 43 16 41 18 39 20 37 22 35 24 10 26 11 27 12 28
REMARK SMILES IDX 30 29 21 30 29 31 31 32 22 33 27 34 23 35 26 36 24 37 13 38
REMARK SMILES IDX 20 39 14 40 18 41 15 42 16 43 19 44 17 46 28 48 25 50 33 52
REMARK H PARENT 43 17 41 19 39 21 37 23 35 25 19 45 17 47 28 49 25 51 33 53
REMARK Flexibility Score: inf
ROOT
ATOM      1  C   UNL     1     181.854 -20.927  30.590  1.00  0.00     0.180 C 
ATOM      2  C   UNL     1     182.891 -22.284  30.427  1.00  0.00     0.177 C 
ATOM      3  C   UNL     1     183.257 -23.057  29.093  1.00  0.00     0.180 C 
ATOM      4  C   UNL     1     182.355 -22.441  28.034  1.00  0.00     0.214 C 
ATOM      5  C   UNL     1     181.799 -20.982  28.066  1.00  0.00     0.339 C 
ATOM      6  O   UNL     1     181.658 -20.248  29.325  1.00  0.00    -0.332 OA
ENDROOT
BRANCH   1   7
ATOM      7  C   UNL     1     182.238 -20.468  31.995  1.00  0.00     0.198 C 
BRANCH   7   8
ATOM      8  O   UNL     1     182.625 -18.958  31.566  1.00  0.00    -0.347 OA
BRANCH   8   9
ATOM      9  C   UNL     1     183.677 -18.178  32.335  1.00  0.00     0.281 C 
ATOM     10  C   UNL     1     183.550 -14.560  33.157  1.00  0.00     0.041 C 
ATOM     11  C   UNL     1     183.907 -15.873  32.479  1.00  0.00     0.150 C 
ATOM     12  C   UNL     1     185.444 -15.919  32.068  1.00  0.00     0.174 C 
ATOM     13  O   UNL     1     183.537 -17.036  33.243  1.00  0.00    -0.344 OA
ATOM     14  C   UNL     1     185.565 -17.112  31.017  1.00  0.00     0.179 C 
ATOM     15  C   UNL     1     185.138 -18.372  31.808  1.00  0.00     0.202 C 
BRANCH  12  16
ATOM     16  O   UNL     1     186.352 -16.034  33.114  1.00  0.00    -0.388 OA
ATOM     17  H   UNL     1     186.285 -15.188  33.628  1.00  0.00     0.211 HD
ENDBRANCH  12  16
BRANCH  14  18
ATOM     18  O   UNL     1     186.940 -17.312  30.668  1.00  0.00    -0.387 OA
ATOM     19  H   UNL     1     187.351 -16.423  30.523  1.00  0.00     0.211 HD
ENDBRANCH  14  18
BRANCH  15  20
ATOM     20  O   UNL     1     185.409 -19.678  31.205  1.00  0.00    -0.385 OA
ATOM     21  H   UNL     1     185.001 -19.942  30.239  1.00  0.00     0.211 HD
ENDBRANCH  15  20
ENDBRANCH   8   9
ENDBRANCH   7   8
ENDBRANCH   1   7
BRANCH   2  22
ATOM     22  O   UNL     1     184.072 -22.077  31.192  1.00  0.00    -0.387 OA
ATOM     23  H   UNL     1     184.809 -21.687  30.608  1.00  0.00     0.211 HD
ENDBRANCH   2  22
BRANCH   3  24
ATOM     24  O   UNL     1     184.676 -23.083  29.055  1.00  0.00    -0.387 OA
ATOM     25  H   UNL     1     185.059 -22.155  29.099  1.00  0.00     0.211 HD
ENDBRANCH   3  24
BRANCH   5  26
ATOM     26  O   UNL     1     180.922 -20.566  27.024  1.00  0.00    -0.454 OA
BRANCH  26  27
ATOM     27  C   UNL     1     181.000 -19.472  26.053  1.00  0.00     0.214 A 
ATOM     28  C   UNL     1     182.111 -18.865  25.355  1.00  0.00     0.180 A 
ATOM     29  C   UNL     1     179.987 -19.721  25.144  1.00  0.00     0.239 A 
ATOM     30  O   UNL     1     182.541 -19.637  24.362  1.00  0.00    -0.452 OA
ATOM     31  C   UNL     1     180.417 -20.788  24.311  1.00  0.00     0.111 A 
ATOM     32  O   UNL     1     178.791 -19.408  25.411  1.00  0.00    -0.285 OA
ATOM     33  C   UNL     1     181.821 -20.711  23.992  1.00  0.00     0.146 A 
ATOM     34  C   UNL     1     179.788 -22.076  24.443  1.00  0.00     0.134 A 
ATOM     35  C   UNL     1     182.385 -21.781  23.329  1.00  0.00     0.094 A 
ATOM     36  C   UNL     1     180.368 -23.237  23.917  1.00  0.00     0.093 A 
ATOM     37  C   UNL     1     181.484 -22.875  23.036  1.00  0.00     0.123 A 
BRANCH  28  38
ATOM     38  C   UNL     1     182.532 -17.338  25.351  1.00  0.00     0.025 A 
ATOM     39  C   UNL     1     183.726 -16.877  24.682  1.00  0.00     0.062 A 
ATOM     40  C   UNL     1     181.653 -16.257  25.688  1.00  0.00     0.016 A 
ATOM     41  C   UNL     1     184.264 -15.606  24.856  1.00  0.00     0.158 A 
ATOM     42  C   UNL     1     182.224 -14.974  25.867  1.00  0.00     0.051 A 
ATOM     43  C   UNL     1     183.598 -14.770  25.713  1.00  0.00     0.157 A 
BRANCH  41  44
ATOM     44  O   UNL     1     185.362 -15.163  24.097  1.00  0.00    -0.504 OA
ATOM     45  H   UNL     1     185.421 -15.105  23.074  1.00  0.00     0.293 HD
ENDBRANCH  41  44
BRANCH  43  46
ATOM     46  O   UNL     1     184.246 -13.615  26.194  1.00  0.00    -0.504 OA
ATOM     47  H   UNL     1     185.274 -13.586  26.284  1.00  0.00     0.293 HD
ENDBRANCH  43  46
ENDBRANCH  28  38
BRANCH  34  48
ATOM     48  O   UNL     1     178.539 -22.308  24.984  1.00  0.00    -0.507 OA
ATOM     49  H   UNL     1     177.798 -22.681  24.435  1.00  0.00     0.293 HD
ENDBRANCH  34  48
BRANCH  37  50
ATOM     50  O   UNL     1     181.332 -23.233  21.660  1.00  0.00    -0.508 OA
ATOM     51  H   UNL     1     182.166 -23.255  21.062  1.00  0.00     0.293 HD
ENDBRANCH  37  50
ENDBRANCH  26  27
ENDBRANCH   5  26
BRANCH   4  52
ATOM     52  O   UNL     1     182.483 -22.958  26.672  1.00  0.00    -0.384 OA
ATOM     53  H   UNL     1     183.466 -22.818  26.462  1.00  0.00     0.211 HD
ENDBRANCH   4  52
TORSDOF 16
ENDMDL
MODEL 2
REMARK VINA RESULT:    -8.764      2.934      7.874
REMARK INTER + INTRA:         -16.772
REMARK INTER:                 -14.398
REMARK INTRA:                  -2.374
REMARK UNBOUND:                -2.373
REMARK SMILES C[C@@H]1O[C@@H](OC[C@H]2O[C@H](Oc3c(-c4ccc(O)c(O)c4)oc4cc(O)cc(O)c4c3=O)[C@@H](O)[C@@H](O)[C@H]2O)[C@@H](O)[C@H](O)[C@@H]1O
REMARK SMILES IDX 7 1 36 2 34 3 32 4 9 5 8 6 6 7 5 8 4 9 1 10 2 11 42 12 3 13
REMARK SMILES IDX 40 14 38 15 43 16 41 18 39 20 37 22 35 24 10 26 11 27 12 28
REMARK SMILES IDX 30 29 21 30 29 31 31 32 22 33 27 34 23 35 26 36 24 37 13 38
REMARK SMILES IDX 20 39 14 40 18 41 15 42 16 43 19 44 17 46 28 48 25 50 33 52
REMARK H PARENT 43 17 41 19 39 21 37 23 35 25 19 45 17 47 28 49 25 51 33 53
REMARK Flexibility Score: inf
ROOT
ATOM      1  C   UNL     1     184.091 -19.724  25.378  1.00  0.00     0.180 C 
ATOM      2  C   UNL     1     184.199 -20.885  26.637  1.00  0.00     0.177 C 
ATOM      3  C   UNL     1     183.948 -20.650  28.184  1.00  0.00     0.180 C 
ATOM      4  C   UNL     1     183.765 -19.146  28.318  1.00  0.00     0.214 C 
ATOM      5  C   UNL     1     183.221 -18.203  27.197  1.00  0.00     0.339 C 
ATOM      6  O   UNL     1     183.318 -18.567  25.782  1.00  0.00    -0.332 OA
ENDROOT
BRANCH   1   7
ATOM      7  C   UNL     1     184.065 -20.651  24.166  1.00  0.00     0.198 C 
BRANCH   7   8
ATOM      8  O   UNL     1     182.828 -19.911  23.432  1.00  0.00    -0.347 OA
BRANCH   8   9
ATOM      9  C   UNL     1     181.398 -20.356  23.683  1.00  0.00     0.281 C 
ATOM     10  C   UNL     1     179.730 -20.589  26.991  1.00  0.00     0.041 C 
ATOM     11  C   UNL     1     180.442 -20.976  25.706  1.00  0.00     0.150 C 
ATOM     12  C   UNL     1     179.880 -22.342  25.115  1.00  0.00     0.174 C 
ATOM     13  O   UNL     1     180.439 -19.937  24.709  1.00  0.00    -0.344 OA
ATOM     14  C   UNL     1     180.973 -22.829  24.061  1.00  0.00     0.179 C 
ATOM     15  C   UNL     1     181.012 -21.708  22.995  1.00  0.00     0.202 C 
BRANCH  12  16
ATOM     16  O   UNL     1     178.601 -22.291  24.573  1.00  0.00    -0.388 OA
ATOM     17  H   UNL     1     178.024 -21.887  25.272  1.00  0.00     0.211 HD
ENDBRANCH  12  16
BRANCH  14  18
ATOM     18  O   UNL     1     180.505 -24.002  23.385  1.00  0.00    -0.387 OA
ATOM     19  H   UNL     1     181.290 -24.562  23.166  1.00  0.00     0.211 HD
ENDBRANCH  14  18
BRANCH  15  20
ATOM     20  O   UNL     1     181.716 -21.986  21.742  1.00  0.00    -0.385 OA
ATOM     21  H   UNL     1     182.325 -22.872  21.627  1.00  0.00     0.211 HD
ENDBRANCH  15  20
ENDBRANCH   8   9
ENDBRANCH   7   8
ENDBRANCH   1   7
BRANCH   2  22
ATOM     22  O   UNL     1     183.557 -22.089  26.232  1.00  0.00    -0.387 OA
ATOM     23  H   UNL     1     184.248 -22.793  25.985  1.00  0.00     0.211 HD
ENDBRANCH   2  22
BRANCH   3  24
ATOM     24  O   UNL     1     182.995 -21.633  28.560  1.00  0.00    -0.387 OA
ATOM     25  H   UNL     1     183.089 -22.465  28.004  1.00  0.00     0.211 HD
ENDBRANCH   3  24
BRANCH   5  26
ATOM     26  O   UNL     1     183.156 -16.805  27.458  1.00  0.00    -0.454 OA
BRANCH  26  27
ATOM     27  C   UNL     1     182.085 -15.822  27.280  1.00  0.00     0.214 A 
ATOM     28  C   UNL     1     181.682 -14.668  28.053  1.00  0.00     0.180 A 
ATOM     29  C   UNL     1     182.139 -15.464  25.944  1.00  0.00     0.239 A 
ATOM     30  O   UNL     1     182.509 -13.645  27.866  1.00  0.00    -0.452 OA
ATOM     31  C   UNL     1     183.258 -14.605  25.780  1.00  0.00     0.111 A 
ATOM     32  O   UNL     1     181.619 -16.202  25.059  1.00  0.00    -0.285 OA
ATOM     33  C   UNL     1     183.433 -13.703  26.891  1.00  0.00     0.146 A 
ATOM     34  C   UNL     1     184.414 -15.089  25.070  1.00  0.00     0.134 A 
ATOM     35  C   UNL     1     184.581 -12.939  26.919  1.00  0.00     0.094 A 
ATOM     36  C   UNL     1     185.655 -14.449  25.157  1.00  0.00     0.093 A 
ATOM     37  C   UNL     1     185.492 -13.147  25.813  1.00  0.00     0.123 A 
BRANCH  28  38
ATOM     38  C   UNL     1     180.256 -14.372  28.676  1.00  0.00     0.025 A 
ATOM     39  C   UNL     1     179.083 -15.117  28.287  1.00  0.00     0.062 A 
ATOM     40  C   UNL     1     180.041 -13.616  29.876  1.00  0.00     0.016 A 
ATOM     41  C   UNL     1     177.785 -14.737  28.615  1.00  0.00     0.158 A 
ATOM     42  C   UNL     1     178.713 -13.235  30.185  1.00  0.00     0.051 A 
ATOM     43  C   UNL     1     177.649 -13.590  29.351  1.00  0.00     0.157 A 
BRANCH  41  44
ATOM     44  O   UNL     1     176.681 -15.555  28.313  1.00  0.00    -0.504 OA
ATOM     45  H   UNL     1     176.466 -15.992  27.409  1.00  0.00     0.293 HD
ENDBRANCH  41  44
BRANCH  43  46
ATOM     46  O   UNL     1     176.388 -12.969  29.434  1.00  0.00    -0.504 OA
ATOM     47  H   UNL     1     176.226 -12.044  29.005  1.00  0.00     0.293 HD
ENDBRANCH  43  46
ENDBRANCH  28  38
BRANCH  34  48
ATOM     48  O   UNL     1     184.421 -16.136  24.168  1.00  0.00    -0.507 OA
ATOM     49  H   UNL     1     184.889 -16.062  23.294  1.00  0.00     0.293 HD
ENDBRANCH  34  48
BRANCH  37  50
ATOM     50  O   UNL     1     185.805 -12.003  25.013  1.00  0.00    -0.508 OA
ATOM     51  H   UNL     1     186.729 -11.951  24.570  1.00  0.00     0.293 HD
ENDBRANCH  37  50
ENDBRANCH  26  27
ENDBRANCH   5  26
BRANCH   4  52
ATOM     52  O   UNL     1     183.500 -18.627  29.659  1.00  0.00    -0.384 OA
ATOM     53  H   UNL     1     184.339 -18.098  29.873  1.00  0.00     0.211 HD
ENDBRANCH   4  52
TORSDOF 16
ENDMDL
MODEL 3
REMARK VINA RESULT:    -8.629      2.622      6.836
REMARK INTER + INTRA:         -16.550
REMARK INTER:                 -13.936
REMARK INTRA:                  -2.614
REMARK UNBOUND:                -2.373
REMARK SMILES C[C@@H]1O[C@@H](OC[C@H]2O[C@H](Oc3c(-c4ccc(O)c(O)c4)oc4cc(O)cc(O)c4c3=O)[C@@H](O)[C@@H](O)[C@H]2O)[C@@H](O)[C@H](O)[C@@H]1O
REMARK SMILES IDX 7 1 36 2 34 3 32 4 9 5 8 6 6 7 5 8 4 9 1 10 2 11 42 12 3 13
REMARK SMILES IDX 40 14 38 15 43 16 41 18 39 20 37 22 35 24 10 26 11 27 12 28
REMARK SMILES IDX 30 29 21 30 29 31 31 32 22 33 27 34 23 35 26 36 24 37 13 38
REMARK SMILES IDX 20 39 14 40 18 41 15 42 16 43 19 44 17 46 28 48 25 50 33 52
REMARK H PARENT 43 17 41 19 39 21 37 23 35 25 19 45 17 47 28 49 25 51 33 53
REMARK Flexibility Score: inf
ROOT
ATOM      1  C   UNL     1     184.157 -19.750  25.645  1.00  0.00     0.180 C 
ATOM      2  C   UNL     1     184.533 -21.110  26.621  1.00  0.00     0.177 C 
ATOM      3  C   UNL     1     184.591 -21.169  28.203  1.00  0.00     0.180 C 
ATOM      4  C   UNL     1     184.414 -19.725  28.647  1.00  0.00     0.214 C 
ATOM      5  C   UNL     1     183.642 -18.627  27.848  1.00  0.00     0.339 C 
ATOM      6  O   UNL     1     183.461 -18.726  26.398  1.00  0.00    -0.332 OA
ENDROOT
BRANCH   1   7
ATOM      7  C   UNL     1     183.905 -20.444  24.309  1.00  0.00     0.198 C 
BRANCH   7   8
ATOM      8  O   UNL     1     182.578 -19.596  23.941  1.00  0.00    -0.347 OA
BRANCH   8   9
ATOM      9  C   UNL     1     181.196 -20.140  24.260  1.00  0.00     0.281 C 
ATOM     10  C   UNL     1     179.830 -20.785  27.651  1.00  0.00     0.041 C 
ATOM     11  C   UNL     1     180.446 -21.005  26.280  1.00  0.00     0.150 C 
ATOM     12  C   UNL     1     179.897 -22.335  25.599  1.00  0.00     0.174 C 
ATOM     13  O   UNL     1     180.311 -19.875  25.398  1.00  0.00    -0.344 OA
ATOM     14  C   UNL     1     180.917 -22.657  24.416  1.00  0.00     0.179 C 
ATOM     15  C   UNL     1     180.814 -21.436  23.471  1.00  0.00     0.202 C 
BRANCH  12  16
ATOM     16  O   UNL     1     178.576 -22.299  25.170  1.00  0.00    -0.388 OA
ATOM     17  H   UNL     1     178.501 -21.503  24.583  1.00  0.00     0.211 HD
ENDBRANCH  12  16
BRANCH  14  18
ATOM     18  O   UNL     1     180.445 -23.780  23.663  1.00  0.00    -0.387 OA
ATOM     19  H   UNL     1     181.197 -24.117  23.114  1.00  0.00     0.211 HD
ENDBRANCH  14  18
BRANCH  15  20
ATOM     20  O   UNL     1     181.419 -21.551  22.143  1.00  0.00    -0.385 OA
ATOM     21  H   UNL     1     181.929 -22.455  21.837  1.00  0.00     0.211 HD
ENDBRANCH  15  20
ENDBRANCH   8   9
ENDBRANCH   7   8
ENDBRANCH   1   7
BRANCH   2  22
ATOM     22  O   UNL     1     183.843 -22.254  26.130  1.00  0.00    -0.387 OA
ATOM     23  H   UNL     1     184.098 -22.433  25.162  1.00  0.00     0.211 HD
ENDBRANCH   2  22
BRANCH   3  24
ATOM     24  O   UNL     1     183.748 -22.253  28.566  1.00  0.00    -0.387 OA
ATOM     25  H   UNL     1     184.214 -23.134  28.446  1.00  0.00     0.211 HD
ENDBRANCH   3  24
BRANCH   5  26
ATOM     26  O   UNL     1     183.608 -17.304  28.371  1.00  0.00    -0.454 OA
BRANCH  26  27
ATOM     27  C   UNL     1     183.681 -15.991  27.726  1.00  0.00     0.214 A 
ATOM     28  C   UNL     1     183.701 -15.585  26.339  1.00  0.00     0.180 A 
ATOM     29  C   UNL     1     182.768 -15.202  28.405  1.00  0.00     0.239 A 
ATOM     30  O   UNL     1     182.494 -15.672  25.789  1.00  0.00    -0.452 OA
ATOM     31  C   UNL     1     181.471 -15.588  27.976  1.00  0.00     0.111 A 
ATOM     32  O   UNL     1     183.071 -14.681  29.517  1.00  0.00    -0.285 OA
ATOM     33  C   UNL     1     181.421 -15.895  26.568  1.00  0.00     0.146 A 
ATOM     34  C   UNL     1     180.615 -16.301  28.888  1.00  0.00     0.134 A 
ATOM     35  C   UNL     1     180.255 -16.441  26.074  1.00  0.00     0.094 A 
ATOM     36  C   UNL     1     179.486 -17.000  28.447  1.00  0.00     0.093 A 
ATOM     37  C   UNL     1     179.206 -16.652  27.049  1.00  0.00     0.123 A 
BRANCH  28  38
ATOM     38  C   UNL     1     184.795 -14.706  25.604  1.00  0.00     0.025 A 
ATOM     39  C   UNL     1     185.461 -15.160  24.406  1.00  0.00     0.062 A 
ATOM     40  C   UNL     1     184.987 -13.303  25.828  1.00  0.00     0.016 A 
ATOM     41  C   UNL     1     186.589 -14.544  23.872  1.00  0.00     0.158 A 
ATOM     42  C   UNL     1     186.145 -12.701  25.280  1.00  0.00     0.051 A 
ATOM     43  C   UNL     1     187.065 -13.449  24.541  1.00  0.00     0.157 A 
BRANCH  41  44
ATOM     44  O   UNL     1     187.134 -14.952  22.641  1.00  0.00    -0.504 OA
ATOM     45  H   UNL     1     187.372 -15.909  22.359  1.00  0.00     0.293 HD
ENDBRANCH  41  44
BRANCH  43  46
ATOM     46  O   UNL     1     188.366 -12.983  24.267  1.00  0.00    -0.504 OA
ATOM     47  H   UNL     1     188.530 -12.276  23.533  1.00  0.00     0.293 HD
ENDBRANCH  43  46
ENDBRANCH  28  38
BRANCH  34  48
ATOM     48  O   UNL     1     180.731 -16.299  30.265  1.00  0.00    -0.507 OA
ATOM     49  H   UNL     1     181.617 -16.227  30.709  1.00  0.00     0.293 HD
ENDBRANCH  34  48
BRANCH  37  50
ATOM     50  O   UNL     1     177.960 -15.991  26.809  1.00  0.00    -0.508 OA
ATOM     51  H   UNL     1     177.549 -15.429  27.563  1.00  0.00     0.293 HD
ENDBRANCH  37  50
ENDBRANCH  26  27
ENDBRANCH   5  26
BRANCH   4  52
ATOM     52  O   UNL     1     184.413 -19.469  30.087  1.00  0.00    -0.384 OA
ATOM     53  H   UNL     1     183.746 -18.713  30.188  1.00  0.00     0.211 HD
ENDBRANCH   4  52
TORSDOF 16
ENDMDL
MODEL 4
REMARK VINA RESULT:    -8.607      2.159      2.816
REMARK INTER + INTRA:         -16.514
REMARK INTER:                 -13.445
REMARK INTRA:                  -3.069
REMARK UNBOUND:                -2.373
REMARK SMILES C[C@@H]1O[C@@H](OC[C@H]2O[C@H](Oc3c(-c4ccc(O)c(O)c4)oc4cc(O)cc(O)c4c3=O)[C@@H](O)[C@@H](O)[C@H]2O)[C@@H](O)[C@H](O)[C@@H]1O
REMARK SMILES IDX 7 1 36 2 34 3 32 4 9 5 8 6 6 7 5 8 4 9 1 10 2 11 42 12 3 13
REMARK SMILES IDX 40 14 38 15 43 16 41 18 39 20 37 22 35 24 10 26 11 27 12 28
REMARK SMILES IDX 30 29 21 30 29 31 31 32 22 33 27 34 23 35 26 36 24 37 13 38
REMARK SMILES IDX 20 39 14 40 18 41 15 42 16 43 19 44 17 46 28 48 25 50 33 52
REMARK H PARENT 43 17 41 19 39 21 37 23 35 25 19 45 17 47 28 49 25 51 33 53
REMARK Flexibility Score: inf
ROOT
ATOM      1  C   UNL     1     182.518 -20.291  30.737  1.00  0.00     0.180 C 
ATOM      2  C   UNL     1     181.801 -21.723  31.355  1.00  0.00     0.177 C 
ATOM      3  C   UNL     1     181.089 -22.872  30.529  1.00  0.00     0.180 C 
ATOM      4  C   UNL     1     181.030 -22.341  29.105  1.00  0.00     0.214 C 
ATOM      5  C   UNL     1     182.040 -21.324  28.483  1.00  0.00     0.339 C 
ATOM      6  O   UNL     1     182.812 -20.407  29.323  1.00  0.00    -0.332 OA
ENDROOT
BRANCH   1   7
ATOM      7  C   UNL     1     183.321 -19.850  31.958  1.00  0.00     0.198 C 
BRANCH   7   8
ATOM      8  O   UNL     1     184.319 -18.872  31.143  1.00  0.00    -0.347 OA
BRANCH   8   9
ATOM      9  C   UNL     1     184.087 -17.371  31.118  1.00  0.00     0.281 C 
ATOM     10  C   UNL     1     180.867 -15.667  30.404  1.00  0.00     0.041 C 
ATOM     11  C   UNL     1     182.267 -16.233  30.234  1.00  0.00     0.150 C 
ATOM     12  C   UNL     1     183.189 -15.262  29.373  1.00  0.00     0.174 C 
ATOM     13  O   UNL     1     182.901 -16.587  31.477  1.00  0.00    -0.344 OA
ATOM     14  C   UNL     1     184.433 -16.151  28.921  1.00  0.00     0.179 C 
ATOM     15  C   UNL     1     185.113 -16.573  30.246  1.00  0.00     0.202 C 
BRANCH  12  16
ATOM     16  O   UNL     1     183.576 -14.080  29.994  1.00  0.00    -0.388 OA
ATOM     17  H   UNL     1     183.754 -13.434  29.263  1.00  0.00     0.211 HD
ENDBRANCH  12  16
BRANCH  14  18
ATOM     18  O   UNL     1     185.387 -15.335  28.231  1.00  0.00    -0.387 OA
ATOM     19  H   UNL     1     185.310 -15.528  27.263  1.00  0.00     0.211 HD
ENDBRANCH  14  18
BRANCH  15  20
ATOM     20  O   UNL     1     186.448 -17.167  30.166  1.00  0.00    -0.385 OA
ATOM     21  H   UNL     1     186.761 -17.725  29.294  1.00  0.00     0.211 HD
ENDBRANCH  15  20
ENDBRANCH   8   9
ENDBRANCH   7   8
ENDBRANCH   1   7
BRANCH   2  22
ATOM     22  O   UNL     1     182.660 -22.303  32.330  1.00  0.00    -0.387 OA
ATOM     23  H   UNL     1     182.831 -21.646  33.087  1.00  0.00     0.211 HD
ENDBRANCH   2  22
BRANCH   3  24
ATOM     24  O   UNL     1     181.729 -24.073  30.936  1.00  0.00    -0.387 OA
ATOM     25  H   UNL     1     182.311 -24.442  30.205  1.00  0.00     0.211 HD
ENDBRANCH   3  24
BRANCH   5  26
ATOM     26  O   UNL     1     181.821 -20.881  27.148  1.00  0.00    -0.454 OA
BRANCH  26  27
ATOM     27  C   UNL     1     180.940 -19.854  26.586  1.00  0.00     0.214 A 
ATOM     28  C   UNL     1     181.206 -18.624  25.874  1.00  0.00     0.180 A 
ATOM     29  C   UNL     1     179.953 -20.552  25.913  1.00  0.00     0.239 A 
ATOM     30  O   UNL     1     181.562 -18.858  24.616  1.00  0.00    -0.452 OA
ATOM     31  C   UNL     1     180.524 -21.038  24.707  1.00  0.00     0.111 A 
ATOM     32  O   UNL     1     178.978 -21.055  26.542  1.00  0.00    -0.285 OA
ATOM     33  C   UNL     1     181.435 -20.096  24.106  1.00  0.00     0.146 A 
ATOM     34  C   UNL     1     180.768 -22.450  24.567  1.00  0.00     0.134 A 
ATOM     35  C   UNL     1     182.174 -20.524  23.023  1.00  0.00     0.094 A 
ATOM     36  C   UNL     1     181.618 -22.957  23.578  1.00  0.00     0.093 A 
ATOM     37  C   UNL     1     181.947 -21.896  22.620  1.00  0.00     0.123 A 
BRANCH  28  38
ATOM     38  C   UNL     1     180.727 -17.163  26.256  1.00  0.00     0.025 A 
ATOM     39  C   UNL     1     179.480 -16.923  26.942  1.00  0.00     0.062 A 
ATOM     40  C   UNL     1     181.584 -16.013  26.277  1.00  0.00     0.016 A 
ATOM     41  C   UNL     1     178.906 -15.662  27.077  1.00  0.00     0.158 A 
ATOM     42  C   UNL     1     180.976 -14.741  26.408  1.00  0.00     0.051 A 
ATOM     43  C   UNL     1     179.589 -14.614  26.520  1.00  0.00     0.157 A 
BRANCH  41  44
ATOM     44  O   UNL     1     177.749 -15.461  27.852  1.00  0.00    -0.504 OA
ATOM     45  H   UNL     1     177.677 -15.504  28.875  1.00  0.00     0.293 HD
ENDBRANCH  41  44
BRANCH  43  46
ATOM     46  O   UNL     1     178.927 -13.387  26.321  1.00  0.00    -0.504 OA
ATOM     47  H   UNL     1     179.458 -12.504  26.262  1.00  0.00     0.293 HD
ENDBRANCH  43  46
ENDBRANCH  28  38
BRANCH  34  48
ATOM     48  O   UNL     1     180.140 -23.448  25.288  1.00  0.00    -0.507 OA
ATOM     49  H   UNL     1     180.563 -23.846  26.095  1.00  0.00     0.293 HD
ENDBRANCH  34  48
BRANCH  37  50
ATOM     50  O   UNL     1     181.497 -22.108  21.279  1.00  0.00    -0.508 OA
ATOM     51  H   UNL     1     180.732 -21.526  20.920  1.00  0.00     0.293 HD
ENDBRANCH  37  50
ENDBRANCH  26  27
ENDBRANCH   5  26
BRANCH   4  52
ATOM     52  O   UNL     1     180.424 -23.211  28.098  1.00  0.00    -0.384 OA
ATOM     53  H   UNL     1     179.958 -23.920  28.653  1.00  0.00     0.211 HD
ENDBRANCH   4  52
TORSDOF 16
ENDMDL
MODEL 5
REMARK VINA RESULT:    -8.571      2.202      3.261
REMARK INTER + INTRA:         -16.456
REMARK INTER:                 -14.045
REMARK INTRA:                  -2.410
REMARK UNBOUND:                -2.373
REMARK SMILES C[C@@H]1O[C@@H](OC[C@H]2O[C@H](Oc3c(-c4ccc(O)c(O)c4)oc4cc(O)cc(O)c4c3=O)[C@@H](O)[C@@H](O)[C@H]2O)[C@@H](O)[C@H](O)[C@@H]1O
REMARK SMILES IDX 7 1 36 2 34 3 32 4 9 5 8 6 6 7 5 8 4 9 1 10 2 11 42 12 3 13
REMARK SMILES IDX 40 14 38 15 43 16 41 18 39 20 37 22 35 24 10 26 11 27 12 28
REMARK SMILES IDX 30 29 21 30 29 31 31 32 22 33 27 34 23 35 26 36 24 37 13 38
REMARK SMILES IDX 20 39 14 40 18 41 15 42 16 43 19 44 17 46 28 48 25 50 33 52
REMARK H PARENT 43 17 41 19 39 21 37 23 35 25 19 45 17 47 28 49 25 51 33 53
REMARK Flexibility Score: inf
ROOT
ATOM      1  C   UNL     1     183.758 -19.306  30.582  1.00  0.00     0.180 C 
ATOM      2  C   UNL     1     183.485 -20.792  31.395  1.00  0.00     0.177 C 
ATOM      3  C   UNL     1     182.881 -22.123  30.783  1.00  0.00     0.180 C 
ATOM      4  C   UNL     1     182.440 -21.735  29.381  1.00  0.00     0.214 C 
ATOM      5  C   UNL     1     183.079 -20.597  28.521  1.00  0.00     0.339 C 
ATOM      6  O   UNL     1     183.791 -19.480  29.144  1.00  0.00    -0.332 OA
ENDROOT
BRANCH   1   7
ATOM      7  C   UNL     1     184.672 -18.616  31.592  1.00  0.00     0.198 C 
BRANCH   7   8
ATOM      8  O   UNL     1     183.483 -17.858  32.385  1.00  0.00    -0.347 OA
BRANCH   8   9
ATOM      9  C   UNL     1     182.882 -16.575  31.839  1.00  0.00     0.281 C 
ATOM     10  C   UNL     1     184.155 -14.615  28.955  1.00  0.00     0.041 C 
ATOM     11  C   UNL     1     183.861 -15.060  30.378  1.00  0.00     0.150 C 
ATOM     12  C   UNL     1     183.548 -13.820  31.325  1.00  0.00     0.174 C 
ATOM     13  O   UNL     1     182.828 -16.058  30.468  1.00  0.00    -0.344 OA
ATOM     14  C   UNL     1     183.692 -14.376  32.813  1.00  0.00     0.179 C 
ATOM     15  C   UNL     1     182.610 -15.477  32.922  1.00  0.00     0.202 C 
BRANCH  12  16
ATOM     16  O   UNL     1     182.333 -13.180  31.110  1.00  0.00    -0.388 OA
ATOM     17  H   UNL     1     182.155 -13.253  30.136  1.00  0.00     0.211 HD
ENDBRANCH  12  16
BRANCH  14  18
ATOM     18  O   UNL     1     183.316 -13.359  33.748  1.00  0.00    -0.387 OA
ATOM     19  H   UNL     1     184.011 -13.320  34.452  1.00  0.00     0.211 HD
ENDBRANCH  14  18
BRANCH  15  20
ATOM     20  O   UNL     1     182.296 -15.991  34.256  1.00  0.00    -0.385 OA
ATOM     21  H   UNL     1     182.654 -16.959  34.581  1.00  0.00     0.211 HD
ENDBRANCH  15  20
ENDBRANCH   8   9
ENDBRANCH   7   8
ENDBRANCH   1   7
BRANCH   2  22
ATOM     22  O   UNL     1     184.616 -21.111  32.196  1.00  0.00    -0.387 OA
ATOM     23  H   UNL     1     184.434 -21.945  32.751  1.00  0.00     0.211 HD
ENDBRANCH   2  22
BRANCH   3  24
ATOM     24  O   UNL     1     183.821 -23.139  31.101  1.00  0.00    -0.387 OA
ATOM     25  H   UNL     1     184.373 -22.888  31.902  1.00  0.00     0.211 HD
ENDBRANCH   3  24
BRANCH   5  26
ATOM     26  O   UNL     1     182.520 -20.318  27.241  1.00  0.00    -0.454 OA
BRANCH  26  27
ATOM     27  C   UNL     1     181.401 -19.471  26.823  1.00  0.00     0.214 A 
ATOM     28  C   UNL     1     181.336 -18.255  26.044  1.00  0.00     0.180 A 
ATOM     29  C   UNL     1     180.437 -20.349  26.356  1.00  0.00     0.239 A 
ATOM     30  O   UNL     1     181.500 -18.498  24.748  1.00  0.00    -0.452 OA
ATOM     31  C   UNL     1     180.860 -20.804  25.079  1.00  0.00     0.111 A 
ATOM     32  O   UNL     1     179.681 -20.962  27.163  1.00  0.00    -0.285 OA
ATOM     33  C   UNL     1     181.488 -19.766  24.300  1.00  0.00     0.146 A 
ATOM     34  C   UNL     1     181.302 -22.167  24.933  1.00  0.00     0.134 A 
ATOM     35  C   UNL     1     182.087 -20.132  23.113  1.00  0.00     0.094 A 
ATOM     36  C   UNL     1     182.038 -22.588  23.820  1.00  0.00     0.093 A 
ATOM     37  C   UNL     1     182.019 -21.542  22.792  1.00  0.00     0.123 A 
BRANCH  28  38
ATOM     38  C   UNL     1     180.701 -16.867  26.469  1.00  0.00     0.025 A 
ATOM     39  C   UNL     1     179.390 -16.779  27.068  1.00  0.00     0.062 A 
ATOM     40  C   UNL     1     181.446 -15.652  26.622  1.00  0.00     0.016 A 
ATOM     41  C   UNL     1     178.696 -15.583  27.229  1.00  0.00     0.158 A 
ATOM     42  C   UNL     1     180.718 -14.448  26.777  1.00  0.00     0.051 A 
ATOM     43  C   UNL     1     179.320 -14.447  26.787  1.00  0.00     0.157 A 
BRANCH  41  44
ATOM     44  O   UNL     1     177.473 -15.532  27.921  1.00  0.00    -0.504 OA
ATOM     45  H   UNL     1     176.551 -15.809  27.566  1.00  0.00     0.293 HD
ENDBRANCH  41  44
BRANCH  43  46
ATOM     46  O   UNL     1     178.567 -13.271  26.607  1.00  0.00    -0.504 OA
ATOM     47  H   UNL     1     178.117 -13.066  25.701  1.00  0.00     0.293 HD
ENDBRANCH  43  46
ENDBRANCH  28  38
BRANCH  34  48
ATOM     48  O   UNL     1     180.980 -23.210  25.779  1.00  0.00    -0.507 OA
ATOM     49  H   UNL     1     181.639 -23.921  25.998  1.00  0.00     0.293 HD
ENDBRANCH  34  48
BRANCH  37  50
ATOM     50  O   UNL     1     181.383 -21.891  21.559  1.00  0.00    -0.508 OA
ATOM     51  H   UNL     1     181.755 -22.683  21.021  1.00  0.00     0.293 HD
ENDBRANCH  37  50
ENDBRANCH  26  27
ENDBRANCH   5  26
BRANCH   4  52
ATOM     52  O   UNL     1     181.844 -22.787  28.557  1.00  0.00    -0.384 OA
ATOM     53  H   UNL     1     182.415 -22.777  27.719  1.00  0.00     0.211 HD
ENDBRANCH   4  52
TORSDOF 16
ENDMDL
MODEL 6
REMARK VINA RESULT:    -8.549      1.906      5.706
REMARK INTER + INTRA:         -16.420
REMARK INTER:                 -13.572
REMARK INTRA:                  -2.848
REMARK UNBOUND:                -2.373
REMARK SMILES C[C@@H]1O[C@@H](OC[C@H]2O[C@H](Oc3c(-c4ccc(O)c(O)c4)oc4cc(O)cc(O)c4c3=O)[C@@H](O)[C@@H](O)[C@H]2O)[C@@H](O)[C@H](O)[C@@H]1O
REMARK SMILES IDX 7 1 36 2 34 3 32 4 9 5 8 6 6 7 5 8 4 9 1 10 2 11 42 12 3 13
REMARK SMILES IDX 40 14 38 15 43 16 41 18 39 20 37 22 35 24 10 26 11 27 12 28
REMARK SMILES IDX 30 29 21 30 29 31 31 32 22 33 27 34 23 35 26 36 24 37 13 38
REMARK SMILES IDX 20 39 14 40 18 41 15 42 16 43 19 44 17 46 28 48 25 50 33 52
REMARK H PARENT 43 17 41 19 39 21 37 23 35 25 19 45 17 47 28 49 25 51 33 53
REMARK Flexibility Score: inf
ROOT
ATOM      1  C   UNL     1     182.365 -15.929  27.003  1.00  0.00     0.180 C 
ATOM      2  C   UNL     1     180.943 -15.066  26.583  1.00  0.00     0.177 C 
ATOM      3  C   UNL     1     179.530 -15.673  26.200  1.00  0.00     0.180 C 
ATOM      4  C   UNL     1     179.767 -17.173  26.118  1.00  0.00     0.214 C 
ATOM      5  C   UNL     1     180.860 -17.955  26.915  1.00  0.00     0.339 C 
ATOM      6  O   UNL     1     182.067 -17.289  27.407  1.00  0.00    -0.332 OA
ENDROOT
BRANCH   1   7
ATOM      7  C   UNL     1     183.193 -14.798  27.606  1.00  0.00     0.198 C 
BRANCH   7   8
ATOM      8  O   UNL     1     184.247 -15.763  28.364  1.00  0.00    -0.347 OA
BRANCH   8   9
ATOM      9  C   UNL     1     183.904 -16.384  29.707  1.00  0.00     0.281 C 
ATOM     10  C   UNL     1     184.281 -14.765  33.026  1.00  0.00     0.041 C 
ATOM     11  C   UNL     1     184.539 -15.644  31.814  1.00  0.00     0.150 C 
ATOM     12  C   UNL     1     185.097 -17.073  32.236  1.00  0.00     0.174 C 
ATOM     13  O   UNL     1     183.402 -15.767  30.938  1.00  0.00    -0.344 OA
ATOM     14  C   UNL     1     185.714 -17.697  30.905  1.00  0.00     0.179 C 
ATOM     15  C   UNL     1     184.514 -17.808  29.934  1.00  0.00     0.202 C 
BRANCH  12  16
ATOM     16  O   UNL     1     184.189 -17.924  32.854  1.00  0.00    -0.388 OA
ATOM     17  H   UNL     1     184.717 -18.699  33.178  1.00  0.00     0.211 HD
ENDBRANCH  12  16
BRANCH  14  18
ATOM     18  O   UNL     1     186.145 -19.040  31.154  1.00  0.00    -0.387 OA
ATOM     19  H   UNL     1     187.031 -19.000  31.594  1.00  0.00     0.211 HD
ENDBRANCH  14  18
BRANCH  15  20
ATOM     20  O   UNL     1     184.693 -18.604  28.719  1.00  0.00    -0.385 OA
ATOM     21  H   UNL     1     185.568 -18.482  28.095  1.00  0.00     0.211 HD
ENDBRANCH  15  20
ENDBRANCH   8   9
ENDBRANCH   7   8
ENDBRANCH   1   7
BRANCH   2  22
ATOM     22  O   UNL     1     180.762 -13.980  27.484  1.00  0.00    -0.387 OA
ATOM     23  H   UNL     1     180.114 -14.237  28.225  1.00  0.00     0.211 HD
ENDBRANCH   2  22
BRANCH   3  24
ATOM     24  O   UNL     1     178.603 -15.031  27.062  1.00  0.00    -0.387 OA
ATOM     25  H   UNL     1     178.058 -15.700  27.576  1.00  0.00     0.211 HD
ENDBRANCH   3  24
BRANCH   5  26
ATOM     26  O   UNL     1     180.992 -19.355  26.691  1.00  0.00    -0.454 OA
BRANCH  26  27
ATOM     27  C   UNL     1     182.012 -20.323  27.100  1.00  0.00     0.214 A 
ATOM     28  C   UNL     1     181.927 -21.673  27.610  1.00  0.00     0.180 A 
ATOM     29  C   UNL     1     182.970 -20.285  26.102  1.00  0.00     0.239 A 
ATOM     30  O   UNL     1     181.643 -22.540  26.644  1.00  0.00    -0.452 OA
ATOM     31  C   UNL     1     182.442 -20.981  24.981  1.00  0.00     0.111 A 
ATOM     32  O   UNL     1     183.839 -19.367  26.078  1.00  0.00    -0.285 OA
ATOM     33  C   UNL     1     181.679 -22.144  25.360  1.00  0.00     0.146 A 
ATOM     34  C   UNL     1     182.065 -20.235  23.809  1.00  0.00     0.134 A 
ATOM     35  C   UNL     1     180.981 -22.801  24.368  1.00  0.00     0.094 A 
ATOM     36  C   UNL     1     181.241 -20.783  22.819  1.00  0.00     0.093 A 
ATOM     37  C   UNL     1     181.094 -22.225  23.044  1.00  0.00     0.123 A 
BRANCH  28  38
ATOM     38  C   UNL     1     182.524 -22.234  28.966  1.00  0.00     0.025 A 
ATOM     39  C   UNL     1     183.094 -21.365  29.967  1.00  0.00     0.062 A 
ATOM     40  C   UNL     1     182.268 -23.549  29.477  1.00  0.00     0.016 A 
ATOM     41  C   UNL     1     183.844 -21.821  31.047  1.00  0.00     0.158 A 
ATOM     42  C   UNL     1     183.048 -23.994  30.572  1.00  0.00     0.051 A 
ATOM     43  C   UNL     1     184.029 -23.175  31.137  1.00  0.00     0.157 A 
BRANCH  41  44
ATOM     44  O   UNL     1     184.282 -20.948  32.059  1.00  0.00    -0.504 OA
ATOM     45  H   UNL     1     183.872 -20.832  32.993  1.00  0.00     0.293 HD
ENDBRANCH  41  44
BRANCH  43  46
ATOM     46  O   UNL     1     185.033 -23.680  31.986  1.00  0.00    -0.504 OA
ATOM     47  H   UNL     1     185.973 -23.254  32.004  1.00  0.00     0.293 HD
ENDBRANCH  43  46
ENDBRANCH  28  38
BRANCH  34  48
ATOM     48  O   UNL     1     182.532 -18.979  23.472  1.00  0.00    -0.507 OA
ATOM     49  H   UNL     1     181.913 -18.208  23.369  1.00  0.00     0.293 HD
ENDBRANCH  34  48
BRANCH  37  50
ATOM     50  O   UNL     1     181.617 -23.072  22.016  1.00  0.00    -0.508 OA
ATOM     51  H   UNL     1     182.587 -23.400  22.095  1.00  0.00     0.293 HD
ENDBRANCH  37  50
ENDBRANCH  26  27
ENDBRANCH   5  26
BRANCH   4  52
ATOM     52  O   UNL     1     178.614 -18.010  25.786  1.00  0.00    -0.384 OA
ATOM     53  H   UNL     1     178.507 -17.873  24.787  1.00  0.00     0.211 HD
ENDBRANCH   4  52
TORSDOF 16
ENDMDL
MODEL 7
REMARK VINA RESULT:    -8.544      2.437      3.194
REMARK INTER + INTRA:         -16.411
REMARK INTER:                 -13.663
REMARK INTRA:                  -2.748
REMARK UNBOUND:                -2.373
REMARK SMILES C[C@@H]1O[C@@H](OC[C@H]2O[C@H](Oc3c(-c4ccc(O)c(O)c4)oc4cc(O)cc(O)c4c3=O)[C@@H](O)[C@@H](O)[C@H]2O)[C@@H](O)[C@H](O)[C@@H]1O
REMARK SMILES IDX 7 1 36 2 34 3 32 4 9 5 8 6 6 7 5 8 4 9 1 10 2 11 42 12 3 13
REMARK SMILES IDX 40 14 38 15 43 16 41 18 39 20 37 22 35 24 10 26 11 27 12 28
REMARK SMILES IDX 30 29 21 30 29 31 31 32 22 33 27 34 23 35 26 36 24 37 13 38
REMARK SMILES IDX 20 39 14 40 18 41 15 42 16 43 19 44 17 46 28 48 25 50 33 52
REMARK H PARENT 43 17 41 19 39 21 37 23 35 25 19 45 17 47 28 49 25 51 33 53
REMARK Flexibility Score: inf
ROOT
ATOM      1  C   UNL     1     180.383 -18.598  30.141  1.00  0.00     0.180 C 
ATOM      2  C   UNL     1     179.341 -19.779  30.822  1.00  0.00     0.177 C 
ATOM      3  C   UNL     1     178.926 -21.171  30.191  1.00  0.00     0.180 C 
ATOM      4  C   UNL     1     179.512 -21.146  28.788  1.00  0.00     0.214 C 
ATOM      5  C   UNL     1     180.781 -20.343  28.358  1.00  0.00     0.339 C 
ATOM      6  O   UNL     1     181.222 -19.161  29.102  1.00  0.00    -0.332 OA
ENDROOT
BRANCH   1   7
ATOM      7  C   UNL     1     180.649 -17.737  31.373  1.00  0.00     0.198 C 
BRANCH   7   8
ATOM      8  O   UNL     1     180.295 -16.330  30.658  1.00  0.00    -0.347 OA
BRANCH   8   9
ATOM      9  C   UNL     1     181.324 -15.614  29.801  1.00  0.00     0.281 C 
ATOM     10  C   UNL     1     184.936 -16.439  29.573  1.00  0.00     0.041 C 
ATOM     11  C   UNL     1     183.636 -15.750  29.954  1.00  0.00     0.150 C 
ATOM     12  C   UNL     1     183.807 -14.168  30.005  1.00  0.00     0.174 C 
ATOM     13  O   UNL     1     182.520 -16.126  29.126  1.00  0.00    -0.344 OA
ATOM     14  C   UNL     1     182.542 -13.632  30.814  1.00  0.00     0.179 C 
ATOM     15  C   UNL     1     181.324 -14.057  29.958  1.00  0.00     0.202 C 
BRANCH  12  16
ATOM     16  O   UNL     1     183.966 -13.532  28.779  1.00  0.00    -0.388 OA
ATOM     17  H   UNL     1     184.154 -12.581  28.988  1.00  0.00     0.211 HD
ENDBRANCH  12  16
BRANCH  14  18
ATOM     18  O   UNL     1     182.541 -12.200  30.818  1.00  0.00    -0.387 OA
ATOM     19  H   UNL     1     181.687 -11.896  31.217  1.00  0.00     0.211 HD
ENDBRANCH  14  18
BRANCH  15  20
ATOM     20  O   UNL     1     180.024 -13.469  30.286  1.00  0.00    -0.385 OA
ATOM     21  H   UNL     1     179.122 -13.790  29.781  1.00  0.00     0.211 HD
ENDBRANCH  15  20
ENDBRANCH   8   9
ENDBRANCH   7   8
ENDBRANCH   1   7
BRANCH   2  22
ATOM     22  O   UNL     1     179.659 -19.959  32.197  1.00  0.00    -0.387 OA
ATOM     23  H   UNL     1     179.291 -19.189  32.750  1.00  0.00     0.211 HD
ENDBRANCH   2  22
BRANCH   3  24
ATOM     24  O   UNL     1     179.221 -22.136  31.190  1.00  0.00    -0.387 OA
ATOM     25  H   UNL     1     178.742 -21.930  32.049  1.00  0.00     0.211 HD
ENDBRANCH   3  24
BRANCH   5  26
ATOM     26  O   UNL     1     181.177 -20.379  26.991  1.00  0.00    -0.454 OA
BRANCH  26  27
ATOM     27  C   UNL     1     181.311 -19.327  25.980  1.00  0.00     0.214 A 
ATOM     28  C   UNL     1     182.448 -18.818  25.247  1.00  0.00     0.180 A 
ATOM     29  C   UNL     1     180.271 -19.543  25.093  1.00  0.00     0.239 A 
ATOM     30  O   UNL     1     182.814 -19.651  24.278  1.00  0.00    -0.452 OA
ATOM     31  C   UNL     1     180.621 -20.664  24.294  1.00  0.00     0.111 A 
ATOM     32  O   UNL     1     179.101 -19.145  25.363  1.00  0.00    -0.285 OA
ATOM     33  C   UNL     1     182.022 -20.689  23.957  1.00  0.00     0.146 A 
ATOM     34  C   UNL     1     179.913 -21.904  24.481  1.00  0.00     0.134 A 
ATOM     35  C   UNL     1     182.508 -21.816  23.326  1.00  0.00     0.094 A 
ATOM     36  C   UNL     1     180.411 -23.118  23.992  1.00  0.00     0.093 A 
ATOM     37  C   UNL     1     181.534 -22.860  23.085  1.00  0.00     0.123 A 
BRANCH  28  38
ATOM     38  C   UNL     1     182.966 -17.322  25.181  1.00  0.00     0.025 A 
ATOM     39  C   UNL     1     184.087 -16.937  24.358  1.00  0.00     0.062 A 
ATOM     40  C   UNL     1     182.213 -16.187  25.631  1.00  0.00     0.016 A 
ATOM     41  C   UNL     1     184.726 -15.705  24.454  1.00  0.00     0.158 A 
ATOM     42  C   UNL     1     182.887 -14.946  25.727  1.00  0.00     0.051 A 
ATOM     43  C   UNL     1     184.238 -14.832  25.389  1.00  0.00     0.157 A 
BRANCH  41  44
ATOM     44  O   UNL     1     185.740 -15.331  23.553  1.00  0.00    -0.504 OA
ATOM     45  H   UNL     1     185.681 -15.322  22.528  1.00  0.00     0.293 HD
ENDBRANCH  41  44
BRANCH  43  46
ATOM     46  O   UNL     1     185.020 -13.726  25.775  1.00  0.00    -0.504 OA
ATOM     47  H   UNL     1     184.700 -13.086  26.519  1.00  0.00     0.293 HD
ENDBRANCH  43  46
ENDBRANCH  28  38
BRANCH  34  48
ATOM     48  O   UNL     1     178.659 -22.036  25.046  1.00  0.00    -0.507 OA
ATOM     49  H   UNL     1     177.853 -21.649  24.611  1.00  0.00     0.293 HD
ENDBRANCH  34  48
BRANCH  37  50
ATOM     50  O   UNL     1     181.340 -23.257  21.724  1.00  0.00    -0.508 OA
ATOM     51  H   UNL     1     181.441 -24.250  21.483  1.00  0.00     0.293 HD
ENDBRANCH  37  50
ENDBRANCH  26  27
ENDBRANCH   5  26
BRANCH   4  52
ATOM     52  O   UNL     1     179.294 -22.329  27.956  1.00  0.00    -0.384 OA
ATOM     53  H   UNL     1     178.428 -22.118  27.473  1.00  0.00     0.211 HD
ENDBRANCH   4  52
TORSDOF 16
ENDMDL
MODEL 8
REMARK VINA RESULT:    -8.525      3.090      4.538
REMARK INTER + INTRA:         -16.380
REMARK INTER:                 -13.912
REMARK INTRA:                  -2.468
REMARK UNBOUND:                -2.373
REMARK SMILES C[C@@H]1O[C@@H](OC[C@H]2O[C@H](Oc3c(-c4ccc(O)c(O)c4)oc4cc(O)cc(O)c4c3=O)[C@@H](O)[C@@H](O)[C@H]2O)[C@@H](O)[C@H](O)[C@@H]1O
REMARK SMILES IDX 7 1 36 2 34 3 32 4 9 5 8 6 6 7 5 8 4 9 1 10 2 11 42 12 3 13
REMARK SMILES IDX 40 14 38 15 43 16 41 18 39 20 37 22 35 24 10 26 11 27 12 28
REMARK SMILES IDX 30 29 21 30 29 31 31 32 22 33 27 34 23 35 26 36 24 37 13 38
REMARK SMILES IDX 20 39 14 40 18 41 15 42 16 43 19 44 17 46 28 48 25 50 33 52
REMARK H PARENT 43 17 41 19 39 21 37 23 35 25 19 45 17 47 28 49 25 51 33 53
REMARK Flexibility Score: inf
ROOT
ATOM      1  C   UNL     1     180.384 -18.627  30.123  1.00  0.00     0.180 C 
ATOM      2  C   UNL     1     179.280 -19.799  30.715  1.00  0.00     0.177 C 
ATOM      3  C   UNL     1     178.871 -21.166  30.026  1.00  0.00     0.180 C 
ATOM      4  C   UNL     1     179.535 -21.120  28.659  1.00  0.00     0.214 C 
ATOM      5  C   UNL     1     180.844 -20.336  28.322  1.00  0.00     0.339 C 
ATOM      6  O   UNL     1     181.268 -19.183  29.119  1.00  0.00    -0.332 OA
ENDROOT
BRANCH   1   7
ATOM      7  C   UNL     1     180.599 -17.802  31.390  1.00  0.00     0.198 C 
BRANCH   7   8
ATOM      8  O   UNL     1     180.338 -16.369  30.688  1.00  0.00    -0.347 OA
BRANCH   8   9
ATOM      9  C   UNL     1     179.098 -16.132  29.843  1.00  0.00     0.281 C 
ATOM     10  C   UNL     1     178.982 -14.384  26.570  1.00  0.00     0.041 C 
ATOM     11  C   UNL     1     178.859 -14.667  28.058  1.00  0.00     0.150 C 
ATOM     12  C   UNL     1     177.548 -14.005  28.672  1.00  0.00     0.174 C 
ATOM     13  O   UNL     1     178.939 -16.067  28.388  1.00  0.00    -0.344 OA
ATOM     14  C   UNL     1     177.772 -14.007  30.250  1.00  0.00     0.179 C 
ATOM     15  C   UNL     1     177.895 -15.504  30.624  1.00  0.00     0.202 C 
BRANCH  12  16
ATOM     16  O   UNL     1     176.341 -14.588  28.303  1.00  0.00    -0.388 OA
ATOM     17  H   UNL     1     176.228 -15.378  28.893  1.00  0.00     0.211 HD
ENDBRANCH  12  16
BRANCH  14  18
ATOM     18  O   UNL     1     176.591 -13.532  30.908  1.00  0.00    -0.387 OA
ATOM     19  H   UNL     1     176.717 -12.570  31.103  1.00  0.00     0.211 HD
ENDBRANCH  14  18
BRANCH  15  20
ATOM     20  O   UNL     1     177.828 -15.859  32.042  1.00  0.00    -0.385 OA
ATOM     21  H   UNL     1     178.335 -15.266  32.792  1.00  0.00     0.211 HD
ENDBRANCH  15  20
ENDBRANCH   8   9
ENDBRANCH   7   8
ENDBRANCH   1   7
BRANCH   2  22
ATOM     22  O   UNL     1     179.517 -20.020  32.100  1.00  0.00    -0.387 OA
ATOM     23  H   UNL     1     179.245 -20.966  32.360  1.00  0.00     0.211 HD
ENDBRANCH   2  22
BRANCH   3  24
ATOM     24  O   UNL     1     179.088 -22.161  31.016  1.00  0.00    -0.387 OA
ATOM     25  H   UNL     1     179.204 -23.069  30.601  1.00  0.00     0.211 HD
ENDBRANCH   3  24
BRANCH   5  26
ATOM     26  O   UNL     1     181.316 -20.348  26.979  1.00  0.00    -0.454 OA
BRANCH  26  27
ATOM     27  C   UNL     1     181.446 -19.289  25.975  1.00  0.00     0.214 A 
ATOM     28  C   UNL     1     182.577 -18.786  25.228  1.00  0.00     0.180 A 
ATOM     29  C   UNL     1     180.390 -19.485  25.102  1.00  0.00     0.239 A 
ATOM     30  O   UNL     1     182.919 -19.615  24.247  1.00  0.00    -0.452 OA
ATOM     31  C   UNL     1     180.715 -20.603  24.288  1.00  0.00     0.111 A 
ATOM     32  O   UNL     1     179.229 -19.077  25.393  1.00  0.00    -0.285 OA
ATOM     33  C   UNL     1     182.111 -20.641  23.929  1.00  0.00     0.146 A 
ATOM     34  C   UNL     1     179.996 -21.837  24.475  1.00  0.00     0.134 A 
ATOM     35  C   UNL     1     182.573 -21.768  23.281  1.00  0.00     0.094 A 
ATOM     36  C   UNL     1     180.472 -23.051  23.967  1.00  0.00     0.093 A 
ATOM     37  C   UNL     1     181.584 -22.799  23.046  1.00  0.00     0.123 A 
BRANCH  28  38
ATOM     38  C   UNL     1     183.111 -17.296  25.168  1.00  0.00     0.025 A 
ATOM     39  C   UNL     1     184.141 -16.891  24.241  1.00  0.00     0.062 A 
ATOM     40  C   UNL     1     182.433 -16.172  25.745  1.00  0.00     0.016 A 
ATOM     41  C   UNL     1     184.809 -15.672  24.317  1.00  0.00     0.158 A 
ATOM     42  C   UNL     1     183.136 -14.945  25.818  1.00  0.00     0.051 A 
ATOM     43  C   UNL     1     184.443 -14.834  25.337  1.00  0.00     0.157 A 
BRANCH  41  44
ATOM     44  O   UNL     1     185.723 -15.273  23.325  1.00  0.00    -0.504 OA
ATOM     45  H   UNL     1     186.618 -14.792  23.470  1.00  0.00     0.293 HD
ENDBRANCH  41  44
BRANCH  43  46
ATOM     46  O   UNL     1     185.283 -13.756  25.679  1.00  0.00    -0.504 OA
ATOM     47  H   UNL     1     185.735 -13.713  26.605  1.00  0.00     0.293 HD
ENDBRANCH  43  46
ENDBRANCH  28  38
BRANCH  34  48
ATOM     48  O   UNL     1     178.749 -21.959  25.057  1.00  0.00    -0.507 OA
ATOM     49  H   UNL     1     178.648 -22.117  26.034  1.00  0.00     0.293 HD
ENDBRANCH  34  48
BRANCH  37  50
ATOM     50  O   UNL     1     181.365 -23.182  21.685  1.00  0.00    -0.508 OA
ATOM     51  H   UNL     1     180.407 -23.168  21.319  1.00  0.00     0.293 HD
ENDBRANCH  37  50
ENDBRANCH  26  27
ENDBRANCH   5  26
BRANCH   4  52
ATOM     52  O   UNL     1     179.339 -22.278  27.787  1.00  0.00    -0.384 OA
ATOM     53  H   UNL     1     178.983 -21.866  26.931  1.00  0.00     0.211 HD
ENDBRANCH   4  52
TORSDOF 16
ENDMDL
MODEL 9
REMARK VINA RESULT:    -8.503      1.958      2.698
REMARK INTER + INTRA:         -16.344
REMARK INTER:                 -14.164
REMARK INTRA:                  -2.180
REMARK UNBOUND:                -2.373
REMARK SMILES C[C@@H]1O[C@@H](OC[C@H]2O[C@H](Oc3c(-c4ccc(O)c(O)c4)oc4cc(O)cc(O)c4c3=O)[C@@H](O)[C@@H](O)[C@H]2O)[C@@H](O)[C@H](O)[C@@H]1O
REMARK SMILES IDX 7 1 36 2 34 3 32 4 9 5 8 6 6 7 5 8 4 9 1 10 2 11 42 12 3 13
REMARK SMILES IDX 40 14 38 15 43 16 41 18 39 20 37 22 35 24 10 26 11 27 12 28
REMARK SMILES IDX 30 29 21 30 29 31 31 32 22 33 27 34 23 35 26 36 24 37 13 38
REMARK SMILES IDX 20 39 14 40 18 41 15 42 16 43 19 44 17 46 28 48 25 50 33 52
REMARK H PARENT 43 17 41 19 39 21 37 23 35 25 19 45 17 47 28 49 25 51 33 53
REMARK Flexibility Score: inf
ROOT
ATOM      1  C   UNL     1     183.303 -19.120  30.221  1.00  0.00     0.180 C 
ATOM      2  C   UNL     1     183.385 -20.681  30.929  1.00  0.00     0.177 C 
ATOM      3  C   UNL     1     182.968 -22.058  30.266  1.00  0.00     0.180 C 
ATOM      4  C   UNL     1     182.323 -21.668  28.945  1.00  0.00     0.214 C 
ATOM      5  C   UNL     1     182.657 -20.378  28.129  1.00  0.00     0.339 C 
ATOM      6  O   UNL     1     183.219 -19.191  28.776  1.00  0.00    -0.332 OA
ENDROOT
BRANCH   1   7
ATOM      7  C   UNL     1     184.178 -18.340  31.198  1.00  0.00     0.198 C 
BRANCH   7   8
ATOM      8  O   UNL     1     184.068 -16.929  30.414  1.00  0.00    -0.347 OA
BRANCH   8   9
ATOM      9  C   UNL     1     182.877 -16.013  30.628  1.00  0.00     0.281 C 
ATOM     10  C   UNL     1     180.867 -14.380  27.968  1.00  0.00     0.041 C 
ATOM     11  C   UNL     1     181.880 -14.599  29.080  1.00  0.00     0.150 C 
ATOM     12  C   UNL     1     181.961 -13.343  30.053  1.00  0.00     0.174 C 
ATOM     13  O   UNL     1     181.670 -15.818  29.819  1.00  0.00    -0.344 OA
ATOM     14  C   UNL     1     183.319 -13.526  30.868  1.00  0.00     0.179 C 
ATOM     15  C   UNL     1     183.130 -14.851  31.646  1.00  0.00     0.202 C 
BRANCH  12  16
ATOM     16  O   UNL     1     180.863 -13.142  30.882  1.00  0.00    -0.388 OA
ATOM     17  H   UNL     1     180.888 -12.185  31.141  1.00  0.00     0.211 HD
ENDBRANCH  12  16
BRANCH  14  18
ATOM     18  O   UNL     1     183.431 -12.498  31.860  1.00  0.00    -0.387 OA
ATOM     19  H   UNL     1     182.516 -12.217  32.113  1.00  0.00     0.211 HD
ENDBRANCH  14  18
BRANCH  15  20
ATOM     20  O   UNL     1     184.090 -15.159  32.708  1.00  0.00    -0.385 OA
ATOM     21  H   UNL     1     184.346 -16.181  32.950  1.00  0.00     0.211 HD
ENDBRANCH  15  20
ENDBRANCH   8   9
ENDBRANCH   7   8
ENDBRANCH   1   7
BRANCH   2  22
ATOM     22  O   UNL     1     184.631 -20.836  31.598  1.00  0.00    -0.387 OA
ATOM     23  H   UNL     1     185.298 -21.315  30.997  1.00  0.00     0.211 HD
ENDBRANCH   2  22
BRANCH   3  24
ATOM     24  O   UNL     1     184.102 -22.900  30.414  1.00  0.00    -0.387 OA
ATOM     25  H   UNL     1     184.055 -23.687  29.792  1.00  0.00     0.211 HD
ENDBRANCH   3  24
BRANCH   5  26
ATOM     26  O   UNL     1     181.929 -20.125  26.932  1.00  0.00    -0.454 OA
BRANCH  26  27
ATOM     27  C   UNL     1     182.053 -19.084  25.909  1.00  0.00     0.214 A 
ATOM     28  C   UNL     1     183.155 -18.664  25.073  1.00  0.00     0.180 A 
ATOM     29  C   UNL     1     180.923 -19.214  25.120  1.00  0.00     0.239 A 
ATOM     30  O   UNL     1     183.365 -19.520  24.078  1.00  0.00    -0.452 OA
ATOM     31  C   UNL     1     181.109 -20.357  24.297  1.00  0.00     0.111 A 
ATOM     32  O   UNL     1     179.818 -18.726  25.494  1.00  0.00    -0.285 OA
ATOM     33  C   UNL     1     182.468 -20.491  23.834  1.00  0.00     0.146 A 
ATOM     34  C   UNL     1     180.326 -21.538  24.552  1.00  0.00     0.134 A 
ATOM     35  C   UNL     1     182.804 -21.651  23.167  1.00  0.00     0.094 A 
ATOM     36  C   UNL     1     180.679 -22.785  24.024  1.00  0.00     0.093 A 
ATOM     37  C   UNL     1     181.733 -22.614  23.018  1.00  0.00     0.123 A 
BRANCH  28  38
ATOM     38  C   UNL     1     183.781 -17.214  24.956  1.00  0.00     0.025 A 
ATOM     39  C   UNL     1     184.635 -16.837  23.855  1.00  0.00     0.062 A 
ATOM     40  C   UNL     1     183.321 -16.074  25.694  1.00  0.00     0.016 A 
ATOM     41  C   UNL     1     185.398 -15.674  23.834  1.00  0.00     0.158 A 
ATOM     42  C   UNL     1     184.118 -14.904  25.664  1.00  0.00     0.051 A 
ATOM     43  C   UNL     1     185.308 -14.862  24.933  1.00  0.00     0.157 A 
BRANCH  41  44
ATOM     44  O   UNL     1     186.126 -15.292  22.693  1.00  0.00    -0.504 OA
ATOM     45  H   UNL     1     186.201 -14.349  22.296  1.00  0.00     0.293 HD
ENDBRANCH  41  44
BRANCH  43  46
ATOM     46  O   UNL     1     186.281 -13.863  25.135  1.00  0.00    -0.504 OA
ATOM     47  H   UNL     1     187.198 -14.094  25.546  1.00  0.00     0.293 HD
ENDBRANCH  43  46
ENDBRANCH  28  38
BRANCH  34  48
ATOM     48  O   UNL     1     179.122 -21.572  25.229  1.00  0.00    -0.507 OA
ATOM     49  H   UNL     1     179.055 -21.289  26.179  1.00  0.00     0.293 HD
ENDBRANCH  34  48
BRANCH  37  50
ATOM     50  O   UNL     1     181.386 -22.990  21.682  1.00  0.00    -0.508 OA
ATOM     51  H   UNL     1     182.135 -23.271  21.040  1.00  0.00     0.293 HD
ENDBRANCH  37  50
ENDBRANCH  26  27
ENDBRANCH   5  26
BRANCH   4  52
ATOM     52  O   UNL     1     181.843 -22.756  28.095  1.00  0.00    -0.384 OA
ATOM     53  H   UNL     1     180.912 -22.452  27.832  1.00  0.00     0.211 HD
ENDBRANCH   4  52
TORSDOF 16
ENDMDL
