MODEL 1
REMARK VINA RESULT:    -5.181      0.000      0.000
REMARK INTER + INTRA:         -10.417
REMARK INTER:                  -8.815
REMARK INTRA:                  -1.601
REMARK UNBOUND:                -1.601
REMARK SMILES CCCCCCCCCCCCCC(=O)[O-]
REMARK SMILES IDX 8 1 9 2 10 3 11 4 12 5 13 6 14 7 15 8 16 9 7 10 6 11 5 12
REMARK SMILES IDX 4 13 3 14 2 15 1 16
REMARK H PARENT
REMARK Flexibility Score: inf
ROOT
ATOM      1  C   UNL     1      10.381  24.053  -9.312  1.00  0.00     0.000 C 
ENDROOT
BRANCH   1   2
ATOM      2  C   UNL     1       9.757  22.847 -10.032  1.00  0.00     0.000 C 
BRANCH   2   3
ATOM      3  C   UNL     1       8.276  22.641  -9.667  1.00  0.00     0.000 C 
BRANCH   3   4
ATOM      4  C   UNL     1       7.817  23.560  -8.525  1.00  0.00     0.000 C 
BRANCH   4   5
ATOM      5  C   UNL     1       6.285  23.632  -8.402  1.00  0.00     0.006 C 
BRANCH   5   6
ATOM      6  C   UNL     1       5.799  23.267  -6.993  1.00  0.00     0.053 C 
BRANCH   6   7
ATOM      7  C   UNL     1       6.591  23.971  -5.934  1.00  0.00     0.041 C 
ATOM      8  O   UNL     1       7.292  23.311  -5.122  1.00  0.00    -0.550 OA
ATOM      9  O   UNL     1       6.580  25.358  -5.865  1.00  0.00    -0.550 OA
ENDBRANCH   6   7
ENDBRANCH   5   6
ENDBRANCH   4   5
ENDBRANCH   3   4
ENDBRANCH   2   3
ENDBRANCH   1   2
BRANCH   1  10
ATOM     10  C   UNL     1      11.901  24.142  -9.517  1.00  0.00     0.000 C 
BRANCH  10  11
ATOM     11  C   UNL     1      12.625  24.319  -8.177  1.00  0.00    -0.000 C 
BRANCH  11  12
ATOM     12  C   UNL     1      13.394  23.044  -7.796  1.00  0.00    -0.000 C 
BRANCH  12  13
ATOM     13  C   UNL     1      12.521  22.018  -7.050  1.00  0.00    -0.000 C 
BRANCH  13  14
ATOM     14  C   UNL     1      12.052  20.823  -7.900  1.00  0.00    -0.000 C 
BRANCH  14  15
ATOM     15  C   UNL     1      10.620  20.379  -7.570  1.00  0.00    -0.003 C 
ATOM     16  C   UNL     1       9.968  21.327  -6.567  1.00  0.00     0.004 C 
ENDBRANCH  14  15
ENDBRANCH  13  14
ENDBRANCH  12  13
ENDBRANCH  11  12
ENDBRANCH  10  11
ENDBRANCH   1  10
TORSDOF 12
ENDMDL
MODEL 2
REMARK VINA RESULT:    -5.040      2.578      5.663
REMARK INTER + INTRA:         -10.177
REMARK INTER:                  -8.698
REMARK INTRA:                  -1.479
REMARK UNBOUND:                -1.601
REMARK SMILES CCCCCCCCCCCCCC(=O)[O-]
REMARK SMILES IDX 8 1 9 2 10 3 11 4 12 5 13 6 14 7 15 8 16 9 7 10 6 11 5 12
REMARK SMILES IDX 4 13 3 14 2 15 1 16
REMARK H PARENT
REMARK Flexibility Score: inf
ROOT
ATOM      1  C   UNL     1       7.404  22.866  -5.170  1.00  0.00     0.000 C 
ENDROOT
BRANCH   1   2
ATOM      2  C   UNL     1       8.151  21.551  -5.438  1.00  0.00     0.000 C 
BRANCH   2   3
ATOM      3  C   UNL     1       9.572  21.778  -5.983  1.00  0.00     0.000 C 
BRANCH   3   4
ATOM      4  C   UNL     1       9.945  20.782  -7.091  1.00  0.00     0.000 C 
BRANCH   4   5
ATOM      5  C   UNL     1      10.992  21.347  -8.067  1.00  0.00     0.006 C 
BRANCH   5   6
ATOM      6  C   UNL     1      11.712  22.576  -7.496  1.00  0.00     0.053 C 
BRANCH   6   7
ATOM      7  C   UNL     1      11.984  23.600  -8.555  1.00  0.00     0.041 C 
ATOM      8  O   UNL     1      12.920  24.429  -8.409  1.00  0.00    -0.550 OA
ATOM      9  O   UNL     1      11.226  23.616  -9.718  1.00  0.00    -0.550 OA
ENDBRANCH   6   7
ENDBRANCH   5   6
ENDBRANCH   4   5
ENDBRANCH   3   4
ENDBRANCH   2   3
ENDBRANCH   1   2
BRANCH   1  10
ATOM     10  C   UNL     1       6.534  23.304  -6.358  1.00  0.00     0.000 C 
BRANCH  10  11
ATOM     11  C   UNL     1       6.953  24.690  -6.863  1.00  0.00    -0.000 C 
BRANCH  11  12
ATOM     12  C   UNL     1       7.248  24.660  -8.370  1.00  0.00    -0.000 C 
BRANCH  12  13
ATOM     13  C   UNL     1       7.909  23.346  -8.826  1.00  0.00    -0.000 C 
BRANCH  13  14
ATOM     14  C   UNL     1       7.161  22.594  -9.943  1.00  0.00    -0.000 C 
BRANCH  14  15
ATOM     15  C   UNL     1       5.775  23.184 -10.237  1.00  0.00    -0.003 C 
ATOM     16  C   UNL     1       4.690  22.458  -9.446  1.00  0.00     0.004 C 
ENDBRANCH  14  15
ENDBRANCH  13  14
ENDBRANCH  12  13
ENDBRANCH  11  12
ENDBRANCH  10  11
ENDBRANCH   1  10
TORSDOF 12
ENDMDL
MODEL 3
REMARK VINA RESULT:    -5.030      2.664      6.415
REMARK INTER + INTRA:         -10.159
REMARK INTER:                  -8.657
REMARK INTRA:                  -1.503
REMARK UNBOUND:                -1.601
REMARK SMILES CCCCCCCCCCCCCC(=O)[O-]
REMARK SMILES IDX 8 1 9 2 10 3 11 4 12 5 13 6 14 7 15 8 16 9 7 10 6 11 5 12
REMARK SMILES IDX 4 13 3 14 2 15 1 16
REMARK H PARENT
REMARK Flexibility Score: inf
ROOT
ATOM      1  C   UNL     1       6.622  24.307  -6.490  1.00  0.00     0.000 C 
ENDROOT
BRANCH   1   2
ATOM      2  C   UNL     1       7.450  24.210  -7.780  1.00  0.00     0.000 C 
BRANCH   2   3
ATOM      3  C   UNL     1       8.286  22.919  -7.850  1.00  0.00     0.000 C 
BRANCH   3   4
ATOM      4  C   UNL     1       8.894  22.685  -9.241  1.00  0.00     0.000 C 
BRANCH   4   5
ATOM      5  C   UNL     1      10.432  22.745  -9.232  1.00  0.00     0.006 C 
BRANCH   5   6
ATOM      6  C   UNL     1      11.021  22.318  -7.881  1.00  0.00     0.053 C 
BRANCH   6   7
ATOM      7  C   UNL     1      11.295  20.846  -7.835  1.00  0.00     0.041 C 
ATOM      8  O   UNL     1      12.426  20.402  -8.167  1.00  0.00    -0.550 OA
ATOM      9  O   UNL     1      10.313  19.969  -7.395  1.00  0.00    -0.550 OA
ENDBRANCH   6   7
ENDBRANCH   5   6
ENDBRANCH   4   5
ENDBRANCH   3   4
ENDBRANCH   2   3
ENDBRANCH   1   2
BRANCH   1  10
ATOM     10  C   UNL     1       5.803  23.036  -6.217  1.00  0.00     0.000 C 
BRANCH  10  11
ATOM     11  C   UNL     1       4.316  23.268  -6.516  1.00  0.00    -0.000 C 
BRANCH  11  12
ATOM     12  C   UNL     1       3.823  22.316  -7.617  1.00  0.00    -0.000 C 
BRANCH  12  13
ATOM     13  C   UNL     1       3.986  22.900  -9.032  1.00  0.00    -0.000 C 
BRANCH  13  14
ATOM     14  C   UNL     1       5.151  22.308  -9.849  1.00  0.00    -0.000 C 
BRANCH  14  15
ATOM     15  C   UNL     1       5.705  23.285 -10.895  1.00  0.00    -0.003 C 
ATOM     16  C   UNL     1       4.820  24.523 -11.015  1.00  0.00     0.004 C 
ENDBRANCH  14  15
ENDBRANCH  13  14
ENDBRANCH  12  13
ENDBRANCH  11  12
ENDBRANCH  10  11
ENDBRANCH   1  10
TORSDOF 12
ENDMDL
MODEL 4
REMARK VINA RESULT:    -4.952      2.781      5.928
REMARK INTER + INTRA:         -10.026
REMARK INTER:                  -8.947
REMARK INTRA:                  -1.079
REMARK UNBOUND:                -1.601
REMARK SMILES CCCCCCCCCCCCCC(=O)[O-]
REMARK SMILES IDX 8 1 9 2 10 3 11 4 12 5 13 6 14 7 15 8 16 9 7 10 6 11 5 12
REMARK SMILES IDX 4 13 3 14 2 15 1 16
REMARK H PARENT
REMARK Flexibility Score: inf
ROOT
ATOM      1  C   UNL     1       9.970  21.732  -6.653  1.00  0.00     0.000 C 
ENDROOT
BRANCH   1   2
ATOM      2  C   UNL     1      10.694  20.911  -7.731  1.00  0.00     0.000 C 
BRANCH   2   3
ATOM      3  C   UNL     1      12.201  21.216  -7.795  1.00  0.00     0.000 C 
BRANCH   3   4
ATOM      4  C   UNL     1      12.573  22.510  -7.054  1.00  0.00     0.000 C 
BRANCH   4   5
ATOM      5  C   UNL     1      12.986  23.641  -8.011  1.00  0.00     0.006 C 
BRANCH   5   6
ATOM      6  C   UNL     1      11.775  24.398  -8.572  1.00  0.00     0.053 C 
BRANCH   6   7
ATOM      7  C   UNL     1      11.618  24.179 -10.046  1.00  0.00     0.041 C 
ATOM      8  O   UNL     1      11.044  23.144 -10.475  1.00  0.00    -0.550 OA
ATOM      9  O   UNL     1      12.076  25.134 -10.943  1.00  0.00    -0.550 OA
ENDBRANCH   6   7
ENDBRANCH   5   6
ENDBRANCH   4   5
ENDBRANCH   3   4
ENDBRANCH   2   3
ENDBRANCH   1   2
BRANCH   1  10
ATOM     10  C   UNL     1       8.823  22.578  -7.226  1.00  0.00     0.000 C 
BRANCH  10  11
ATOM     11  C   UNL     1       7.830  22.972  -6.125  1.00  0.00    -0.000 C 
BRANCH  11  12
ATOM     12  C   UNL     1       6.754  23.923  -6.671  1.00  0.00    -0.000 C 
BRANCH  12  13
ATOM     13  C   UNL     1       6.775  24.035  -8.206  1.00  0.00    -0.000 C 
BRANCH  13  14
ATOM     14  C   UNL     1       5.653  23.267  -8.930  1.00  0.00    -0.000 C 
BRANCH  14  15
ATOM     15  C   UNL     1       5.984  22.968 -10.398  1.00  0.00    -0.003 C 
ATOM     16  C   UNL     1       5.130  23.815 -11.338  1.00  0.00     0.004 C 
ENDBRANCH  14  15
ENDBRANCH  13  14
ENDBRANCH  12  13
ENDBRANCH  11  12
ENDBRANCH  10  11
ENDBRANCH   1  10
TORSDOF 12
ENDMDL
MODEL 5
REMARK VINA RESULT:    -4.906      2.759      6.087
REMARK INTER + INTRA:          -9.948
REMARK INTER:                  -8.649
REMARK INTRA:                  -1.299
REMARK UNBOUND:                -1.601
REMARK SMILES CCCCCCCCCCCCCC(=O)[O-]
REMARK SMILES IDX 8 1 9 2 10 3 11 4 12 5 13 6 14 7 15 8 16 9 7 10 6 11 5 12
REMARK SMILES IDX 4 13 3 14 2 15 1 16
REMARK H PARENT
REMARK Flexibility Score: inf
ROOT
ATOM      1  C   UNL     1       8.246  23.369  -9.233  1.00  0.00     0.000 C 
ENDROOT
BRANCH   1   2
ATOM      2  C   UNL     1       9.298  22.965  -8.189  1.00  0.00     0.000 C 
BRANCH   2   3
ATOM      3  C   UNL     1       9.591  21.454  -8.198  1.00  0.00     0.000 C 
BRANCH   3   4
ATOM      4  C   UNL     1      10.751  21.073  -7.266  1.00  0.00     0.000 C 
BRANCH   4   5
ATOM      5  C   UNL     1      12.115  21.555  -7.790  1.00  0.00     0.006 C 
BRANCH   5   6
ATOM      6  C   UNL     1      12.771  22.572  -6.847  1.00  0.00     0.053 C 
BRANCH   6   7
ATOM      7  C   UNL     1      13.394  23.706  -7.602  1.00  0.00     0.041 C 
ATOM      8  O   UNL     1      12.711  24.369  -8.426  1.00  0.00    -0.550 OA
ATOM      9  O   UNL     1      14.719  24.052  -7.370  1.00  0.00    -0.550 OA
ENDBRANCH   6   7
ENDBRANCH   5   6
ENDBRANCH   4   5
ENDBRANCH   3   4
ENDBRANCH   2   3
ENDBRANCH   1   2
BRANCH   1  10
ATOM     10  C   UNL     1       7.550  22.156  -9.869  1.00  0.00     0.000 C 
BRANCH  10  11
ATOM     11  C   UNL     1       6.065  22.446 -10.122  1.00  0.00    -0.000 C 
BRANCH  11  12
ATOM     12  C   UNL     1       5.495  23.375  -9.040  1.00  0.00    -0.000 C 
BRANCH  12  13
ATOM     13  C   UNL     1       4.632  22.631  -8.004  1.00  0.00    -0.000 C 
BRANCH  13  14
ATOM     14  C   UNL     1       4.778  23.134  -6.555  1.00  0.00    -0.000 C 
BRANCH  14  15
ATOM     15  C   UNL     1       6.241  23.251  -6.107  1.00  0.00    -0.003 C 
ATOM     16  C   UNL     1       6.589  24.690  -5.739  1.00  0.00     0.004 C 
ENDBRANCH  14  15
ENDBRANCH  13  14
ENDBRANCH  12  13
ENDBRANCH  11  12
ENDBRANCH  10  11
ENDBRANCH   1  10
TORSDOF 12
ENDMDL
MODEL 6
REMARK VINA RESULT:    -4.903      1.222      2.935
REMARK INTER + INTRA:          -9.944
REMARK INTER:                  -8.714
REMARK INTRA:                  -1.230
REMARK UNBOUND:                -1.601
REMARK SMILES CCCCCCCCCCCCCC(=O)[O-]
REMARK SMILES IDX 8 1 9 2 10 3 11 4 12 5 13 6 14 7 15 8 16 9 7 10 6 11 5 12
REMARK SMILES IDX 4 13 3 14 2 15 1 16
REMARK H PARENT
REMARK Flexibility Score: inf
ROOT
ATOM      1  C   UNL     1       7.635  22.373 -10.480  1.00  0.00     0.000 C 
ENDROOT
BRANCH   1   2
ATOM      2  C   UNL     1       6.490  23.185  -9.856  1.00  0.00     0.000 C 
BRANCH   2   3
ATOM      3  C   UNL     1       5.161  22.408  -9.827  1.00  0.00     0.000 C 
BRANCH   3   4
ATOM      4  C   UNL     1       4.457  22.493  -8.465  1.00  0.00     0.000 C 
BRANCH   4   5
ATOM      5  C   UNL     1       5.152  23.468  -7.500  1.00  0.00     0.006 C 
BRANCH   5   6
ATOM      6  C   UNL     1       5.302  22.881  -6.089  1.00  0.00     0.053 C 
BRANCH   6   7
ATOM      7  C   UNL     1       6.556  23.357  -5.421  1.00  0.00     0.041 C 
ATOM      8  O   UNL     1       7.341  22.530  -4.886  1.00  0.00    -0.550 OA
ATOM      9  O   UNL     1       6.874  24.708  -5.421  1.00  0.00    -0.550 OA
ENDBRANCH   6   7
ENDBRANCH   5   6
ENDBRANCH   4   5
ENDBRANCH   3   4
ENDBRANCH   2   3
ENDBRANCH   1   2
BRANCH   1  10
ATOM     10  C   UNL     1       8.953  22.520  -9.706  1.00  0.00     0.000 C 
BRANCH  10  11
ATOM     11  C   UNL     1       8.689  22.836  -8.228  1.00  0.00    -0.000 C 
BRANCH  11  12
ATOM     12  C   UNL     1       9.765  22.204  -7.331  1.00  0.00    -0.000 C 
BRANCH  12  13
ATOM     13  C   UNL     1      11.131  22.079  -8.029  1.00  0.00    -0.000 C 
BRANCH  13  14
ATOM     14  C   UNL     1      12.324  22.636  -7.230  1.00  0.00    -0.000 C 
BRANCH  14  15
ATOM     15  C   UNL     1      13.050  23.777  -7.956  1.00  0.00    -0.003 C 
ATOM     16  C   UNL     1      12.141  24.439  -8.988  1.00  0.00     0.004 C 
ENDBRANCH  14  15
ENDBRANCH  13  14
ENDBRANCH  12  13
ENDBRANCH  11  12
ENDBRANCH  10  11
ENDBRANCH   1  10
TORSDOF 12
ENDMDL
MODEL 7
REMARK VINA RESULT:    -4.896      2.874      5.769
REMARK INTER + INTRA:          -9.932
REMARK INTER:                  -8.900
REMARK INTRA:                  -1.032
REMARK UNBOUND:                -1.601
REMARK SMILES CCCCCCCCCCCCCC(=O)[O-]
REMARK SMILES IDX 8 1 9 2 10 3 11 4 12 5 13 6 14 7 15 8 16 9 7 10 6 11 5 12
REMARK SMILES IDX 4 13 3 14 2 15 1 16
REMARK H PARENT
REMARK Flexibility Score: inf
ROOT
ATOM      1  C   UNL     1       9.125  22.147  -8.920  1.00  0.00     0.000 C 
ENDROOT
BRANCH   1   2
ATOM      2  C   UNL     1      10.621  22.225  -9.261  1.00  0.00     0.000 C 
BRANCH   2   3
ATOM      3  C   UNL     1      10.964  23.437 -10.146  1.00  0.00     0.000 C 
BRANCH   3   4
ATOM      4  C   UNL     1      11.964  24.392  -9.476  1.00  0.00     0.000 C 
BRANCH   4   5
ATOM      5  C   UNL     1      12.303  23.977  -8.034  1.00  0.00     0.006 C 
BRANCH   5   6
ATOM      6  C   UNL     1      13.804  24.096  -7.735  1.00  0.00     0.053 C 
BRANCH   6   7
ATOM      7  C   UNL     1      14.328  22.879  -7.035  1.00  0.00     0.041 C 
ATOM      8  O   UNL     1      15.320  22.259  -7.501  1.00  0.00    -0.550 OA
ATOM      9  O   UNL     1      13.742  22.451  -5.852  1.00  0.00    -0.550 OA
ENDBRANCH   6   7
ENDBRANCH   5   6
ENDBRANCH   4   5
ENDBRANCH   3   4
ENDBRANCH   2   3
ENDBRANCH   1   2
BRANCH   1  10
ATOM     10  C   UNL     1       8.229  22.563 -10.097  1.00  0.00     0.000 C 
BRANCH  10  11
ATOM     11  C   UNL     1       6.831  22.959  -9.607  1.00  0.00    -0.000 C 
BRANCH  11  12
ATOM     12  C   UNL     1       6.914  24.067  -8.546  1.00  0.00    -0.000 C 
BRANCH  12  13
ATOM     13  C   UNL     1       6.242  23.677  -7.217  1.00  0.00    -0.000 C 
BRANCH  13  14
ATOM     14  C   UNL     1       7.110  23.890  -5.962  1.00  0.00    -0.000 C 
BRANCH  14  15
ATOM     15  C   UNL     1       7.233  22.627  -5.098  1.00  0.00    -0.003 C 
ATOM     16  C   UNL     1       8.515  21.865  -5.419  1.00  0.00     0.004 C 
ENDBRANCH  14  15
ENDBRANCH  13  14
ENDBRANCH  12  13
ENDBRANCH  11  12
ENDBRANCH  10  11
ENDBRANCH   1  10
TORSDOF 12
ENDMDL
MODEL 8
REMARK VINA RESULT:    -4.837      1.921      5.345
REMARK INTER + INTRA:          -9.832
REMARK INTER:                  -8.663
REMARK INTRA:                  -1.168
REMARK UNBOUND:                -1.601
REMARK SMILES CCCCCCCCCCCCCC(=O)[O-]
REMARK SMILES IDX 8 1 9 2 10 3 11 4 12 5 13 6 14 7 15 8 16 9 7 10 6 11 5 12
REMARK SMILES IDX 4 13 3 14 2 15 1 16
REMARK H PARENT
REMARK Flexibility Score: inf
ROOT
ATOM      1  C   UNL     1      10.289  22.642 -10.090  1.00  0.00     0.000 C 
ENDROOT
BRANCH   1   2
ATOM      2  C   UNL     1      11.248  23.841 -10.141  1.00  0.00     0.000 C 
BRANCH   2   3
ATOM      3  C   UNL     1      11.569  24.402  -8.744  1.00  0.00     0.000 C 
BRANCH   3   4
ATOM      4  C   UNL     1      12.963  23.989  -8.249  1.00  0.00     0.000 C 
BRANCH   4   5
ATOM      5  C   UNL     1      12.905  22.995  -7.076  1.00  0.00     0.006 C 
BRANCH   5   6
ATOM      6  C   UNL     1      12.703  21.549  -7.551  1.00  0.00     0.053 C 
BRANCH   6   7
ATOM      7  C   UNL     1      11.344  21.032  -7.192  1.00  0.00     0.041 C 
ATOM      8  O   UNL     1      10.581  21.714  -6.459  1.00  0.00    -0.550 OA
ATOM      9  O   UNL     1      10.909  19.813  -7.694  1.00  0.00    -0.550 OA
ENDBRANCH   6   7
ENDBRANCH   5   6
ENDBRANCH   4   5
ENDBRANCH   3   4
ENDBRANCH   2   3
ENDBRANCH   1   2
BRANCH   1  10
ATOM     10  C   UNL     1       8.970  22.970  -9.374  1.00  0.00     0.000 C 
BRANCH  10  11
ATOM     11  C   UNL     1       7.776  22.361 -10.119  1.00  0.00    -0.000 C 
BRANCH  11  12
ATOM     12  C   UNL     1       6.450  22.921  -9.582  1.00  0.00    -0.000 C 
BRANCH  12  13
ATOM     13  C   UNL     1       6.647  23.991  -8.492  1.00  0.00    -0.000 C 
BRANCH  13  14
ATOM     14  C   UNL     1       6.141  23.596  -7.093  1.00  0.00    -0.000 C 
BRANCH  14  15
ATOM     15  C   UNL     1       7.213  23.742  -6.005  1.00  0.00    -0.003 C 
ATOM     16  C   UNL     1       7.311  22.478  -5.156  1.00  0.00     0.004 C 
ENDBRANCH  14  15
ENDBRANCH  13  14
ENDBRANCH  12  13
ENDBRANCH  11  12
ENDBRANCH  10  11
ENDBRANCH   1  10
TORSDOF 12
ENDMDL
MODEL 9
REMARK VINA RESULT:    -4.830      1.630      2.879
REMARK INTER + INTRA:          -9.820
REMARK INTER:                  -8.813
REMARK INTRA:                  -1.007
REMARK UNBOUND:                -1.601
REMARK SMILES CCCCCCCCCCCCCC(=O)[O-]
REMARK SMILES IDX 8 1 9 2 10 3 11 4 12 5 13 6 14 7 15 8 16 9 7 10 6 11 5 12
REMARK SMILES IDX 4 13 3 14 2 15 1 16
REMARK H PARENT
REMARK Flexibility Score: inf
ROOT
ATOM      1  C   UNL     1      11.308  24.277  -9.391  1.00  0.00     0.000 C 
ENDROOT
BRANCH   1   2
ATOM      2  C   UNL     1      10.841  22.925  -9.951  1.00  0.00     0.000 C 
BRANCH   2   3
ATOM      3  C   UNL     1       9.334  22.687  -9.741  1.00  0.00     0.000 C 
BRANCH   3   4
ATOM      4  C   UNL     1       8.852  23.146  -8.357  1.00  0.00     0.000 C 
BRANCH   4   5
ATOM      5  C   UNL     1       7.619  24.063  -8.434  1.00  0.00     0.006 C 
BRANCH   5   6
ATOM      6  C   UNL     1       6.510  23.625  -7.468  1.00  0.00     0.053 C 
BRANCH   6   7
ATOM      7  C   UNL     1       6.801  24.049  -6.061  1.00  0.00     0.041 C 
ATOM      8  O   UNL     1       7.216  23.209  -5.219  1.00  0.00    -0.550 OA
ATOM      9  O   UNL     1       6.648  25.378  -5.689  1.00  0.00    -0.550 OA
ENDBRANCH   6   7
ENDBRANCH   5   6
ENDBRANCH   4   5
ENDBRANCH   3   4
ENDBRANCH   2   3
ENDBRANCH   1   2
BRANCH   1  10
ATOM     10  C   UNL     1      12.522  24.142  -8.459  1.00  0.00     0.000 C 
BRANCH  10  11
ATOM     11  C   UNL     1      12.409  22.883  -7.591  1.00  0.00    -0.000 C 
BRANCH  11  12
ATOM     12  C   UNL     1      13.791  22.434  -7.091  1.00  0.00    -0.000 C 
BRANCH  12  13
ATOM     13  C   UNL     1      13.983  22.656  -5.580  1.00  0.00    -0.000 C 
BRANCH  13  14
ATOM     14  C   UNL     1      15.069  23.682  -5.206  1.00  0.00    -0.000 C 
BRANCH  14  15
ATOM     15  C   UNL     1      15.559  24.500  -6.409  1.00  0.00    -0.003 C 
ATOM     16  C   UNL     1      15.130  25.960  -6.291  1.00  0.00     0.004 C 
ENDBRANCH  14  15
ENDBRANCH  13  14
ENDBRANCH  12  13
ENDBRANCH  11  12
ENDBRANCH  10  11
ENDBRANCH   1  10
TORSDOF 12
ENDMDL
