MODEL 1
REMARK VINA RESULT:    -6.743      0.000      0.000
REMARK INTER + INTRA:          -9.647
REMARK INTER:                  -8.910
REMARK INTRA:                  -0.737
REMARK UNBOUND:                -0.737
REMARK SMILES CC[C@@H](C=C[C@@H](C)[C@@H]1CC[C@H]2C3=CC[C@@H]4C[C@@H](O)CC[C@]4(C)[C@H]3CC[C@]21C)C(C)C
REMARK SMILES IDX 6 1 7 2 5 3 4 4 3 5 2 6 1 7 28 8 29 9 30 10 8 11 9 12 26 13
REMARK SMILES IDX 10 14 11 15 25 16 27 17 12 18 24 19 23 20 13 21 21 22 14 23
REMARK SMILES IDX 15 24 20 25 22 26 16 27 19 28 17 29 18 30
REMARK H PARENT 18 31
REMARK Flexibility Score: inf
ROOT
ATOM      1  C   UNL     1       9.882  -8.836  27.654  1.00  0.00     0.012 C 
ATOM      2  C   UNL     1       8.882  -7.747  27.214  1.00  0.00     0.012 C 
ENDROOT
BRANCH   1   3
ATOM      3  C   UNL     1      10.140  -8.810  29.153  1.00  0.00    -0.028 C 
ATOM      4  C   UNL     1       9.287  -9.296  30.077  1.00  0.00    -0.027 C 
BRANCH   4   5
ATOM      5  C   UNL     1       9.545  -9.224  31.571  1.00  0.00     0.014 C 
BRANCH   5   6
ATOM      6  C   UNL     1      10.561  -8.104  31.911  1.00  0.00     0.004 C 
ATOM      7  C   UNL     1      10.526  -7.687  33.383  1.00  0.00     0.004 C 
ENDBRANCH   5   6
BRANCH   5   8
ATOM      8  C   UNL     1       9.867 -10.617  32.203  1.00  0.00    -0.011 C 
ATOM      9  C   UNL     1       9.872 -11.784  31.202  1.00  0.00     0.008 C 
ATOM     10  C   UNL     1       8.914 -10.933  33.368  1.00  0.00     0.008 C 
ENDBRANCH   5   8
ENDBRANCH   4   5
ENDBRANCH   1   3
BRANCH   1  11
ATOM     11  C   UNL     1      11.243  -8.879  26.862  1.00  0.00     0.002 C 
ATOM     12  C   UNL     1      11.106  -8.312  25.445  1.00  0.00     0.005 C 
ATOM     13  C   UNL     1      11.936 -10.276  26.667  1.00  0.00    -0.023 C 
ATOM     14  C   UNL     1      11.085  -9.500  24.492  1.00  0.00     0.009 C 
ATOM     15  C   UNL     1      11.376 -10.782  25.306  1.00  0.00     0.021 C 
ATOM     16  C   UNL     1      13.480 -10.064  26.535  1.00  0.00     0.008 C 
ATOM     17  C   UNL     1      11.662 -11.221  27.871  1.00  0.00     0.012 C 
ATOM     18  C   UNL     1      12.305 -11.743  24.555  1.00  0.00    -0.067 C 
ATOM     19  C   UNL     1      14.282 -11.275  25.987  1.00  0.00     0.009 C 
ATOM     20  C   UNL     1      13.437 -12.399  25.324  1.00  0.00     0.021 C 
ATOM     21  C   UNL     1      12.132 -11.937  23.233  1.00  0.00    -0.027 C 
ATOM     22  C   UNL     1      14.264 -13.497  24.526  1.00  0.00    -0.023 C 
ATOM     23  C   UNL     1      13.022 -12.787  22.383  1.00  0.00     0.031 C 
ATOM     24  C   UNL     1      14.394 -13.097  23.027  1.00  0.00     0.002 C 
ATOM     25  C   UNL     1      13.524 -14.870  24.609  1.00  0.00     0.010 C 
ATOM     26  C   UNL     1      15.675 -13.665  25.172  1.00  0.00     0.012 C 
ATOM     27  C   UNL     1      15.119 -14.189  22.200  1.00  0.00     0.036 C 
ATOM     28  C   UNL     1      14.194 -15.986  23.780  1.00  0.00     0.032 C 
ATOM     29  C   UNL     1      14.463 -15.583  22.320  1.00  0.00     0.114 C 
BRANCH  29  30
ATOM     30  O   UNL     1      15.299 -16.548  21.735  1.00  0.00    -0.393 OA
ATOM     31  H   UNL     1      15.146 -17.398  22.226  1.00  0.00     0.210 HD
ENDBRANCH  29  30
ENDBRANCH   1  11
TORSDOF 6
ENDMDL
MODEL 2
REMARK VINA RESULT:    -6.643      1.527      3.559
REMARK INTER + INTRA:          -9.516
REMARK INTER:                  -8.685
REMARK INTRA:                  -0.831
REMARK UNBOUND:                -0.737
REMARK SMILES CC[C@@H](C=C[C@@H](C)[C@@H]1CC[C@H]2C3=CC[C@@H]4C[C@@H](O)CC[C@]4(C)[C@H]3CC[C@]21C)C(C)C
REMARK SMILES IDX 6 1 7 2 5 3 4 4 3 5 2 6 1 7 28 8 29 9 30 10 8 11 9 12 26 13
REMARK SMILES IDX 10 14 11 15 25 16 27 17 12 18 24 19 23 20 13 21 21 22 14 23
REMARK SMILES IDX 15 24 20 25 22 26 16 27 19 28 17 29 18 30
REMARK H PARENT 18 31
REMARK Flexibility Score: inf
ROOT
ATOM      1  C   UNL     1      11.320  -9.394  25.566  1.00  0.00     0.012 C 
ATOM      2  C   UNL     1      12.346  -8.259  25.359  1.00  0.00     0.012 C 
ENDROOT
BRANCH   1   3
ATOM      3  C   UNL     1      10.257  -9.030  26.591  1.00  0.00    -0.028 C 
ATOM      4  C   UNL     1      10.524  -8.541  27.818  1.00  0.00    -0.027 C 
BRANCH   4   5
ATOM      5  C   UNL     1       9.450  -8.222  28.842  1.00  0.00     0.014 C 
BRANCH   5   6
ATOM      6  C   UNL     1       9.562  -9.149  30.079  1.00  0.00     0.004 C 
ATOM      7  C   UNL     1       9.964  -8.403  31.354  1.00  0.00     0.004 C 
ENDBRANCH   5   6
BRANCH   5   8
ATOM      8  C   UNL     1       8.019  -8.132  28.217  1.00  0.00    -0.011 C 
ATOM      9  C   UNL     1       7.683  -6.769  27.591  1.00  0.00     0.008 C 
ATOM     10  C   UNL     1       6.940  -8.515  29.243  1.00  0.00     0.008 C 
ENDBRANCH   5   8
ENDBRANCH   4   5
ENDBRANCH   1   3
BRANCH   1  11
ATOM     11  C   UNL     1      11.923 -10.815  25.878  1.00  0.00     0.002 C 
ATOM     12  C   UNL     1      13.191 -10.731  26.734  1.00  0.00     0.005 C 
ATOM     13  C   UNL     1      12.321 -11.727  24.662  1.00  0.00    -0.023 C 
ATOM     14  C   UNL     1      14.372 -10.982  25.804  1.00  0.00     0.009 C 
ATOM     15  C   UNL     1      13.819 -11.384  24.415  1.00  0.00     0.021 C 
ATOM     16  C   UNL     1      12.207 -13.227  25.092  1.00  0.00     0.008 C 
ATOM     17  C   UNL     1      11.393 -11.485  23.439  1.00  0.00     0.012 C 
ATOM     18  C   UNL     1      14.634 -12.517  23.778  1.00  0.00    -0.067 C 
ATOM     19  C   UNL     1      12.894 -14.253  24.150  1.00  0.00     0.009 C 
ATOM     20  C   UNL     1      13.884 -13.655  23.111  1.00  0.00     0.021 C 
ATOM     21  C   UNL     1      15.977 -12.503  23.872  1.00  0.00    -0.027 C 
ATOM     22  C   UNL     1      14.786 -14.712  22.339  1.00  0.00    -0.023 C 
ATOM     23  C   UNL     1      16.868 -13.589  23.360  1.00  0.00     0.031 C 
ATOM     24  C   UNL     1      16.136 -14.924  23.086  1.00  0.00     0.002 C 
ATOM     25  C   UNL     1      15.093 -14.184  20.902  1.00  0.00     0.010 C 
ATOM     26  C   UNL     1      14.017 -16.063  22.206  1.00  0.00     0.012 C 
ATOM     27  C   UNL     1      17.078 -15.882  22.314  1.00  0.00     0.036 C 
ATOM     28  C   UNL     1      16.050 -15.092  20.100  1.00  0.00     0.032 C 
ATOM     29  C   UNL     1      17.343 -15.437  20.857  1.00  0.00     0.114 C 
BRANCH  29  30
ATOM     30  O   UNL     1      18.008 -16.461  20.166  1.00  0.00    -0.393 OA
ATOM     31  H   UNL     1      18.450 -16.041  19.381  1.00  0.00     0.210 HD
ENDBRANCH  29  30
ENDBRANCH   1  11
TORSDOF 6
ENDMDL
MODEL 3
REMARK VINA RESULT:    -6.255      2.459      4.875
REMARK INTER + INTRA:          -9.003
REMARK INTER:                  -8.041
REMARK INTRA:                  -0.963
REMARK UNBOUND:                -0.737
REMARK SMILES CC[C@@H](C=C[C@@H](C)[C@@H]1CC[C@H]2C3=CC[C@@H]4C[C@@H](O)CC[C@]4(C)[C@H]3CC[C@]21C)C(C)C
REMARK SMILES IDX 6 1 7 2 5 3 4 4 3 5 2 6 1 7 28 8 29 9 30 10 8 11 9 12 26 13
REMARK SMILES IDX 10 14 11 15 25 16 27 17 12 18 24 19 23 20 13 21 21 22 14 23
REMARK SMILES IDX 15 24 20 25 22 26 16 27 19 28 17 29 18 30
REMARK H PARENT 18 31
REMARK Flexibility Score: inf
ROOT
ATOM      1  C   UNL     1      12.182 -11.262  26.957  1.00  0.00     0.012 C 
ATOM      2  C   UNL     1      11.413 -12.078  28.016  1.00  0.00     0.012 C 
ENDROOT
BRANCH   1   3
ATOM      3  C   UNL     1      11.577  -9.883  26.740  1.00  0.00    -0.028 C 
ATOM      4  C   UNL     1      10.938  -9.178  27.694  1.00  0.00    -0.027 C 
BRANCH   4   5
ATOM      5  C   UNL     1      10.306  -7.821  27.446  1.00  0.00     0.014 C 
BRANCH   5   6
ATOM      6  C   UNL     1       8.766  -7.880  27.618  1.00  0.00     0.004 C 
ATOM      7  C   UNL     1       8.332  -8.531  28.933  1.00  0.00     0.004 C 
ENDBRANCH   5   6
BRANCH   5   8
ATOM      8  C   UNL     1      10.793  -7.152  26.120  1.00  0.00    -0.011 C 
ATOM      9  C   UNL     1      11.682  -5.914  26.320  1.00  0.00     0.008 C 
ATOM     10  C   UNL     1       9.608  -6.802  25.206  1.00  0.00     0.008 C 
ENDBRANCH   5   8
ENDBRANCH   4   5
ENDBRANCH   1   3
BRANCH   1  11
ATOM     11  C   UNL     1      12.422 -11.981  25.576  1.00  0.00     0.002 C 
ATOM     12  C   UNL     1      11.878 -13.414  25.568  1.00  0.00     0.005 C 
ATOM     13  C   UNL     1      13.901 -12.114  25.063  1.00  0.00    -0.023 C 
ATOM     14  C   UNL     1      13.077 -14.345  25.698  1.00  0.00     0.009 C 
ATOM     15  C   UNL     1      14.365 -13.492  25.618  1.00  0.00     0.021 C 
ATOM     16  C   UNL     1      13.895 -12.170  23.501  1.00  0.00     0.008 C 
ATOM     17  C   UNL     1      14.771 -10.908  25.517  1.00  0.00     0.012 C 
ATOM     18  C   UNL     1      15.458 -14.176  24.786  1.00  0.00    -0.067 C 
ATOM     19  C   UNL     1      15.213 -12.652  22.837  1.00  0.00     0.009 C 
ATOM     20  C   UNL     1      16.235 -13.336  23.789  1.00  0.00     0.021 C 
ATOM     21  C   UNL     1      15.661 -15.501  24.919  1.00  0.00    -0.027 C 
ATOM     22  C   UNL     1      17.451 -14.069  23.075  1.00  0.00    -0.023 C 
ATOM     23  C   UNL     1      16.640 -16.287  24.107  1.00  0.00     0.031 C 
ATOM     24  C   UNL     1      17.109 -15.568  22.821  1.00  0.00     0.002 C 
ATOM     25  C   UNL     1      18.714 -13.999  23.991  1.00  0.00     0.010 C 
ATOM     26  C   UNL     1      17.784 -13.349  21.732  1.00  0.00     0.012 C 
ATOM     27  C   UNL     1      18.307 -16.335  22.205  1.00  0.00     0.036 C 
ATOM     28  C   UNL     1      19.928 -14.771  23.434  1.00  0.00     0.032 C 
ATOM     29  C   UNL     1      19.601 -16.222  23.043  1.00  0.00     0.114 C 
BRANCH  29  30
ATOM     30  O   UNL     1      20.680 -16.744  22.313  1.00  0.00    -0.393 OA
ATOM     31  H   UNL     1      20.338 -17.534  21.817  1.00  0.00     0.210 HD
ENDBRANCH  29  30
ENDBRANCH   1  11
TORSDOF 6
ENDMDL
MODEL 4
REMARK VINA RESULT:    -6.186      3.691      7.415
REMARK INTER + INTRA:          -8.911
REMARK INTER:                  -8.137
REMARK INTRA:                  -0.775
REMARK UNBOUND:                -0.737
REMARK SMILES CC[C@@H](C=C[C@@H](C)[C@@H]1CC[C@H]2C3=CC[C@@H]4C[C@@H](O)CC[C@]4(C)[C@H]3CC[C@]21C)C(C)C
REMARK SMILES IDX 6 1 7 2 5 3 4 4 3 5 2 6 1 7 28 8 29 9 30 10 8 11 9 12 26 13
REMARK SMILES IDX 10 14 11 15 25 16 27 17 12 18 24 19 23 20 13 21 21 22 14 23
REMARK SMILES IDX 15 24 20 25 22 26 16 27 19 28 17 29 18 30
REMARK H PARENT 18 31
REMARK Flexibility Score: inf
ROOT
ATOM      1  C   UNL     1      15.040 -15.613  25.999  1.00  0.00     0.012 C 
ATOM      2  C   UNL     1      14.772 -17.124  25.831  1.00  0.00     0.012 C 
ENDROOT
BRANCH   1   3
ATOM      3  C   UNL     1      13.933 -14.761  25.399  1.00  0.00    -0.028 C 
ATOM      4  C   UNL     1      13.220 -13.849  26.090  1.00  0.00    -0.027 C 
BRANCH   4   5
ATOM      5  C   UNL     1      12.091 -13.037  25.482  1.00  0.00     0.014 C 
BRANCH   5   6
ATOM      6  C   UNL     1      11.861 -13.421  23.998  1.00  0.00     0.004 C 
ATOM      7  C   UNL     1      11.280 -12.277  23.164  1.00  0.00     0.004 C 
ENDBRANCH   5   6
BRANCH   5   8
ATOM      8  C   UNL     1      12.230 -11.503  25.749  1.00  0.00    -0.011 C 
ATOM      9  C   UNL     1      13.645 -10.944  25.529  1.00  0.00     0.008 C 
ATOM     10  C   UNL     1      11.737 -11.137  27.159  1.00  0.00     0.008 C 
ENDBRANCH   5   8
ENDBRANCH   4   5
ENDBRANCH   1   3
BRANCH   1  11
ATOM     11  C   UNL     1      16.450 -15.109  25.512  1.00  0.00     0.002 C 
ATOM     12  C   UNL     1      16.965 -13.932  26.348  1.00  0.00     0.005 C 
ATOM     13  C   UNL     1      16.584 -14.627  24.022  1.00  0.00    -0.023 C 
ATOM     14  C   UNL     1      16.776 -12.675  25.509  1.00  0.00     0.009 C 
ATOM     15  C   UNL     1      16.303 -13.098  24.099  1.00  0.00     0.021 C 
ATOM     16  C   UNL     1      18.056 -14.850  23.545  1.00  0.00     0.008 C 
ATOM     17  C   UNL     1      15.629 -15.414  23.082  1.00  0.00     0.012 C 
ATOM     18  C   UNL     1      16.973 -12.273  22.994  1.00  0.00    -0.067 C 
ATOM     19  C   UNL     1      18.461 -14.115  22.239  1.00  0.00     0.009 C 
ATOM     20  C   UNL     1      17.488 -12.999  21.765  1.00  0.00     0.021 C 
ATOM     21  C   UNL     1      17.138 -10.947  23.163  1.00  0.00    -0.027 C 
ATOM     22  C   UNL     1      18.031 -12.069  20.596  1.00  0.00    -0.023 C 
ATOM     23  C   UNL     1      17.845 -10.056  22.193  1.00  0.00     0.031 C 
ATOM     24  C   UNL     1      18.740 -10.814  21.183  1.00  0.00     0.002 C 
ATOM     25  C   UNL     1      16.836 -11.593  19.710  1.00  0.00     0.010 C 
ATOM     26  C   UNL     1      19.012 -12.879  19.692  1.00  0.00     0.012 C 
ATOM     27  C   UNL     1      19.204  -9.840  20.070  1.00  0.00     0.036 C 
ATOM     28  C   UNL     1      17.243 -10.600  18.601  1.00  0.00     0.032 C 
ATOM     29  C   UNL     1      18.063  -9.407  19.121  1.00  0.00     0.114 C 
BRANCH  29  30
ATOM     30  O   UNL     1      18.601  -8.720  18.022  1.00  0.00    -0.393 OA
ATOM     31  H   UNL     1      18.003  -7.946  17.845  1.00  0.00     0.210 HD
ENDBRANCH  29  30
ENDBRANCH   1  11
TORSDOF 6
ENDMDL
MODEL 5
REMARK VINA RESULT:    -6.052      3.791     10.769
REMARK INTER + INTRA:          -8.734
REMARK INTER:                  -7.697
REMARK INTRA:                  -1.037
REMARK UNBOUND:                -0.737
REMARK SMILES CC[C@@H](C=C[C@@H](C)[C@@H]1CC[C@H]2C3=CC[C@@H]4C[C@@H](O)CC[C@]4(C)[C@H]3CC[C@]21C)C(C)C
REMARK SMILES IDX 6 1 7 2 5 3 4 4 3 5 2 6 1 7 28 8 29 9 30 10 8 11 9 12 26 13
REMARK SMILES IDX 10 14 11 15 25 16 27 17 12 18 24 19 23 20 13 21 21 22 14 23
REMARK SMILES IDX 15 24 20 25 22 26 16 27 19 28 17 29 18 30
REMARK H PARENT 18 31
REMARK Flexibility Score: inf
ROOT
ATOM      1  C   UNL     1      15.505 -15.981  20.560  1.00  0.00     0.012 C 
ATOM      2  C   UNL     1      14.469 -17.124  20.616  1.00  0.00     0.012 C 
ENDROOT
BRANCH   1   3
ATOM      3  C   UNL     1      16.767 -16.383  19.812  1.00  0.00    -0.028 C 
ATOM      4  C   UNL     1      17.648 -15.507  19.288  1.00  0.00    -0.027 C 
BRANCH   4   5
ATOM      5  C   UNL     1      18.880 -15.929  18.510  1.00  0.00     0.014 C 
BRANCH   5   6
ATOM      6  C   UNL     1      20.177 -15.611  19.298  1.00  0.00     0.004 C 
ATOM      7  C   UNL     1      20.568 -16.717  20.281  1.00  0.00     0.004 C 
ENDBRANCH   5   6
BRANCH   5   8
ATOM      8  C   UNL     1      18.872 -15.422  17.031  1.00  0.00    -0.011 C 
ATOM      9  C   UNL     1      17.738 -14.438  16.701  1.00  0.00     0.008 C 
ATOM     10  C   UNL     1      18.847 -16.598  16.040  1.00  0.00     0.008 C 
ENDBRANCH   5   8
ENDBRANCH   4   5
ENDBRANCH   1   3
BRANCH   1  11
ATOM     11  C   UNL     1      15.870 -15.318  21.941  1.00  0.00     0.002 C 
ATOM     12  C   UNL     1      15.557 -16.238  23.126  1.00  0.00     0.005 C 
ATOM     13  C   UNL     1      15.185 -13.952  22.305  1.00  0.00    -0.023 C 
ATOM     14  C   UNL     1      14.283 -15.710  23.773  1.00  0.00     0.009 C 
ATOM     15  C   UNL     1      13.909 -14.374  23.090  1.00  0.00     0.021 C 
ATOM     16  C   UNL     1      16.127 -13.148  23.260  1.00  0.00     0.008 C 
ATOM     17  C   UNL     1      14.911 -13.097  21.036  1.00  0.00     0.012 C 
ATOM     18  C   UNL     1      13.410 -13.331  24.099  1.00  0.00    -0.067 C 
ATOM     19  C   UNL     1      15.475 -11.950  24.001  1.00  0.00     0.009 C 
ATOM     20  C   UNL     1      13.921 -11.908  23.974  1.00  0.00     0.021 C 
ATOM     21  C   UNL     1      12.585 -13.711  25.093  1.00  0.00    -0.027 C 
ATOM     22  C   UNL     1      13.248 -10.850  24.951  1.00  0.00    -0.023 C 
ATOM     23  C   UNL     1      12.098 -12.803  26.176  1.00  0.00     0.031 C 
ATOM     24  C   UNL     1      12.928 -11.506  26.327  1.00  0.00     0.002 C 
ATOM     25  C   UNL     1      11.913 -10.336  24.325  1.00  0.00     0.010 C 
ATOM     26  C   UNL     1      14.199  -9.626  25.137  1.00  0.00     0.012 C 
ATOM     27  C   UNL     1      12.190 -10.526  27.275  1.00  0.00     0.036 C 
ATOM     28  C   UNL     1      11.127  -9.376  25.243  1.00  0.00     0.032 C 
ATOM     29  C   UNL     1      10.902  -9.933  26.659  1.00  0.00     0.114 C 
BRANCH  29  30
ATOM     30  O   UNL     1      10.424  -8.897  27.477  1.00  0.00    -0.393 OA
ATOM     31  H   UNL     1       9.511  -8.672  27.155  1.00  0.00     0.210 HD
ENDBRANCH  29  30
ENDBRANCH   1  11
TORSDOF 6
ENDMDL
MODEL 6
REMARK VINA RESULT:    -6.026      1.981      4.539
REMARK INTER + INTRA:          -8.701
REMARK INTER:                  -8.276
REMARK INTRA:                  -0.424
REMARK UNBOUND:                -0.737
REMARK SMILES CC[C@@H](C=C[C@@H](C)[C@@H]1CC[C@H]2C3=CC[C@@H]4C[C@@H](O)CC[C@]4(C)[C@H]3CC[C@]21C)C(C)C
REMARK SMILES IDX 6 1 7 2 5 3 4 4 3 5 2 6 1 7 28 8 29 9 30 10 8 11 9 12 26 13
REMARK SMILES IDX 10 14 11 15 25 16 27 17 12 18 24 19 23 20 13 21 21 22 14 23
REMARK SMILES IDX 15 24 20 25 22 26 16 27 19 28 17 29 18 30
REMARK H PARENT 18 31
REMARK Flexibility Score: inf
ROOT
ATOM      1  C   UNL     1      11.554 -10.929  25.506  1.00  0.00     0.012 C 
ATOM      2  C   UNL     1      11.380 -10.405  24.065  1.00  0.00     0.012 C 
ENDROOT
BRANCH   1   3
ATOM      3  C   UNL     1      11.483  -9.814  26.538  1.00  0.00    -0.028 C 
ATOM      4  C   UNL     1      10.623  -8.778  26.476  1.00  0.00    -0.027 C 
BRANCH   4   5
ATOM      5  C   UNL     1      10.595  -7.654  27.494  1.00  0.00     0.014 C 
BRANCH   5   6
ATOM      6  C   UNL     1       9.433  -7.840  28.503  1.00  0.00     0.004 C 
ATOM      7  C   UNL     1       9.728  -8.895  29.572  1.00  0.00     0.004 C 
ENDBRANCH   5   6
BRANCH   5   8
ATOM      8  C   UNL     1      10.676  -6.236  26.841  1.00  0.00    -0.011 C 
ATOM      9  C   UNL     1       9.991  -6.127  25.469  1.00  0.00     0.008 C 
ATOM     10  C   UNL     1      12.132  -5.754  26.737  1.00  0.00     0.008 C 
ENDBRANCH   5   8
ENDBRANCH   4   5
ENDBRANCH   1   3
BRANCH   1  11
ATOM     11  C   UNL     1      12.819 -11.833  25.759  1.00  0.00     0.002 C 
ATOM     12  C   UNL     1      14.111 -11.013  25.840  1.00  0.00     0.005 C 
ATOM     13  C   UNL     1      13.131 -12.967  24.718  1.00  0.00    -0.023 C 
ATOM     14  C   UNL     1      14.847 -11.213  24.521  1.00  0.00     0.009 C 
ATOM     15  C   UNL     1      14.091 -12.285  23.700  1.00  0.00     0.021 C 
ATOM     16  C   UNL     1      13.896 -14.125  25.439  1.00  0.00     0.008 C 
ATOM     17  C   UNL     1      11.829 -13.542  24.093  1.00  0.00     0.012 C 
ATOM     18  C   UNL     1      15.050 -13.246  22.987  1.00  0.00    -0.067 C 
ATOM     19  C   UNL     1      14.593 -15.156  24.511  1.00  0.00     0.009 C 
ATOM     20  C   UNL     1      14.738 -14.731  23.023  1.00  0.00     0.021 C 
ATOM     21  C   UNL     1      16.161 -12.761  22.401  1.00  0.00    -0.027 C 
ATOM     22  C   UNL     1      15.684 -15.652  22.138  1.00  0.00    -0.023 C 
ATOM     23  C   UNL     1      17.205 -13.609  21.746  1.00  0.00     0.031 C 
ATOM     24  C   UNL     1      17.141 -15.102  22.146  1.00  0.00     0.002 C 
ATOM     25  C   UNL     1      15.169 -15.665  20.663  1.00  0.00     0.010 C 
ATOM     26  C   UNL     1      15.649 -17.115  22.677  1.00  0.00     0.012 C 
ATOM     27  C   UNL     1      18.073 -15.926  21.220  1.00  0.00     0.036 C 
ATOM     28  C   UNL     1      16.078 -16.451  19.696  1.00  0.00     0.032 C 
ATOM     29  C   UNL     1      17.555 -16.030  19.767  1.00  0.00     0.114 C 
BRANCH  29  30
ATOM     30  O   UNL     1      18.324 -16.968  19.061  1.00  0.00    -0.393 OA
ATOM     31  H   UNL     1      17.694 -17.650  18.706  1.00  0.00     0.210 HD
ENDBRANCH  29  30
ENDBRANCH   1  11
TORSDOF 6
ENDMDL
MODEL 7
REMARK VINA RESULT:    -5.766      4.835      8.425
REMARK INTER + INTRA:          -8.357
REMARK INTER:                  -7.600
REMARK INTRA:                  -0.756
REMARK UNBOUND:                -0.737
REMARK SMILES CC[C@@H](C=C[C@@H](C)[C@@H]1CC[C@H]2C3=CC[C@@H]4C[C@@H](O)CC[C@]4(C)[C@H]3CC[C@]21C)C(C)C
REMARK SMILES IDX 6 1 7 2 5 3 4 4 3 5 2 6 1 7 28 8 29 9 30 10 8 11 9 12 26 13
REMARK SMILES IDX 10 14 11 15 25 16 27 17 12 18 24 19 23 20 13 21 21 22 14 23
REMARK SMILES IDX 15 24 20 25 22 26 16 27 19 28 17 29 18 30
REMARK H PARENT 18 31
REMARK Flexibility Score: inf
ROOT
ATOM      1  C   UNL     1      15.004 -15.873  22.575  1.00  0.00     0.012 C 
ATOM      2  C   UNL     1      14.736 -16.808  21.377  1.00  0.00     0.012 C 
ENDROOT
BRANCH   1   3
ATOM      3  C   UNL     1      13.941 -14.794  22.713  1.00  0.00    -0.028 C 
ATOM      4  C   UNL     1      13.219 -14.580  23.831  1.00  0.00    -0.027 C 
BRANCH   4   5
ATOM      5  C   UNL     1      12.135 -13.524  23.935  1.00  0.00     0.014 C 
BRANCH   5   6
ATOM      6  C   UNL     1      12.079 -12.650  22.656  1.00  0.00     0.004 C 
ATOM      7  C   UNL     1      10.790 -11.833  22.542  1.00  0.00     0.004 C 
ENDBRANCH   5   6
BRANCH   5   8
ATOM      8  C   UNL     1      12.190 -12.722  25.276  1.00  0.00    -0.011 C 
ATOM      9  C   UNL     1      13.338 -11.703  25.362  1.00  0.00     0.008 C 
ATOM     10  C   UNL     1      12.240 -13.667  26.488  1.00  0.00     0.008 C 
ENDBRANCH   5   8
ENDBRANCH   4   5
ENDBRANCH   1   3
BRANCH   1  11
ATOM     11  C   UNL     1      16.444 -15.240  22.642  1.00  0.00     0.002 C 
ATOM     12  C   UNL     1      16.890 -14.963  24.083  1.00  0.00     0.005 C 
ATOM     13  C   UNL     1      16.688 -13.886  21.883  1.00  0.00    -0.023 C 
ATOM     14  C   UNL     1      16.759 -13.462  24.307  1.00  0.00     0.009 C 
ATOM     15  C   UNL     1      16.395 -12.799  22.958  1.00  0.00     0.021 C 
ATOM     16  C   UNL     1      18.194 -13.798  21.469  1.00  0.00     0.008 C 
ATOM     17  C   UNL     1      15.810 -13.784  20.604  1.00  0.00     0.012 C 
ATOM     18  C   UNL     1      17.144 -11.477  22.745  1.00  0.00    -0.067 C 
ATOM     19  C   UNL     1      18.692 -12.394  21.031  1.00  0.00     0.009 C 
ATOM     20  C   UNL     1      17.753 -11.207  21.382  1.00  0.00     0.021 C 
ATOM     21  C   UNL     1      17.289 -10.623  23.777  1.00  0.00    -0.027 C 
ATOM     22  C   UNL     1      18.379  -9.759  21.186  1.00  0.00    -0.023 C 
ATOM     23  C   UNL     1      18.064  -9.347  23.710  1.00  0.00     0.031 C 
ATOM     24  C   UNL     1      19.036  -9.265  22.509  1.00  0.00     0.002 C 
ATOM     25  C   UNL     1      17.251  -8.753  20.788  1.00  0.00     0.010 C 
ATOM     26  C   UNL     1      19.429  -9.791  20.032  1.00  0.00     0.012 C 
ATOM     27  C   UNL     1      19.578  -7.819  22.378  1.00  0.00     0.036 C 
ATOM     28  C   UNL     1      17.737  -7.293  20.671  1.00  0.00     0.032 C 
ATOM     29  C   UNL     1      18.510  -6.805  21.908  1.00  0.00     0.114 C 
BRANCH  29  30
ATOM     30  O   UNL     1      19.127  -5.583  21.599  1.00  0.00    -0.393 OA
ATOM     31  H   UNL     1      18.816  -5.324  20.691  1.00  0.00     0.210 HD
ENDBRANCH  29  30
ENDBRANCH   1  11
TORSDOF 6
ENDMDL
MODEL 8
REMARK VINA RESULT:    -5.699     11.767     14.277
REMARK INTER + INTRA:          -8.268
REMARK INTER:                  -7.887
REMARK INTRA:                  -0.381
REMARK UNBOUND:                -0.737
REMARK SMILES CC[C@@H](C=C[C@@H](C)[C@@H]1CC[C@H]2C3=CC[C@@H]4C[C@@H](O)CC[C@]4(C)[C@H]3CC[C@]21C)C(C)C
REMARK SMILES IDX 6 1 7 2 5 3 4 4 3 5 2 6 1 7 28 8 29 9 30 10 8 11 9 12 26 13
REMARK SMILES IDX 10 14 11 15 25 16 27 17 12 18 24 19 23 20 13 21 21 22 14 23
REMARK SMILES IDX 15 24 20 25 22 26 16 27 19 28 17 29 18 30
REMARK H PARENT 18 31
REMARK Flexibility Score: inf
ROOT
ATOM      1  C   UNL     1      20.900   1.110  29.925  1.00  0.00     0.012 C 
ATOM      2  C   UNL     1      21.120  -0.288  30.539  1.00  0.00     0.012 C 
ENDROOT
BRANCH   1   3
ATOM      3  C   UNL     1      20.086   2.018  30.835  1.00  0.00    -0.028 C 
ATOM      4  C   UNL     1      19.693   1.687  32.081  1.00  0.00    -0.027 C 
BRANCH   4   5
ATOM      5  C   UNL     1      18.848   2.591  32.958  1.00  0.00     0.014 C 
BRANCH   5   6
ATOM      6  C   UNL     1      19.564   2.903  34.296  1.00  0.00     0.004 C 
ATOM      7  C   UNL     1      20.904   2.180  34.443  1.00  0.00     0.004 C 
ENDBRANCH   5   6
BRANCH   5   8
ATOM      8  C   UNL     1      17.372   2.096  33.103  1.00  0.00    -0.011 C 
ATOM      9  C   UNL     1      17.233   0.612  33.478  1.00  0.00     0.008 C 
ATOM     10  C   UNL     1      16.559   2.392  31.832  1.00  0.00     0.008 C 
ENDBRANCH   5   8
ENDBRANCH   4   5
ENDBRANCH   1   3
BRANCH   1  11
ATOM     11  C   UNL     1      20.318   1.133  28.462  1.00  0.00     0.002 C 
ATOM     12  C   UNL     1      19.987   2.554  27.992  1.00  0.00     0.005 C 
ATOM     13  C   UNL     1      19.014   0.305  28.176  1.00  0.00    -0.023 C 
ATOM     14  C   UNL     1      18.473   2.703  28.065  1.00  0.00     0.009 C 
ATOM     15  C   UNL     1      17.865   1.325  28.417  1.00  0.00     0.021 C 
ATOM     16  C   UNL     1      19.004  -0.126  26.672  1.00  0.00     0.008 C 
ATOM     17  C   UNL     1      18.944  -0.970  29.062  1.00  0.00     0.012 C 
ATOM     18  C   UNL     1      16.584   1.040  27.622  1.00  0.00    -0.067 C 
ATOM     19  C   UNL     1      17.644  -0.638  26.126  1.00  0.00     0.009 C 
ATOM     20  C   UNL     1      16.405  -0.340  27.017  1.00  0.00     0.021 C 
ATOM     21  C   UNL     1      15.686   2.026  27.435  1.00  0.00    -0.027 C 
ATOM     22  C   UNL     1      14.994  -0.615  26.341  1.00  0.00    -0.023 C 
ATOM     23  C   UNL     1      14.444   1.888  26.614  1.00  0.00     0.031 C 
ATOM     24  C   UNL     1      14.459   0.676  25.652  1.00  0.00     0.002 C 
ATOM     25  C   UNL     1      13.967  -1.053  27.434  1.00  0.00     0.010 C 
ATOM     26  C   UNL     1      15.123  -1.774  25.304  1.00  0.00     0.012 C 
ATOM     27  C   UNL     1      13.043   0.468  25.058  1.00  0.00     0.036 C 
ATOM     28  C   UNL     1      12.534  -1.248  26.896  1.00  0.00     0.032 C 
ATOM     29  C   UNL     1      12.015  -0.044  26.092  1.00  0.00     0.114 C 
BRANCH  29  30
ATOM     30  O   UNL     1      10.833  -0.419  25.434  1.00  0.00    -0.393 OA
ATOM     31  H   UNL     1      10.925  -1.382  25.204  1.00  0.00     0.210 HD
ENDBRANCH  29  30
ENDBRANCH   1  11
TORSDOF 6
ENDMDL
MODEL 9
REMARK VINA RESULT:    -4.509     10.696     13.795
REMARK INTER + INTRA:          -6.696
REMARK INTER:                  -6.083
REMARK INTRA:                  -0.612
REMARK UNBOUND:                -0.737
REMARK SMILES CC[C@@H](C=C[C@@H](C)[C@@H]1CC[C@H]2C3=CC[C@@H]4C[C@@H](O)CC[C@]4(C)[C@H]3CC[C@]21C)C(C)C
REMARK SMILES IDX 6 1 7 2 5 3 4 4 3 5 2 6 1 7 28 8 29 9 30 10 8 11 9 12 26 13
REMARK SMILES IDX 10 14 11 15 25 16 27 17 12 18 24 19 23 20 13 21 21 22 14 23
REMARK SMILES IDX 15 24 20 25 22 26 16 27 19 28 17 29 18 30
REMARK H PARENT 18 31
REMARK Flexibility Score: inf
ROOT
ATOM      1  C   UNL     1      14.837  -0.162  23.817  1.00  0.00     0.012 C 
ATOM      2  C   UNL     1      14.024   1.115  23.518  1.00  0.00     0.012 C 
ENDROOT
BRANCH   1   3
ATOM      3  C   UNL     1      14.041  -1.177  24.624  1.00  0.00    -0.028 C 
ATOM      4  C   UNL     1      13.105  -0.852  25.538  1.00  0.00    -0.027 C 
BRANCH   4   5
ATOM      5  C   UNL     1      12.351  -1.879  26.362  1.00  0.00     0.014 C 
BRANCH   5   6
ATOM      6  C   UNL     1      12.886  -1.934  27.815  1.00  0.00     0.004 C 
ATOM      7  C   UNL     1      12.806  -0.587  28.537  1.00  0.00     0.004 C 
ENDBRANCH   5   6
BRANCH   5   8
ATOM      8  C   UNL     1      12.235  -3.266  25.651  1.00  0.00    -0.011 C 
ATOM      9  C   UNL     1      10.813  -3.634  25.198  1.00  0.00     0.008 C 
ATOM     10  C   UNL     1      12.810  -4.390  26.530  1.00  0.00     0.008 C 
ENDBRANCH   5   8
ENDBRANCH   4   5
ENDBRANCH   1   3
BRANCH   1  11
ATOM     11  C   UNL     1      16.256   0.063  24.462  1.00  0.00     0.002 C 
ATOM     12  C   UNL     1      16.995  -1.256  24.712  1.00  0.00     0.005 C 
ATOM     13  C   UNL     1      16.328   0.827  25.833  1.00  0.00    -0.023 C 
ATOM     14  C   UNL     1      16.908  -1.536  26.207  1.00  0.00     0.009 C 
ATOM     15  C   UNL     1      16.264  -0.309  26.895  1.00  0.00     0.021 C 
ATOM     16  C   UNL     1      17.711   1.548  25.943  1.00  0.00     0.008 C 
ATOM     17  C   UNL     1      15.199   1.888  25.953  1.00  0.00     0.012 C 
ATOM     18  C   UNL     1      16.946   0.028  28.227  1.00  0.00    -0.067 C 
ATOM     19  C   UNL     1      18.100   2.050  27.359  1.00  0.00     0.009 C 
ATOM     20  C   UNL     1      17.252   1.483  28.531  1.00  0.00     0.021 C 
ATOM     21  C   UNL     1      17.302  -0.968  29.061  1.00  0.00    -0.027 C 
ATOM     22  C   UNL     1      17.815   1.775  29.988  1.00  0.00    -0.023 C 
ATOM     23  C   UNL     1      18.040  -0.767  30.346  1.00  0.00     0.031 C 
ATOM     24  C   UNL     1      18.735   0.611  30.460  1.00  0.00     0.002 C 
ATOM     25  C   UNL     1      16.625   1.903  30.992  1.00  0.00     0.010 C 
ATOM     26  C   UNL     1      18.598   3.125  29.989  1.00  0.00     0.012 C 
ATOM     27  C   UNL     1      19.232   0.821  31.914  1.00  0.00     0.036 C 
ATOM     28  C   UNL     1      17.069   2.088  32.458  1.00  0.00     0.032 C 
ATOM     29  C   UNL     1      18.084   1.033  32.927  1.00  0.00     0.114 C 
BRANCH  29  30
ATOM     30  O   UNL     1      18.616   1.438  34.161  1.00  0.00    -0.393 OA
ATOM     31  H   UNL     1      18.910   2.381  34.053  1.00  0.00     0.210 HD
ENDBRANCH  29  30
ENDBRANCH   1  11
TORSDOF 6
ENDMDL
