MODEL 1
REMARK VINA RESULT:    -5.192      0.000      0.000
REMARK INTER + INTRA:          -8.251
REMARK INTER:                  -6.861
REMARK INTRA:                  -1.390
REMARK UNBOUND:                -1.390
REMARK SMILES CC[C@@H](C=C[C@@H](C)[C@@H]1CC[C@H]2[C@@H]3CC=C4C[C@@H](O)CC[C@@]4(C)[C@@H]3CC[C@@]21C)C(C)C
REMARK SMILES IDX 6 1 7 2 5 3 4 4 3 5 2 6 1 7 28 8 29 9 30 10 8 11 9 12 26 13
REMARK SMILES IDX 10 14 11 15 25 16 27 17 12 18 24 19 23 20 13 21 21 22 14 23
REMARK SMILES IDX 15 24 20 25 22 26 16 27 19 28 17 29 18 30
REMARK H PARENT 18 31
REMARK Flexibility Score: inf
ROOT
ATOM      1  C   UNL     1       1.852   3.812  -6.780  1.00  0.00     0.012 C 
ATOM      2  C   UNL     1       2.065   3.840  -8.306  1.00  0.00     0.012 C 
ENDROOT
BRANCH   1   3
ATOM      3  C   UNL     1       3.096   3.368  -6.029  1.00  0.00    -0.028 C 
ATOM      4  C   UNL     1       3.018   2.917  -4.765  1.00  0.00    -0.027 C 
BRANCH   4   5
ATOM      5  C   UNL     1       4.253   2.581  -3.952  1.00  0.00     0.014 C 
BRANCH   5   6
ATOM      6  C   UNL     1       5.492   2.599  -4.888  1.00  0.00     0.004 C 
ATOM      7  C   UNL     1       6.560   3.617  -4.489  1.00  0.00     0.004 C 
ENDBRANCH   5   6
BRANCH   5   8
ATOM      8  C   UNL     1       4.014   1.247  -3.162  1.00  0.00    -0.011 C 
ATOM      9  C   UNL     1       2.593   0.677  -3.322  1.00  0.00     0.008 C 
ATOM     10  C   UNL     1       5.070   0.169  -3.451  1.00  0.00     0.008 C 
ENDBRANCH   5   8
ENDBRANCH   4   5
ENDBRANCH   1   3
BRANCH   1  11
ATOM     11  C   UNL     1       0.541   3.072  -6.353  1.00  0.00     0.002 C 
ATOM     12  C   UNL     1      -0.256   2.603  -7.605  1.00  0.00     0.005 C 
ATOM     13  C   UNL     1      -0.524   3.784  -5.431  1.00  0.00    -0.026 C 
ATOM     14  C   UNL     1      -1.689   3.120  -7.467  1.00  0.00     0.005 C 
ATOM     15  C   UNL     1      -1.588   4.246  -6.451  1.00  0.00    -0.001 C 
ATOM     16  C   UNL     1      -0.097   5.009  -4.548  1.00  0.00     0.007 C 
ATOM     17  C   UNL     1      -1.082   2.682  -4.471  1.00  0.00     0.012 C 
ATOM     18  C   UNL     1      -2.907   4.703  -5.776  1.00  0.00     0.000 C 
ATOM     19  C   UNL     1      -1.137   6.160  -4.528  1.00  0.00     0.005 C 
ATOM     20  C   UNL     1      -2.625   5.679  -4.564  1.00  0.00     0.003 C 
ATOM     21  C   UNL     1      -3.881   5.296  -6.808  1.00  0.00     0.031 C 
ATOM     22  C   UNL     1      -3.669   6.867  -4.392  1.00  0.00    -0.008 C 
ATOM     23  C   UNL     1      -5.120   5.764  -6.109  1.00  0.00    -0.027 C 
ATOM     24  C   UNL     1      -5.049   6.427  -4.937  1.00  0.00    -0.065 C 
ATOM     25  C   UNL     1      -3.729   7.283  -2.874  1.00  0.00     0.014 C 
ATOM     26  C   UNL     1      -3.247   8.132  -5.188  1.00  0.00     0.016 C 
ATOM     27  C   UNL     1      -6.354   6.597  -4.172  1.00  0.00     0.063 C 
ATOM     28  C   UNL     1      -4.919   6.702  -2.120  1.00  0.00     0.033 C 
ATOM     29  C   UNL     1      -6.206   7.202  -2.775  1.00  0.00     0.118 C 
BRANCH  29  30
ATOM     30  O   UNL     1      -7.314   6.843  -1.991  1.00  0.00    -0.393 OA
ATOM     31  H   UNL     1      -7.008   6.140  -1.362  1.00  0.00     0.210 HD
ENDBRANCH  29  30
ENDBRANCH   1  11
TORSDOF 6
ENDMDL
MODEL 2
REMARK VINA RESULT:    -4.853      3.284      8.927
REMARK INTER + INTRA:          -7.803
REMARK INTER:                  -6.342
REMARK INTRA:                  -1.461
REMARK UNBOUND:                -1.390
REMARK SMILES CC[C@@H](C=C[C@@H](C)[C@@H]1CC[C@H]2[C@@H]3CC=C4C[C@@H](O)CC[C@@]4(C)[C@@H]3CC[C@@]21C)C(C)C
REMARK SMILES IDX 6 1 7 2 5 3 4 4 3 5 2 6 1 7 28 8 29 9 30 10 8 11 9 12 26 13
REMARK SMILES IDX 10 14 11 15 25 16 27 17 12 18 24 19 23 20 13 21 21 22 14 23
REMARK SMILES IDX 15 24 20 25 22 26 16 27 19 28 17 29 18 30
REMARK H PARENT 18 31
REMARK Flexibility Score: inf
ROOT
ATOM      1  C   UNL     1       0.312   2.635  -7.225  1.00  0.00     0.012 C 
ATOM      2  C   UNL     1       0.474   2.485  -8.750  1.00  0.00     0.012 C 
ENDROOT
BRANCH   1   3
ATOM      3  C   UNL     1      -1.143   2.745  -6.804  1.00  0.00    -0.028 C 
ATOM      4  C   UNL     1      -1.613   3.860  -6.219  1.00  0.00    -0.027 C 
BRANCH   4   5
ATOM      5  C   UNL     1      -3.028   3.953  -5.682  1.00  0.00     0.014 C 
BRANCH   5   6
ATOM      6  C   UNL     1      -3.973   4.407  -6.827  1.00  0.00     0.004 C 
ATOM      7  C   UNL     1      -3.365   5.455  -7.759  1.00  0.00     0.004 C 
ENDBRANCH   5   6
BRANCH   5   8
ATOM      8  C   UNL     1      -3.041   4.845  -4.391  1.00  0.00    -0.011 C 
ATOM      9  C   UNL     1      -1.872   5.843  -4.314  1.00  0.00     0.008 C 
ATOM     10  C   UNL     1      -4.382   5.557  -4.157  1.00  0.00     0.008 C 
ENDBRANCH   5   8
ENDBRANCH   4   5
ENDBRANCH   1   3
BRANCH   1  11
ATOM     11  C   UNL     1       1.247   3.728  -6.610  1.00  0.00     0.002 C 
ATOM     12  C   UNL     1       2.324   4.172  -7.642  1.00  0.00     0.005 C 
ATOM     13  C   UNL     1       2.046   3.452  -5.277  1.00  0.00    -0.026 C 
ATOM     14  C   UNL     1       3.694   4.047  -6.972  1.00  0.00     0.005 C 
ATOM     15  C   UNL     1       3.456   3.106  -5.802  1.00  0.00    -0.001 C 
ATOM     16  C   UNL     1       1.570   2.315  -4.305  1.00  0.00     0.007 C 
ATOM     17  C   UNL     1       2.040   4.794  -4.473  1.00  0.00     0.012 C 
ATOM     18  C   UNL     1       4.528   3.096  -4.681  1.00  0.00     0.000 C 
ATOM     19  C   UNL     1       2.729   1.469  -3.715  1.00  0.00     0.005 C 
ATOM     20  C   UNL     1       4.030   2.285  -3.417  1.00  0.00     0.003 C 
ATOM     21  C   UNL     1       5.882   2.601  -5.214  1.00  0.00     0.031 C 
ATOM     22  C   UNL     1       5.147   1.428  -2.677  1.00  0.00    -0.008 C 
ATOM     23  C   UNL     1       6.873   2.564  -4.092  1.00  0.00    -0.027 C 
ATOM     24  C   UNL     1       6.529   2.097  -2.875  1.00  0.00    -0.065 C 
ATOM     25  C   UNL     1       4.763   1.285  -1.157  1.00  0.00     0.014 C 
ATOM     26  C   UNL     1       5.253  -0.011  -3.252  1.00  0.00     0.016 C 
ATOM     27  C   UNL     1       7.506   2.372  -1.740  1.00  0.00     0.063 C 
ATOM     28  C   UNL     1       5.504   2.249  -0.238  1.00  0.00     0.033 C 
ATOM     29  C   UNL     1       7.004   1.978  -0.350  1.00  0.00     0.118 C 
BRANCH  29  30
ATOM     30  O   UNL     1       7.698   2.715   0.623  1.00  0.00    -0.393 OA
ATOM     31  H   UNL     1       8.273   3.363   0.140  1.00  0.00     0.210 HD
ENDBRANCH  29  30
ENDBRANCH   1  11
TORSDOF 6
ENDMDL
MODEL 3
REMARK VINA RESULT:    -4.753      1.788      3.619
REMARK INTER + INTRA:          -7.671
REMARK INTER:                  -5.748
REMARK INTRA:                  -1.923
REMARK UNBOUND:                -1.390
REMARK SMILES CC[C@@H](C=C[C@@H](C)[C@@H]1CC[C@H]2[C@@H]3CC=C4C[C@@H](O)CC[C@@]4(C)[C@@H]3CC[C@@]21C)C(C)C
REMARK SMILES IDX 6 1 7 2 5 3 4 4 3 5 2 6 1 7 28 8 29 9 30 10 8 11 9 12 26 13
REMARK SMILES IDX 10 14 11 15 25 16 27 17 12 18 24 19 23 20 13 21 21 22 14 23
REMARK SMILES IDX 15 24 20 25 22 26 16 27 19 28 17 29 18 30
REMARK H PARENT 18 31
REMARK Flexibility Score: inf
ROOT
ATOM      1  C   UNL     1      -0.146   2.659  -8.673  1.00  0.00     0.012 C 
ATOM      2  C   UNL     1      -0.581   1.503  -9.594  1.00  0.00     0.012 C 
ENDROOT
BRANCH   1   3
ATOM      3  C   UNL     1      -0.376   2.348  -7.203  1.00  0.00    -0.028 C 
ATOM      4  C   UNL     1       0.541   2.672  -6.275  1.00  0.00    -0.027 C 
BRANCH   4   5
ATOM      5  C   UNL     1       0.391   2.269  -4.821  1.00  0.00     0.014 C 
BRANCH   5   6
ATOM      6  C   UNL     1      -0.717   3.139  -4.168  1.00  0.00     0.004 C 
ATOM      7  C   UNL     1      -0.445   4.642  -4.229  1.00  0.00     0.004 C 
ENDBRANCH   5   6
BRANCH   5   8
ATOM      8  C   UNL     1       1.794   2.309  -4.119  1.00  0.00    -0.011 C 
ATOM      9  C   UNL     1       2.211   0.967  -3.491  1.00  0.00     0.008 C 
ATOM     10  C   UNL     1       2.910   2.861  -5.018  1.00  0.00     0.008 C 
ENDBRANCH   5   8
ENDBRANCH   4   5
ENDBRANCH   1   3
BRANCH   1  11
ATOM     11  C   UNL     1      -0.689   4.052  -9.132  1.00  0.00     0.002 C 
ATOM     12  C   UNL     1       0.401   5.150  -8.957  1.00  0.00     0.005 C 
ATOM     13  C   UNL     1      -1.994   4.663  -8.488  1.00  0.00    -0.026 C 
ATOM     14  C   UNL     1      -0.214   6.294  -8.148  1.00  0.00     0.005 C 
ATOM     15  C   UNL     1      -1.420   5.668  -7.465  1.00  0.00    -0.001 C 
ATOM     16  C   UNL     1      -3.018   3.723  -7.760  1.00  0.00     0.007 C 
ATOM     17  C   UNL     1      -2.758   5.388  -9.645  1.00  0.00     0.012 C 
ATOM     18  C   UNL     1      -2.494   6.638  -6.909  1.00  0.00     0.000 C 
ATOM     19  C   UNL     1      -3.582   4.312  -6.441  1.00  0.00     0.005 C 
ATOM     20  C   UNL     1      -3.800   5.861  -6.473  1.00  0.00     0.003 C 
ATOM     21  C   UNL     1      -1.917   7.518  -5.787  1.00  0.00     0.031 C 
ATOM     22  C   UNL     1      -4.516   6.417  -5.166  1.00  0.00    -0.008 C 
ATOM     23  C   UNL     1      -2.997   8.406  -5.250  1.00  0.00    -0.027 C 
ATOM     24  C   UNL     1      -4.241   7.935  -5.030  1.00  0.00    -0.065 C 
ATOM     25  C   UNL     1      -6.055   6.092  -5.245  1.00  0.00     0.014 C 
ATOM     26  C   UNL     1      -3.980   5.740  -3.875  1.00  0.00     0.016 C 
ATOM     27  C   UNL     1      -5.324   8.971  -4.768  1.00  0.00     0.063 C 
ATOM     28  C   UNL     1      -6.913   7.269  -5.695  1.00  0.00     0.033 C 
ATOM     29  C   UNL     1      -6.745   8.410  -4.692  1.00  0.00     0.118 C 
BRANCH  29  30
ATOM     30  O   UNL     1      -7.666   9.433  -4.970  1.00  0.00    -0.393 OA
ATOM     31  H   UNL     1      -7.692   9.538  -5.956  1.00  0.00     0.210 HD
ENDBRANCH  29  30
ENDBRANCH   1  11
TORSDOF 6
ENDMDL
MODEL 4
REMARK VINA RESULT:    -4.694      2.911      7.816
REMARK INTER + INTRA:          -7.594
REMARK INTER:                  -5.896
REMARK INTRA:                  -1.698
REMARK UNBOUND:                -1.390
REMARK SMILES CC[C@@H](C=C[C@@H](C)[C@@H]1CC[C@H]2[C@@H]3CC=C4C[C@@H](O)CC[C@@]4(C)[C@@H]3CC[C@@]21C)C(C)C
REMARK SMILES IDX 6 1 7 2 5 3 4 4 3 5 2 6 1 7 28 8 29 9 30 10 8 11 9 12 26 13
REMARK SMILES IDX 10 14 11 15 25 16 27 17 12 18 24 19 23 20 13 21 21 22 14 23
REMARK SMILES IDX 15 24 20 25 22 26 16 27 19 28 17 29 18 30
REMARK H PARENT 18 31
REMARK Flexibility Score: inf
ROOT
ATOM      1  C   UNL     1      -3.933   5.559  -8.945  1.00  0.00     0.012 C 
ATOM      2  C   UNL     1      -3.590   6.497 -10.119  1.00  0.00     0.012 C 
ENDROOT
BRANCH   1   3
ATOM      3  C   UNL     1      -3.877   6.266  -7.601  1.00  0.00    -0.028 C 
ATOM      4  C   UNL     1      -4.685   5.899  -6.592  1.00  0.00    -0.027 C 
BRANCH   4   5
ATOM      5  C   UNL     1      -4.735   6.662  -5.282  1.00  0.00     0.014 C 
BRANCH   5   6
ATOM      6  C   UNL     1      -3.415   6.411  -4.503  1.00  0.00     0.004 C 
ATOM      7  C   UNL     1      -3.197   4.952  -4.101  1.00  0.00     0.004 C 
ENDBRANCH   5   6
BRANCH   5   8
ATOM      8  C   UNL     1      -6.058   6.307  -4.518  1.00  0.00    -0.011 C 
ATOM      9  C   UNL     1      -6.129   6.892  -3.096  1.00  0.00     0.008 C 
ATOM     10  C   UNL     1      -7.330   6.645  -5.311  1.00  0.00     0.008 C 
ENDBRANCH   5   8
ENDBRANCH   4   5
ENDBRANCH   1   3
BRANCH   1  11
ATOM     11  C   UNL     1      -3.158   4.201  -8.994  1.00  0.00     0.002 C 
ATOM     12  C   UNL     1      -3.974   3.078  -8.290  1.00  0.00     0.005 C 
ATOM     13  C   UNL     1      -1.700   4.081  -8.401  1.00  0.00    -0.026 C 
ATOM     14  C   UNL     1      -3.063   2.416  -7.256  1.00  0.00     0.005 C 
ATOM     15  C   UNL     1      -1.955   3.431  -7.024  1.00  0.00    -0.001 C 
ATOM     16  C   UNL     1      -0.830   5.372  -8.203  1.00  0.00     0.007 C 
ATOM     17  C   UNL     1      -0.914   3.124  -9.357  1.00  0.00     0.012 C 
ATOM     18  C   UNL     1      -0.656   2.911  -6.356  1.00  0.00     0.000 C 
ATOM     19  C   UNL     1      -0.035   5.394  -6.871  1.00  0.00     0.005 C 
ATOM     20  C   UNL     1       0.496   3.993  -6.419  1.00  0.00     0.003 C 
ATOM     21  C   UNL     1      -0.929   2.411  -4.928  1.00  0.00     0.031 C 
ATOM     22  C   UNL     1       1.431   4.065  -5.135  1.00  0.00    -0.008 C 
ATOM     23  C   UNL     1       0.357   1.961  -4.305  1.00  0.00    -0.027 C 
ATOM     24  C   UNL     1       1.490   2.674  -4.458  1.00  0.00    -0.065 C 
ATOM     25  C   UNL     1       2.854   4.585  -5.563  1.00  0.00     0.014 C 
ATOM     26  C   UNL     1       0.889   5.063  -4.075  1.00  0.00     0.016 C 
ATOM     27  C   UNL     1       2.785   1.991  -4.042  1.00  0.00     0.063 C 
ATOM     28  C   UNL     1       3.892   3.481  -5.726  1.00  0.00     0.033 C 
ATOM     29  C   UNL     1       4.059   2.764  -4.386  1.00  0.00     0.118 C 
BRANCH  29  30
ATOM     30  O   UNL     1       5.143   1.872  -4.451  1.00  0.00    -0.393 OA
ATOM     31  H   UNL     1       5.310   1.690  -5.412  1.00  0.00     0.210 HD
ENDBRANCH  29  30
ENDBRANCH   1  11
TORSDOF 6
ENDMDL
MODEL 5
REMARK VINA RESULT:    -4.657      3.535      8.160
REMARK INTER + INTRA:          -7.544
REMARK INTER:                  -5.600
REMARK INTRA:                  -1.944
REMARK UNBOUND:                -1.390
REMARK SMILES CC[C@@H](C=C[C@@H](C)[C@@H]1CC[C@H]2[C@@H]3CC=C4C[C@@H](O)CC[C@@]4(C)[C@@H]3CC[C@@]21C)C(C)C
REMARK SMILES IDX 6 1 7 2 5 3 4 4 3 5 2 6 1 7 28 8 29 9 30 10 8 11 9 12 26 13
REMARK SMILES IDX 10 14 11 15 25 16 27 17 12 18 24 19 23 20 13 21 21 22 14 23
REMARK SMILES IDX 15 24 20 25 22 26 16 27 19 28 17 29 18 30
REMARK H PARENT 18 31
REMARK Flexibility Score: inf
ROOT
ATOM      1  C   UNL     1      -2.808   4.691  -6.168  1.00  0.00     0.012 C 
ATOM      2  C   UNL     1      -2.947   5.622  -7.389  1.00  0.00     0.012 C 
ENDROOT
BRANCH   1   3
ATOM      3  C   UNL     1      -2.429   5.444  -4.904  1.00  0.00    -0.028 C 
ATOM      4  C   UNL     1      -1.959   6.703  -4.963  1.00  0.00    -0.027 C 
BRANCH   4   5
ATOM      5  C   UNL     1      -1.463   7.434  -3.731  1.00  0.00     0.014 C 
BRANCH   5   6
ATOM      6  C   UNL     1      -2.374   8.665  -3.474  1.00  0.00     0.004 C 
ATOM      7  C   UNL     1      -3.283   8.522  -2.253  1.00  0.00     0.004 C 
ENDBRANCH   5   6
BRANCH   5   8
ATOM      8  C   UNL     1       0.069   7.739  -3.884  1.00  0.00    -0.011 C 
ATOM      9  C   UNL     1       0.971   6.513  -3.655  1.00  0.00     0.008 C 
ATOM     10  C   UNL     1       0.423   8.436  -5.206  1.00  0.00     0.008 C 
ENDBRANCH   5   8
ENDBRANCH   4   5
ENDBRANCH   1   3
BRANCH   1  11
ATOM     11  C   UNL     1      -1.933   3.426  -6.454  1.00  0.00     0.002 C 
ATOM     12  C   UNL     1      -1.895   2.494  -5.208  1.00  0.00     0.005 C 
ATOM     13  C   UNL     1      -0.428   3.569  -6.906  1.00  0.00    -0.026 C 
ATOM     14  C   UNL     1      -0.427   2.205  -4.885  1.00  0.00     0.005 C 
ATOM     15  C   UNL     1       0.339   3.314  -5.590  1.00  0.00    -0.001 C 
ATOM     16  C   UNL     1       0.072   4.917  -7.535  1.00  0.00     0.007 C 
ATOM     17  C   UNL     1      -0.173   2.436  -7.954  1.00  0.00     0.012 C 
ATOM     18  C   UNL     1       1.856   3.085  -5.814  1.00  0.00     0.000 C 
ATOM     19  C   UNL     1       1.473   5.360  -7.035  1.00  0.00     0.005 C 
ATOM     20  C   UNL     1       2.466   4.178  -6.781  1.00  0.00     0.003 C 
ATOM     21  C   UNL     1       2.605   2.986  -4.474  1.00  0.00     0.031 C 
ATOM     22  C   UNL     1       3.934   4.665  -6.414  1.00  0.00    -0.008 C 
ATOM     23  C   UNL     1       4.069   2.811  -4.737  1.00  0.00    -0.027 C 
ATOM     24  C   UNL     1       4.695   3.525  -5.694  1.00  0.00    -0.065 C 
ATOM     25  C   UNL     1       4.664   5.135  -7.728  1.00  0.00     0.014 C 
ATOM     26  C   UNL     1       3.921   5.882  -5.449  1.00  0.00     0.016 C 
ATOM     27  C   UNL     1       6.095   3.069  -6.077  1.00  0.00     0.063 C 
ATOM     28  C   UNL     1       5.617   4.098  -8.311  1.00  0.00     0.033 C 
ATOM     29  C   UNL     1       6.702   3.795  -7.278  1.00  0.00     0.118 C 
BRANCH  29  30
ATOM     30  O   UNL     1       7.701   2.992  -7.853  1.00  0.00    -0.393 OA
ATOM     31  H   UNL     1       8.079   2.435  -7.125  1.00  0.00     0.210 HD
ENDBRANCH  29  30
ENDBRANCH   1  11
TORSDOF 6
ENDMDL
MODEL 6
REMARK VINA RESULT:    -4.655      2.394      4.733
REMARK INTER + INTRA:          -7.541
REMARK INTER:                  -5.939
REMARK INTRA:                  -1.602
REMARK UNBOUND:                -1.390
REMARK SMILES CC[C@@H](C=C[C@@H](C)[C@@H]1CC[C@H]2[C@@H]3CC=C4C[C@@H](O)CC[C@@]4(C)[C@@H]3CC[C@@]21C)C(C)C
REMARK SMILES IDX 6 1 7 2 5 3 4 4 3 5 2 6 1 7 28 8 29 9 30 10 8 11 9 12 26 13
REMARK SMILES IDX 10 14 11 15 25 16 27 17 12 18 24 19 23 20 13 21 21 22 14 23
REMARK SMILES IDX 15 24 20 25 22 26 16 27 19 28 17 29 18 30
REMARK H PARENT 18 31
REMARK Flexibility Score: inf
ROOT
ATOM      1  C   UNL     1       5.694   4.670  -5.462  1.00  0.00     0.012 C 
ATOM      2  C   UNL     1       6.549   4.139  -6.629  1.00  0.00     0.012 C 
ENDROOT
BRANCH   1   3
ATOM      3  C   UNL     1       5.163   3.555  -4.576  1.00  0.00    -0.028 C 
ATOM      4  C   UNL     1       5.483   2.271  -4.814  1.00  0.00    -0.027 C 
BRANCH   4   5
ATOM      5  C   UNL     1       4.874   1.131  -4.021  1.00  0.00     0.014 C 
BRANCH   5   6
ATOM      6  C   UNL     1       3.638   1.660  -3.245  1.00  0.00     0.004 C 
ATOM      7  C   UNL     1       2.392   0.785  -3.387  1.00  0.00     0.004 C 
ENDBRANCH   5   6
BRANCH   5   8
ATOM      8  C   UNL     1       5.985   0.446  -3.150  1.00  0.00    -0.011 C 
ATOM      9  C   UNL     1       6.147   1.066  -1.751  1.00  0.00     0.008 C 
ATOM     10  C   UNL     1       5.831  -1.080  -3.055  1.00  0.00     0.008 C 
ENDBRANCH   5   8
ENDBRANCH   4   5
ENDBRANCH   1   3
BRANCH   1  11
ATOM     11  C   UNL     1       4.613   5.709  -5.911  1.00  0.00     0.002 C 
ATOM     12  C   UNL     1       4.332   6.733  -4.773  1.00  0.00     0.005 C 
ATOM     13  C   UNL     1       3.189   5.234  -6.397  1.00  0.00    -0.026 C 
ATOM     14  C   UNL     1       2.821   6.763  -4.535  1.00  0.00     0.005 C 
ATOM     15  C   UNL     1       2.317   5.464  -5.144  1.00  0.00    -0.001 C 
ATOM     16  C   UNL     1       2.987   3.760  -6.896  1.00  0.00     0.007 C 
ATOM     17  C   UNL     1       2.783   6.189  -7.568  1.00  0.00     0.012 C 
ATOM     18  C   UNL     1       0.799   5.373  -5.444  1.00  0.00     0.000 C 
ATOM     19  C   UNL     1       1.670   3.106  -6.402  1.00  0.00     0.005 C 
ATOM     20  C   UNL     1       0.460   4.093  -6.310  1.00  0.00     0.003 C 
ATOM     21  C   UNL     1      -0.027   5.455  -4.149  1.00  0.00     0.031 C 
ATOM     22  C   UNL     1      -0.909   3.370  -5.945  1.00  0.00    -0.008 C 
ATOM     23  C   UNL     1      -1.482   5.318  -4.480  1.00  0.00    -0.027 C 
ATOM     24  C   UNL     1      -1.908   4.407  -5.377  1.00  0.00    -0.065 C 
ATOM     25  C   UNL     1      -1.463   2.642  -7.227  1.00  0.00     0.014 C 
ATOM     26  C   UNL     1      -0.719   2.279  -4.856  1.00  0.00     0.016 C 
ATOM     27  C   UNL     1      -3.347   4.545  -5.855  1.00  0.00     0.063 C 
ATOM     28  C   UNL     1      -2.562   3.414  -7.949  1.00  0.00     0.033 C 
ATOM     29  C   UNL     1      -3.739   3.601  -6.993  1.00  0.00     0.118 C 
BRANCH  29  30
ATOM     30  O   UNL     1      -4.838   4.136  -7.685  1.00  0.00    -0.393 OA
ATOM     31  H   UNL     1      -5.559   4.278  -7.019  1.00  0.00     0.210 HD
ENDBRANCH  29  30
ENDBRANCH   1  11
TORSDOF 6
ENDMDL
MODEL 7
REMARK VINA RESULT:    -4.584      8.006     12.440
REMARK INTER + INTRA:          -7.448
REMARK INTER:                  -6.290
REMARK INTRA:                  -1.158
REMARK UNBOUND:                -1.390
REMARK SMILES CC[C@@H](C=C[C@@H](C)[C@@H]1CC[C@H]2[C@@H]3CC=C4C[C@@H](O)CC[C@@]4(C)[C@@H]3CC[C@@]21C)C(C)C
REMARK SMILES IDX 6 1 7 2 5 3 4 4 3 5 2 6 1 7 28 8 29 9 30 10 8 11 9 12 26 13
REMARK SMILES IDX 10 14 11 15 25 16 27 17 12 18 24 19 23 20 13 21 21 22 14 23
REMARK SMILES IDX 15 24 20 25 22 26 16 27 19 28 17 29 18 30
REMARK H PARENT 18 31
REMARK Flexibility Score: inf
ROOT
ATOM      1  C   UNL     1       7.393  -3.786  -0.356  1.00  0.00     0.012 C 
ATOM      2  C   UNL     1       7.466  -2.769   0.799  1.00  0.00     0.012 C 
ENDROOT
BRANCH   1   3
ATOM      3  C   UNL     1       6.579  -3.272  -1.532  1.00  0.00    -0.028 C 
ATOM      4  C   UNL     1       6.355  -1.957  -1.696  1.00  0.00    -0.027 C 
BRANCH   4   5
ATOM      5  C   UNL     1       5.449  -1.425  -2.790  1.00  0.00     0.014 C 
BRANCH   5   6
ATOM      6  C   UNL     1       6.207  -1.482  -4.144  1.00  0.00     0.004 C 
ATOM      7  C   UNL     1       7.227  -0.359  -4.335  1.00  0.00     0.004 C 
ENDBRANCH   5   6
BRANCH   5   8
ATOM      8  C   UNL     1       4.897  -0.016  -2.375  1.00  0.00    -0.011 C 
ATOM      9  C   UNL     1       3.571   0.357  -3.061  1.00  0.00     0.008 C 
ATOM     10  C   UNL     1       4.797   0.176  -0.854  1.00  0.00     0.008 C 
ENDBRANCH   5   8
ENDBRANCH   4   5
ENDBRANCH   1   3
BRANCH   1  11
ATOM     11  C   UNL     1       7.009  -5.228   0.114  1.00  0.00     0.002 C 
ATOM     12  C   UNL     1       7.200  -6.251  -1.043  1.00  0.00     0.005 C 
ATOM     13  C   UNL     1       5.575  -5.533   0.699  1.00  0.00    -0.026 C 
ATOM     14  C   UNL     1       5.893  -7.033  -1.196  1.00  0.00     0.005 C 
ATOM     15  C   UNL     1       4.851  -6.164  -0.511  1.00  0.00    -0.001 C 
ATOM     16  C   UNL     1       4.698  -4.360   1.264  1.00  0.00     0.007 C 
ATOM     17  C   UNL     1       5.781  -6.567   1.854  1.00  0.00     0.012 C 
ATOM     18  C   UNL     1       3.515  -6.846  -0.121  1.00  0.00     0.000 C 
ATOM     19  C   UNL     1       3.200  -4.452   0.870  1.00  0.00     0.005 C 
ATOM     20  C   UNL     1       2.642  -5.912   0.810  1.00  0.00     0.003 C 
ATOM     21  C   UNL     1       2.754  -7.326  -1.369  1.00  0.00     0.031 C 
ATOM     22  C   UNL     1       1.074  -5.970   0.552  1.00  0.00    -0.008 C 
ATOM     23  C   UNL     1       1.452  -7.937  -0.951  1.00  0.00    -0.027 C 
ATOM     24  C   UNL     1       0.690  -7.366   0.003  1.00  0.00    -0.065 C 
ATOM     25  C   UNL     1       0.319  -5.624   1.889  1.00  0.00     0.014 C 
ATOM     26  C   UNL     1       0.619  -4.926  -0.504  1.00  0.00     0.016 C 
ATOM     27  C   UNL     1      -0.451  -8.208   0.557  1.00  0.00     0.063 C 
ATOM     28  C   UNL     1      -0.195  -6.845   2.644  1.00  0.00     0.033 C 
ATOM     29  C   UNL     1      -1.184  -7.592   1.750  1.00  0.00     0.118 C 
BRANCH  29  30
ATOM     30  O   UNL     1      -1.818  -8.609   2.483  1.00  0.00    -0.393 OA
ATOM     31  H   UNL     1      -1.584  -9.469   2.048  1.00  0.00     0.210 HD
ENDBRANCH  29  30
ENDBRANCH   1  11
TORSDOF 6
ENDMDL
MODEL 8
REMARK VINA RESULT:    -4.520      3.235      8.416
REMARK INTER + INTRA:          -7.363
REMARK INTER:                  -6.055
REMARK INTRA:                  -1.308
REMARK UNBOUND:                -1.390
REMARK SMILES CC[C@@H](C=C[C@@H](C)[C@@H]1CC[C@H]2[C@@H]3CC=C4C[C@@H](O)CC[C@@]4(C)[C@@H]3CC[C@@]21C)C(C)C
REMARK SMILES IDX 6 1 7 2 5 3 4 4 3 5 2 6 1 7 28 8 29 9 30 10 8 11 9 12 26 13
REMARK SMILES IDX 10 14 11 15 25 16 27 17 12 18 24 19 23 20 13 21 21 22 14 23
REMARK SMILES IDX 15 24 20 25 22 26 16 27 19 28 17 29 18 30
REMARK H PARENT 18 31
REMARK Flexibility Score: inf
ROOT
ATOM      1  C   UNL     1      -6.813   6.175  -3.715  1.00  0.00     0.012 C 
ATOM      2  C   UNL     1      -8.222   5.654  -4.059  1.00  0.00     0.012 C 
ENDROOT
BRANCH   1   3
ATOM      3  C   UNL     1      -6.830   7.198  -2.592  1.00  0.00    -0.028 C 
ATOM      4  C   UNL     1      -5.994   7.090  -1.545  1.00  0.00    -0.027 C 
BRANCH   4   5
ATOM      5  C   UNL     1      -6.070   8.027  -0.355  1.00  0.00     0.014 C 
BRANCH   5   6
ATOM      6  C   UNL     1      -4.833   8.965  -0.371  1.00  0.00     0.004 C 
ATOM      7  C   UNL     1      -3.688   8.471  -1.256  1.00  0.00     0.004 C 
ENDBRANCH   5   6
BRANCH   5   8
ATOM      8  C   UNL     1      -6.277   7.191   0.957  1.00  0.00    -0.011 C 
ATOM      9  C   UNL     1      -6.392   5.676   0.716  1.00  0.00     0.008 C 
ATOM     10  C   UNL     1      -5.232   7.493   2.043  1.00  0.00     0.008 C 
ENDBRANCH   5   8
ENDBRANCH   4   5
ENDBRANCH   1   3
BRANCH   1  11
ATOM     11  C   UNL     1      -5.992   6.611  -4.974  1.00  0.00     0.002 C 
ATOM     12  C   UNL     1      -6.661   6.082  -6.275  1.00  0.00     0.005 C 
ATOM     13  C   UNL     1      -4.466   6.232  -5.114  1.00  0.00    -0.026 C 
ATOM     14  C   UNL     1      -5.596   5.331  -7.077  1.00  0.00     0.005 C 
ATOM     15  C   UNL     1      -4.513   5.012  -6.059  1.00  0.00    -0.001 C 
ATOM     16  C   UNL     1      -3.635   5.857  -3.836  1.00  0.00     0.007 C 
ATOM     17  C   UNL     1      -3.768   7.459  -5.788  1.00  0.00     0.012 C 
ATOM     18  C   UNL     1      -3.118   4.629  -6.616  1.00  0.00     0.000 C 
ATOM     19  C   UNL     1      -2.677   4.654  -4.043  1.00  0.00     0.005 C 
ATOM     20  C   UNL     1      -2.032   4.585  -5.466  1.00  0.00     0.003 C 
ATOM     21  C   UNL     1      -3.184   3.324  -7.426  1.00  0.00     0.031 C 
ATOM     22  C   UNL     1      -0.944   3.434  -5.603  1.00  0.00    -0.008 C 
ATOM     23  C   UNL     1      -1.810   2.969  -7.906  1.00  0.00    -0.027 C 
ATOM     24  C   UNL     1      -0.737   3.091  -7.099  1.00  0.00    -0.065 C 
ATOM     25  C   UNL     1       0.388   3.899  -4.905  1.00  0.00     0.014 C 
ATOM     26  C   UNL     1      -1.389   2.125  -4.895  1.00  0.00     0.016 C 
ATOM     27  C   UNL     1       0.629   2.988  -7.762  1.00  0.00     0.063 C 
ATOM     28  C   UNL     1       1.444   4.420  -5.873  1.00  0.00     0.033 C 
ATOM     29  C   UNL     1       1.813   3.299  -6.845  1.00  0.00     0.118 C 
BRANCH  29  30
ATOM     30  O   UNL     1       2.917   3.684  -7.623  1.00  0.00    -0.393 OA
ATOM     31  H   UNL     1       2.983   4.671  -7.565  1.00  0.00     0.210 HD
ENDBRANCH  29  30
ENDBRANCH   1  11
TORSDOF 6
ENDMDL
MODEL 9
REMARK VINA RESULT:    -4.458      1.880      3.570
REMARK INTER + INTRA:          -7.281
REMARK INTER:                  -5.056
REMARK INTRA:                  -2.225
REMARK UNBOUND:                -1.390
REMARK SMILES CC[C@@H](C=C[C@@H](C)[C@@H]1CC[C@H]2[C@@H]3CC=C4C[C@@H](O)CC[C@@]4(C)[C@@H]3CC[C@@]21C)C(C)C
REMARK SMILES IDX 6 1 7 2 5 3 4 4 3 5 2 6 1 7 28 8 29 9 30 10 8 11 9 12 26 13
REMARK SMILES IDX 10 14 11 15 25 16 27 17 12 18 24 19 23 20 13 21 21 22 14 23
REMARK SMILES IDX 15 24 20 25 22 26 16 27 19 28 17 29 18 30
REMARK H PARENT 18 31
REMARK Flexibility Score: inf
ROOT
ATOM      1  C   UNL     1       2.023   3.293  -6.407  1.00  0.00     0.012 C 
ATOM      2  C   UNL     1       2.764   3.291  -5.056  1.00  0.00     0.012 C 
ENDROOT
BRANCH   1   3
ATOM      3  C   UNL     1       2.113   4.634  -7.117  1.00  0.00    -0.028 C 
ATOM      4  C   UNL     1       2.241   5.777  -6.422  1.00  0.00    -0.027 C 
BRANCH   4   5
ATOM      5  C   UNL     1       2.213   7.135  -7.096  1.00  0.00     0.014 C 
BRANCH   5   6
ATOM      6  C   UNL     1       3.435   7.963  -6.613  1.00  0.00     0.004 C 
ATOM      7  C   UNL     1       4.172   7.349  -5.422  1.00  0.00     0.004 C 
ENDBRANCH   5   6
BRANCH   5   8
ATOM      8  C   UNL     1       0.809   7.800  -6.877  1.00  0.00    -0.011 C 
ATOM      9  C   UNL     1       0.868   9.326  -6.687  1.00  0.00     0.008 C 
ATOM     10  C   UNL     1      -0.219   7.425  -7.956  1.00  0.00     0.008 C 
ENDBRANCH   5   8
ENDBRANCH   4   5
ENDBRANCH   1   3
BRANCH   1  11
ATOM     11  C   UNL     1       0.577   2.703  -6.319  1.00  0.00     0.002 C 
ATOM     12  C   UNL     1      -0.010   2.476  -7.742  1.00  0.00     0.005 C 
ATOM     13  C   UNL     1      -0.558   3.460  -5.524  1.00  0.00    -0.026 C 
ATOM     14  C   UNL     1      -1.373   3.169  -7.803  1.00  0.00     0.005 C 
ATOM     15  C   UNL     1      -1.340   4.164  -6.654  1.00  0.00    -0.001 C 
ATOM     16  C   UNL     1      -0.170   4.520  -4.434  1.00  0.00     0.007 C 
ATOM     17  C   UNL     1      -1.417   2.356  -4.825  1.00  0.00     0.012 C 
ATOM     18  C   UNL     1      -2.704   4.729  -6.177  1.00  0.00     0.000 C 
ATOM     19  C   UNL     1      -1.053   5.796  -4.459  1.00  0.00     0.005 C 
ATOM     20  C   UNL     1      -2.551   5.532  -4.822  1.00  0.00     0.003 C 
ATOM     21  C   UNL     1      -3.381   5.551  -7.287  1.00  0.00     0.031 C 
ATOM     22  C   UNL     1      -3.462   6.829  -4.696  1.00  0.00    -0.008 C 
ATOM     23  C   UNL     1      -4.669   6.114  -6.770  1.00  0.00    -0.027 C 
ATOM     24  C   UNL     1      -4.752   6.641  -5.532  1.00  0.00    -0.065 C 
ATOM     25  C   UNL     1      -3.768   7.097  -3.175  1.00  0.00     0.014 C 
ATOM     26  C   UNL     1      -2.749   8.097  -5.240  1.00  0.00     0.016 C 
ATOM     27  C   UNL     1      -6.151   6.913  -5.000  1.00  0.00     0.063 C 
ATOM     28  C   UNL     1      -5.142   6.613  -2.726  1.00  0.00     0.033 C 
ATOM     29  C   UNL     1      -6.209   7.350  -3.536  1.00  0.00     0.118 C 
BRANCH  29  30
ATOM     30  O   UNL     1      -7.483   7.071  -3.015  1.00  0.00    -0.393 OA
ATOM     31  H   UNL     1      -8.008   7.911  -3.069  1.00  0.00     0.210 HD
ENDBRANCH  29  30
ENDBRANCH   1  11
TORSDOF 6
ENDMDL
