MODEL 1
REMARK VINA RESULT:    -3.814      0.000      0.000
REMARK INTER + INTRA:          -9.470
REMARK INTER:                  -6.936
REMARK INTRA:                  -2.534
REMARK UNBOUND:                -2.534
REMARK SMILES CCCCCCCCCCCCCCCC(=O)[O-]
REMARK SMILES IDX 9 1 10 2 11 3 12 4 13 5 14 6 15 7 16 8 17 9 18 10 8 11 7 12
REMARK SMILES IDX 6 13 5 14 4 15 3 16 2 17 1 18
REMARK H PARENT
REMARK Flexibility Score: inf
ROOT
ATOM      1  C   UNL     1       6.668 -17.771  25.340  1.00  0.00     0.000 C 
ENDROOT
BRANCH   1   2
ATOM      2  C   UNL     1       6.135 -17.403  23.946  1.00  0.00     0.000 C 
BRANCH   2   3
ATOM      3  C   UNL     1       6.750 -16.105  23.401  1.00  0.00     0.000 C 
BRANCH   3   4
ATOM      4  C   UNL     1       7.312 -16.316  21.990  1.00  0.00     0.000 C 
BRANCH   4   5
ATOM      5  C   UNL     1       7.324 -17.807  21.619  1.00  0.00     0.000 C 
BRANCH   5   6
ATOM      6  C   UNL     1       8.744 -18.393  21.565  1.00  0.00     0.006 C 
BRANCH   6   7
ATOM      7  C   UNL     1       8.802 -19.846  22.057  1.00  0.00     0.053 C 
BRANCH   7   8
ATOM      8  C   UNL     1       8.257 -20.771  21.015  1.00  0.00     0.041 C 
ATOM      9  O   UNL     1       7.436 -21.671  21.333  1.00  0.00    -0.550 OA
ATOM     10  O   UNL     1       8.690 -20.668  19.699  1.00  0.00    -0.550 OA
ENDBRANCH   7   8
ENDBRANCH   6   7
ENDBRANCH   5   6
ENDBRANCH   4   5
ENDBRANCH   3   4
ENDBRANCH   2   3
ENDBRANCH   1   2
BRANCH   1  11
ATOM     11  C   UNL     1       8.032 -17.132  25.642  1.00  0.00     0.000 C 
BRANCH  11  12
ATOM     12  C   UNL     1       9.174 -18.111  25.352  1.00  0.00    -0.000 C 
BRANCH  12  13
ATOM     13  C   UNL     1      10.355 -17.396  24.680  1.00  0.00    -0.000 C 
BRANCH  13  14
ATOM     14  C   UNL     1      10.338 -15.874  24.899  1.00  0.00    -0.000 C 
BRANCH  14  15
ATOM     15  C   UNL     1      10.364 -15.029  23.609  1.00  0.00    -0.000 C 
BRANCH  15  16
ATOM     16  C   UNL     1      11.121 -15.663  22.425  1.00  0.00    -0.000 C 
BRANCH  16  17
ATOM     17  C   UNL     1      12.443 -14.967  22.057  1.00  0.00    -0.003 C 
ATOM     18  C   UNL     1      13.588 -15.325  23.004  1.00  0.00     0.004 C 
ENDBRANCH  16  17
ENDBRANCH  15  16
ENDBRANCH  14  15
ENDBRANCH  13  14
ENDBRANCH  12  13
ENDBRANCH  11  12
ENDBRANCH   1  11
TORSDOF 14
ENDMDL
MODEL 2
REMARK VINA RESULT:    -3.802      3.304      5.404
REMARK INTER + INTRA:          -9.447
REMARK INTER:                  -6.957
REMARK INTRA:                  -2.490
REMARK UNBOUND:                -2.534
REMARK SMILES CCCCCCCCCCCCCCCC(=O)[O-]
REMARK SMILES IDX 9 1 10 2 11 3 12 4 13 5 14 6 15 7 16 8 17 9 18 10 8 11 7 12
REMARK SMILES IDX 6 13 5 14 4 15 3 16 2 17 1 18
REMARK H PARENT
REMARK Flexibility Score: inf
ROOT
ATOM      1  C   UNL     1       6.569 -20.647  21.490  1.00  0.00     0.000 C 
ENDROOT
BRANCH   1   2
ATOM      2  C   UNL     1       5.987 -19.926  22.717  1.00  0.00     0.000 C 
BRANCH   2   3
ATOM      3  C   UNL     1       6.967 -19.884  23.899  1.00  0.00     0.000 C 
BRANCH   3   4
ATOM      4  C   UNL     1       7.317 -18.437  24.270  1.00  0.00     0.000 C 
BRANCH   4   5
ATOM      5  C   UNL     1       6.325 -17.451  23.634  1.00  0.00     0.000 C 
BRANCH   5   6
ATOM      6  C   UNL     1       6.926 -16.050  23.437  1.00  0.00     0.006 C 
BRANCH   6   7
ATOM      7  C   UNL     1       8.447 -16.083  23.236  1.00  0.00     0.053 C 
BRANCH   7   8
ATOM      8  C   UNL     1       9.114 -15.097  24.142  1.00  0.00     0.041 C 
ATOM      9  O   UNL     1      10.058 -14.381  23.715  1.00  0.00    -0.550 OA
ATOM     10  O   UNL     1       8.723 -14.999  25.472  1.00  0.00    -0.550 OA
ENDBRANCH   7   8
ENDBRANCH   6   7
ENDBRANCH   5   6
ENDBRANCH   4   5
ENDBRANCH   3   4
ENDBRANCH   2   3
ENDBRANCH   1   2
BRANCH   1  11
ATOM     11  C   UNL     1       7.950 -21.262  21.763  1.00  0.00     0.000 C 
BRANCH  11  12
ATOM     12  C   UNL     1       9.009 -20.671  20.826  1.00  0.00    -0.000 C 
BRANCH  12  13
ATOM     13  C   UNL     1       9.372 -19.237  21.239  1.00  0.00    -0.000 C 
BRANCH  13  14
ATOM     14  C   UNL     1       9.414 -18.263  20.049  1.00  0.00    -0.000 C 
BRANCH  14  15
ATOM     15  C   UNL     1       8.094 -18.143  19.259  1.00  0.00    -0.000 C 
BRANCH  15  16
ATOM     16  C   UNL     1       7.037 -17.212  19.886  1.00  0.00    -0.000 C 
BRANCH  16  17
ATOM     17  C   UNL     1       7.281 -15.711  19.655  1.00  0.00    -0.003 C 
ATOM     18  C   UNL     1       6.071 -14.849  20.014  1.00  0.00     0.004 C 
ENDBRANCH  16  17
ENDBRANCH  15  16
ENDBRANCH  14  15
ENDBRANCH  13  14
ENDBRANCH  12  13
ENDBRANCH  11  12
ENDBRANCH   1  11
TORSDOF 14
ENDMDL
MODEL 3
REMARK VINA RESULT:    -3.787      3.093      5.223
REMARK INTER + INTRA:          -9.420
REMARK INTER:                  -7.092
REMARK INTRA:                  -2.328
REMARK UNBOUND:                -2.534
REMARK SMILES CCCCCCCCCCCCCCCC(=O)[O-]
REMARK SMILES IDX 9 1 10 2 11 3 12 4 13 5 14 6 15 7 16 8 17 9 18 10 8 11 7 12
REMARK SMILES IDX 6 13 5 14 4 15 3 16 2 17 1 18
REMARK H PARENT
REMARK Flexibility Score: inf
ROOT
ATOM      1  C   UNL     1       7.118 -20.384  22.830  1.00  0.00     0.000 C 
ENDROOT
BRANCH   1   2
ATOM      2  C   UNL     1       6.407 -19.104  23.299  1.00  0.00     0.000 C 
BRANCH   2   3
ATOM      3  C   UNL     1       6.922 -18.605  24.657  1.00  0.00     0.000 C 
BRANCH   3   4
ATOM      4  C   UNL     1       6.937 -17.072  24.707  1.00  0.00     0.000 C 
BRANCH   4   5
ATOM      5  C   UNL     1       6.700 -16.472  23.313  1.00  0.00     0.000 C 
BRANCH   5   6
ATOM      6  C   UNL     1       7.705 -15.362  22.966  1.00  0.00     0.006 C 
BRANCH   6   7
ATOM      7  C   UNL     1       8.388 -14.776  24.209  1.00  0.00     0.053 C 
BRANCH   7   8
ATOM      8  C   UNL     1       9.852 -15.087  24.194  1.00  0.00     0.041 C 
ATOM      9  O   UNL     1      10.592 -14.608  23.295  1.00  0.00    -0.550 OA
ATOM     10  O   UNL     1      10.390 -15.942  25.147  1.00  0.00    -0.550 OA
ENDBRANCH   7   8
ENDBRANCH   6   7
ENDBRANCH   5   6
ENDBRANCH   4   5
ENDBRANCH   3   4
ENDBRANCH   2   3
ENDBRANCH   1   2
BRANCH   1  11
ATOM     11  C   UNL     1       6.750 -20.772  21.390  1.00  0.00     0.000 C 
BRANCH  11  12
ATOM     12  C   UNL     1       7.601 -21.951  20.904  1.00  0.00    -0.000 C 
BRANCH  12  13
ATOM     13  C   UNL     1       8.659 -21.486  19.894  1.00  0.00    -0.000 C 
BRANCH  13  14
ATOM     14  C   UNL     1       8.489 -20.014  19.482  1.00  0.00    -0.000 C 
BRANCH  14  15
ATOM     15  C   UNL     1       9.659 -19.088  19.873  1.00  0.00    -0.000 C 
BRANCH  15  16
ATOM     16  C   UNL     1       9.322 -18.014  20.926  1.00  0.00    -0.000 C 
BRANCH  16  17
ATOM     17  C   UNL     1      10.040 -18.188  22.277  1.00  0.00    -0.003 C 
ATOM     18  C   UNL     1      10.708 -19.554  22.423  1.00  0.00     0.004 C 
ENDBRANCH  16  17
ENDBRANCH  15  16
ENDBRANCH  14  15
ENDBRANCH  13  14
ENDBRANCH  12  13
ENDBRANCH  11  12
ENDBRANCH   1  11
TORSDOF 14
ENDMDL
MODEL 4
REMARK VINA RESULT:    -3.784      1.928      3.144
REMARK INTER + INTRA:          -9.414
REMARK INTER:                  -6.807
REMARK INTRA:                  -2.607
REMARK UNBOUND:                -2.534
REMARK SMILES CCCCCCCCCCCCCCCC(=O)[O-]
REMARK SMILES IDX 9 1 10 2 11 3 12 4 13 5 14 6 15 7 16 8 17 9 18 10 8 11 7 12
REMARK SMILES IDX 6 13 5 14 4 15 3 16 2 17 1 18
REMARK H PARENT
REMARK Flexibility Score: inf
ROOT
ATOM      1  C   UNL     1       6.200 -17.509  24.006  1.00  0.00     0.000 C 
ENDROOT
BRANCH   1   2
ATOM      2  C   UNL     1       7.010 -18.593  24.735  1.00  0.00     0.000 C 
BRANCH   2   3
ATOM      3  C   UNL     1       7.013 -19.934  23.986  1.00  0.00     0.000 C 
BRANCH   3   4
ATOM      4  C   UNL     1       6.086 -19.881  22.765  1.00  0.00     0.000 C 
BRANCH   4   5
ATOM      5  C   UNL     1       6.850 -20.229  21.479  1.00  0.00     0.000 C 
BRANCH   5   6
ATOM      6  C   UNL     1       8.201 -20.907  21.756  1.00  0.00     0.006 C 
BRANCH   6   7
ATOM      7  C   UNL     1       9.250 -20.594  20.681  1.00  0.00     0.053 C 
BRANCH   7   8
ATOM      8  C   UNL     1      10.316 -21.644  20.673  1.00  0.00     0.041 C 
ATOM      9  O   UNL     1      10.137 -22.733  21.278  1.00  0.00    -0.550 OA
ATOM     10  O   UNL     1      11.526 -21.402  20.035  1.00  0.00    -0.550 OA
ENDBRANCH   7   8
ENDBRANCH   6   7
ENDBRANCH   5   6
ENDBRANCH   4   5
ENDBRANCH   3   4
ENDBRANCH   2   3
ENDBRANCH   1   2
BRANCH   1  11
ATOM     11  C   UNL     1       7.064 -16.315  23.572  1.00  0.00     0.000 C 
BRANCH  11  12
ATOM     12  C   UNL     1       7.131 -16.213  22.044  1.00  0.00    -0.000 C 
BRANCH  12  13
ATOM     13  C   UNL     1       8.346 -16.973  21.494  1.00  0.00    -0.000 C 
BRANCH  13  14
ATOM     14  C   UNL     1       9.672 -16.530  22.138  1.00  0.00    -0.000 C 
BRANCH  14  15
ATOM     15  C   UNL     1      10.630 -17.679  22.512  1.00  0.00    -0.000 C 
BRANCH  15  16
ATOM     16  C   UNL     1      10.427 -18.271  23.922  1.00  0.00    -0.000 C 
BRANCH  16  17
ATOM     17  C   UNL     1      11.105 -17.483  25.056  1.00  0.00    -0.003 C 
ATOM     18  C   UNL     1      10.104 -16.793  25.982  1.00  0.00     0.004 C 
ENDBRANCH  16  17
ENDBRANCH  15  16
ENDBRANCH  14  15
ENDBRANCH  13  14
ENDBRANCH  12  13
ENDBRANCH  11  12
ENDBRANCH   1  11
TORSDOF 14
ENDMDL
MODEL 5
REMARK VINA RESULT:    -3.769      3.323      5.690
REMARK INTER + INTRA:          -9.388
REMARK INTER:                  -7.420
REMARK INTRA:                  -1.969
REMARK UNBOUND:                -2.534
REMARK SMILES CCCCCCCCCCCCCCCC(=O)[O-]
REMARK SMILES IDX 9 1 10 2 11 3 12 4 13 5 14 6 15 7 16 8 17 9 18 10 8 11 7 12
REMARK SMILES IDX 6 13 5 14 4 15 3 16 2 17 1 18
REMARK H PARENT
REMARK Flexibility Score: inf
ROOT
ATOM      1  C   UNL     1       8.247 -19.890  22.470  1.00  0.00     0.000 C 
ENDROOT
BRANCH   1   2
ATOM      2  C   UNL     1       7.773 -18.981  23.615  1.00  0.00     0.000 C 
BRANCH   2   3
ATOM      3  C   UNL     1       6.363 -18.419  23.381  1.00  0.00     0.000 C 
BRANCH   3   4
ATOM      4  C   UNL     1       6.349 -16.893  23.534  1.00  0.00     0.000 C 
BRANCH   4   5
ATOM      5  C   UNL     1       7.682 -16.281  23.078  1.00  0.00     0.000 C 
BRANCH   5   6
ATOM      6  C   UNL     1       7.899 -14.860  23.620  1.00  0.00     0.006 C 
BRANCH   6   7
ATOM      7  C   UNL     1       9.196 -14.727  24.428  1.00  0.00     0.053 C 
BRANCH   7   8
ATOM      8  C   UNL     1       9.159 -15.625  25.624  1.00  0.00     0.041 C 
ATOM      9  O   UNL     1       8.129 -15.677  26.345  1.00  0.00    -0.550 OA
ATOM     10  O   UNL     1      10.279 -16.372  25.968  1.00  0.00    -0.550 OA
ENDBRANCH   7   8
ENDBRANCH   6   7
ENDBRANCH   5   6
ENDBRANCH   4   5
ENDBRANCH   3   4
ENDBRANCH   2   3
ENDBRANCH   1   2
BRANCH   1  11
ATOM     11  C   UNL     1       7.105 -20.711  21.853  1.00  0.00     0.000 C 
BRANCH  11  12
ATOM     12  C   UNL     1       7.653 -21.853  20.990  1.00  0.00    -0.000 C 
BRANCH  12  13
ATOM     13  C   UNL     1       8.921 -21.418  20.242  1.00  0.00    -0.000 C 
BRANCH  13  14
ATOM     14  C   UNL     1       8.670 -21.142  18.749  1.00  0.00    -0.000 C 
BRANCH  14  15
ATOM     15  C   UNL     1       8.551 -19.650  18.375  1.00  0.00    -0.000 C 
BRANCH  15  16
ATOM     16  C   UNL     1       9.269 -18.674  19.328  1.00  0.00    -0.000 C 
BRANCH  16  17
ATOM     17  C   UNL     1       8.544 -17.334  19.545  1.00  0.00    -0.003 C 
ATOM     18  C   UNL     1       7.045 -17.501  19.788  1.00  0.00     0.004 C 
ENDBRANCH  16  17
ENDBRANCH  15  16
ENDBRANCH  14  15
ENDBRANCH  13  14
ENDBRANCH  12  13
ENDBRANCH  11  12
ENDBRANCH   1  11
TORSDOF 14
ENDMDL
MODEL 6
REMARK VINA RESULT:    -3.743      1.950      2.936
REMARK INTER + INTRA:          -9.340
REMARK INTER:                  -7.248
REMARK INTRA:                  -2.092
REMARK UNBOUND:                -2.534
REMARK SMILES CCCCCCCCCCCCCCCC(=O)[O-]
REMARK SMILES IDX 9 1 10 2 11 3 12 4 13 5 14 6 15 7 16 8 17 9 18 10 8 11 7 12
REMARK SMILES IDX 6 13 5 14 4 15 3 16 2 17 1 18
REMARK H PARENT
REMARK Flexibility Score: inf
ROOT
ATOM      1  C   UNL     1       6.367 -16.300  23.500  1.00  0.00     0.000 C 
ENDROOT
BRANCH   1   2
ATOM      2  C   UNL     1       6.176 -17.751  23.971  1.00  0.00     0.000 C 
BRANCH   2   3
ATOM      3  C   UNL     1       7.271 -18.693  23.449  1.00  0.00     0.000 C 
BRANCH   3   4
ATOM      4  C   UNL     1       6.713 -20.102  23.210  1.00  0.00     0.000 C 
BRANCH   4   5
ATOM      5  C   UNL     1       6.625 -20.412  21.708  1.00  0.00     0.000 C 
BRANCH   5   6
ATOM      6  C   UNL     1       7.740 -19.734  20.896  1.00  0.00     0.006 C 
BRANCH   6   7
ATOM      7  C   UNL     1       8.561 -20.734  20.071  1.00  0.00     0.053 C 
BRANCH   7   8
ATOM      8  C   UNL     1       9.265 -21.699  20.972  1.00  0.00     0.041 C 
ATOM      9  O   UNL     1      10.215 -21.308  21.699  1.00  0.00    -0.550 OA
ATOM     10  O   UNL     1       8.901 -23.039  20.976  1.00  0.00    -0.550 OA
ENDBRANCH   7   8
ENDBRANCH   6   7
ENDBRANCH   5   6
ENDBRANCH   4   5
ENDBRANCH   3   4
ENDBRANCH   2   3
ENDBRANCH   1   2
BRANCH   1  11
ATOM     11  C   UNL     1       7.761 -16.049  22.906  1.00  0.00     0.000 C 
BRANCH  11  12
ATOM     12  C   UNL     1       8.319 -14.698  23.366  1.00  0.00    -0.000 C 
BRANCH  12  13
ATOM     13  C   UNL     1       9.579 -14.885  24.224  1.00  0.00    -0.000 C 
BRANCH  13  14
ATOM     14  C   UNL     1       9.292 -15.587  25.563  1.00  0.00    -0.000 C 
BRANCH  14  15
ATOM     15  C   UNL     1      10.344 -16.631  25.990  1.00  0.00    -0.000 C 
BRANCH  15  16
ATOM     16  C   UNL     1      10.101 -18.060  25.463  1.00  0.00    -0.000 C 
BRANCH  16  17
ATOM     17  C   UNL     1      11.149 -18.562  24.454  1.00  0.00    -0.003 C 
ATOM     18  C   UNL     1      10.848 -18.130  23.020  1.00  0.00     0.004 C 
ENDBRANCH  16  17
ENDBRANCH  15  16
ENDBRANCH  14  15
ENDBRANCH  13  14
ENDBRANCH  12  13
ENDBRANCH  11  12
ENDBRANCH   1  11
TORSDOF 14
ENDMDL
MODEL 7
REMARK VINA RESULT:    -3.743      2.523      4.020
REMARK INTER + INTRA:          -9.340
REMARK INTER:                  -6.764
REMARK INTRA:                  -2.576
REMARK UNBOUND:                -2.534
REMARK SMILES CCCCCCCCCCCCCCCC(=O)[O-]
REMARK SMILES IDX 9 1 10 2 11 3 12 4 13 5 14 6 15 7 16 8 17 9 18 10 8 11 7 12
REMARK SMILES IDX 6 13 5 14 4 15 3 16 2 17 1 18
REMARK H PARENT
REMARK Flexibility Score: inf
ROOT
ATOM      1  C   UNL     1       6.204 -19.990  22.687  1.00  0.00     0.000 C 
ENDROOT
BRANCH   1   2
ATOM      2  C   UNL     1       7.107 -20.585  21.595  1.00  0.00     0.000 C 
BRANCH   2   3
ATOM      3  C   UNL     1       7.603 -19.529  20.597  1.00  0.00     0.000 C 
BRANCH   3   4
ATOM      4  C   UNL     1       9.136 -19.504  20.543  1.00  0.00     0.000 C 
BRANCH   4   5
ATOM      5  C   UNL     1       9.739 -20.450  21.592  1.00  0.00     0.000 C 
BRANCH   5   6
ATOM      6  C   UNL     1      10.596 -19.712  22.633  1.00  0.00     0.006 C 
BRANCH   6   7
ATOM      7  C   UNL     1      10.771 -18.223  22.305  1.00  0.00     0.053 C 
BRANCH   7   8
ATOM      8  C   UNL     1      12.221 -17.896  22.129  1.00  0.00     0.041 C 
ATOM      9  O   UNL     1      12.805 -18.166  21.048  1.00  0.00    -0.550 OA
ATOM     10  O   UNL     1      12.938 -17.334  23.178  1.00  0.00    -0.550 OA
ENDBRANCH   7   8
ENDBRANCH   6   7
ENDBRANCH   5   6
ENDBRANCH   4   5
ENDBRANCH   3   4
ENDBRANCH   2   3
ENDBRANCH   1   2
BRANCH   1  11
ATOM     11  C   UNL     1       6.900 -19.912  24.054  1.00  0.00     0.000 C 
BRANCH  11  12
ATOM     12  C   UNL     1       7.554 -18.541  24.260  1.00  0.00    -0.000 C 
BRANCH  12  13
ATOM     13  C   UNL     1       6.693 -17.423  23.656  1.00  0.00    -0.000 C 
BRANCH  13  14
ATOM     14  C   UNL     1       7.494 -16.474  22.749  1.00  0.00    -0.000 C 
BRANCH  14  15
ATOM     15  C   UNL     1       7.638 -15.033  23.280  1.00  0.00    -0.000 C 
BRANCH  15  16
ATOM     16  C   UNL     1       8.474 -14.888  24.568  1.00  0.00    -0.000 C 
BRANCH  16  17
ATOM     17  C   UNL     1       9.938 -15.344  24.441  1.00  0.00    -0.003 C 
ATOM     18  C   UNL     1      10.348 -16.335  25.530  1.00  0.00     0.004 C 
ENDBRANCH  16  17
ENDBRANCH  15  16
ENDBRANCH  14  15
ENDBRANCH  13  14
ENDBRANCH  12  13
ENDBRANCH  11  12
ENDBRANCH   1  11
TORSDOF 14
ENDMDL
MODEL 8
REMARK VINA RESULT:    -3.723      3.249      5.543
REMARK INTER + INTRA:          -9.303
REMARK INTER:                  -6.755
REMARK INTRA:                  -2.548
REMARK UNBOUND:                -2.534
REMARK SMILES CCCCCCCCCCCCCCCC(=O)[O-]
REMARK SMILES IDX 9 1 10 2 11 3 12 4 13 5 14 6 15 7 16 8 17 9 18 10 8 11 7 12
REMARK SMILES IDX 6 13 5 14 4 15 3 16 2 17 1 18
REMARK H PARENT
REMARK Flexibility Score: inf
ROOT
ATOM      1  C   UNL     1      10.539 -16.871  25.710  1.00  0.00     0.000 C 
ENDROOT
BRANCH   1   2
ATOM      2  C   UNL     1      11.244 -17.966  24.894  1.00  0.00     0.000 C 
BRANCH   2   3
ATOM      3  C   UNL     1      10.283 -18.725  23.967  1.00  0.00     0.000 C 
BRANCH   3   4
ATOM      4  C   UNL     1      10.258 -18.095  22.569  1.00  0.00     0.000 C 
BRANCH   4   5
ATOM      5  C   UNL     1      11.612 -17.454  22.230  1.00  0.00     0.000 C 
BRANCH   5   6
ATOM      6  C   UNL     1      11.469 -16.042  21.639  1.00  0.00     0.006 C 
BRANCH   6   7
ATOM      7  C   UNL     1      11.857 -14.942  22.636  1.00  0.00     0.053 C 
BRANCH   7   8
ATOM      8  C   UNL     1      13.300 -14.582  22.478  1.00  0.00     0.041 C 
ATOM      9  O   UNL     1      13.625 -13.463  22.000  1.00  0.00    -0.550 OA
ATOM     10  O   UNL     1      14.287 -15.499  22.814  1.00  0.00    -0.550 OA
ENDBRANCH   7   8
ENDBRANCH   6   7
ENDBRANCH   5   6
ENDBRANCH   4   5
ENDBRANCH   3   4
ENDBRANCH   2   3
ENDBRANCH   1   2
BRANCH   1  11
ATOM     11  C   UNL     1       9.044 -17.155  25.917  1.00  0.00     0.000 C 
BRANCH  11  12
ATOM     12  C   UNL     1       8.224 -15.862  25.849  1.00  0.00    -0.000 C 
BRANCH  12  13
ATOM     13  C   UNL     1       8.827 -14.880  24.835  1.00  0.00    -0.000 C 
BRANCH  13  14
ATOM     14  C   UNL     1       8.265 -15.066  23.415  1.00  0.00    -0.000 C 
BRANCH  14  15
ATOM     15  C   UNL     1       6.864 -15.708  23.347  1.00  0.00    -0.000 C 
BRANCH  15  16
ATOM     16  C   UNL     1       6.804 -17.083  22.652  1.00  0.00    -0.000 C 
BRANCH  16  17
ATOM     17  C   UNL     1       6.331 -18.240  23.550  1.00  0.00    -0.003 C 
ATOM     18  C   UNL     1       6.703 -19.614  22.994  1.00  0.00     0.004 C 
ENDBRANCH  16  17
ENDBRANCH  15  16
ENDBRANCH  14  15
ENDBRANCH  13  14
ENDBRANCH  12  13
ENDBRANCH  11  12
ENDBRANCH   1  11
TORSDOF 14
ENDMDL
MODEL 9
REMARK VINA RESULT:    -3.716      2.615      4.706
REMARK INTER + INTRA:          -9.292
REMARK INTER:                  -7.013
REMARK INTRA:                  -2.279
REMARK UNBOUND:                -2.534
REMARK SMILES CCCCCCCCCCCCCCCC(=O)[O-]
REMARK SMILES IDX 9 1 10 2 11 3 12 4 13 5 14 6 15 7 16 8 17 9 18 10 8 11 7 12
REMARK SMILES IDX 6 13 5 14 4 15 3 16 2 17 1 18
REMARK H PARENT
REMARK Flexibility Score: inf
ROOT
ATOM      1  C   UNL     1       6.331 -16.980  23.639  1.00  0.00     0.000 C 
ENDROOT
BRANCH   1   2
ATOM      2  C   UNL     1       7.433 -16.203  22.902  1.00  0.00     0.000 C 
BRANCH   2   3
ATOM      3  C   UNL     1       7.657 -14.799  23.482  1.00  0.00     0.000 C 
BRANCH   3   4
ATOM      4  C   UNL     1       8.880 -14.778  24.408  1.00  0.00     0.000 C 
BRANCH   4   5
ATOM      5  C   UNL     1      10.136 -15.273  23.675  1.00  0.00     0.000 C 
BRANCH   5   6
ATOM      6  C   UNL     1      11.044 -16.132  24.568  1.00  0.00     0.006 C 
BRANCH   6   7
ATOM      7  C   UNL     1      10.287 -16.767  25.743  1.00  0.00     0.053 C 
BRANCH   7   8
ATOM      8  C   UNL     1      10.713 -18.189  25.929  1.00  0.00     0.041 C 
ATOM      9  O   UNL     1      10.995 -18.902  24.931  1.00  0.00    -0.550 OA
ATOM     10  O   UNL     1      10.755 -18.741  27.203  1.00  0.00    -0.550 OA
ENDBRANCH   7   8
ENDBRANCH   6   7
ENDBRANCH   5   6
ENDBRANCH   4   5
ENDBRANCH   3   4
ENDBRANCH   2   3
ENDBRANCH   1   2
BRANCH   1  11
ATOM     11  C   UNL     1       6.892 -17.942  24.698  1.00  0.00     0.000 C 
BRANCH  11  12
ATOM     12  C   UNL     1       7.537 -19.167  24.040  1.00  0.00    -0.000 C 
BRANCH  12  13
ATOM     13  C   UNL     1       6.513 -19.948  23.204  1.00  0.00    -0.000 C 
BRANCH  13  14
ATOM     14  C   UNL     1       7.081 -20.430  21.859  1.00  0.00    -0.000 C 
BRANCH  14  15
ATOM     15  C   UNL     1       7.197 -19.341  20.773  1.00  0.00    -0.000 C 
BRANCH  15  16
ATOM     16  C   UNL     1       8.599 -19.180  20.151  1.00  0.00    -0.000 C 
BRANCH  16  17
ATOM     17  C   UNL     1       9.606 -18.408  21.022  1.00  0.00    -0.003 C 
ATOM     18  C   UNL     1      10.731 -19.293  21.558  1.00  0.00     0.004 C 
ENDBRANCH  16  17
ENDBRANCH  15  16
ENDBRANCH  14  15
ENDBRANCH  13  14
ENDBRANCH  12  13
ENDBRANCH  11  12
ENDBRANCH   1  11
TORSDOF 14
ENDMDL
