MODEL 1
REMARK VINA RESULT:    -6.773      0.000      0.000
REMARK INTER + INTRA:          -8.578
REMARK INTER:                  -8.158
REMARK INTRA:                  -0.419
REMARK UNBOUND:                -0.419
REMARK SMILES O=c1c(O)c(-c2ccc(O)cc2O)oc2cc(O)cc(O)c12
REMARK SMILES IDX 5 1 3 2 2 3 1 4 22 5 20 6 19 7 17 8 16 9 15 10 14 11 6 12
REMARK SMILES IDX 8 13 7 14 9 15 11 16 12 17 10 18 13 20 4 22 21 24 18 26
REMARK H PARENT 10 19 13 21 4 23 21 25 18 27
REMARK Flexibility Score: inf
ROOT
ATOM      1  C   UNL     1      13.096  -8.362   1.907  1.00  0.00     0.184 A 
ATOM      2  C   UNL     1      13.908  -7.619   2.777  1.00  0.00     0.208 A 
ATOM      3  C   UNL     1      14.199  -6.282   2.462  1.00  0.00     0.238 A 
ATOM      4  O   UNL     1      14.987  -5.645   3.208  1.00  0.00    -0.285 OA
ATOM      5  C   UNL     1      13.627  -5.690   1.309  1.00  0.00     0.111 A 
ATOM      6  C   UNL     1      13.816  -4.330   0.916  1.00  0.00     0.134 A 
ATOM      7  C   UNL     1      13.288  -3.884  -0.302  1.00  0.00     0.093 A 
ATOM      8  C   UNL     1      12.522  -4.728  -1.108  1.00  0.00     0.123 A 
ATOM      9  C   UNL     1      12.286  -6.041  -0.706  1.00  0.00     0.094 A 
ATOM     10  C   UNL     1      12.832  -6.528   0.483  1.00  0.00     0.146 A 
ATOM     11  O   UNL     1      12.599  -7.791   0.816  1.00  0.00    -0.451 OA
ENDROOT
BRANCH   1  12
ATOM     12  C   UNL     1      12.758  -9.774   2.176  1.00  0.00     0.063 A 
ATOM     13  C   UNL     1      11.507 -11.398   3.483  1.00  0.00     0.047 A 
ATOM     14  C   UNL     1      11.853 -10.073   3.207  1.00  0.00     0.020 A 
ATOM     15  C   UNL     1      12.051 -12.440   2.724  1.00  0.00     0.119 A 
ATOM     16  C   UNL     1      12.935 -12.151   1.681  1.00  0.00     0.093 A 
ATOM     17  C   UNL     1      13.283 -10.823   1.392  1.00  0.00     0.130 A 
BRANCH  15  18
ATOM     18  O   UNL     1      11.716 -13.766   2.994  1.00  0.00    -0.508 OA
ATOM     19  H   UNL     1      11.086 -14.286   2.394  1.00  0.00     0.293 HD
ENDBRANCH  15  18
BRANCH  17  20
ATOM     20  O   UNL     1      14.128 -10.545   0.317  1.00  0.00    -0.507 OA
ATOM     21  H   UNL     1      13.829 -10.677  -0.642  1.00  0.00     0.293 HD
ENDBRANCH  17  20
ENDBRANCH   1  12
BRANCH   2  22
ATOM     22  O   UNL     1      14.401  -8.206   3.947  1.00  0.00    -0.502 OA
ATOM     23  H   UNL     1      13.927  -8.121   4.838  1.00  0.00     0.293 HD
ENDBRANCH   2  22
BRANCH   6  24
ATOM     24  O   UNL     1      14.489  -3.378   1.688  1.00  0.00    -0.507 OA
ATOM     25  H   UNL     1      14.558  -2.397   1.464  1.00  0.00     0.293 HD
ENDBRANCH   6  24
BRANCH   8  26
ATOM     26  O   UNL     1      11.986  -4.270  -2.309  1.00  0.00    -0.508 OA
ATOM     27  H   UNL     1      10.991  -4.116  -2.421  1.00  0.00     0.293 HD
ENDBRANCH   8  26
TORSDOF 6
ENDMDL
MODEL 2
REMARK VINA RESULT:    -6.426      1.618      6.572
REMARK INTER + INTRA:          -8.160
REMARK INTER:                  -7.725
REMARK INTRA:                  -0.435
REMARK UNBOUND:                -0.419
REMARK SMILES O=c1c(O)c(-c2ccc(O)cc2O)oc2cc(O)cc(O)c12
REMARK SMILES IDX 5 1 3 2 2 3 1 4 22 5 20 6 19 7 17 8 16 9 15 10 14 11 6 12
REMARK SMILES IDX 8 13 7 14 9 15 11 16 12 17 10 18 13 20 4 22 21 24 18 26
REMARK H PARENT 10 19 13 21 4 23 21 25 18 27
REMARK Flexibility Score: inf
ROOT
ATOM      1  C   UNL     1      12.940  -7.779   1.613  1.00  0.00     0.184 A 
ATOM      2  C   UNL     1      12.205  -8.219   2.725  1.00  0.00     0.208 A 
ATOM      3  C   UNL     1      12.087  -9.598   2.959  1.00  0.00     0.238 A 
ATOM      4  O   UNL     1      11.365  -9.987   3.915  1.00  0.00    -0.285 OA
ATOM      5  C   UNL     1      12.751 -10.517   2.109  1.00  0.00     0.111 A 
ATOM      6  C   UNL     1      12.737 -11.935   2.278  1.00  0.00     0.134 A 
ATOM      7  C   UNL     1      13.342 -12.750   1.313  1.00  0.00     0.093 A 
ATOM      8  C   UNL     1      14.016 -12.198   0.223  1.00  0.00     0.123 A 
ATOM      9  C   UNL     1      14.083 -10.814   0.079  1.00  0.00     0.094 A 
ATOM     10  C   UNL     1      13.455  -9.975   1.003  1.00  0.00     0.146 A 
ATOM     11  O   UNL     1      13.526  -8.662   0.815  1.00  0.00    -0.451 OA
ENDROOT
BRANCH   1  12
ATOM     12  C   UNL     1      13.098  -6.343   1.306  1.00  0.00     0.063 A 
ATOM     13  C   UNL     1      14.221  -4.234   1.755  1.00  0.00     0.047 A 
ATOM     14  C   UNL     1      14.042  -5.593   2.025  1.00  0.00     0.020 A 
ATOM     15  C   UNL     1      13.468  -3.611   0.754  1.00  0.00     0.119 A 
ATOM     16  C   UNL     1      12.542  -4.354   0.017  1.00  0.00     0.093 A 
ATOM     17  C   UNL     1      12.361  -5.721   0.276  1.00  0.00     0.130 A 
BRANCH  15  18
ATOM     18  O   UNL     1      13.636  -2.255   0.479  1.00  0.00    -0.508 OA
ATOM     19  H   UNL     1      13.663  -1.906  -0.471  1.00  0.00     0.293 HD
ENDBRANCH  15  18
BRANCH  17  20
ATOM     20  O   UNL     1      11.469  -6.463  -0.499  1.00  0.00    -0.507 OA
ATOM     21  H   UNL     1      11.046  -7.316  -0.154  1.00  0.00     0.293 HD
ENDBRANCH  17  20
ENDBRANCH   1  12
BRANCH   2  22
ATOM     22  O   UNL     1      11.620  -7.289   3.589  1.00  0.00    -0.502 OA
ATOM     23  H   UNL     1      10.740  -7.464   4.059  1.00  0.00     0.293 HD
ENDBRANCH   2  22
BRANCH   6  24
ATOM     24  O   UNL     1      12.168 -12.588   3.376  1.00  0.00    -0.507 OA
ATOM     25  H   UNL     1      12.677 -12.903   4.187  1.00  0.00     0.293 HD
ENDBRANCH   6  24
BRANCH   8  26
ATOM     26  O   UNL     1      14.630 -13.018  -0.722  1.00  0.00    -0.508 OA
ATOM     27  H   UNL     1      14.480 -14.019  -0.732  1.00  0.00     0.293 HD
ENDBRANCH   8  26
TORSDOF 6
ENDMDL
MODEL 3
REMARK VINA RESULT:    -6.037      1.648      6.869
REMARK INTER + INTRA:          -7.691
REMARK INTER:                  -7.288
REMARK INTRA:                  -0.403
REMARK UNBOUND:                -0.419
REMARK SMILES O=c1c(O)c(-c2ccc(O)cc2O)oc2cc(O)cc(O)c12
REMARK SMILES IDX 5 1 3 2 2 3 1 4 22 5 20 6 19 7 17 8 16 9 15 10 14 11 6 12
REMARK SMILES IDX 8 13 7 14 9 15 11 16 12 17 10 18 13 20 4 22 21 24 18 26
REMARK H PARENT 10 19 13 21 4 23 21 25 18 27
REMARK Flexibility Score: inf
ROOT
ATOM      1  C   UNL     1      13.237  -8.253   1.459  1.00  0.00     0.184 A 
ATOM      2  C   UNL     1      13.992  -9.132   0.667  1.00  0.00     0.208 A 
ATOM      3  C   UNL     1      13.882 -10.514   0.890  1.00  0.00     0.238 A 
ATOM      4  O   UNL     1      14.617 -11.291   0.227  1.00  0.00    -0.285 OA
ATOM      5  C   UNL     1      12.977 -11.000   1.866  1.00  0.00     0.111 A 
ATOM      6  C   UNL     1      12.752 -12.381   2.146  1.00  0.00     0.134 A 
ATOM      7  C   UNL     1      11.912 -12.742   3.207  1.00  0.00     0.093 A 
ATOM      8  C   UNL     1      11.238 -11.774   3.955  1.00  0.00     0.123 A 
ATOM      9  C   UNL     1      11.409 -10.425   3.653  1.00  0.00     0.094 A 
ATOM     10  C   UNL     1      12.271 -10.031   2.627  1.00  0.00     0.146 A 
ATOM     11  O   UNL     1      12.420  -8.734   2.388  1.00  0.00    -0.451 OA
ENDROOT
BRANCH   1  12
ATOM     12  C   UNL     1      13.311  -6.789   1.280  1.00  0.00     0.063 A 
ATOM     13  C   UNL     1      14.515  -4.709   1.653  1.00  0.00     0.047 A 
ATOM     14  C   UNL     1      14.411  -6.094   1.809  1.00  0.00     0.020 A 
ATOM     15  C   UNL     1      13.528  -4.004   0.954  1.00  0.00     0.119 A 
ATOM     16  C   UNL     1      12.443  -4.691   0.404  1.00  0.00     0.093 A 
ATOM     17  C   UNL     1      12.333  -6.082   0.550  1.00  0.00     0.130 A 
BRANCH  15  18
ATOM     18  O   UNL     1      13.621  -2.623   0.795  1.00  0.00    -0.508 OA
ATOM     19  H   UNL     1      12.832  -2.071   0.479  1.00  0.00     0.293 HD
ENDBRANCH  15  18
BRANCH  17  20
ATOM     20  O   UNL     1      11.270  -6.761  -0.045  1.00  0.00    -0.507 OA
ATOM     21  H   UNL     1      11.052  -6.650  -1.028  1.00  0.00     0.293 HD
ENDBRANCH  17  20
ENDBRANCH   1  12
BRANCH   2  22
ATOM     22  O   UNL     1      14.823  -8.629  -0.339  1.00  0.00    -0.502 OA
ATOM     23  H   UNL     1      15.444  -9.221  -0.876  1.00  0.00     0.293 HD
ENDBRANCH   2  22
BRANCH   6  24
ATOM     24  O   UNL     1      13.304 -13.432   1.406  1.00  0.00    -0.507 OA
ATOM     25  H   UNL     1      12.774 -14.110   0.882  1.00  0.00     0.293 HD
ENDBRANCH   6  24
BRANCH   8  26
ATOM     26  O   UNL     1      10.391 -12.143   4.997  1.00  0.00    -0.508 OA
ATOM     27  H   UNL     1       9.523 -11.652   5.174  1.00  0.00     0.293 HD
ENDBRANCH   8  26
TORSDOF 6
ENDMDL
MODEL 4
REMARK VINA RESULT:    -6.016      1.305      6.898
REMARK INTER + INTRA:          -7.666
REMARK INTER:                  -7.229
REMARK INTRA:                  -0.437
REMARK UNBOUND:                -0.419
REMARK SMILES O=c1c(O)c(-c2ccc(O)cc2O)oc2cc(O)cc(O)c12
REMARK SMILES IDX 5 1 3 2 2 3 1 4 22 5 20 6 19 7 17 8 16 9 15 10 14 11 6 12
REMARK SMILES IDX 8 13 7 14 9 15 11 16 12 17 10 18 13 20 4 22 21 24 18 26
REMARK H PARENT 10 19 13 21 4 23 21 25 18 27
REMARK Flexibility Score: inf
ROOT
ATOM      1  C   UNL     1      13.158  -8.406   1.337  1.00  0.00     0.184 A 
ATOM      2  C   UNL     1      13.888  -9.368   0.622  1.00  0.00     0.208 A 
ATOM      3  C   UNL     1      13.756 -10.721   0.973  1.00  0.00     0.238 A 
ATOM      4  O   UNL     1      14.470 -11.569   0.378  1.00  0.00    -0.285 OA
ATOM      5  C   UNL     1      12.854 -11.098   1.997  1.00  0.00     0.111 A 
ATOM      6  C   UNL     1      12.607 -12.444   2.406  1.00  0.00     0.134 A 
ATOM      7  C   UNL     1      11.771 -12.690   3.503  1.00  0.00     0.093 A 
ATOM      8  C   UNL     1      11.123 -11.644   4.165  1.00  0.00     0.123 A 
ATOM      9  C   UNL     1      11.315 -10.332   3.738  1.00  0.00     0.094 A 
ATOM     10  C   UNL     1      12.173 -10.051   2.672  1.00  0.00     0.146 A 
ATOM     11  O   UNL     1      12.342  -8.784   2.314  1.00  0.00    -0.451 OA
ENDROOT
BRANCH   1  12
ATOM     12  C   UNL     1      13.256  -6.966   1.024  1.00  0.00     0.063 A 
ATOM     13  C   UNL     1      12.630  -5.104  -0.411  1.00  0.00     0.047 A 
ATOM     14  C   UNL     1      12.563  -6.463  -0.089  1.00  0.00     0.020 A 
ATOM     15  C   UNL     1      13.378  -4.230   0.386  1.00  0.00     0.119 A 
ATOM     16  C   UNL     1      14.051  -4.717   1.509  1.00  0.00     0.093 A 
ATOM     17  C   UNL     1      13.985  -6.078   1.843  1.00  0.00     0.130 A 
BRANCH  15  18
ATOM     18  O   UNL     1      13.454  -2.874   0.072  1.00  0.00    -0.508 OA
ATOM     19  H   UNL     1      13.937  -2.548  -0.756  1.00  0.00     0.293 HD
ENDBRANCH  15  18
BRANCH  17  20
ATOM     20  O   UNL     1      14.621  -6.543   2.994  1.00  0.00    -0.507 OA
ATOM     21  H   UNL     1      14.138  -6.599   3.882  1.00  0.00     0.293 HD
ENDBRANCH  17  20
ENDBRANCH   1  12
BRANCH   2  22
ATOM     22  O   UNL     1      14.717  -8.975  -0.432  1.00  0.00    -0.502 OA
ATOM     23  H   UNL     1      15.565  -9.474  -0.671  1.00  0.00     0.293 HD
ENDBRANCH   2  22
BRANCH   6  24
ATOM     24  O   UNL     1      13.132 -13.568   1.762  1.00  0.00    -0.507 OA
ATOM     25  H   UNL     1      12.827 -14.516   1.914  1.00  0.00     0.293 HD
ENDBRANCH   6  24
BRANCH   8  26
ATOM     26  O   UNL     1      10.281 -11.900   5.244  1.00  0.00    -0.508 OA
ATOM     27  H   UNL     1      10.541 -11.651   6.190  1.00  0.00     0.293 HD
ENDBRANCH   8  26
TORSDOF 6
ENDMDL
MODEL 5
REMARK VINA RESULT:    -5.980      1.843      2.089
REMARK INTER + INTRA:          -7.623
REMARK INTER:                  -7.461
REMARK INTRA:                  -0.162
REMARK UNBOUND:                -0.419
REMARK SMILES O=c1c(O)c(-c2ccc(O)cc2O)oc2cc(O)cc(O)c12
REMARK SMILES IDX 5 1 3 2 2 3 1 4 22 5 20 6 19 7 17 8 16 9 15 10 14 11 6 12
REMARK SMILES IDX 8 13 7 14 9 15 11 16 12 17 10 18 13 20 4 22 21 24 18 26
REMARK H PARENT 10 19 13 21 4 23 21 25 18 27
REMARK Flexibility Score: inf
ROOT
ATOM      1  C   UNL     1      12.692  -9.155   2.372  1.00  0.00     0.184 A 
ATOM      2  C   UNL     1      13.937  -8.900   1.776  1.00  0.00     0.208 A 
ATOM      3  C   UNL     1      14.185  -7.629   1.235  1.00  0.00     0.238 A 
ATOM      4  O   UNL     1      15.275  -7.431   0.636  1.00  0.00    -0.285 OA
ATOM      5  C   UNL     1      13.205  -6.612   1.347  1.00  0.00     0.111 A 
ATOM      6  C   UNL     1      13.365  -5.274   0.874  1.00  0.00     0.134 A 
ATOM      7  C   UNL     1      12.287  -4.383   0.944  1.00  0.00     0.093 A 
ATOM      8  C   UNL     1      11.076  -4.761   1.529  1.00  0.00     0.123 A 
ATOM      9  C   UNL     1      10.928  -6.048   2.042  1.00  0.00     0.094 A 
ATOM     10  C   UNL     1      11.972  -6.972   1.952  1.00  0.00     0.146 A 
ATOM     11  O   UNL     1      11.779  -8.193   2.435  1.00  0.00    -0.451 OA
ENDROOT
BRANCH   1  12
ATOM     12  C   UNL     1      12.364 -10.472   2.953  1.00  0.00     0.063 A 
ATOM     13  C   UNL     1      11.645 -11.772   4.878  1.00  0.00     0.047 A 
ATOM     14  C   UNL     1      11.967 -10.542   4.298  1.00  0.00     0.020 A 
ATOM     15  C   UNL     1      11.701 -12.945   4.116  1.00  0.00     0.119 A 
ATOM     16  C   UNL     1      12.072 -12.882   2.770  1.00  0.00     0.093 A 
ATOM     17  C   UNL     1      12.392 -11.651   2.178  1.00  0.00     0.130 A 
BRANCH  15  18
ATOM     18  O   UNL     1      11.385 -14.177   4.686  1.00  0.00    -0.508 OA
ATOM     19  H   UNL     1      11.923 -15.010   4.480  1.00  0.00     0.293 HD
ENDBRANCH  15  18
BRANCH  17  20
ATOM     20  O   UNL     1      12.713 -11.595   0.822  1.00  0.00    -0.507 OA
ATOM     21  H   UNL     1      11.997 -11.596   0.105  1.00  0.00     0.293 HD
ENDBRANCH  17  20
ENDBRANCH   1  12
BRANCH   2  22
ATOM     22  O   UNL     1      14.914  -9.900   1.743  1.00  0.00    -0.502 OA
ATOM     23  H   UNL     1      15.536 -10.024   0.954  1.00  0.00     0.293 HD
ENDBRANCH   2  22
BRANCH   6  24
ATOM     24  O   UNL     1      14.559  -4.765   0.353  1.00  0.00    -0.507 OA
ATOM     25  H   UNL     1      14.756  -3.787   0.211  1.00  0.00     0.293 HD
ENDBRANCH   6  24
BRANCH   8  26
ATOM     26  O   UNL     1      10.015  -3.863   1.610  1.00  0.00    -0.508 OA
ATOM     27  H   UNL     1       9.512  -3.714   2.476  1.00  0.00     0.293 HD
ENDBRANCH   8  26
TORSDOF 6
ENDMDL
MODEL 6
REMARK VINA RESULT:    -5.943     11.867     13.817
REMARK INTER + INTRA:          -7.578
REMARK INTER:                  -7.350
REMARK INTRA:                  -0.229
REMARK UNBOUND:                -0.419
REMARK SMILES O=c1c(O)c(-c2ccc(O)cc2O)oc2cc(O)cc(O)c12
REMARK SMILES IDX 5 1 3 2 2 3 1 4 22 5 20 6 19 7 17 8 16 9 15 10 14 11 6 12
REMARK SMILES IDX 8 13 7 14 9 15 11 16 12 17 10 18 13 20 4 22 21 24 18 26
REMARK H PARENT 10 19 13 21 4 23 21 25 18 27
REMARK Flexibility Score: inf
ROOT
ATOM      1  C   UNL     1      22.375 -12.723  -5.836  1.00  0.00     0.184 A 
ATOM      2  C   UNL     1      22.760 -11.926  -6.926  1.00  0.00     0.208 A 
ATOM      3  C   UNL     1      22.249 -12.223  -8.199  1.00  0.00     0.238 A 
ATOM      4  O   UNL     1      22.656 -11.551  -9.183  1.00  0.00    -0.285 OA
ATOM      5  C   UNL     1      21.316 -13.277  -8.356  1.00  0.00     0.111 A 
ATOM      6  C   UNL     1      20.699 -13.638  -9.592  1.00  0.00     0.134 A 
ATOM      7  C   UNL     1      19.873 -14.767  -9.647  1.00  0.00     0.093 A 
ATOM      8  C   UNL     1      19.589 -15.510  -8.499  1.00  0.00     0.123 A 
ATOM      9  C   UNL     1      20.142 -15.133  -7.278  1.00  0.00     0.094 A 
ATOM     10  C   UNL     1      21.002 -14.035  -7.197  1.00  0.00     0.146 A 
ATOM     11  O   UNL     1      21.524 -13.725  -6.017  1.00  0.00    -0.451 OA
ENDROOT
BRANCH   1  12
ATOM     12  C   UNL     1      22.882 -12.470  -4.472  1.00  0.00     0.063 A 
ATOM     13  C   UNL     1      24.779 -12.114  -2.994  1.00  0.00     0.047 A 
ATOM     14  C   UNL     1      24.267 -12.359  -4.271  1.00  0.00     0.020 A 
ATOM     15  C   UNL     1      23.912 -11.962  -1.905  1.00  0.00     0.119 A 
ATOM     16  C   UNL     1      22.531 -12.047  -2.101  1.00  0.00     0.093 A 
ATOM     17  C   UNL     1      22.008 -12.286  -3.380  1.00  0.00     0.130 A 
BRANCH  15  18
ATOM     18  O   UNL     1      24.413 -11.721  -0.627  1.00  0.00    -0.508 OA
ATOM     19  H   UNL     1      24.421 -12.443   0.084  1.00  0.00     0.293 HD
ENDBRANCH  15  18
BRANCH  17  20
ATOM     20  O   UNL     1      20.626 -12.320  -3.570  1.00  0.00    -0.507 OA
ATOM     21  H   UNL     1      20.178 -13.071  -4.081  1.00  0.00     0.293 HD
ENDBRANCH  17  20
ENDBRANCH   1  12
BRANCH   2  22
ATOM     22  O   UNL     1      23.626 -10.846  -6.731  1.00  0.00    -0.502 OA
ATOM     23  H   UNL     1      24.362 -10.860  -6.035  1.00  0.00     0.293 HD
ENDBRANCH   2  22
BRANCH   6  24
ATOM     24  O   UNL     1      20.844 -12.915 -10.781  1.00  0.00    -0.507 OA
ATOM     25  H   UNL     1      20.181 -12.241 -11.131  1.00  0.00     0.293 HD
ENDBRANCH   6  24
BRANCH   8  26
ATOM     26  O   UNL     1      18.751 -16.621  -8.561  1.00  0.00    -0.508 OA
ATOM     27  H   UNL     1      18.496 -17.044  -9.445  1.00  0.00     0.293 HD
ENDBRANCH   8  26
TORSDOF 6
ENDMDL
MODEL 7
REMARK VINA RESULT:    -5.938      2.313      6.486
REMARK INTER + INTRA:          -7.572
REMARK INTER:                  -7.180
REMARK INTRA:                  -0.393
REMARK UNBOUND:                -0.419
REMARK SMILES O=c1c(O)c(-c2ccc(O)cc2O)oc2cc(O)cc(O)c12
REMARK SMILES IDX 5 1 3 2 2 3 1 4 22 5 20 6 19 7 17 8 16 9 15 10 14 11 6 12
REMARK SMILES IDX 8 13 7 14 9 15 11 16 12 17 10 18 13 20 4 22 21 24 18 26
REMARK H PARENT 10 19 13 21 4 23 21 25 18 27
REMARK Flexibility Score: inf
ROOT
ATOM      1  C   UNL     1      12.466  -7.622   2.256  1.00  0.00     0.184 A 
ATOM      2  C   UNL     1      13.416  -7.609   1.222  1.00  0.00     0.208 A 
ATOM      3  C   UNL     1      13.887  -8.831   0.716  1.00  0.00     0.238 A 
ATOM      4  O   UNL     1      14.792  -8.812  -0.158  1.00  0.00    -0.285 OA
ATOM      5  C   UNL     1      13.361 -10.049   1.213  1.00  0.00     0.111 A 
ATOM      6  C   UNL     1      13.733 -11.345   0.744  1.00  0.00     0.134 A 
ATOM      7  C   UNL     1      13.225 -12.483   1.384  1.00  0.00     0.093 A 
ATOM      8  C   UNL     1      12.310 -12.372   2.432  1.00  0.00     0.123 A 
ATOM      9  C   UNL     1      11.899 -11.112   2.861  1.00  0.00     0.094 A 
ATOM     10  C   UNL     1      12.417  -9.958   2.270  1.00  0.00     0.146 A 
ATOM     11  O   UNL     1      12.013  -8.778   2.725  1.00  0.00    -0.451 OA
ENDROOT
BRANCH   1  12
ATOM     12  C   UNL     1      11.935  -6.373   2.837  1.00  0.00     0.063 A 
ATOM     13  C   UNL     1      12.319  -4.371   4.163  1.00  0.00     0.047 A 
ATOM     14  C   UNL     1      12.788  -5.563   3.604  1.00  0.00     0.020 A 
ATOM     15  C   UNL     1      10.995  -3.968   3.951  1.00  0.00     0.119 A 
ATOM     16  C   UNL     1      10.146  -4.755   3.170  1.00  0.00     0.093 A 
ATOM     17  C   UNL     1      10.610  -5.950   2.599  1.00  0.00     0.130 A 
BRANCH  15  18
ATOM     18  O   UNL     1      10.517  -2.783   4.508  1.00  0.00    -0.508 OA
ATOM     19  H   UNL     1       9.899  -2.786   5.311  1.00  0.00     0.293 HD
ENDBRANCH  15  18
BRANCH  17  20
ATOM     20  O   UNL     1       9.767  -6.702   1.781  1.00  0.00    -0.507 OA
ATOM     21  H   UNL     1       8.929  -6.305   1.373  1.00  0.00     0.293 HD
ENDBRANCH  17  20
ENDBRANCH   1  12
BRANCH   2  22
ATOM     22  O   UNL     1      13.864  -6.393   0.700  1.00  0.00    -0.502 OA
ATOM     23  H   UNL     1      13.496  -5.501   1.008  1.00  0.00     0.293 HD
ENDBRANCH   2  22
BRANCH   6  24
ATOM     24  O   UNL     1      14.571 -11.571  -0.352  1.00  0.00    -0.507 OA
ATOM     25  H   UNL     1      14.265 -11.894  -1.257  1.00  0.00     0.293 HD
ENDBRANCH   6  24
BRANCH   8  26
ATOM     26  O   UNL     1      11.797 -13.510   3.051  1.00  0.00    -0.508 OA
ATOM     27  H   UNL     1      10.833 -13.794   2.923  1.00  0.00     0.293 HD
ENDBRANCH   8  26
TORSDOF 6
ENDMDL
MODEL 8
REMARK VINA RESULT:    -5.814     12.198     14.027
REMARK INTER + INTRA:          -7.423
REMARK INTER:                  -7.009
REMARK INTRA:                  -0.414
REMARK UNBOUND:                -0.419
REMARK SMILES O=c1c(O)c(-c2ccc(O)cc2O)oc2cc(O)cc(O)c12
REMARK SMILES IDX 5 1 3 2 2 3 1 4 22 5 20 6 19 7 17 8 16 9 15 10 14 11 6 12
REMARK SMILES IDX 8 13 7 14 9 15 11 16 12 17 10 18 13 20 4 22 21 24 18 26
REMARK H PARENT 10 19 13 21 4 23 21 25 18 27
REMARK Flexibility Score: inf
ROOT
ATOM      1  C   UNL     1      21.905 -13.838  -7.162  1.00  0.00     0.184 A 
ATOM      2  C   UNL     1      23.214 -13.341  -7.256  1.00  0.00     0.208 A 
ATOM      3  C   UNL     1      23.787 -12.719  -6.136  1.00  0.00     0.238 A 
ATOM      4  O   UNL     1      24.933 -12.210  -6.250  1.00  0.00    -0.285 OA
ATOM      5  C   UNL     1      23.064 -12.652  -4.920  1.00  0.00     0.111 A 
ATOM      6  C   UNL     1      23.563 -12.084  -3.709  1.00  0.00     0.134 A 
ATOM      7  C   UNL     1      22.718 -11.977  -2.597  1.00  0.00     0.093 A 
ATOM      8  C   UNL     1      21.414 -12.476  -2.632  1.00  0.00     0.123 A 
ATOM      9  C   UNL     1      20.936 -13.082  -3.792  1.00  0.00     0.094 A 
ATOM     10  C   UNL     1      21.741 -13.168  -4.930  1.00  0.00     0.146 A 
ATOM     11  O   UNL     1      21.237 -13.734  -6.020  1.00  0.00    -0.451 OA
ENDROOT
BRANCH   1  12
ATOM     12  C   UNL     1      21.240 -14.497  -8.305  1.00  0.00     0.063 A 
ATOM     13  C   UNL     1      20.738 -16.544  -9.518  1.00  0.00     0.047 A 
ATOM     14  C   UNL     1      21.359 -15.888  -8.451  1.00  0.00     0.020 A 
ATOM     15  C   UNL     1      19.979 -15.818 -10.443  1.00  0.00     0.119 A 
ATOM     16  C   UNL     1      19.836 -14.437 -10.292  1.00  0.00     0.093 A 
ATOM     17  C   UNL     1      20.450 -13.771  -9.221  1.00  0.00     0.130 A 
BRANCH  15  18
ATOM     18  O   UNL     1      19.359 -16.462 -11.512  1.00  0.00    -0.508 OA
ATOM     19  H   UNL     1      18.409 -16.241 -11.785  1.00  0.00     0.293 HD
ENDBRANCH  15  18
BRANCH  17  20
ATOM     20  O   UNL     1      20.259 -12.399  -9.054  1.00  0.00    -0.507 OA
ATOM     21  H   UNL     1      20.974 -11.728  -9.307  1.00  0.00     0.293 HD
ENDBRANCH  17  20
ENDBRANCH   1  12
BRANCH   2  22
ATOM     22  O   UNL     1      23.933 -13.485  -8.447  1.00  0.00    -0.502 OA
ATOM     23  H   UNL     1      24.941 -13.580  -8.463  1.00  0.00     0.293 HD
ENDBRANCH   2  22
BRANCH   6  24
ATOM     24  O   UNL     1      24.876 -11.634  -3.537  1.00  0.00    -0.507 OA
ATOM     25  H   UNL     1      25.228 -11.184  -2.706  1.00  0.00     0.293 HD
ENDBRANCH   6  24
BRANCH   8  26
ATOM     26  O   UNL     1      20.587 -12.381  -1.515  1.00  0.00    -0.508 OA
ATOM     27  H   UNL     1      20.238 -11.488  -1.188  1.00  0.00     0.293 HD
ENDBRANCH   8  26
TORSDOF 6
ENDMDL
MODEL 9
REMARK VINA RESULT:    -5.792     12.470     14.490
REMARK INTER + INTRA:          -7.396
REMARK INTER:                  -7.026
REMARK INTRA:                  -0.370
REMARK UNBOUND:                -0.419
REMARK SMILES O=c1c(O)c(-c2ccc(O)cc2O)oc2cc(O)cc(O)c12
REMARK SMILES IDX 5 1 3 2 2 3 1 4 22 5 20 6 19 7 17 8 16 9 15 10 14 11 6 12
REMARK SMILES IDX 8 13 7 14 9 15 11 16 12 17 10 18 13 20 4 22 21 24 18 26
REMARK H PARENT 10 19 13 21 4 23 21 25 18 27
REMARK Flexibility Score: inf
ROOT
ATOM      1  C   UNL     1      21.663 -13.943  -6.956  1.00  0.00     0.184 A 
ATOM      2  C   UNL     1      22.747 -14.531  -7.627  1.00  0.00     0.208 A 
ATOM      3  C   UNL     1      22.548 -15.046  -8.918  1.00  0.00     0.238 A 
ATOM      4  O   UNL     1      23.504 -15.637  -9.484  1.00  0.00    -0.285 OA
ATOM      5  C   UNL     1      21.283 -14.916  -9.541  1.00  0.00     0.111 A 
ATOM      6  C   UNL     1      20.980 -15.362 -10.864  1.00  0.00     0.134 A 
ATOM      7  C   UNL     1      19.664 -15.277 -11.336  1.00  0.00     0.093 A 
ATOM      8  C   UNL     1      18.655 -14.703 -10.560  1.00  0.00     0.123 A 
ATOM      9  C   UNL     1      18.952 -14.216  -9.290  1.00  0.00     0.094 A 
ATOM     10  C   UNL     1      20.246 -14.322  -8.775  1.00  0.00     0.146 A 
ATOM     11  O   UNL     1      20.480 -13.863  -7.551  1.00  0.00    -0.451 OA
ENDROOT
BRANCH   1  12
ATOM     12  C   UNL     1      21.803 -13.389  -5.594  1.00  0.00     0.063 A 
ATOM     13  C   UNL     1      22.788 -11.726  -4.119  1.00  0.00     0.047 A 
ATOM     14  C   UNL     1      22.639 -12.279  -5.394  1.00  0.00     0.020 A 
ATOM     15  C   UNL     1      22.093 -12.267  -3.031  1.00  0.00     0.119 A 
ATOM     16  C   UNL     1      21.240 -13.357  -3.226  1.00  0.00     0.093 A 
ATOM     17  C   UNL     1      21.079 -13.914  -4.503  1.00  0.00     0.130 A 
BRANCH  15  18
ATOM     18  O   UNL     1      22.238 -11.726  -1.756  1.00  0.00    -0.508 OA
ATOM     19  H   UNL     1      23.134 -11.712  -1.284  1.00  0.00     0.293 HD
ENDBRANCH  15  18
BRANCH  17  20
ATOM     20  O   UNL     1      20.188 -14.971  -4.692  1.00  0.00    -0.507 OA
ATOM     21  H   UNL     1      19.266 -14.971  -4.272  1.00  0.00     0.293 HD
ENDBRANCH  17  20
ENDBRANCH   1  12
BRANCH   2  22
ATOM     22  O   UNL     1      24.004 -14.581  -7.018  1.00  0.00    -0.502 OA
ATOM     23  H   UNL     1      24.854 -14.331  -7.507  1.00  0.00     0.293 HD
ENDBRANCH   2  22
BRANCH   6  24
ATOM     24  O   UNL     1      21.929 -15.870 -11.756  1.00  0.00    -0.507 OA
ATOM     25  H   UNL     1      22.652 -15.326 -12.202  1.00  0.00     0.293 HD
ENDBRANCH   6  24
BRANCH   8  26
ATOM     26  O   UNL     1      17.353 -14.607 -11.046  1.00  0.00    -0.508 OA
ATOM     27  H   UNL     1      16.780 -13.791 -10.869  1.00  0.00     0.293 HD
ENDBRANCH   8  26
TORSDOF 6
ENDMDL
