MODEL 1
REMARK VINA RESULT:    -4.032      0.000      0.000
REMARK INTER + INTRA:          -7.613
REMARK INTER:                  -6.390
REMARK INTRA:                  -1.223
REMARK UNBOUND:                -1.223
REMARK SMILES CCCCCCCCCCCC(=O)[O-]
REMARK SMILES IDX 7 1 8 2 9 3 10 4 11 5 12 6 13 7 14 8 6 9 5 10 4 11 3 12 2 13
REMARK SMILES IDX 1 14
REMARK H PARENT
REMARK Flexibility Score: inf
ROOT
ATOM      1  C   UNL     1      15.959  16.435  -0.726  1.00  0.00     0.000 C 
ENDROOT
BRANCH   1   2
ATOM      2  C   UNL     1      16.190  17.030  -2.124  1.00  0.00     0.000 C 
BRANCH   2   3
ATOM      3  C   UNL     1      16.157  18.562  -2.081  1.00  0.00     0.000 C 
BRANCH   3   4
ATOM      4  C   UNL     1      15.216  19.125  -3.156  1.00  0.00     0.006 C 
BRANCH   4   5
ATOM      5  C   UNL     1      13.821  18.490  -3.098  1.00  0.00     0.053 C 
BRANCH   5   6
ATOM      6  C   UNL     1      13.338  18.084  -4.457  1.00  0.00     0.041 C 
ATOM      7  O   UNL     1      12.190  18.423  -4.848  1.00  0.00    -0.550 OA
ATOM      8  O   UNL     1      14.168  17.362  -5.306  1.00  0.00    -0.550 OA
ENDBRANCH   5   6
ENDBRANCH   4   5
ENDBRANCH   3   4
ENDBRANCH   2   3
ENDBRANCH   1   2
BRANCH   1   9
ATOM      9  C   UNL     1      15.254  17.414   0.227  1.00  0.00     0.000 C 
BRANCH   9  10
ATOM     10  C   UNL     1      16.093  17.728   1.477  1.00  0.00    -0.000 C 
BRANCH  10  11
ATOM     11  C   UNL     1      16.867  19.054   1.362  1.00  0.00    -0.000 C 
BRANCH  11  12
ATOM     12  C   UNL     1      18.338  18.916   0.928  1.00  0.00    -0.000 C 
BRANCH  12  13
ATOM     13  C   UNL     1      19.014  17.658   1.493  1.00  0.00    -0.003 C 
ATOM     14  C   UNL     1      19.508  16.749   0.371  1.00  0.00     0.004 C 
ENDBRANCH  12  13
ENDBRANCH  11  12
ENDBRANCH  10  11
ENDBRANCH   9  10
ENDBRANCH   1   9
TORSDOF 10
ENDMDL
MODEL 2
REMARK VINA RESULT:    -4.004     14.179     15.728
REMARK INTER + INTRA:          -7.568
REMARK INTER:                  -6.400
REMARK INTRA:                  -1.167
REMARK UNBOUND:                -1.223
REMARK SMILES CCCCCCCCCCCC(=O)[O-]
REMARK SMILES IDX 7 1 8 2 9 3 10 4 11 5 12 6 13 7 14 8 6 9 5 10 4 11 3 12 2 13
REMARK SMILES IDX 1 14
REMARK H PARENT
REMARK Flexibility Score: inf
ROOT
ATOM      1  C   UNL     1      16.476   2.487  -0.129  1.00  0.00     0.000 C 
ENDROOT
BRANCH   1   2
ATOM      2  C   UNL     1      15.732   2.024   1.134  1.00  0.00     0.000 C 
BRANCH   2   3
ATOM      3  C   UNL     1      15.212   3.223   1.935  1.00  0.00     0.000 C 
BRANCH   3   4
ATOM      4  C   UNL     1      13.677   3.266   1.929  1.00  0.00     0.006 C 
BRANCH   4   5
ATOM      5  C   UNL     1      13.135   4.686   1.720  1.00  0.00     0.053 C 
BRANCH   5   6
ATOM      6  C   UNL     1      11.748   4.838   2.265  1.00  0.00     0.041 C 
ATOM      7  O   UNL     1      10.812   5.219   1.514  1.00  0.00    -0.550 OA
ATOM      8  O   UNL     1      11.482   4.527   3.593  1.00  0.00    -0.550 OA
ENDBRANCH   5   6
ENDBRANCH   4   5
ENDBRANCH   3   4
ENDBRANCH   2   3
ENDBRANCH   1   2
BRANCH   1   9
ATOM      9  C   UNL     1      15.961   3.833  -0.663  1.00  0.00     0.000 C 
BRANCH   9  10
ATOM     10  C   UNL     1      15.437   3.733  -2.105  1.00  0.00    -0.000 C 
BRANCH  10  11
ATOM     11  C   UNL     1      13.906   3.582  -2.179  1.00  0.00    -0.000 C 
BRANCH  11  12
ATOM     12  C   UNL     1      13.359   2.229  -1.687  1.00  0.00    -0.000 C 
BRANCH  12  13
ATOM     13  C   UNL     1      13.430   1.130  -2.757  1.00  0.00    -0.003 C 
ATOM     14  C   UNL     1      14.600   0.186  -2.499  1.00  0.00     0.004 C 
ENDBRANCH  12  13
ENDBRANCH  11  12
ENDBRANCH  10  11
ENDBRANCH   9  10
ENDBRANCH   1   9
TORSDOF 10
ENDMDL
MODEL 3
REMARK VINA RESULT:    -3.995     14.397     15.847
REMARK INTER + INTRA:          -7.554
REMARK INTER:                  -6.280
REMARK INTRA:                  -1.275
REMARK UNBOUND:                -1.223
REMARK SMILES CCCCCCCCCCCC(=O)[O-]
REMARK SMILES IDX 7 1 8 2 9 3 10 4 11 5 12 6 13 7 14 8 6 9 5 10 4 11 3 12 2 13
REMARK SMILES IDX 1 14
REMARK H PARENT
REMARK Flexibility Score: inf
ROOT
ATOM      1  C   UNL     1      16.464   2.696  -0.491  1.00  0.00     0.000 C 
ENDROOT
BRANCH   1   2
ATOM      2  C   UNL     1      16.763   1.818  -1.716  1.00  0.00     0.000 C 
BRANCH   2   3
ATOM      3  C   UNL     1      15.877   0.568  -1.725  1.00  0.00     0.000 C 
BRANCH   3   4
ATOM      4  C   UNL     1      14.584   0.814  -2.516  1.00  0.00     0.006 C 
BRANCH   4   5
ATOM      5  C   UNL     1      13.350   0.882  -1.607  1.00  0.00     0.053 C 
BRANCH   5   6
ATOM      6  C   UNL     1      12.823   2.279  -1.489  1.00  0.00     0.041 C 
ATOM      7  O   UNL     1      11.794   2.511  -0.801  1.00  0.00    -0.550 OA
ATOM      8  O   UNL     1      13.486   3.330  -2.109  1.00  0.00    -0.550 OA
ENDBRANCH   5   6
ENDBRANCH   4   5
ENDBRANCH   3   4
ENDBRANCH   2   3
ENDBRANCH   1   2
BRANCH   1   9
ATOM      9  C   UNL     1      16.048   1.876   0.741  1.00  0.00     0.000 C 
BRANCH   9  10
ATOM     10  C   UNL     1      15.080   2.640   1.659  1.00  0.00    -0.000 C 
BRANCH  10  11
ATOM     11  C   UNL     1      14.814   4.081   1.184  1.00  0.00    -0.000 C 
BRANCH  11  12
ATOM     12  C   UNL     1      13.430   4.645   1.553  1.00  0.00    -0.000 C 
BRANCH  12  13
ATOM     13  C   UNL     1      12.611   3.694   2.437  1.00  0.00    -0.003 C 
ATOM     14  C   UNL     1      11.617   4.465   3.302  1.00  0.00     0.004 C 
ENDBRANCH  12  13
ENDBRANCH  11  12
ENDBRANCH  10  11
ENDBRANCH   9  10
ENDBRANCH   1   9
TORSDOF 10
ENDMDL
MODEL 4
REMARK VINA RESULT:    -3.994      3.170      6.104
REMARK INTER + INTRA:          -7.552
REMARK INTER:                  -6.376
REMARK INTRA:                  -1.175
REMARK UNBOUND:                -1.223
REMARK SMILES CCCCCCCCCCCC(=O)[O-]
REMARK SMILES IDX 7 1 8 2 9 3 10 4 11 5 12 6 13 7 14 8 6 9 5 10 4 11 3 12 2 13
REMARK SMILES IDX 1 14
REMARK H PARENT
REMARK Flexibility Score: inf
ROOT
ATOM      1  C   UNL     1      15.144  16.671  -1.129  1.00  0.00     0.000 C 
ENDROOT
BRANCH   1   2
ATOM      2  C   UNL     1      14.800  17.693  -0.034  1.00  0.00     0.000 C 
BRANCH   2   3
ATOM      3  C   UNL     1      15.742  17.549   1.167  1.00  0.00     0.000 C 
BRANCH   3   4
ATOM      4  C   UNL     1      16.577  18.822   1.368  1.00  0.00     0.006 C 
BRANCH   4   5
ATOM      5  C   UNL     1      17.847  18.828   0.507  1.00  0.00     0.053 C 
BRANCH   5   6
ATOM      6  C   UNL     1      18.726  17.652   0.805  1.00  0.00     0.041 C 
ATOM      7  O   UNL     1      19.312  17.565   1.916  1.00  0.00    -0.550 OA
ATOM      8  O   UNL     1      18.872  16.635  -0.131  1.00  0.00    -0.550 OA
ENDBRANCH   5   6
ENDBRANCH   4   5
ENDBRANCH   3   4
ENDBRANCH   2   3
ENDBRANCH   1   2
BRANCH   1   9
ATOM      9  C   UNL     1      15.968  17.283  -2.274  1.00  0.00     0.000 C 
BRANCH   9  10
ATOM     10  C   UNL     1      15.562  18.733  -2.583  1.00  0.00    -0.000 C 
BRANCH  10  11
ATOM     11  C   UNL     1      14.348  18.829  -3.525  1.00  0.00    -0.000 C 
BRANCH  11  12
ATOM     12  C   UNL     1      14.218  17.679  -4.541  1.00  0.00    -0.000 C 
BRANCH  12  13
ATOM     13  C   UNL     1      12.800  17.093  -4.606  1.00  0.00    -0.003 C 
ATOM     14  C   UNL     1      12.799  15.613  -4.236  1.00  0.00     0.004 C 
ENDBRANCH  12  13
ENDBRANCH  11  12
ENDBRANCH  10  11
ENDBRANCH   9  10
ENDBRANCH   1   9
TORSDOF 10
ENDMDL
MODEL 5
REMARK VINA RESULT:    -3.963     14.578     16.092
REMARK INTER + INTRA:          -7.503
REMARK INTER:                  -6.245
REMARK INTRA:                  -1.258
REMARK UNBOUND:                -1.223
REMARK SMILES CCCCCCCCCCCC(=O)[O-]
REMARK SMILES IDX 7 1 8 2 9 3 10 4 11 5 12 6 13 7 14 8 6 9 5 10 4 11 3 12 2 13
REMARK SMILES IDX 1 14
REMARK H PARENT
REMARK Flexibility Score: inf
ROOT
ATOM      1  C   UNL     1      13.426   1.088  -2.617  1.00  0.00     0.000 C 
ENDROOT
BRANCH   1   2
ATOM      2  C   UNL     1      12.322   1.463  -1.616  1.00  0.00     0.000 C 
BRANCH   2   3
ATOM      3  C   UNL     1      12.585   2.842  -1.000  1.00  0.00     0.000 C 
BRANCH   3   4
ATOM      4  C   UNL     1      12.614   2.766   0.533  1.00  0.00     0.006 C 
BRANCH   4   5
ATOM      5  C   UNL     1      13.068   4.084   1.173  1.00  0.00     0.053 C 
BRANCH   5   6
ATOM      6  C   UNL     1      11.925   4.821   1.800  1.00  0.00     0.041 C 
ATOM      7  O   UNL     1      11.053   5.370   1.077  1.00  0.00    -0.550 OA
ATOM      8  O   UNL     1      11.803   4.872   3.184  1.00  0.00    -0.550 OA
ENDBRANCH   5   6
ENDBRANCH   4   5
ENDBRANCH   3   4
ENDBRANCH   2   3
ENDBRANCH   1   2
BRANCH   1   9
ATOM      9  C   UNL     1      14.436   0.084  -2.041  1.00  0.00     0.000 C 
BRANCH   9  10
ATOM     10  C   UNL     1      15.807   0.161  -2.734  1.00  0.00    -0.000 C 
BRANCH  10  11
ATOM     11  C   UNL     1      16.797   1.086  -2.001  1.00  0.00    -0.000 C 
BRANCH  11  12
ATOM     12  C   UNL     1      16.389   1.477  -0.569  1.00  0.00    -0.000 C 
BRANCH  12  13
ATOM     13  C   UNL     1      16.354   2.996  -0.350  1.00  0.00    -0.003 C 
ATOM     14  C   UNL     1      15.822   3.718  -1.584  1.00  0.00     0.004 C 
ENDBRANCH  12  13
ENDBRANCH  11  12
ENDBRANCH  10  11
ENDBRANCH   9  10
ENDBRANCH   1   9
TORSDOF 10
ENDMDL
MODEL 6
REMARK VINA RESULT:    -3.959     14.993     16.294
REMARK INTER + INTRA:          -7.497
REMARK INTER:                  -6.251
REMARK INTRA:                  -1.246
REMARK UNBOUND:                -1.223
REMARK SMILES CCCCCCCCCCCC(=O)[O-]
REMARK SMILES IDX 7 1 8 2 9 3 10 4 11 5 12 6 13 7 14 8 6 9 5 10 4 11 3 12 2 13
REMARK SMILES IDX 1 14
REMARK H PARENT
REMARK Flexibility Score: inf
ROOT
ATOM      1  C   UNL     1      16.093   3.818  -0.567  1.00  0.00     0.000 C 
ENDROOT
BRANCH   1   2
ATOM      2  C   UNL     1      15.478   3.423  -1.919  1.00  0.00     0.000 C 
BRANCH   2   3
ATOM      3  C   UNL     1      13.988   3.096  -1.768  1.00  0.00     0.000 C 
BRANCH   3   4
ATOM      4  C   UNL     1      13.629   1.802  -2.514  1.00  0.00     0.006 C 
BRANCH   4   5
ATOM      5  C   UNL     1      13.768   0.560  -1.624  1.00  0.00     0.053 C 
BRANCH   5   6
ATOM      6  C   UNL     1      15.002  -0.224  -1.952  1.00  0.00     0.041 C 
ATOM      7  O   UNL     1      15.578  -0.899  -1.059  1.00  0.00    -0.550 OA
ATOM      8  O   UNL     1      15.496  -0.237  -3.250  1.00  0.00    -0.550 OA
ENDBRANCH   5   6
ENDBRANCH   4   5
ENDBRANCH   3   4
ENDBRANCH   2   3
ENDBRANCH   1   2
BRANCH   1   9
ATOM      9  C   UNL     1      16.068   2.670   0.456  1.00  0.00     0.000 C 
BRANCH   9  10
ATOM     10  C   UNL     1      15.336   3.053   1.753  1.00  0.00    -0.000 C 
BRANCH  10  11
ATOM     11  C   UNL     1      14.093   2.183   2.019  1.00  0.00    -0.000 C 
BRANCH  11  12
ATOM     12  C   UNL     1      12.743   2.883   1.780  1.00  0.00    -0.000 C 
BRANCH  12  13
ATOM     13  C   UNL     1      12.789   4.390   2.070  1.00  0.00    -0.003 C 
ATOM     14  C   UNL     1      11.654   4.806   3.002  1.00  0.00     0.004 C 
ENDBRANCH  12  13
ENDBRANCH  11  12
ENDBRANCH  10  11
ENDBRANCH   9  10
ENDBRANCH   1   9
TORSDOF 10
ENDMDL
MODEL 7
REMARK VINA RESULT:    -3.954     13.941     15.318
REMARK INTER + INTRA:          -7.488
REMARK INTER:                  -6.161
REMARK INTRA:                  -1.327
REMARK UNBOUND:                -1.223
REMARK SMILES CCCCCCCCCCCC(=O)[O-]
REMARK SMILES IDX 7 1 8 2 9 3 10 4 11 5 12 6 13 7 14 8 6 9 5 10 4 11 3 12 2 13
REMARK SMILES IDX 1 14
REMARK H PARENT
REMARK Flexibility Score: inf
ROOT
ATOM      1  C   UNL     1      14.855   1.972   1.448  1.00  0.00     0.000 C 
ENDROOT
BRANCH   1   2
ATOM      2  C   UNL     1      15.403   3.373   1.760  1.00  0.00     0.000 C 
BRANCH   2   3
ATOM      3  C   UNL     1      14.388   4.457   1.375  1.00  0.00     0.000 C 
BRANCH   3   4
ATOM      4  C   UNL     1      12.958   3.898   1.374  1.00  0.00     0.006 C 
BRANCH   4   5
ATOM      5  C   UNL     1      11.925   4.941   1.821  1.00  0.00     0.053 C 
BRANCH   5   6
ATOM      6  C   UNL     1      10.711   4.931   0.944  1.00  0.00     0.041 C 
ATOM      7  O   UNL     1      10.357   5.978   0.342  1.00  0.00    -0.550 OA
ATOM      8  O   UNL     1       9.988   3.758   0.766  1.00  0.00    -0.550 OA
ENDBRANCH   5   6
ENDBRANCH   4   5
ENDBRANCH   3   4
ENDBRANCH   2   3
ENDBRANCH   1   2
BRANCH   1   9
ATOM      9  C   UNL     1      15.765   1.176   0.498  1.00  0.00     0.000 C 
BRANCH   9  10
ATOM     10  C   UNL     1      16.694   2.083  -0.325  1.00  0.00    -0.000 C 
BRANCH  10  11
ATOM     11  C   UNL     1      16.177   2.333  -1.754  1.00  0.00    -0.000 C 
BRANCH  11  12
ATOM     12  C   UNL     1      15.444   3.672  -1.958  1.00  0.00    -0.000 C 
BRANCH  12  13
ATOM     13  C   UNL     1      13.970   3.494  -2.351  1.00  0.00    -0.003 C 
ATOM     14  C   UNL     1      13.544   2.032  -2.239  1.00  0.00     0.004 C 
ENDBRANCH  12  13
ENDBRANCH  11  12
ENDBRANCH  10  11
ENDBRANCH   9  10
ENDBRANCH   1   9
TORSDOF 10
ENDMDL
MODEL 8
REMARK VINA RESULT:    -3.917     14.473     15.902
REMARK INTER + INTRA:          -7.430
REMARK INTER:                  -6.087
REMARK INTRA:                  -1.343
REMARK UNBOUND:                -1.223
REMARK SMILES CCCCCCCCCCCC(=O)[O-]
REMARK SMILES IDX 7 1 8 2 9 3 10 4 11 5 12 6 13 7 14 8 6 9 5 10 4 11 3 12 2 13
REMARK SMILES IDX 1 14
REMARK H PARENT
REMARK Flexibility Score: inf
ROOT
ATOM      1  C   UNL     1      14.457   2.392   2.178  1.00  0.00     0.000 C 
ENDROOT
BRANCH   1   2
ATOM      2  C   UNL     1      15.738   2.989   1.575  1.00  0.00     0.000 C 
BRANCH   2   3
ATOM      3  C   UNL     1      15.404   4.059   0.529  1.00  0.00     0.000 C 
BRANCH   3   4
ATOM      4  C   UNL     1      16.061   3.735  -0.820  1.00  0.00     0.006 C 
BRANCH   4   5
ATOM      5  C   UNL     1      16.737   2.357  -0.823  1.00  0.00     0.053 C 
BRANCH   5   6
ATOM      6  C   UNL     1      16.163   1.458  -1.874  1.00  0.00     0.041 C 
ATOM      7  O   UNL     1      14.918   1.412  -2.056  1.00  0.00    -0.550 OA
ATOM      8  O   UNL     1      17.004   0.696  -2.676  1.00  0.00    -0.550 OA
ENDBRANCH   5   6
ENDBRANCH   4   5
ENDBRANCH   3   4
ENDBRANCH   2   3
ENDBRANCH   1   2
BRANCH   1   9
ATOM      9  C   UNL     1      13.721   1.457   1.205  1.00  0.00     0.000 C 
BRANCH   9  10
ATOM     10  C   UNL     1      12.236   1.822   1.045  1.00  0.00    -0.000 C 
BRANCH  10  11
ATOM     11  C   UNL     1      12.010   3.013   0.095  1.00  0.00    -0.000 C 
BRANCH  11  12
ATOM     12  C   UNL     1      11.219   4.188   0.698  1.00  0.00    -0.000 C 
BRANCH  12  13
ATOM     13  C   UNL     1      12.045   5.021   1.689  1.00  0.00    -0.003 C 
ATOM     14  C   UNL     1      11.620   4.743   3.129  1.00  0.00     0.004 C 
ENDBRANCH  12  13
ENDBRANCH  11  12
ENDBRANCH  10  11
ENDBRANCH   9  10
ENDBRANCH   1   9
TORSDOF 10
ENDMDL
MODEL 9
REMARK VINA RESULT:    -3.911     14.254     15.958
REMARK INTER + INTRA:          -7.420
REMARK INTER:                  -6.162
REMARK INTRA:                  -1.259
REMARK UNBOUND:                -1.223
REMARK SMILES CCCCCCCCCCCC(=O)[O-]
REMARK SMILES IDX 7 1 8 2 9 3 10 4 11 5 12 6 13 7 14 8 6 9 5 10 4 11 3 12 2 13
REMARK SMILES IDX 1 14
REMARK H PARENT
REMARK Flexibility Score: inf
ROOT
ATOM      1  C   UNL     1      16.108   3.681  -0.522  1.00  0.00     0.000 C 
ENDROOT
BRANCH   1   2
ATOM      2  C   UNL     1      15.135   4.131   0.579  1.00  0.00     0.000 C 
BRANCH   2   3
ATOM      3  C   UNL     1      14.568   2.925   1.337  1.00  0.00     0.000 C 
BRANCH   3   4
ATOM      4  C   UNL     1      13.331   3.320   2.157  1.00  0.00     0.006 C 
BRANCH   4   5
ATOM      5  C   UNL     1      12.743   4.665   1.711  1.00  0.00     0.053 C 
BRANCH   5   6
ATOM      6  C   UNL     1      11.387   4.503   1.095  1.00  0.00     0.041 C 
ATOM      7  O   UNL     1      10.880   3.357   0.976  1.00  0.00    -0.550 OA
ATOM      8  O   UNL     1      10.669   5.619   0.683  1.00  0.00    -0.550 OA
ENDBRANCH   5   6
ENDBRANCH   4   5
ENDBRANCH   3   4
ENDBRANCH   2   3
ENDBRANCH   1   2
BRANCH   1   9
ATOM      9  C   UNL     1      16.500   2.200  -0.399  1.00  0.00     0.000 C 
BRANCH   9  10
ATOM     10  C   UNL     1      17.122   1.645  -1.692  1.00  0.00    -0.000 C 
BRANCH  10  11
ATOM     11  C   UNL     1      16.213   0.626  -2.404  1.00  0.00    -0.000 C 
BRANCH  11  12
ATOM     12  C   UNL     1      14.815   0.452  -1.784  1.00  0.00    -0.000 C 
BRANCH  12  13
ATOM     13  C   UNL     1      13.711   1.152  -2.590  1.00  0.00    -0.003 C 
ATOM     14  C   UNL     1      12.774   1.935  -1.674  1.00  0.00     0.004 C 
ENDBRANCH  12  13
ENDBRANCH  11  12
ENDBRANCH  10  11
ENDBRANCH   9  10
ENDBRANCH   1   9
TORSDOF 10
ENDMDL
