MODEL 1
REMARK VINA RESULT:    -3.584      0.000      0.000
REMARK INTER + INTRA:          -4.856
REMARK INTER:                  -5.260
REMARK INTRA:                   0.404
REMARK UNBOUND:                 0.404
REMARK SMILES O=c1c(O[C@@H]2O[C@@H](CO)[C@@H](O)[C@H](O)[C@@H]2O)c(-c2ccc(O)c(O)c2)oc2cc(O)cc(O)c12
REMARK SMILES IDX 4 1 3 2 16 3 25 4 2 5 26 6 1 7 33 8 27 9 31 10 28 11 30 12
REMARK SMILES IDX 17 13 18 14 19 15 20 16 24 17 22 18 21 19 23 21 32 23 29 25
REMARK SMILES IDX 5 27 14 28 6 29 12 30 7 31 10 32 15 33 13 35 8 37 9 38 11 40
REMARK H PARENT 21 20 23 22 32 24 29 26 15 34 13 36 9 39 11 41
REMARK Flexibility Score: inf
ROOT
ATOM      1  O   UNL     1     -11.814  61.871  40.672  1.00  0.00    -0.454 OA
ENDROOT
BRANCH   1   2
ATOM      2  C   UNL     1     -10.706  62.686  40.939  1.00  0.00     0.214 A 
ATOM      3  C   UNL     1     -10.080  62.702  42.201  1.00  0.00     0.180 A 
ATOM      4  O   UNL     1      -9.110  63.576  42.443  1.00  0.00    -0.452 OA
ATOM      5  C   UNL     1     -10.217  63.522  39.930  1.00  0.00     0.239 A 
ATOM      6  C   UNL     1      -8.637  64.412  41.526  1.00  0.00     0.146 A 
ATOM      7  O   UNL     1     -10.795  63.509  38.812  1.00  0.00    -0.285 OA
ATOM      8  C   UNL     1      -9.133  64.392  40.196  1.00  0.00     0.111 A 
ATOM      9  C   UNL     1      -7.635  65.311  41.897  1.00  0.00     0.094 A 
ATOM     10  C   UNL     1      -8.546  65.273  39.238  1.00  0.00     0.134 A 
ATOM     11  C   UNL     1      -7.110  66.208  40.965  1.00  0.00     0.123 A 
ATOM     12  C   UNL     1      -7.568  66.186  39.649  1.00  0.00     0.093 A 
BRANCH   3  13
ATOM     13  C   UNL     1     -10.458  61.764  43.281  1.00  0.00     0.025 A 
ATOM     14  C   UNL     1      -9.564  61.463  44.322  1.00  0.00     0.016 A 
ATOM     15  C   UNL     1      -9.938  60.583  45.340  1.00  0.00     0.051 A 
ATOM     16  C   UNL     1     -11.212  60.007  45.344  1.00  0.00     0.157 A 
ATOM     17  C   UNL     1     -11.744  61.204  43.298  1.00  0.00     0.062 A 
ATOM     18  C   UNL     1     -12.122  60.321  44.319  1.00  0.00     0.158 A 
BRANCH  16  19
ATOM     19  O   UNL     1     -11.557  59.130  46.371  1.00  0.00    -0.504 OA
ATOM     20  H   UNL     1     -12.481  59.123  46.786  1.00  0.00     0.293 HD
ENDBRANCH  16  19
BRANCH  18  21
ATOM     21  O   UNL     1     -13.396  59.756  44.320  1.00  0.00    -0.504 OA
ATOM     22  H   UNL     1     -14.124  60.089  44.943  1.00  0.00     0.293 HD
ENDBRANCH  18  21
ENDBRANCH   3  13
BRANCH  10  23
ATOM     23  O   UNL     1      -8.869  65.272  37.878  1.00  0.00    -0.507 OA
ATOM     24  H   UNL     1      -8.283  65.649  37.148  1.00  0.00     0.293 HD
ENDBRANCH  10  23
BRANCH  11  25
ATOM     25  O   UNL     1      -6.125  67.121  41.334  1.00  0.00    -0.508 OA
ATOM     26  H   UNL     1      -5.203  66.816  41.629  1.00  0.00     0.293 HD
ENDBRANCH  11  25
ENDBRANCH   1   2
BRANCH   1  27
ATOM     27  C   UNL     1     -12.027  61.223  39.411  1.00  0.00     0.339 C 
ATOM     28  C   UNL     1     -12.487  59.763  39.599  1.00  0.00     0.214 C 
ATOM     29  O   UNL     1     -12.943  61.954  38.612  1.00  0.00    -0.332 OA
ATOM     30  C   UNL     1     -13.944  59.672  40.108  1.00  0.00     0.180 C 
ATOM     31  C   UNL     1     -14.216  62.044  39.230  1.00  0.00     0.179 C 
ATOM     32  C   UNL     1     -14.867  60.644  39.339  1.00  0.00     0.177 C 
BRANCH  28  33
ATOM     33  O   UNL     1     -11.612  59.096  40.471  1.00  0.00    -0.384 OA
ATOM     34  H   UNL     1     -12.173  58.677  41.174  1.00  0.00     0.211 HD
ENDBRANCH  28  33
BRANCH  30  35
ATOM     35  O   UNL     1     -14.030  59.858  41.501  1.00  0.00    -0.387 OA
ATOM     36  H   UNL     1     -13.377  59.258  41.941  1.00  0.00     0.211 HD
ENDBRANCH  30  35
BRANCH  31  37
ATOM     37  C   UNL     1     -15.084  63.011  38.410  1.00  0.00     0.191 C 
BRANCH  37  38
ATOM     38  O   UNL     1     -14.648  64.335  38.562  1.00  0.00    -0.394 OA
ATOM     39  H   UNL     1     -13.716  64.289  38.903  1.00  0.00     0.210 HD
ENDBRANCH  37  38
ENDBRANCH  31  37
BRANCH  32  40
ATOM     40  O   UNL     1     -15.111  60.139  38.050  1.00  0.00    -0.387 OA
ATOM     41  H   UNL     1     -16.081  59.931  38.000  1.00  0.00     0.211 HD
ENDBRANCH  32  40
ENDBRANCH   1  27
TORSDOF 12
ENDMDL
MODEL 2
REMARK VINA RESULT:    -2.652      1.374      5.052
REMARK INTER + INTRA:          -3.489
REMARK INTER:                  -2.764
REMARK INTRA:                  -0.725
REMARK UNBOUND:                 0.404
REMARK SMILES O=c1c(O[C@@H]2O[C@@H](CO)[C@@H](O)[C@H](O)[C@@H]2O)c(-c2ccc(O)c(O)c2)oc2cc(O)cc(O)c12
REMARK SMILES IDX 4 1 3 2 16 3 25 4 2 5 26 6 1 7 33 8 27 9 31 10 28 11 30 12
REMARK SMILES IDX 17 13 18 14 19 15 20 16 24 17 22 18 21 19 23 21 32 23 29 25
REMARK SMILES IDX 5 27 14 28 6 29 12 30 7 31 10 32 15 33 13 35 8 37 9 38 11 40
REMARK H PARENT 21 20 23 22 32 24 29 26 15 34 13 36 9 39 11 41
REMARK Flexibility Score: inf
ROOT
ATOM      1  O   UNL     1     -11.168  62.452  42.397  1.00  0.00    -0.454 OA
ENDROOT
BRANCH   1   2
ATOM      2  C   UNL     1     -10.568  63.291  41.448  1.00  0.00     0.214 A 
ATOM      3  C   UNL     1     -10.878  63.205  40.076  1.00  0.00     0.180 A 
ATOM      4  O   UNL     1     -10.199  63.938  39.202  1.00  0.00    -0.452 OA
ATOM      5  C   UNL     1      -9.620  64.228  41.871  1.00  0.00     0.239 A 
ATOM      6  C   UNL     1      -9.267  64.815  39.554  1.00  0.00     0.146 A 
ATOM      7  O   UNL     1      -9.341  64.283  43.097  1.00  0.00    -0.285 OA
ATOM      8  C   UNL     1      -8.963  65.047  40.921  1.00  0.00     0.111 A 
ATOM      9  C   UNL     1      -8.592  65.511  38.548  1.00  0.00     0.094 A 
ATOM     10  C   UNL     1      -7.993  66.044  41.243  1.00  0.00     0.134 A 
ATOM     11  C   UNL     1      -7.604  66.442  38.874  1.00  0.00     0.123 A 
ATOM     12  C   UNL     1      -7.310  66.700  40.213  1.00  0.00     0.093 A 
BRANCH   3  13
ATOM     13  C   UNL     1     -11.954  62.329  39.565  1.00  0.00     0.025 A 
ATOM     14  C   UNL     1     -11.793  60.934  39.524  1.00  0.00     0.016 A 
ATOM     15  C   UNL     1     -12.822  60.118  39.049  1.00  0.00     0.051 A 
ATOM     16  C   UNL     1     -14.030  60.679  38.624  1.00  0.00     0.157 A 
ATOM     17  C   UNL     1     -13.176  62.889  39.161  1.00  0.00     0.062 A 
ATOM     18  C   UNL     1     -14.210  62.072  38.683  1.00  0.00     0.158 A 
BRANCH  16  19
ATOM     19  O   UNL     1     -15.038  59.840  38.151  1.00  0.00    -0.504 OA
ATOM     20  H   UNL     1     -15.465  59.130  38.733  1.00  0.00     0.293 HD
ENDBRANCH  16  19
BRANCH  18  21
ATOM     21  O   UNL     1     -15.415  62.637  38.269  1.00  0.00    -0.504 OA
ATOM     22  H   UNL     1     -15.538  62.995  37.328  1.00  0.00     0.293 HD
ENDBRANCH  18  21
ENDBRANCH   3  13
BRANCH  10  23
ATOM     23  O   UNL     1      -7.687  66.441  42.548  1.00  0.00    -0.507 OA
ATOM     24  H   UNL     1      -6.941  66.055  43.106  1.00  0.00     0.293 HD
ENDBRANCH  10  23
BRANCH  11  25
ATOM     25  O   UNL     1      -6.914  67.124  37.876  1.00  0.00    -0.508 OA
ATOM     26  H   UNL     1      -5.900  67.139  37.847  1.00  0.00     0.293 HD
ENDBRANCH  11  25
ENDBRANCH   1   2
BRANCH   1  27
ATOM     27  C   UNL     1     -10.898  61.047  42.485  1.00  0.00     0.339 C 
ATOM     28  C   UNL     1      -9.678  60.763  43.384  1.00  0.00     0.214 C 
ATOM     29  O   UNL     1     -12.043  60.337  42.931  1.00  0.00    -0.332 OA
ATOM     30  C   UNL     1      -9.990  60.991  44.881  1.00  0.00     0.180 C 
ATOM     31  C   UNL     1     -12.437  60.747  44.230  1.00  0.00     0.179 C 
ATOM     32  C   UNL     1     -11.352  60.374  45.269  1.00  0.00     0.177 C 
BRANCH  28  33
ATOM     33  O   UNL     1      -8.591  61.553  42.975  1.00  0.00    -0.384 OA
ATOM     34  H   UNL     1      -8.280  61.185  42.108  1.00  0.00     0.211 HD
ENDBRANCH  28  33
BRANCH  30  35
ATOM     35  O   UNL     1      -9.910  62.351  45.235  1.00  0.00    -0.387 OA
ATOM     36  H   UNL     1     -10.822  62.679  45.438  1.00  0.00     0.211 HD
ENDBRANCH  30  35
BRANCH  31  37
ATOM     37  C   UNL     1     -13.786  60.087  44.557  1.00  0.00     0.191 C 
BRANCH  37  38
ATOM     38  O   UNL     1     -14.855  60.928  44.215  1.00  0.00    -0.394 OA
ATOM     39  H   UNL     1     -15.615  60.673  44.800  1.00  0.00     0.210 HD
ENDBRANCH  37  38
ENDBRANCH  31  37
BRANCH  32  40
ATOM     40  O   UNL     1     -11.231  58.975  45.338  1.00  0.00    -0.387 OA
ATOM     41  H   UNL     1     -10.306  58.751  45.054  1.00  0.00     0.211 HD
ENDBRANCH  32  40
ENDBRANCH   1  27
TORSDOF 12
ENDMDL
MODEL 3
REMARK VINA RESULT:    -1.808      1.644      6.307
REMARK INTER + INTRA:          -2.249
REMARK INTER:                  -2.034
REMARK INTRA:                  -0.215
REMARK UNBOUND:                 0.404
REMARK SMILES O=c1c(O[C@@H]2O[C@@H](CO)[C@@H](O)[C@H](O)[C@@H]2O)c(-c2ccc(O)c(O)c2)oc2cc(O)cc(O)c12
REMARK SMILES IDX 4 1 3 2 16 3 25 4 2 5 26 6 1 7 33 8 27 9 31 10 28 11 30 12
REMARK SMILES IDX 17 13 18 14 19 15 20 16 24 17 22 18 21 19 23 21 32 23 29 25
REMARK SMILES IDX 5 27 14 28 6 29 12 30 7 31 10 32 15 33 13 35 8 37 9 38 11 40
REMARK H PARENT 21 20 23 22 32 24 29 26 15 34 13 36 9 39 11 41
REMARK Flexibility Score: inf
ROOT
ATOM      1  O   UNL     1     -10.552  62.691  41.116  1.00  0.00    -0.454 OA
ENDROOT
BRANCH   1   2
ATOM      2  C   UNL     1     -10.817  61.961  42.283  1.00  0.00     0.214 A 
ATOM      3  C   UNL     1     -11.889  61.052  42.366  1.00  0.00     0.180 A 
ATOM      4  O   UNL     1     -12.173  60.474  43.526  1.00  0.00    -0.452 OA
ATOM      5  C   UNL     1     -10.005  62.156  43.406  1.00  0.00     0.239 A 
ATOM      6  C   UNL     1     -11.452  60.655  44.626  1.00  0.00     0.146 A 
ATOM      7  O   UNL     1      -9.060  62.983  43.323  1.00  0.00    -0.285 OA
ATOM      8  C   UNL     1     -10.290  61.470  44.611  1.00  0.00     0.111 A 
ATOM      9  C   UNL     1     -11.859  60.021  45.803  1.00  0.00     0.094 A 
ATOM     10  C   UNL     1      -9.520  61.581  45.808  1.00  0.00     0.134 A 
ATOM     11  C   UNL     1     -11.130  60.184  46.982  1.00  0.00     0.123 A 
ATOM     12  C   UNL     1      -9.973  60.961  46.978  1.00  0.00     0.093 A 
BRANCH   3  13
ATOM     13  C   UNL     1     -12.717  60.700  41.191  1.00  0.00     0.025 A 
ATOM     14  C   UNL     1     -12.182  59.954  40.128  1.00  0.00     0.016 A 
ATOM     15  C   UNL     1     -12.979  59.620  39.030  1.00  0.00     0.051 A 
ATOM     16  C   UNL     1     -14.321  60.009  38.986  1.00  0.00     0.157 A 
ATOM     17  C   UNL     1     -14.070  61.069  41.157  1.00  0.00     0.062 A 
ATOM     18  C   UNL     1     -14.872  60.735  40.056  1.00  0.00     0.158 A 
BRANCH  16  19
ATOM     19  O   UNL     1     -15.091  59.664  37.876  1.00  0.00    -0.504 OA
ATOM     20  H   UNL     1     -16.097  59.559  37.931  1.00  0.00     0.293 HD
ENDBRANCH  16  19
BRANCH  18  21
ATOM     21  O   UNL     1     -16.211  61.119  40.023  1.00  0.00    -0.504 OA
ATOM     22  H   UNL     1     -16.521  61.917  39.481  1.00  0.00     0.293 HD
ENDBRANCH  18  21
ENDBRANCH   3  13
BRANCH  10  23
ATOM     23  O   UNL     1      -8.301  62.260  45.891  1.00  0.00    -0.507 OA
ATOM     24  H   UNL     1      -8.207  63.257  46.017  1.00  0.00     0.293 HD
ENDBRANCH  10  23
BRANCH  11  25
ATOM     25  O   UNL     1     -11.542  59.571  48.163  1.00  0.00    -0.508 OA
ATOM     26  H   UNL     1     -11.624  60.091  49.030  1.00  0.00     0.293 HD
ENDBRANCH  11  25
ENDBRANCH   1   2
BRANCH   1  27
ATOM     27  C   UNL     1      -9.253  62.765  40.514  1.00  0.00     0.339 C 
ATOM     28  C   UNL     1      -9.301  62.377  39.022  1.00  0.00     0.214 C 
ATOM     29  O   UNL     1      -8.681  64.051  40.696  1.00  0.00    -0.332 OA
ATOM     30  C   UNL     1      -9.973  63.468  38.158  1.00  0.00     0.180 C 
ATOM     31  C   UNL     1      -9.462  65.059  40.076  1.00  0.00     0.179 C 
ATOM     32  C   UNL     1      -9.465  64.877  38.539  1.00  0.00     0.177 C 
BRANCH  28  33
ATOM     33  O   UNL     1      -9.958  61.146  38.871  1.00  0.00    -0.384 OA
ATOM     34  H   UNL     1      -9.498  60.664  38.135  1.00  0.00     0.211 HD
ENDBRANCH  28  33
BRANCH  30  35
ATOM     35  O   UNL     1     -11.378  63.387  38.204  1.00  0.00    -0.387 OA
ATOM     36  H   UNL     1     -11.632  62.524  38.616  1.00  0.00     0.211 HD
ENDBRANCH  30  35
BRANCH  31  37
ATOM     37  C   UNL     1      -8.896  66.428  40.484  1.00  0.00     0.191 C 
BRANCH  37  38
ATOM     38  O   UNL     1      -7.515  66.354  40.714  1.00  0.00    -0.394 OA
ATOM     39  H   UNL     1      -7.281  67.127  41.293  1.00  0.00     0.210 HD
ENDBRANCH  37  38
ENDBRANCH  31  37
BRANCH  32  40
ATOM     40  O   UNL     1      -8.161  65.055  38.044  1.00  0.00    -0.387 OA
ATOM     41  H   UNL     1      -8.056  66.024  37.851  1.00  0.00     0.211 HD
ENDBRANCH  32  40
ENDBRANCH   1  27
TORSDOF 12
ENDMDL
MODEL 4
REMARK VINA RESULT:    -1.799      1.899      5.772
REMARK INTER + INTRA:          -2.237
REMARK INTER:                  -1.287
REMARK INTRA:                  -0.950
REMARK UNBOUND:                 0.404
REMARK SMILES O=c1c(O[C@@H]2O[C@@H](CO)[C@@H](O)[C@H](O)[C@@H]2O)c(-c2ccc(O)c(O)c2)oc2cc(O)cc(O)c12
REMARK SMILES IDX 4 1 3 2 16 3 25 4 2 5 26 6 1 7 33 8 27 9 31 10 28 11 30 12
REMARK SMILES IDX 17 13 18 14 19 15 20 16 24 17 22 18 21 19 23 21 32 23 29 25
REMARK SMILES IDX 5 27 14 28 6 29 12 30 7 31 10 32 15 33 13 35 8 37 9 38 11 40
REMARK H PARENT 21 20 23 22 32 24 29 26 15 34 13 36 9 39 11 41
REMARK Flexibility Score: inf
ROOT
ATOM      1  O   UNL     1     -11.418  61.941  41.927  1.00  0.00    -0.454 OA
ENDROOT
BRANCH   1   2
ATOM      2  C   UNL     1     -10.743  62.215  43.124  1.00  0.00     0.214 A 
ATOM      3  C   UNL     1      -9.768  63.228  43.215  1.00  0.00     0.180 A 
ATOM      4  O   UNL     1      -9.073  63.372  44.336  1.00  0.00    -0.452 OA
ATOM      5  C   UNL     1     -11.032  61.448  44.258  1.00  0.00     0.239 A 
ATOM      6  C   UNL     1      -9.288  62.645  45.426  1.00  0.00     0.146 A 
ATOM      7  O   UNL     1     -11.894  60.537  44.159  1.00  0.00    -0.285 OA
ATOM      8  C   UNL     1     -10.323  61.673  45.463  1.00  0.00     0.111 A 
ATOM      9  C   UNL     1      -8.475  62.859  46.542  1.00  0.00     0.094 A 
ATOM     10  C   UNL     1     -10.547  60.963  46.680  1.00  0.00     0.134 A 
ATOM     11  C   UNL     1      -8.667  62.116  47.709  1.00  0.00     0.123 A 
ATOM     12  C   UNL     1      -9.694  61.176  47.770  1.00  0.00     0.093 A 
BRANCH   3  13
ATOM     13  C   UNL     1      -9.493  64.159  42.099  1.00  0.00     0.025 A 
ATOM     14  C   UNL     1      -9.931  65.493  42.147  1.00  0.00     0.016 A 
ATOM     15  C   UNL     1      -9.654  66.364  41.090  1.00  0.00     0.051 A 
ATOM     16  C   UNL     1      -8.923  65.923  39.983  1.00  0.00     0.157 A 
ATOM     17  C   UNL     1      -8.739  63.723  40.999  1.00  0.00     0.062 A 
ATOM     18  C   UNL     1      -8.460  64.596  39.938  1.00  0.00     0.158 A 
BRANCH  16  19
ATOM     19  O   UNL     1      -8.664  66.813  38.942  1.00  0.00    -0.504 OA
ATOM     20  H   UNL     1      -8.277  67.734  39.105  1.00  0.00     0.293 HD
ENDBRANCH  16  19
BRANCH  18  21
ATOM     21  O   UNL     1      -7.724  64.151  38.841  1.00  0.00    -0.504 OA
ATOM     22  H   UNL     1      -7.074  63.376  38.915  1.00  0.00     0.293 HD
ENDBRANCH  18  21
ENDBRANCH   3  13
BRANCH  10  23
ATOM     23  O   UNL     1     -11.600  60.065  46.877  1.00  0.00    -0.507 OA
ATOM     24  H   UNL     1     -11.719  59.199  46.373  1.00  0.00     0.293 HD
ENDBRANCH  10  23
BRANCH  11  25
ATOM     25  O   UNL     1      -7.847  62.311  48.818  1.00  0.00    -0.508 OA
ATOM     26  H   UNL     1      -8.035  61.854  49.703  1.00  0.00     0.293 HD
ENDBRANCH  11  25
ENDBRANCH   1   2
BRANCH   1  27
ATOM     27  C   UNL     1     -11.166  60.773  41.133  1.00  0.00     0.339 C 
ATOM     28  C   UNL     1     -12.445  59.929  40.954  1.00  0.00     0.214 C 
ATOM     29  O   UNL     1     -10.599  61.124  39.881  1.00  0.00    -0.332 OA
ATOM     30  C   UNL     1     -13.455  60.598  39.994  1.00  0.00     0.180 C 
ATOM     31  C   UNL     1     -11.476  61.938  39.121  1.00  0.00     0.179 C 
ATOM     32  C   UNL     1     -12.751  61.148  38.733  1.00  0.00     0.177 C 
BRANCH  28  33
ATOM     33  O   UNL     1     -13.033  59.683  42.205  1.00  0.00    -0.384 OA
ATOM     34  H   UNL     1     -13.463  58.790  42.148  1.00  0.00     0.211 HD
ENDBRANCH  28  33
BRANCH  30  35
ATOM     35  O   UNL     1     -14.222  61.586  40.639  1.00  0.00    -0.387 OA
ATOM     36  H   UNL     1     -15.102  61.647  40.191  1.00  0.00     0.211 HD
ENDBRANCH  30  35
BRANCH  31  37
ATOM     37  C   UNL     1     -10.720  62.437  37.880  1.00  0.00     0.191 C 
BRANCH  37  38
ATOM     38  O   UNL     1     -10.626  63.836  37.875  1.00  0.00    -0.394 OA
ATOM     39  H   UNL     1     -10.100  64.082  37.070  1.00  0.00     0.210 HD
ENDBRANCH  37  38
ENDBRANCH  31  37
BRANCH  32  40
ATOM     40  O   UNL     1     -12.401  60.081  37.887  1.00  0.00    -0.387 OA
ATOM     41  H   UNL     1     -13.242  59.601  37.666  1.00  0.00     0.211 HD
ENDBRANCH  32  40
ENDBRANCH   1  27
TORSDOF 12
ENDMDL
MODEL 5
REMARK VINA RESULT:    -0.647      1.796      6.319
REMARK INTER + INTRA:          -0.546
REMARK INTER:                   0.905
REMARK INTRA:                  -1.451
REMARK UNBOUND:                 0.404
REMARK SMILES O=c1c(O[C@@H]2O[C@@H](CO)[C@@H](O)[C@H](O)[C@@H]2O)c(-c2ccc(O)c(O)c2)oc2cc(O)cc(O)c12
REMARK SMILES IDX 4 1 3 2 16 3 25 4 2 5 26 6 1 7 33 8 27 9 31 10 28 11 30 12
REMARK SMILES IDX 17 13 18 14 19 15 20 16 24 17 22 18 21 19 23 21 32 23 29 25
REMARK SMILES IDX 5 27 14 28 6 29 12 30 7 31 10 32 15 33 13 35 8 37 9 38 11 40
REMARK H PARENT 21 20 23 22 32 24 29 26 15 34 13 36 9 39 11 41
REMARK Flexibility Score: inf
ROOT
ATOM      1  O   UNL     1      -9.639  62.897  41.877  1.00  0.00    -0.454 OA
ENDROOT
BRANCH   1   2
ATOM      2  C   UNL     1     -10.075  62.196  43.009  1.00  0.00     0.214 A 
ATOM      3  C   UNL     1     -11.134  61.269  42.950  1.00  0.00     0.180 A 
ATOM      4  O   UNL     1     -11.589  60.718  44.069  1.00  0.00    -0.452 OA
ATOM      5  C   UNL     1      -9.453  62.436  44.239  1.00  0.00     0.239 A 
ATOM      6  C   UNL     1     -11.053  60.943  45.262  1.00  0.00     0.146 A 
ATOM      7  O   UNL     1      -8.519  63.278  44.282  1.00  0.00    -0.285 OA
ATOM      8  C   UNL     1      -9.915  61.779  45.405  1.00  0.00     0.111 A 
ATOM      9  C   UNL     1     -11.633  60.335  46.379  1.00  0.00     0.094 A 
ATOM     10  C   UNL     1      -9.346  61.938  46.705  1.00  0.00     0.134 A 
ATOM     11  C   UNL     1     -11.102  60.545  47.652  1.00  0.00     0.123 A 
ATOM     12  C   UNL     1      -9.969  61.343  47.808  1.00  0.00     0.093 A 
BRANCH   3  13
ATOM     13  C   UNL     1     -11.760  60.869  41.671  1.00  0.00     0.025 A 
ATOM     14  C   UNL     1     -10.988  60.347  40.620  1.00  0.00     0.016 A 
ATOM     15  C   UNL     1     -11.595  59.963  39.422  1.00  0.00     0.051 A 
ATOM     16  C   UNL     1     -12.979  60.078  39.262  1.00  0.00     0.157 A 
ATOM     17  C   UNL     1     -13.152  60.962  41.519  1.00  0.00     0.062 A 
ATOM     18  C   UNL     1     -13.764  60.577  40.317  1.00  0.00     0.158 A 
BRANCH  16  19
ATOM     19  O   UNL     1     -13.558  59.690  38.054  1.00  0.00    -0.504 OA
ATOM     20  H   UNL     1     -13.582  58.723  37.755  1.00  0.00     0.293 HD
ENDBRANCH  16  19
BRANCH  18  21
ATOM     21  O   UNL     1     -15.145  60.687  40.167  1.00  0.00    -0.504 OA
ATOM     22  H   UNL     1     -15.770  59.935  40.433  1.00  0.00     0.293 HD
ENDBRANCH  18  21
ENDBRANCH   3  13
BRANCH  10  23
ATOM     23  O   UNL     1      -8.165  62.642  46.958  1.00  0.00    -0.507 OA
ATOM     24  H   UNL     1      -8.053  63.638  46.839  1.00  0.00     0.293 HD
ENDBRANCH  10  23
BRANCH  11  25
ATOM     25  O   UNL     1     -11.687  59.957  48.772  1.00  0.00    -0.508 OA
ATOM     26  H   UNL     1     -11.584  60.360  49.697  1.00  0.00     0.293 HD
ENDBRANCH  11  25
ENDBRANCH   1   2
BRANCH   1  27
ATOM     27  C   UNL     1     -10.343  64.018  41.328  1.00  0.00     0.339 C 
ATOM     28  C   UNL     1      -9.426  65.252  41.202  1.00  0.00     0.214 C 
ATOM     29  O   UNL     1     -10.935  63.685  40.082  1.00  0.00    -0.332 OA
ATOM     30  C   UNL     1      -8.394  65.098  40.061  1.00  0.00     0.180 C 
ATOM     31  C   UNL     1      -9.956  63.323  39.121  1.00  0.00     0.179 C 
ATOM     32  C   UNL     1      -9.054  64.534  38.782  1.00  0.00     0.177 C 
BRANCH  28  33
ATOM     33  O   UNL     1      -8.783  65.494  42.426  1.00  0.00    -0.384 OA
ATOM     34  H   UNL     1      -9.345  66.146  42.921  1.00  0.00     0.211 HD
ENDBRANCH  28  33
BRANCH  30  35
ATOM     35  O   UNL     1      -7.280  64.334  40.457  1.00  0.00    -0.387 OA
ATOM     36  H   UNL     1      -7.602  63.523  40.923  1.00  0.00     0.211 HD
ENDBRANCH  30  35
BRANCH  31  37
ATOM     37  C   UNL     1     -10.678  62.788  37.875  1.00  0.00     0.191 C 
BRANCH  37  38
ATOM     38  O   UNL     1     -12.035  63.139  37.888  1.00  0.00    -0.394 OA
ATOM     39  H   UNL     1     -12.104  63.990  38.394  1.00  0.00     0.210 HD
ENDBRANCH  37  38
ENDBRANCH  31  37
BRANCH  32  40
ATOM     40  O   UNL     1      -9.826  65.538  38.171  1.00  0.00    -0.387 OA
ATOM     41  H   UNL     1     -10.430  65.085  37.526  1.00  0.00     0.211 HD
ENDBRANCH  32  40
ENDBRANCH   1  27
TORSDOF 12
ENDMDL
MODEL 6
REMARK VINA RESULT:    -0.603      2.410      6.043
REMARK INTER + INTRA:          -0.482
REMARK INTER:                  -0.068
REMARK INTRA:                  -0.414
REMARK UNBOUND:                 0.404
REMARK SMILES O=c1c(O[C@@H]2O[C@@H](CO)[C@@H](O)[C@H](O)[C@@H]2O)c(-c2ccc(O)c(O)c2)oc2cc(O)cc(O)c12
REMARK SMILES IDX 4 1 3 2 16 3 25 4 2 5 26 6 1 7 33 8 27 9 31 10 28 11 30 12
REMARK SMILES IDX 17 13 18 14 19 15 20 16 24 17 22 18 21 19 23 21 32 23 29 25
REMARK SMILES IDX 5 27 14 28 6 29 12 30 7 31 10 32 15 33 13 35 8 37 9 38 11 40
REMARK H PARENT 21 20 23 22 32 24 29 26 15 34 13 36 9 39 11 41
REMARK Flexibility Score: inf
ROOT
ATOM      1  O   UNL     1      -9.842  62.093  42.063  1.00  0.00    -0.454 OA
ENDROOT
BRANCH   1   2
ATOM      2  C   UNL     1      -9.568  62.790  43.247  1.00  0.00     0.214 A 
ATOM      3  C   UNL     1      -9.068  64.107  43.238  1.00  0.00     0.180 A 
ATOM      4  O   UNL     1      -8.713  64.683  44.380  1.00  0.00    -0.452 OA
ATOM      5  C   UNL     1      -9.780  62.154  44.475  1.00  0.00     0.239 A 
ATOM      6  C   UNL     1      -8.863  64.106  45.565  1.00  0.00     0.146 A 
ATOM      7  O   UNL     1     -10.212  60.973  44.469  1.00  0.00    -0.285 OA
ATOM      8  C   UNL     1      -9.458  62.822  45.681  1.00  0.00     0.111 A 
ATOM      9  C   UNL     1      -8.426  64.791  46.702  1.00  0.00     0.094 A 
ATOM     10  C   UNL     1      -9.648  62.276  46.986  1.00  0.00     0.134 A 
ATOM     11  C   UNL     1      -8.564  64.220  47.968  1.00  0.00     0.123 A 
ATOM     12  C   UNL     1      -9.169  62.971  48.102  1.00  0.00     0.093 A 
BRANCH   3  13
ATOM     13  C   UNL     1      -8.932  64.890  41.990  1.00  0.00     0.025 A 
ATOM     14  C   UNL     1      -9.430  66.200  41.901  1.00  0.00     0.016 A 
ATOM     15  C   UNL     1      -9.284  66.931  40.720  1.00  0.00     0.051 A 
ATOM     16  C   UNL     1      -8.627  66.373  39.619  1.00  0.00     0.157 A 
ATOM     17  C   UNL     1      -8.251  64.339  40.893  1.00  0.00     0.062 A 
ATOM     18  C   UNL     1      -8.104  65.071  39.707  1.00  0.00     0.158 A 
BRANCH  16  19
ATOM     19  O   UNL     1      -8.499  67.125  38.452  1.00  0.00    -0.504 OA
ATOM     20  H   UNL     1      -7.625  67.189  37.946  1.00  0.00     0.293 HD
ENDBRANCH  16  19
BRANCH  18  21
ATOM     21  O   UNL     1      -7.441  64.511  38.616  1.00  0.00    -0.504 OA
ATOM     22  H   UNL     1      -6.560  64.021  38.725  1.00  0.00     0.293 HD
ENDBRANCH  18  21
ENDBRANCH   3  13
BRANCH  10  23
ATOM     23  O   UNL     1     -10.320  61.075  47.238  1.00  0.00    -0.507 OA
ATOM     24  H   UNL     1     -10.746  60.830  48.119  1.00  0.00     0.293 HD
ENDBRANCH  10  23
BRANCH  11  25
ATOM     25  O   UNL     1      -8.112  64.890  49.102  1.00  0.00    -0.508 OA
ATOM     26  H   UNL     1      -7.439  64.469  49.733  1.00  0.00     0.293 HD
ENDBRANCH  11  25
ENDBRANCH   1   2
BRANCH   1  27
ATOM     27  C   UNL     1     -10.880  62.471  41.150  1.00  0.00     0.339 C 
ATOM     28  C   UNL     1     -10.670  61.832  39.762  1.00  0.00     0.214 C 
ATOM     29  O   UNL     1     -12.159  62.154  41.676  1.00  0.00    -0.332 OA
ATOM     30  C   UNL     1     -10.966  60.315  39.768  1.00  0.00     0.180 C 
ATOM     31  C   UNL     1     -12.305  60.760  41.885  1.00  0.00     0.179 C 
ATOM     32  C   UNL     1     -12.270  60.002  40.536  1.00  0.00     0.177 C 
BRANCH  28  33
ATOM     33  O   UNL     1      -9.363  62.084  39.315  1.00  0.00    -0.384 OA
ATOM     34  H   UNL     1      -9.075  62.934  39.738  1.00  0.00     0.211 HD
ENDBRANCH  28  33
BRANCH  30  35
ATOM     35  O   UNL     1      -9.878  59.567  40.256  1.00  0.00    -0.387 OA
ATOM     36  H   UNL     1      -9.085  60.157  40.305  1.00  0.00     0.211 HD
ENDBRANCH  30  35
BRANCH  31  37
ATOM     37  C   UNL     1     -13.623  60.519  42.636  1.00  0.00     0.191 C 
BRANCH  37  38
ATOM     38  O   UNL     1     -13.474  60.762  44.009  1.00  0.00    -0.394 OA
ATOM     39  H   UNL     1     -12.510  60.641  44.216  1.00  0.00     0.210 HD
ENDBRANCH  37  38
ENDBRANCH  31  37
BRANCH  32  40
ATOM     40  O   UNL     1     -13.376  60.382  39.756  1.00  0.00    -0.387 OA
ATOM     41  H   UNL     1     -13.647  59.584  39.231  1.00  0.00     0.211 HD
ENDBRANCH  32  40
ENDBRANCH   1  27
TORSDOF 12
ENDMDL
MODEL 7
REMARK VINA RESULT:    -0.595      3.130      6.544
REMARK INTER + INTRA:          -0.470
REMARK INTER:                   0.659
REMARK INTRA:                  -1.129
REMARK UNBOUND:                 0.404
REMARK SMILES O=c1c(O[C@@H]2O[C@@H](CO)[C@@H](O)[C@H](O)[C@@H]2O)c(-c2ccc(O)c(O)c2)oc2cc(O)cc(O)c12
REMARK SMILES IDX 4 1 3 2 16 3 25 4 2 5 26 6 1 7 33 8 27 9 31 10 28 11 30 12
REMARK SMILES IDX 17 13 18 14 19 15 20 16 24 17 22 18 21 19 23 21 32 23 29 25
REMARK SMILES IDX 5 27 14 28 6 29 12 30 7 31 10 32 15 33 13 35 8 37 9 38 11 40
REMARK H PARENT 21 20 23 22 32 24 29 26 15 34 13 36 9 39 11 41
REMARK Flexibility Score: inf
ROOT
ATOM      1  O   UNL     1      -9.643  63.654  45.532  1.00  0.00    -0.454 OA
ENDROOT
BRANCH   1   2
ATOM      2  C   UNL     1      -9.595  63.629  44.131  1.00  0.00     0.214 A 
ATOM      3  C   UNL     1      -9.974  62.491  43.392  1.00  0.00     0.180 A 
ATOM      4  O   UNL     1      -9.800  62.474  42.077  1.00  0.00    -0.452 OA
ATOM      5  C   UNL     1      -9.141  64.762  43.447  1.00  0.00     0.239 A 
ATOM      6  C   UNL     1      -9.340  63.512  41.389  1.00  0.00     0.146 A 
ATOM      7  O   UNL     1      -8.791  65.766  44.120  1.00  0.00    -0.285 OA
ATOM      8  C   UNL     1      -9.034  64.738  42.035  1.00  0.00     0.111 A 
ATOM      9  C   UNL     1      -9.166  63.374  40.009  1.00  0.00     0.094 A 
ATOM     10  C   UNL     1      -8.599  65.839  41.237  1.00  0.00     0.134 A 
ATOM     11  C   UNL     1      -8.685  64.440  39.248  1.00  0.00     0.123 A 
ATOM     12  C   UNL     1      -8.403  65.659  39.863  1.00  0.00     0.093 A 
BRANCH   3  13
ATOM     13  C   UNL     1     -10.578  61.302  44.031  1.00  0.00     0.025 A 
ATOM     14  C   UNL     1      -9.784  60.371  44.722  1.00  0.00     0.016 A 
ATOM     15  C   UNL     1     -10.370  59.258  45.329  1.00  0.00     0.051 A 
ATOM     16  C   UNL     1     -11.754  59.068  45.272  1.00  0.00     0.157 A 
ATOM     17  C   UNL     1     -11.969  61.123  43.995  1.00  0.00     0.062 A 
ATOM     18  C   UNL     1     -12.559  60.007  44.604  1.00  0.00     0.158 A 
BRANCH  16  19
ATOM     19  O   UNL     1     -12.311  57.946  45.885  1.00  0.00    -0.504 OA
ATOM     20  H   UNL     1     -12.336  57.041  45.431  1.00  0.00     0.293 HD
ENDBRANCH  16  19
BRANCH  18  21
ATOM     21  O   UNL     1     -13.941  59.828  44.549  1.00  0.00    -0.504 OA
ATOM     22  H   UNL     1     -14.353  58.912  44.409  1.00  0.00     0.293 HD
ENDBRANCH  18  21
ENDBRANCH   3  13
BRANCH  10  23
ATOM     23  O   UNL     1      -8.373  67.125  41.738  1.00  0.00    -0.507 OA
ATOM     24  H   UNL     1      -9.057  67.867  41.745  1.00  0.00     0.293 HD
ENDBRANCH  10  23
BRANCH  11  25
ATOM     25  O   UNL     1      -8.491  64.303  37.875  1.00  0.00    -0.508 OA
ATOM     26  H   UNL     1      -9.032  63.643  37.327  1.00  0.00     0.293 HD
ENDBRANCH  11  25
ENDBRANCH   1   2
BRANCH   1  27
ATOM     27  C   UNL     1      -8.530  63.296  46.362  1.00  0.00     0.339 C 
ATOM     28  C   UNL     1      -8.108  64.468  47.271  1.00  0.00     0.214 C 
ATOM     29  O   UNL     1      -8.815  62.131  47.119  1.00  0.00    -0.332 OA
ATOM     30  C   UNL     1      -9.122  64.717  48.411  1.00  0.00     0.180 C 
ATOM     31  C   UNL     1      -9.912  62.334  47.994  1.00  0.00     0.179 C 
ATOM     32  C   UNL     1      -9.559  63.390  49.071  1.00  0.00     0.177 C 
BRANCH  28  33
ATOM     33  O   UNL     1      -7.928  65.628  46.501  1.00  0.00    -0.384 OA
ATOM     34  H   UNL     1      -7.796  65.332  45.564  1.00  0.00     0.211 HD
ENDBRANCH  28  33
BRANCH  30  35
ATOM     35  O   UNL     1     -10.226  65.476  47.978  1.00  0.00    -0.387 OA
ATOM     36  H   UNL     1     -10.076  65.745  47.038  1.00  0.00     0.211 HD
ENDBRANCH  30  35
BRANCH  31  37
ATOM     37  C   UNL     1     -10.283  60.983  48.625  1.00  0.00     0.191 C 
BRANCH  37  38
ATOM     38  O   UNL     1     -11.604  60.992  49.096  1.00  0.00    -0.394 OA
ATOM     39  H   UNL     1     -12.048  60.192  48.711  1.00  0.00     0.210 HD
ENDBRANCH  37  38
ENDBRANCH  31  37
BRANCH  32  40
ATOM     40  O   UNL     1      -8.519  62.903  49.881  1.00  0.00    -0.387 OA
ATOM     41  H   UNL     1      -8.609  63.348  50.764  1.00  0.00     0.211 HD
ENDBRANCH  32  40
ENDBRANCH   1  27
TORSDOF 12
ENDMDL
