MODEL 1
REMARK VINA RESULT:    -5.964      0.000      0.000
REMARK INTER + INTRA:         -14.066
REMARK INTER:                 -11.542
REMARK INTRA:                  -2.524
REMARK UNBOUND:                -2.524
REMARK SMILES CCCCCCCCCCCCCCCCCC(=O)[O-]
REMARK SMILES IDX 10 1 11 2 12 3 13 4 14 5 15 6 16 7 17 8 18 9 19 10 20 11
REMARK SMILES IDX 9 12 8 13 7 14 6 15 5 16 4 17 3 18 2 19 1 20
REMARK H PARENT
REMARK Flexibility Score: inf
ROOT
ATOM      1  C   UNL     1     217.619  -7.842  25.449  1.00  0.00     0.000 C 
ENDROOT
BRANCH   1   2
ATOM      2  C   UNL     1     218.414  -6.856  24.579  1.00  0.00     0.000 C 
BRANCH   2   3
ATOM      3  C   UNL     1     219.865  -6.741  25.067  1.00  0.00     0.000 C 
BRANCH   3   4
ATOM      4  C   UNL     1     220.886  -6.720  23.916  1.00  0.00     0.000 C 
BRANCH   4   5
ATOM      5  C   UNL     1     221.389  -8.106  23.469  1.00  0.00     0.000 C 
BRANCH   5   6
ATOM      6  C   UNL     1     221.220  -8.407  21.968  1.00  0.00     0.000 C 
BRANCH   6   7
ATOM      7  C   UNL     1     219.765  -8.285  21.469  1.00  0.00     0.006 C 
BRANCH   7   8
ATOM      8  C   UNL     1     219.102  -9.652  21.252  1.00  0.00     0.053 C 
BRANCH   8   9
ATOM      9  C   UNL     1     218.350 -10.069  22.475  1.00  0.00     0.041 C 
ATOM     10  O   UNL     1     218.931 -10.716  23.386  1.00  0.00    -0.550 OA
ATOM     11  O   UNL     1     216.994  -9.785  22.590  1.00  0.00    -0.550 OA
ENDBRANCH   8   9
ENDBRANCH   7   8
ENDBRANCH   6   7
ENDBRANCH   5   6
ENDBRANCH   4   5
ENDBRANCH   3   4
ENDBRANCH   2   3
ENDBRANCH   1   2
BRANCH   1  12
ATOM     12  C   UNL     1     217.890  -7.660  26.951  1.00  0.00     0.000 C 
BRANCH  12  13
ATOM     13  C   UNL     1     217.602  -8.931  27.764  1.00  0.00    -0.000 C 
BRANCH  13  14
ATOM     14  C   UNL     1     218.235  -8.847  29.158  1.00  0.00    -0.000 C 
BRANCH  14  15
ATOM     15  C   UNL     1     218.977  -7.514  29.344  1.00  0.00    -0.000 C 
BRANCH  15  16
ATOM     16  C   UNL     1     220.433  -7.705  29.799  1.00  0.00    -0.000 C 
BRANCH  16  17
ATOM     17  C   UNL     1     221.101  -8.929  29.148  1.00  0.00    -0.000 C 
BRANCH  17  18
ATOM     18  C   UNL     1     221.652  -8.624  27.745  1.00  0.00    -0.000 C 
BRANCH  18  19
ATOM     19  C   UNL     1     221.192  -9.644  26.693  1.00  0.00    -0.003 C 
ATOM     20  C   UNL     1     222.226 -10.753  26.516  1.00  0.00     0.004 C 
ENDBRANCH  18  19
ENDBRANCH  17  18
ENDBRANCH  16  17
ENDBRANCH  15  16
ENDBRANCH  14  15
ENDBRANCH  13  14
ENDBRANCH  12  13
ENDBRANCH   1  12
TORSDOF 16
ENDMDL
MODEL 2
REMARK VINA RESULT:    -5.889      2.434      5.908
REMARK INTER + INTRA:         -13.921
REMARK INTER:                 -11.133
REMARK INTRA:                  -2.788
REMARK UNBOUND:                -2.524
REMARK SMILES CCCCCCCCCCCCCCCCCC(=O)[O-]
REMARK SMILES IDX 10 1 11 2 12 3 13 4 14 5 15 6 16 7 17 8 18 9 19 10 20 11
REMARK SMILES IDX 9 12 8 13 7 14 6 15 5 16 4 17 3 18 2 19 1 20
REMARK H PARENT
REMARK Flexibility Score: inf
ROOT
ATOM      1  C   UNL     1     217.357  -7.629  25.324  1.00  0.00     0.000 C 
ENDROOT
BRANCH   1   2
ATOM      2  C   UNL     1     218.091  -8.596  26.265  1.00  0.00     0.000 C 
BRANCH   2   3
ATOM      3  C   UNL     1     217.190  -9.007  27.439  1.00  0.00     0.000 C 
BRANCH   3   4
ATOM      4  C   UNL     1     217.885  -8.869  28.806  1.00  0.00     0.000 C 
BRANCH   4   5
ATOM      5  C   UNL     1     218.579  -7.515  29.048  1.00  0.00     0.000 C 
BRANCH   5   6
ATOM      6  C   UNL     1     220.057  -7.608  29.469  1.00  0.00     0.000 C 
BRANCH   6   7
ATOM      7  C   UNL     1     221.029  -7.815  28.288  1.00  0.00     0.006 C 
BRANCH   7   8
ATOM      8  C   UNL     1     221.304  -9.298  28.007  1.00  0.00     0.053 C 
BRANCH   8   9
ATOM      9  C   UNL     1     222.746  -9.616  28.241  1.00  0.00     0.041 C 
ATOM     10  O   UNL     1     223.387  -9.019  29.146  1.00  0.00    -0.550 OA
ATOM     11  O   UNL     1     223.398 -10.537  27.429  1.00  0.00    -0.550 OA
ENDBRANCH   8   9
ENDBRANCH   7   8
ENDBRANCH   6   7
ENDBRANCH   5   6
ENDBRANCH   4   5
ENDBRANCH   3   4
ENDBRANCH   2   3
ENDBRANCH   1   2
BRANCH   1  12
ATOM     12  C   UNL     1     218.314  -6.866  24.393  1.00  0.00     0.000 C 
BRANCH  12  13
ATOM     13  C   UNL     1     219.661  -6.548  25.060  1.00  0.00    -0.000 C 
BRANCH  13  14
ATOM     14  C   UNL     1     220.822  -6.763  24.081  1.00  0.00    -0.000 C 
BRANCH  14  15
ATOM     15  C   UNL     1     221.706  -7.938  24.527  1.00  0.00    -0.000 C 
BRANCH  15  16
ATOM     16  C   UNL     1     221.412  -9.231  23.749  1.00  0.00    -0.000 C 
BRANCH  16  17
ATOM     17  C   UNL     1     220.856  -8.958  22.340  1.00  0.00    -0.000 C 
BRANCH  17  18
ATOM     18  C   UNL     1     219.412  -9.457  22.169  1.00  0.00    -0.000 C 
BRANCH  18  19
ATOM     19  C   UNL     1     218.996 -10.456  23.259  1.00  0.00    -0.003 C 
ATOM     20  C   UNL     1     217.545 -10.894  23.078  1.00  0.00     0.004 C 
ENDBRANCH  18  19
ENDBRANCH  17  18
ENDBRANCH  16  17
ENDBRANCH  15  16
ENDBRANCH  14  15
ENDBRANCH  13  14
ENDBRANCH  12  13
ENDBRANCH   1  12
TORSDOF 16
ENDMDL
MODEL 3
REMARK VINA RESULT:    -5.887      2.050      3.938
REMARK INTER + INTRA:         -13.918
REMARK INTER:                 -11.581
REMARK INTRA:                  -2.337
REMARK UNBOUND:                -2.524
REMARK SMILES CCCCCCCCCCCCCCCCCC(=O)[O-]
REMARK SMILES IDX 10 1 11 2 12 3 13 4 14 5 15 6 16 7 17 8 18 9 19 10 20 11
REMARK SMILES IDX 9 12 8 13 7 14 6 15 5 16 4 17 3 18 2 19 1 20
REMARK H PARENT
REMARK Flexibility Score: inf
ROOT
ATOM      1  C   UNL     1     217.776  -9.484  23.029  1.00  0.00     0.000 C 
ENDROOT
BRANCH   1   2
ATOM      2  C   UNL     1     218.641  -9.789  21.796  1.00  0.00     0.000 C 
BRANCH   2   3
ATOM      3  C   UNL     1     219.343  -8.520  21.292  1.00  0.00     0.000 C 
BRANCH   3   4
ATOM      4  C   UNL     1     220.837  -8.738  20.993  1.00  0.00     0.000 C 
BRANCH   4   5
ATOM      5  C   UNL     1     221.773  -8.581  22.207  1.00  0.00     0.000 C 
BRANCH   5   6
ATOM      6  C   UNL     1     221.299  -7.570  23.268  1.00  0.00     0.000 C 
BRANCH   6   7
ATOM      7  C   UNL     1     221.349  -8.114  24.711  1.00  0.00     0.006 C 
BRANCH   7   8
ATOM      8  C   UNL     1     221.328  -9.647  24.762  1.00  0.00     0.053 C 
BRANCH   8   9
ATOM      9  C   UNL     1     222.044 -10.140  25.978  1.00  0.00     0.041 C 
ATOM     10  O   UNL     1     222.074 -11.371  26.241  1.00  0.00    -0.550 OA
ATOM     11  O   UNL     1     222.639  -9.236  26.851  1.00  0.00    -0.550 OA
ENDBRANCH   8   9
ENDBRANCH   7   8
ENDBRANCH   6   7
ENDBRANCH   5   6
ENDBRANCH   4   5
ENDBRANCH   3   4
ENDBRANCH   2   3
ENDBRANCH   1   2
BRANCH   1  12
ATOM     12  C   UNL     1     217.607  -7.977  23.278  1.00  0.00     0.000 C 
BRANCH  12  13
ATOM     13  C   UNL     1     217.673  -7.611  24.768  1.00  0.00    -0.000 C 
BRANCH  13  14
ATOM     14  C   UNL     1     217.837  -8.865  25.635  1.00  0.00    -0.000 C 
BRANCH  14  15
ATOM     15  C   UNL     1     217.608  -8.539  27.119  1.00  0.00    -0.000 C 
BRANCH  15  16
ATOM     16  C   UNL     1     218.291  -7.231  27.552  1.00  0.00    -0.000 C 
BRANCH  16  17
ATOM     17  C   UNL     1     218.406  -7.103  29.081  1.00  0.00    -0.000 C 
BRANCH  17  18
ATOM     18  C   UNL     1     218.182  -8.441  29.804  1.00  0.00    -0.000 C 
BRANCH  18  19
ATOM     19  C   UNL     1     219.491  -9.079  30.291  1.00  0.00    -0.003 C 
ATOM     20  C   UNL     1     220.512  -8.011  30.673  1.00  0.00     0.004 C 
ENDBRANCH  18  19
ENDBRANCH  17  18
ENDBRANCH  16  17
ENDBRANCH  15  16
ENDBRANCH  14  15
ENDBRANCH  13  14
ENDBRANCH  12  13
ENDBRANCH   1  12
TORSDOF 16
ENDMDL
MODEL 4
REMARK VINA RESULT:    -5.863      2.603      6.196
REMARK INTER + INTRA:         -13.870
REMARK INTER:                 -11.111
REMARK INTRA:                  -2.759
REMARK UNBOUND:                -2.524
REMARK SMILES CCCCCCCCCCCCCCCCCC(=O)[O-]
REMARK SMILES IDX 10 1 11 2 12 3 13 4 14 5 15 6 16 7 17 8 18 9 19 10 20 11
REMARK SMILES IDX 9 12 8 13 7 14 6 15 5 16 4 17 3 18 2 19 1 20
REMARK H PARENT
REMARK Flexibility Score: inf
ROOT
ATOM      1  C   UNL     1     217.890  -9.245  25.250  1.00  0.00     0.000 C 
ENDROOT
BRANCH   1   2
ATOM      2  C   UNL     1     217.752  -7.771  24.837  1.00  0.00     0.000 C 
BRANCH   2   3
ATOM      3  C   UNL     1     218.491  -6.854  25.821  1.00  0.00     0.000 C 
BRANCH   3   4
ATOM      4  C   UNL     1     219.160  -7.624  26.974  1.00  0.00     0.000 C 
BRANCH   4   5
ATOM      5  C   UNL     1     218.527  -7.398  28.360  1.00  0.00     0.000 C 
BRANCH   5   6
ATOM      6  C   UNL     1     217.918  -8.653  29.011  1.00  0.00     0.000 C 
BRANCH   6   7
ATOM      7  C   UNL     1     218.450  -8.937  30.432  1.00  0.00     0.006 C 
BRANCH   7   8
ATOM      8  C   UNL     1     219.379 -10.157  30.479  1.00  0.00     0.053 C 
BRANCH   8   9
ATOM      9  C   UNL     1     220.802  -9.738  30.297  1.00  0.00     0.041 C 
ATOM     10  O   UNL     1     221.411  -9.142  31.224  1.00  0.00    -0.550 OA
ATOM     11  O   UNL     1     221.444  -9.961  29.084  1.00  0.00    -0.550 OA
ENDBRANCH   8   9
ENDBRANCH   7   8
ENDBRANCH   6   7
ENDBRANCH   5   6
ENDBRANCH   4   5
ENDBRANCH   3   4
ENDBRANCH   2   3
ENDBRANCH   1   2
BRANCH   1  12
ATOM     12  C   UNL     1     218.059 -10.186  24.047  1.00  0.00     0.000 C 
BRANCH  12  13
ATOM     13  C   UNL     1     217.535  -9.575  22.738  1.00  0.00    -0.000 C 
BRANCH  13  14
ATOM     14  C   UNL     1     218.544  -9.770  21.599  1.00  0.00    -0.000 C 
BRANCH  14  15
ATOM     15  C   UNL     1     219.301  -8.465  21.309  1.00  0.00    -0.000 C 
BRANCH  15  16
ATOM     16  C   UNL     1     220.728  -8.466  21.881  1.00  0.00    -0.000 C 
BRANCH  16  17
ATOM     17  C   UNL     1     220.901  -7.469  23.039  1.00  0.00    -0.000 C 
BRANCH  17  18
ATOM     18  C   UNL     1     221.670  -8.072  24.227  1.00  0.00    -0.000 C 
BRANCH  18  19
ATOM     19  C   UNL     1     221.734  -9.605  24.175  1.00  0.00    -0.003 C 
ATOM     20  C   UNL     1     221.475 -10.212  25.551  1.00  0.00     0.004 C 
ENDBRANCH  18  19
ENDBRANCH  17  18
ENDBRANCH  16  17
ENDBRANCH  15  16
ENDBRANCH  14  15
ENDBRANCH  13  14
ENDBRANCH  12  13
ENDBRANCH   1  12
TORSDOF 16
ENDMDL
MODEL 5
REMARK VINA RESULT:    -5.835      2.833      5.827
REMARK INTER + INTRA:         -13.816
REMARK INTER:                 -10.979
REMARK INTRA:                  -2.838
REMARK UNBOUND:                -2.524
REMARK SMILES CCCCCCCCCCCCCCCCCC(=O)[O-]
REMARK SMILES IDX 10 1 11 2 12 3 13 4 14 5 15 6 16 7 17 8 18 9 19 10 20 11
REMARK SMILES IDX 9 12 8 13 7 14 6 15 5 16 4 17 3 18 2 19 1 20
REMARK H PARENT
REMARK Flexibility Score: inf
ROOT
ATOM      1  C   UNL     1     218.230  -8.782  22.214  1.00  0.00     0.000 C 
ENDROOT
BRANCH   1   2
ATOM      2  C   UNL     1     217.979 -10.049  23.046  1.00  0.00     0.000 C 
BRANCH   2   3
ATOM      3  C   UNL     1     217.991  -9.730  24.548  1.00  0.00     0.000 C 
BRANCH   3   4
ATOM      4  C   UNL     1     217.774  -8.236  24.847  1.00  0.00     0.000 C 
BRANCH   4   5
ATOM      5  C   UNL     1     217.847  -7.854  26.337  1.00  0.00     0.000 C 
BRANCH   5   6
ATOM      6  C   UNL     1     217.163  -8.845  27.297  1.00  0.00     0.000 C 
BRANCH   6   7
ATOM      7  C   UNL     1     218.059  -9.293  28.472  1.00  0.00     0.006 C 
BRANCH   7   8
ATOM      8  C   UNL     1     218.870  -8.134  29.067  1.00  0.00     0.053 C 
BRANCH   8   9
ATOM      9  C   UNL     1     219.373  -8.492  30.428  1.00  0.00     0.041 C 
ATOM     10  O   UNL     1     218.787  -9.377  31.107  1.00  0.00    -0.550 OA
ATOM     11  O   UNL     1     220.459  -7.816  30.970  1.00  0.00    -0.550 OA
ENDBRANCH   8   9
ENDBRANCH   7   8
ENDBRANCH   6   7
ENDBRANCH   5   6
ENDBRANCH   4   5
ENDBRANCH   3   4
ENDBRANCH   2   3
ENDBRANCH   1   2
BRANCH   1  12
ATOM     12  C   UNL     1     219.304  -8.985  21.133  1.00  0.00     0.000 C 
BRANCH  12  13
ATOM     13  C   UNL     1     220.728  -8.761  21.661  1.00  0.00    -0.000 C 
BRANCH  13  14
ATOM     14  C   UNL     1     220.758  -7.631  22.697  1.00  0.00    -0.000 C 
BRANCH  14  15
ATOM     15  C   UNL     1     221.390  -8.110  24.014  1.00  0.00    -0.000 C 
BRANCH  15  16
ATOM     16  C   UNL     1     221.686  -9.618  24.015  1.00  0.00    -0.000 C 
BRANCH  16  17
ATOM     17  C   UNL     1     221.535 -10.248  25.411  1.00  0.00    -0.000 C 
BRANCH  17  18
ATOM     18  C   UNL     1     221.294  -9.200  26.509  1.00  0.00    -0.000 C 
BRANCH  18  19
ATOM     19  C   UNL     1     222.314  -9.295  27.653  1.00  0.00    -0.003 C 
ATOM     20  C   UNL     1     221.920 -10.379  28.652  1.00  0.00     0.004 C 
ENDBRANCH  18  19
ENDBRANCH  17  18
ENDBRANCH  16  17
ENDBRANCH  15  16
ENDBRANCH  14  15
ENDBRANCH  13  14
ENDBRANCH  12  13
ENDBRANCH   1  12
TORSDOF 16
ENDMDL
MODEL 6
REMARK VINA RESULT:    -5.812      1.244      3.307
REMARK INTER + INTRA:         -13.773
REMARK INTER:                 -11.033
REMARK INTRA:                  -2.740
REMARK UNBOUND:                -2.524
REMARK SMILES CCCCCCCCCCCCCCCCCC(=O)[O-]
REMARK SMILES IDX 10 1 11 2 12 3 13 4 14 5 15 6 16 7 17 8 18 9 19 10 20 11
REMARK SMILES IDX 9 12 8 13 7 14 6 15 5 16 4 17 3 18 2 19 1 20
REMARK H PARENT
REMARK Flexibility Score: inf
ROOT
ATOM      1  C   UNL     1     221.024 -10.275  24.482  1.00  0.00     0.000 C 
ENDROOT
BRANCH   1   2
ATOM      2  C   UNL     1     221.458  -9.285  23.390  1.00  0.00     0.000 C 
BRANCH   2   3
ATOM      3  C   UNL     1     221.809  -7.919  23.997  1.00  0.00     0.000 C 
BRANCH   3   4
ATOM      4  C   UNL     1     220.710  -6.864  23.776  1.00  0.00     0.000 C 
BRANCH   4   5
ATOM      5  C   UNL     1     219.865  -6.534  25.021  1.00  0.00     0.000 C 
BRANCH   5   6
ATOM      6  C   UNL     1     218.366  -6.860  24.896  1.00  0.00     0.000 C 
BRANCH   6   7
ATOM      7  C   UNL     1     217.988  -7.550  23.568  1.00  0.00     0.006 C 
BRANCH   7   8
ATOM      8  C   UNL     1     217.636  -9.032  23.756  1.00  0.00     0.053 C 
BRANCH   8   9
ATOM      9  C   UNL     1     217.897  -9.795  22.497  1.00  0.00     0.041 C 
ATOM     10  O   UNL     1     218.346  -9.204  21.479  1.00  0.00    -0.550 OA
ATOM     11  O   UNL     1     217.599 -11.151  22.429  1.00  0.00    -0.550 OA
ENDBRANCH   8   9
ENDBRANCH   7   8
ENDBRANCH   6   7
ENDBRANCH   5   6
ENDBRANCH   4   5
ENDBRANCH   3   4
ENDBRANCH   2   3
ENDBRANCH   1   2
BRANCH   1  12
ATOM     12  C   UNL     1     221.230  -9.721  25.901  1.00  0.00     0.000 C 
BRANCH  12  13
ATOM     13  C   UNL     1     222.037 -10.673  26.798  1.00  0.00    -0.000 C 
BRANCH  13  14
ATOM     14  C   UNL     1     222.254 -10.065  28.189  1.00  0.00    -0.000 C 
BRANCH  14  15
ATOM     15  C   UNL     1     222.035  -8.544  28.163  1.00  0.00    -0.000 C 
BRANCH  15  16
ATOM     16  C   UNL     1     220.831  -8.103  29.010  1.00  0.00    -0.000 C 
BRANCH  16  17
ATOM     17  C   UNL     1     220.188  -9.272  29.777  1.00  0.00    -0.000 C 
BRANCH  17  18
ATOM     18  C   UNL     1     218.762  -9.583  29.293  1.00  0.00    -0.000 C 
BRANCH  18  19
ATOM     19  C   UNL     1     218.353  -8.741  28.076  1.00  0.00    -0.003 C 
ATOM     20  C   UNL     1     217.046  -9.248  27.473  1.00  0.00     0.004 C 
ENDBRANCH  18  19
ENDBRANCH  17  18
ENDBRANCH  16  17
ENDBRANCH  15  16
ENDBRANCH  14  15
ENDBRANCH  13  14
ENDBRANCH  12  13
ENDBRANCH   1  12
TORSDOF 16
ENDMDL
MODEL 7
REMARK VINA RESULT:    -5.808      2.570      5.871
REMARK INTER + INTRA:         -13.765
REMARK INTER:                 -11.277
REMARK INTRA:                  -2.488
REMARK UNBOUND:                -2.524
REMARK SMILES CCCCCCCCCCCCCCCCCC(=O)[O-]
REMARK SMILES IDX 10 1 11 2 12 3 13 4 14 5 15 6 16 7 17 8 18 9 19 10 20 11
REMARK SMILES IDX 9 12 8 13 7 14 6 15 5 16 4 17 3 18 2 19 1 20
REMARK H PARENT
REMARK Flexibility Score: inf
ROOT
ATOM      1  C   UNL     1     218.451  -6.876  24.702  1.00  0.00     0.000 C 
ENDROOT
BRANCH   1   2
ATOM      2  C   UNL     1     218.105  -7.254  26.151  1.00  0.00     0.000 C 
BRANCH   2   3
ATOM      3  C   UNL     1     217.794  -8.753  26.267  1.00  0.00     0.000 C 
BRANCH   3   4
ATOM      4  C   UNL     1     217.209  -9.141  27.637  1.00  0.00     0.000 C 
BRANCH   4   5
ATOM      5  C   UNL     1     217.997  -8.615  28.852  1.00  0.00     0.000 C 
BRANCH   5   6
ATOM      6  C   UNL     1     218.719  -9.696  29.677  1.00  0.00     0.000 C 
BRANCH   6   7
ATOM      7  C   UNL     1     220.256  -9.566  29.664  1.00  0.00     0.006 C 
BRANCH   7   8
ATOM      8  C   UNL     1     220.833  -9.558  28.242  1.00  0.00     0.053 C 
BRANCH   8   9
ATOM      9  C   UNL     1     221.822  -8.448  28.085  1.00  0.00     0.041 C 
ATOM     10  O   UNL     1     221.574  -7.306  28.556  1.00  0.00    -0.550 OA
ATOM     11  O   UNL     1     222.999  -8.658  27.375  1.00  0.00    -0.550 OA
ENDBRANCH   8   9
ENDBRANCH   7   8
ENDBRANCH   6   7
ENDBRANCH   5   6
ENDBRANCH   4   5
ENDBRANCH   3   4
ENDBRANCH   2   3
ENDBRANCH   1   2
BRANCH   1  12
ATOM     12  C   UNL     1     217.339  -7.252  23.709  1.00  0.00     0.000 C 
BRANCH  12  13
ATOM     13  C   UNL     1     217.824  -8.210  22.611  1.00  0.00    -0.000 C 
BRANCH  13  14
ATOM     14  C   UNL     1     217.188  -9.596  22.770  1.00  0.00    -0.000 C 
BRANCH  14  15
ATOM     15  C   UNL     1     218.206 -10.607  23.320  1.00  0.00    -0.000 C 
BRANCH  15  16
ATOM     16  C   UNL     1     219.656 -10.242  22.964  1.00  0.00    -0.000 C 
BRANCH  16  17
ATOM     17  C   UNL     1     220.575 -10.202  24.197  1.00  0.00    -0.000 C 
BRANCH  17  18
ATOM     18  C   UNL     1     221.444  -8.934  24.245  1.00  0.00    -0.000 C 
BRANCH  18  19
ATOM     19  C   UNL     1     221.471  -8.183  22.906  1.00  0.00    -0.003 C 
ATOM     20  C   UNL     1     222.641  -8.646  22.041  1.00  0.00     0.004 C 
ENDBRANCH  18  19
ENDBRANCH  17  18
ENDBRANCH  16  17
ENDBRANCH  15  16
ENDBRANCH  14  15
ENDBRANCH  13  14
ENDBRANCH  12  13
ENDBRANCH   1  12
TORSDOF 16
ENDMDL
MODEL 8
REMARK VINA RESULT:    -5.741      2.847      5.940
REMARK INTER + INTRA:         -13.635
REMARK INTER:                 -10.687
REMARK INTRA:                  -2.949
REMARK UNBOUND:                -2.524
REMARK SMILES CCCCCCCCCCCCCCCCCC(=O)[O-]
REMARK SMILES IDX 10 1 11 2 12 3 13 4 14 5 15 6 16 7 17 8 18 9 19 10 20 11
REMARK SMILES IDX 9 12 8 13 7 14 6 15 5 16 4 17 3 18 2 19 1 20
REMARK H PARENT
REMARK Flexibility Score: inf
ROOT
ATOM      1  C   UNL     1     218.117  -7.333  26.315  1.00  0.00     0.000 C 
ENDROOT
BRANCH   1   2
ATOM      2  C   UNL     1     217.845  -8.830  26.529  1.00  0.00     0.000 C 
BRANCH   2   3
ATOM      3  C   UNL     1     217.520  -9.124  28.000  1.00  0.00     0.000 C 
BRANCH   3   4
ATOM      4  C   UNL     1     218.122  -8.088  28.967  1.00  0.00     0.000 C 
BRANCH   4   5
ATOM      5  C   UNL     1     219.242  -8.624  29.878  1.00  0.00     0.000 C 
BRANCH   5   6
ATOM      6  C   UNL     1     220.634  -8.015  29.627  1.00  0.00     0.000 C 
BRANCH   6   7
ATOM      7  C   UNL     1     221.199  -8.313  28.222  1.00  0.00     0.006 C 
BRANCH   7   8
ATOM      8  C   UNL     1     221.408  -9.814  27.979  1.00  0.00     0.053 C 
BRANCH   8   9
ATOM      9  C   UNL     1     222.437 -10.357  28.919  1.00  0.00     0.041 C 
ATOM     10  O   UNL     1     223.634  -9.975  28.837  1.00  0.00    -0.550 OA
ATOM     11  O   UNL     1     222.085 -11.322  29.855  1.00  0.00    -0.550 OA
ENDBRANCH   8   9
ENDBRANCH   7   8
ENDBRANCH   6   7
ENDBRANCH   5   6
ENDBRANCH   4   5
ENDBRANCH   3   4
ENDBRANCH   2   3
ENDBRANCH   1   2
BRANCH   1  12
ATOM     12  C   UNL     1     218.569  -7.011  24.881  1.00  0.00     0.000 C 
BRANCH  12  13
ATOM     13  C   UNL     1     217.465  -7.254  23.842  1.00  0.00    -0.000 C 
BRANCH  13  14
ATOM     14  C   UNL     1     217.938  -8.226  22.755  1.00  0.00    -0.000 C 
BRANCH  14  15
ATOM     15  C   UNL     1     217.301  -9.612  22.943  1.00  0.00    -0.000 C 
BRANCH  15  16
ATOM     16  C   UNL     1     218.325 -10.686  23.348  1.00  0.00    -0.000 C 
BRANCH  16  17
ATOM     17  C   UNL     1     219.777 -10.239  23.106  1.00  0.00    -0.000 C 
BRANCH  17  18
ATOM     18  C   UNL     1     220.610 -10.214  24.398  1.00  0.00    -0.000 C 
BRANCH  18  19
ATOM     19  C   UNL     1     221.645  -9.080  24.414  1.00  0.00    -0.003 C 
ATOM     20  C   UNL     1     221.635  -8.309  23.097  1.00  0.00     0.004 C 
ENDBRANCH  18  19
ENDBRANCH  17  18
ENDBRANCH  16  17
ENDBRANCH  15  16
ENDBRANCH  14  15
ENDBRANCH  13  14
ENDBRANCH  12  13
ENDBRANCH   1  12
TORSDOF 16
ENDMDL
MODEL 9
REMARK VINA RESULT:    -5.730      3.217      6.289
REMARK INTER + INTRA:         -13.614
REMARK INTER:                 -11.037
REMARK INTRA:                  -2.577
REMARK UNBOUND:                -2.524
REMARK SMILES CCCCCCCCCCCCCCCCCC(=O)[O-]
REMARK SMILES IDX 10 1 11 2 12 3 13 4 14 5 15 6 16 7 17 8 18 9 19 10 20 11
REMARK SMILES IDX 9 12 8 13 7 14 6 15 5 16 4 17 3 18 2 19 1 20
REMARK H PARENT
REMARK Flexibility Score: inf
ROOT
ATOM      1  C   UNL     1     218.331  -6.873  24.229  1.00  0.00     0.000 C 
ENDROOT
BRANCH   1   2
ATOM      2  C   UNL     1     217.516  -7.744  25.198  1.00  0.00     0.000 C 
BRANCH   2   3
ATOM      3  C   UNL     1     218.285  -7.974  26.507  1.00  0.00     0.000 C 
BRANCH   3   4
ATOM      4  C   UNL     1     217.548  -8.912  27.480  1.00  0.00     0.000 C 
BRANCH   4   5
ATOM      5  C   UNL     1     217.965  -8.774  28.957  1.00  0.00     0.000 C 
BRANCH   5   6
ATOM      6  C   UNL     1     218.654  -7.445  29.318  1.00  0.00     0.000 C 
BRANCH   6   7
ATOM      7  C   UNL     1     219.955  -7.620  30.131  1.00  0.00     0.006 C 
BRANCH   7   8
ATOM      8  C   UNL     1     220.157  -9.062  30.613  1.00  0.00     0.053 C 
BRANCH   8   9
ATOM      9  C   UNL     1     221.496  -9.214  31.261  1.00  0.00     0.041 C 
ATOM     10  O   UNL     1     221.730 -10.201  32.007  1.00  0.00    -0.550 OA
ATOM     11  O   UNL     1     222.471  -8.240  31.083  1.00  0.00    -0.550 OA
ENDBRANCH   8   9
ENDBRANCH   7   8
ENDBRANCH   6   7
ENDBRANCH   5   6
ENDBRANCH   4   5
ENDBRANCH   3   4
ENDBRANCH   2   3
ENDBRANCH   1   2
BRANCH   1  12
ATOM     12  C   UNL     1     219.682  -6.437  24.817  1.00  0.00     0.000 C 
BRANCH  12  13
ATOM     13  C   UNL     1     220.868  -6.796  23.908  1.00  0.00    -0.000 C 
BRANCH  13  14
ATOM     14  C   UNL     1     220.418  -7.689  22.745  1.00  0.00    -0.000 C 
BRANCH  14  15
ATOM     15  C   UNL     1     221.019  -9.097  22.872  1.00  0.00    -0.000 C 
BRANCH  15  16
ATOM     16  C   UNL     1     220.129 -10.052  23.685  1.00  0.00    -0.000 C 
BRANCH  16  17
ATOM     17  C   UNL     1     220.881 -10.710  24.854  1.00  0.00    -0.000 C 
BRANCH  17  18
ATOM     18  C   UNL     1     221.876  -9.751  25.530  1.00  0.00    -0.000 C 
BRANCH  18  19
ATOM     19  C   UNL     1     221.562  -9.522  27.015  1.00  0.00    -0.003 C 
ATOM     20  C   UNL     1     222.242 -10.573  27.889  1.00  0.00     0.004 C 
ENDBRANCH  18  19
ENDBRANCH  17  18
ENDBRANCH  16  17
ENDBRANCH  15  16
ENDBRANCH  14  15
ENDBRANCH  13  14
ENDBRANCH  12  13
ENDBRANCH   1  12
TORSDOF 16
ENDMDL
