MODEL 1
REMARK VINA RESULT:    -6.759      0.000      0.000
REMARK INTER + INTRA:         -11.458
REMARK INTER:                  -9.327
REMARK INTRA:                  -2.131
REMARK UNBOUND:                -2.131
REMARK SMILES CC[C@@H](CC[C@H](C)[C@@H]1CC[C@H]2C3=CC[C@H]4C[C@H](O)CC[C@@]4(C)[C@H]3CC[C@]21C)C(C)C
REMARK SMILES IDX 5 1 4 2 3 3 2 4 1 5 28 6 29 7 30 8 6 9 7 10 8 11 9 12 26 13
REMARK SMILES IDX 10 14 11 15 25 16 27 17 12 18 24 19 23 20 13 21 21 22 14 23
REMARK SMILES IDX 15 24 20 25 22 26 16 27 19 28 17 29 18 30
REMARK H PARENT 18 31
REMARK Flexibility Score: inf
ROOT
ATOM      1  C   UNL     1     184.770 189.864 186.747  1.00  0.00     0.004 C 
ENDROOT
BRANCH   1   2
ATOM      2  C   UNL     1     185.936 189.562 185.781  1.00  0.00     0.004 C 
BRANCH   2   3
ATOM      3  C   UNL     1     187.311 190.005 186.350  1.00  0.00    -0.009 C 
BRANCH   3   4
ATOM      4  C   UNL     1     188.020 191.105 185.497  1.00  0.00     0.000 C 
ATOM      5  C   UNL     1     187.669 191.137 184.003  1.00  0.00     0.004 C 
ENDBRANCH   3   4
BRANCH   3   6
ATOM      6  C   UNL     1     188.209 188.776 186.716  1.00  0.00    -0.014 C 
ATOM      7  C   UNL     1     188.731 187.989 185.506  1.00  0.00     0.007 C 
ATOM      8  C   UNL     1     189.377 189.161 187.640  1.00  0.00     0.007 C 
ENDBRANCH   3   6
ENDBRANCH   2   3
ENDBRANCH   1   2
BRANCH   1   9
ATOM      9  C   UNL     1     184.989 189.322 188.189  1.00  0.00    -0.011 C 
ATOM     10  C   UNL     1     184.027 188.140 188.448  1.00  0.00     0.008 C 
BRANCH   9  11
ATOM     11  C   UNL     1     184.828 190.406 189.336  1.00  0.00    -0.002 C 
ATOM     12  C   UNL     1     184.447 191.810 188.828  1.00  0.00     0.005 C 
ATOM     13  C   UNL     1     186.140 190.716 190.150  1.00  0.00    -0.023 C 
ATOM     14  C   UNL     1     185.760 192.499 188.474  1.00  0.00     0.009 C 
ATOM     15  C   UNL     1     186.862 191.738 189.228  1.00  0.00     0.021 C 
ATOM     16  C   UNL     1     185.770 191.313 191.568  1.00  0.00     0.008 C 
ATOM     17  C   UNL     1     187.068 189.495 190.399  1.00  0.00     0.012 C 
ATOM     18  C   UNL     1     187.819 192.670 189.952  1.00  0.00    -0.067 C 
ATOM     19  C   UNL     1     186.077 192.803 191.763  1.00  0.00     0.009 C 
ATOM     20  C   UNL     1     187.527 193.141 191.368  1.00  0.00     0.021 C 
ATOM     21  C   UNL     1     188.964 193.043 189.351  1.00  0.00    -0.027 C 
ATOM     22  C   UNL     1     188.011 194.636 191.694  1.00  0.00    -0.023 C 
ATOM     23  C   UNL     1     189.837 194.096 189.970  1.00  0.00     0.031 C 
ATOM     24  C   UNL     1     188.951 195.214 190.557  1.00  0.00     0.002 C 
ATOM     25  C   UNL     1     186.862 195.658 192.012  1.00  0.00     0.010 C 
ATOM     26  C   UNL     1     188.850 194.557 193.004  1.00  0.00     0.012 C 
ATOM     27  C   UNL     1     188.200 195.925 189.392  1.00  0.00     0.036 C 
ATOM     28  C   UNL     1     186.160 196.239 190.783  1.00  0.00     0.032 C 
ATOM     29  C   UNL     1     187.162 196.938 189.869  1.00  0.00     0.114 C 
BRANCH  29  30
ATOM     30  O   UNL     1     187.778 198.006 190.544  1.00  0.00    -0.393 OA
ATOM     31  H   UNL     1     187.143 198.770 190.509  1.00  0.00     0.210 HD
ENDBRANCH  29  30
ENDBRANCH   9  11
ENDBRANCH   1   9
TORSDOF 7
ENDMDL
MODEL 2
REMARK VINA RESULT:    -6.499      1.890      4.139
REMARK INTER + INTRA:         -11.099
REMARK INTER:                  -8.569
REMARK INTRA:                  -2.530
REMARK UNBOUND:                -2.131
REMARK SMILES CC[C@@H](CC[C@H](C)[C@@H]1CC[C@H]2C3=CC[C@H]4C[C@H](O)CC[C@@]4(C)[C@H]3CC[C@]21C)C(C)C
REMARK SMILES IDX 5 1 4 2 3 3 2 4 1 5 28 6 29 7 30 8 6 9 7 10 8 11 9 12 26 13
REMARK SMILES IDX 10 14 11 15 25 16 27 17 12 18 24 19 23 20 13 21 21 22 14 23
REMARK SMILES IDX 15 24 20 25 22 26 16 27 19 28 17 29 18 30
REMARK H PARENT 18 31
REMARK Flexibility Score: inf
ROOT
ATOM      1  C   UNL     1     186.553 188.040 188.660  1.00  0.00     0.004 C 
ENDROOT
BRANCH   1   2
ATOM      2  C   UNL     1     186.696 187.443 190.078  1.00  0.00     0.004 C 
BRANCH   2   3
ATOM      3  C   UNL     1     185.708 188.078 191.093  1.00  0.00    -0.009 C 
BRANCH   3   4
ATOM      4  C   UNL     1     186.409 188.828 192.269  1.00  0.00     0.000 C 
ATOM      5  C   UNL     1     187.944 188.821 192.261  1.00  0.00     0.004 C 
ENDBRANCH   3   4
BRANCH   3   6
ATOM      6  C   UNL     1     184.596 187.066 191.529  1.00  0.00    -0.014 C 
ATOM      7  C   UNL     1     183.196 187.391 190.989  1.00  0.00     0.007 C 
ATOM      8  C   UNL     1     184.966 185.611 191.194  1.00  0.00     0.007 C 
ENDBRANCH   3   6
ENDBRANCH   2   3
ENDBRANCH   1   2
BRANCH   1   9
ATOM      9  C   UNL     1     185.356 189.022 188.507  1.00  0.00    -0.011 C 
ATOM     10  C   UNL     1     184.341 188.445 187.494  1.00  0.00     0.008 C 
BRANCH   9  11
ATOM     11  C   UNL     1     185.759 190.497 188.083  1.00  0.00    -0.002 C 
ATOM     12  C   UNL     1     187.276 190.766 188.103  1.00  0.00     0.005 C 
ATOM     13  C   UNL     1     185.229 191.633 189.035  1.00  0.00    -0.023 C 
ATOM     14  C   UNL     1     187.611 191.174 189.533  1.00  0.00     0.009 C 
ATOM     15  C   UNL     1     186.288 191.627 190.172  1.00  0.00     0.021 C 
ATOM     16  C   UNL     1     185.165 193.008 188.254  1.00  0.00     0.008 C 
ATOM     17  C   UNL     1     183.818 191.387 189.638  1.00  0.00     0.012 C 
ATOM     18  C   UNL     1     186.423 192.947 190.913  1.00  0.00    -0.067 C 
ATOM     19  C   UNL     1     186.211 194.054 188.664  1.00  0.00     0.009 C 
ATOM     20  C   UNL     1     186.233 194.270 190.188  1.00  0.00     0.021 C 
ATOM     21  C   UNL     1     186.665 192.943 192.237  1.00  0.00    -0.027 C 
ATOM     22  C   UNL     1     187.166 195.465 190.713  1.00  0.00    -0.023 C 
ATOM     23  C   UNL     1     186.975 194.224 192.954  1.00  0.00     0.031 C 
ATOM     24  C   UNL     1     187.893 195.095 192.071  1.00  0.00     0.002 C 
ATOM     25  C   UNL     1     188.212 196.004 189.673  1.00  0.00     0.010 C 
ATOM     26  C   UNL     1     186.225 196.674 190.996  1.00  0.00     0.012 C 
ATOM     27  C   UNL     1     189.261 194.370 191.899  1.00  0.00     0.036 C 
ATOM     28  C   UNL     1     189.487 195.169 189.553  1.00  0.00     0.032 C 
ATOM     29  C   UNL     1     190.191 195.058 190.903  1.00  0.00     0.114 C 
BRANCH  29  30
ATOM     30  O   UNL     1     190.566 196.331 191.364  1.00  0.00    -0.393 OA
ATOM     31  H   UNL     1     189.738 196.773 191.690  1.00  0.00     0.210 HD
ENDBRANCH  29  30
ENDBRANCH   9  11
ENDBRANCH   1   9
TORSDOF 7
ENDMDL
MODEL 3
REMARK VINA RESULT:    -6.497      2.598      7.897
REMARK INTER + INTRA:         -11.097
REMARK INTER:                  -8.730
REMARK INTRA:                  -2.366
REMARK UNBOUND:                -2.131
REMARK SMILES CC[C@@H](CC[C@H](C)[C@@H]1CC[C@H]2C3=CC[C@H]4C[C@H](O)CC[C@@]4(C)[C@H]3CC[C@]21C)C(C)C
REMARK SMILES IDX 5 1 4 2 3 3 2 4 1 5 28 6 29 7 30 8 6 9 7 10 8 11 9 12 26 13
REMARK SMILES IDX 10 14 11 15 25 16 27 17 12 18 24 19 23 20 13 21 21 22 14 23
REMARK SMILES IDX 15 24 20 25 22 26 16 27 19 28 17 29 18 30
REMARK H PARENT 18 31
REMARK Flexibility Score: inf
ROOT
ATOM      1  C   UNL     1     187.810 198.040 191.182  1.00  0.00     0.004 C 
ENDROOT
BRANCH   1   2
ATOM      2  C   UNL     1     186.628 198.051 192.175  1.00  0.00     0.004 C 
BRANCH   2   3
ATOM      3  C   UNL     1     186.969 197.345 193.515  1.00  0.00    -0.009 C 
BRANCH   3   4
ATOM      4  C   UNL     1     186.142 196.046 193.771  1.00  0.00     0.000 C 
ATOM      5  C   UNL     1     186.838 194.945 194.583  1.00  0.00     0.004 C 
ENDBRANCH   3   4
BRANCH   3   6
ATOM      6  C   UNL     1     186.995 198.355 194.711  1.00  0.00    -0.014 C 
ATOM      7  C   UNL     1     188.340 198.431 195.447  1.00  0.00     0.007 C 
ATOM      8  C   UNL     1     186.540 199.764 194.296  1.00  0.00     0.007 C 
ENDBRANCH   3   6
ENDBRANCH   2   3
ENDBRANCH   1   2
BRANCH   1   9
ATOM      9  C   UNL     1     188.859 196.926 191.462  1.00  0.00    -0.011 C 
ATOM     10  C   UNL     1     190.246 197.569 191.696  1.00  0.00     0.008 C 
BRANCH   9  11
ATOM     11  C   UNL     1     188.965 195.816 190.333  1.00  0.00    -0.002 C 
ATOM     12  C   UNL     1     187.805 195.835 189.320  1.00  0.00     0.005 C 
ATOM     13  C   UNL     1     188.903 194.330 190.851  1.00  0.00    -0.023 C 
ATOM     14  C   UNL     1     186.697 194.987 189.935  1.00  0.00     0.009 C 
ATOM     15  C   UNL     1     187.373 194.098 190.993  1.00  0.00     0.021 C 
ATOM     16  C   UNL     1     189.582 193.362 189.799  1.00  0.00     0.008 C 
ATOM     17  C   UNL     1     189.596 194.076 192.217  1.00  0.00     0.012 C 
ATOM     18  C   UNL     1     186.945 192.644 190.888  1.00  0.00    -0.067 C 
ATOM     19  C   UNL     1     188.626 192.444 189.026  1.00  0.00     0.009 C 
ATOM     20  C   UNL     1     187.683 191.679 189.973  1.00  0.00     0.021 C 
ATOM     21  C   UNL     1     185.933 192.194 191.652  1.00  0.00    -0.027 C 
ATOM     22  C   UNL     1     186.757 190.562 189.287  1.00  0.00    -0.023 C 
ATOM     23  C   UNL     1     185.380 190.814 191.441  1.00  0.00     0.031 C 
ATOM     24  C   UNL     1     185.309 190.518 189.928  1.00  0.00     0.002 C 
ATOM     25  C   UNL     1     186.650 190.649 187.723  1.00  0.00     0.010 C 
ATOM     26  C   UNL     1     187.438 189.188 189.565  1.00  0.00     0.012 C 
ATOM     27  C   UNL     1     184.280 191.486 189.274  1.00  0.00     0.036 C 
ATOM     28  C   UNL     1     185.648 191.682 187.204  1.00  0.00     0.032 C 
ATOM     29  C   UNL     1     184.251 191.401 187.750  1.00  0.00     0.114 C 
BRANCH  29  30
ATOM     30  O   UNL     1     183.806 190.137 187.328  1.00  0.00    -0.393 OA
ATOM     31  H   UNL     1     183.773 189.560 188.136  1.00  0.00     0.210 HD
ENDBRANCH  29  30
ENDBRANCH   9  11
ENDBRANCH   1   9
TORSDOF 7
ENDMDL
MODEL 4
REMARK VINA RESULT:    -6.365      2.654      7.133
REMARK INTER + INTRA:         -10.915
REMARK INTER:                  -9.312
REMARK INTRA:                  -1.603
REMARK UNBOUND:                -2.131
REMARK SMILES CC[C@@H](CC[C@H](C)[C@@H]1CC[C@H]2C3=CC[C@H]4C[C@H](O)CC[C@@]4(C)[C@H]3CC[C@]21C)C(C)C
REMARK SMILES IDX 5 1 4 2 3 3 2 4 1 5 28 6 29 7 30 8 6 9 7 10 8 11 9 12 26 13
REMARK SMILES IDX 10 14 11 15 25 16 27 17 12 18 24 19 23 20 13 21 21 22 14 23
REMARK SMILES IDX 15 24 20 25 22 26 16 27 19 28 17 29 18 30
REMARK H PARENT 18 31
REMARK Flexibility Score: inf
ROOT
ATOM      1  C   UNL     1     186.518 192.769 190.614  1.00  0.00     0.004 C 
ENDROOT
BRANCH   1   2
ATOM      2  C   UNL     1     186.183 193.970 189.701  1.00  0.00     0.004 C 
BRANCH   2   3
ATOM      3  C   UNL     1     187.363 194.970 189.577  1.00  0.00    -0.009 C 
BRANCH   3   4
ATOM      4  C   UNL     1     188.646 194.530 190.351  1.00  0.00     0.000 C 
ATOM      5  C   UNL     1     189.922 194.365 189.515  1.00  0.00     0.004 C 
ENDBRANCH   3   4
BRANCH   3   6
ATOM      6  C   UNL     1     186.905 196.442 189.847  1.00  0.00    -0.014 C 
ATOM      7  C   UNL     1     186.218 196.654 191.203  1.00  0.00     0.007 C 
ATOM      8  C   UNL     1     188.050 197.453 189.671  1.00  0.00     0.007 C 
ENDBRANCH   3   6
ENDBRANCH   2   3
ENDBRANCH   1   2
BRANCH   1   9
ATOM      9  C   UNL     1     185.894 191.425 190.141  1.00  0.00    -0.011 C 
ATOM     10  C   UNL     1     185.009 190.842 191.267  1.00  0.00     0.008 C 
BRANCH   9  11
ATOM     11  C   UNL     1     186.947 190.336 189.668  1.00  0.00    -0.002 C 
ATOM     12  C   UNL     1     188.380 190.875 189.503  1.00  0.00     0.005 C 
ATOM     13  C   UNL     1     186.678 189.725 188.241  1.00  0.00    -0.023 C 
ATOM     14  C   UNL     1     188.456 191.443 188.090  1.00  0.00     0.009 C 
ATOM     15  C   UNL     1     187.303 190.796 187.305  1.00  0.00     0.021 C 
ATOM     16  C   UNL     1     187.376 188.309 188.119  1.00  0.00     0.008 C 
ATOM     17  C   UNL     1     185.181 189.526 187.877  1.00  0.00     0.012 C 
ATOM     18  C   UNL     1     187.749 190.265 185.952  1.00  0.00    -0.067 C 
ATOM     19  C   UNL     1     188.601 188.250 187.196  1.00  0.00     0.009 C 
ATOM     20  C   UNL     1     188.300 188.855 185.812  1.00  0.00     0.021 C 
ATOM     21  C   UNL     1     187.608 191.036 184.858  1.00  0.00    -0.027 C 
ATOM     22  C   UNL     1     189.455 188.690 184.710  1.00  0.00    -0.023 C 
ATOM     23  C   UNL     1     188.198 190.605 183.547  1.00  0.00     0.031 C 
ATOM     24  C   UNL     1     189.585 189.976 183.794  1.00  0.00     0.002 C 
ATOM     25  C   UNL     1     190.864 188.285 185.272  1.00  0.00     0.010 C 
ATOM     26  C   UNL     1     189.033 187.500 183.797  1.00  0.00     0.012 C 
ATOM     27  C   UNL     1     190.544 191.071 184.345  1.00  0.00     0.036 C 
ATOM     28  C   UNL     1     191.685 189.443 185.842  1.00  0.00     0.032 C 
ATOM     29  C   UNL     1     191.900 190.525 184.786  1.00  0.00     0.114 C 
BRANCH  29  30
ATOM     30  O   UNL     1     192.612 190.005 183.692  1.00  0.00    -0.393 OA
ATOM     31  H   UNL     1     193.557 189.916 183.983  1.00  0.00     0.210 HD
ENDBRANCH  29  30
ENDBRANCH   9  11
ENDBRANCH   1   9
TORSDOF 7
ENDMDL
MODEL 5
REMARK VINA RESULT:    -6.309      2.729      5.452
REMARK INTER + INTRA:         -10.837
REMARK INTER:                  -8.237
REMARK INTRA:                  -2.600
REMARK UNBOUND:                -2.131
REMARK SMILES CC[C@@H](CC[C@H](C)[C@@H]1CC[C@H]2C3=CC[C@H]4C[C@H](O)CC[C@@]4(C)[C@H]3CC[C@]21C)C(C)C
REMARK SMILES IDX 5 1 4 2 3 3 2 4 1 5 28 6 29 7 30 8 6 9 7 10 8 11 9 12 26 13
REMARK SMILES IDX 10 14 11 15 25 16 27 17 12 18 24 19 23 20 13 21 21 22 14 23
REMARK SMILES IDX 15 24 20 25 22 26 16 27 19 28 17 29 18 30
REMARK H PARENT 18 31
REMARK Flexibility Score: inf
ROOT
ATOM      1  C   UNL     1     191.252 187.385 186.407  1.00  0.00     0.004 C 
ENDROOT
BRANCH   1   2
ATOM      2  C   UNL     1     190.471 187.265 185.079  1.00  0.00     0.004 C 
BRANCH   2   3
ATOM      3  C   UNL     1     190.237 188.641 184.400  1.00  0.00    -0.009 C 
BRANCH   3   4
ATOM      4  C   UNL     1     188.734 188.958 184.123  1.00  0.00     0.000 C 
ATOM      5  C   UNL     1     188.390 190.428 183.840  1.00  0.00     0.004 C 
ENDBRANCH   3   4
BRANCH   3   6
ATOM      6  C   UNL     1     191.190 188.852 183.177  1.00  0.00    -0.014 C 
ATOM      7  C   UNL     1     192.091 190.090 183.281  1.00  0.00     0.007 C 
ATOM      8  C   UNL     1     192.039 187.605 182.875  1.00  0.00     0.007 C 
ENDBRANCH   3   6
ENDBRANCH   2   3
ENDBRANCH   1   2
BRANCH   1   9
ATOM      9  C   UNL     1     191.607 188.847 186.800  1.00  0.00    -0.011 C 
ATOM     10  C   UNL     1     193.142 188.994 186.914  1.00  0.00     0.008 C 
BRANCH   9  11
ATOM     11  C   UNL     1     190.918 189.361 188.134  1.00  0.00    -0.002 C 
ATOM     12  C   UNL     1     189.867 188.394 188.713  1.00  0.00     0.005 C 
ATOM     13  C   UNL     1     190.074 190.683 187.983  1.00  0.00    -0.023 C 
ATOM     14  C   UNL     1     188.557 188.725 188.007  1.00  0.00     0.009 C 
ATOM     15  C   UNL     1     188.721 190.145 187.441  1.00  0.00     0.021 C 
ATOM     16  C   UNL     1     189.940 191.402 189.386  1.00  0.00     0.008 C 
ATOM     17  C   UNL     1     190.654 191.727 186.989  1.00  0.00     0.012 C 
ATOM     18  C   UNL     1     187.525 191.032 187.747  1.00  0.00    -0.067 C 
ATOM     19  C   UNL     1     188.545 191.360 190.024  1.00  0.00     0.009 C 
ATOM     20  C   UNL     1     187.456 191.828 189.041  1.00  0.00     0.021 C 
ATOM     21  C   UNL     1     186.539 191.153 186.839  1.00  0.00    -0.027 C 
ATOM     22  C   UNL     1     185.982 191.989 189.654  1.00  0.00    -0.023 C 
ATOM     23  C   UNL     1     185.273 191.880 187.187  1.00  0.00     0.031 C 
ATOM     24  C   UNL     1     184.863 191.526 188.633  1.00  0.00     0.002 C 
ATOM     25  C   UNL     1     185.757 191.299 191.047  1.00  0.00     0.010 C 
ATOM     26  C   UNL     1     185.775 193.510 189.924  1.00  0.00     0.012 C 
ATOM     27  C   UNL     1     184.509 190.012 188.699  1.00  0.00     0.036 C 
ATOM     28  C   UNL     1     185.478 189.797 190.981  1.00  0.00     0.032 C 
ATOM     29  C   UNL     1     184.252 189.511 190.119  1.00  0.00     0.114 C 
BRANCH  29  30
ATOM     30  O   UNL     1     183.114 190.125 190.669  1.00  0.00    -0.393 OA
ATOM     31  H   UNL     1     183.137 191.077 190.386  1.00  0.00     0.210 HD
ENDBRANCH  29  30
ENDBRANCH   9  11
ENDBRANCH   1   9
TORSDOF 7
ENDMDL
MODEL 6
REMARK VINA RESULT:    -6.267      2.805      6.912
REMARK INTER + INTRA:         -10.779
REMARK INTER:                  -8.563
REMARK INTRA:                  -2.216
REMARK UNBOUND:                -2.131
REMARK SMILES CC[C@@H](CC[C@H](C)[C@@H]1CC[C@H]2C3=CC[C@H]4C[C@H](O)CC[C@@]4(C)[C@H]3CC[C@]21C)C(C)C
REMARK SMILES IDX 5 1 4 2 3 3 2 4 1 5 28 6 29 7 30 8 6 9 7 10 8 11 9 12 26 13
REMARK SMILES IDX 10 14 11 15 25 16 27 17 12 18 24 19 23 20 13 21 21 22 14 23
REMARK SMILES IDX 15 24 20 25 22 26 16 27 19 28 17 29 18 30
REMARK H PARENT 18 31
REMARK Flexibility Score: inf
ROOT
ATOM      1  C   UNL     1     187.292 191.092 191.185  1.00  0.00     0.004 C 
ENDROOT
BRANCH   1   2
ATOM      2  C   UNL     1     186.096 192.032 190.916  1.00  0.00     0.004 C 
BRANCH   2   3
ATOM      3  C   UNL     1     185.822 192.229 189.400  1.00  0.00    -0.009 C 
BRANCH   3   4
ATOM      4  C   UNL     1     186.140 193.668 188.885  1.00  0.00     0.000 C 
ATOM      5  C   UNL     1     186.174 194.778 189.945  1.00  0.00     0.004 C 
ENDBRANCH   3   4
BRANCH   3   6
ATOM      6  C   UNL     1     184.415 191.680 188.991  1.00  0.00    -0.014 C 
ATOM      7  C   UNL     1     184.341 191.131 187.559  1.00  0.00     0.007 C 
ATOM      8  C   UNL     1     183.883 190.634 189.985  1.00  0.00     0.007 C 
ENDBRANCH   3   6
ENDBRANCH   2   3
ENDBRANCH   1   2
BRANCH   1   9
ATOM      9  C   UNL     1     186.988 189.592 190.910  1.00  0.00    -0.011 C 
ATOM     10  C   UNL     1     186.821 188.844 192.253  1.00  0.00     0.008 C 
BRANCH   9  11
ATOM     11  C   UNL     1     188.067 188.851 190.013  1.00  0.00    -0.002 C 
ATOM     12  C   UNL     1     189.280 189.722 189.637  1.00  0.00     0.005 C 
ATOM     13  C   UNL     1     187.557 188.399 188.592  1.00  0.00    -0.023 C 
ATOM     14  C   UNL     1     188.878 190.484 188.380  1.00  0.00     0.009 C 
ATOM     15  C   UNL     1     187.703 189.705 187.763  1.00  0.00     0.021 C 
ATOM     16  C   UNL     1     188.452 187.214 188.047  1.00  0.00     0.008 C 
ATOM     17  C   UNL     1     186.082 187.915 188.542  1.00  0.00     0.012 C 
ATOM     18  C   UNL     1     187.874 189.485 186.269  1.00  0.00    -0.067 C 
ATOM     19  C   UNL     1     189.383 187.567 186.880  1.00  0.00     0.009 C 
ATOM     20  C   UNL     1     188.625 188.273 185.741  1.00  0.00     0.021 C 
ATOM     21  C   UNL     1     187.310 190.348 185.403  1.00  0.00    -0.027 C 
ATOM     22  C   UNL     1     189.463 188.533 184.397  1.00  0.00    -0.023 C 
ATOM     23  C   UNL     1     187.609 190.251 183.935  1.00  0.00     0.031 C 
ATOM     24  C   UNL     1     189.106 189.930 183.739  1.00  0.00     0.002 C 
ATOM     25  C   UNL     1     191.020 188.389 184.541  1.00  0.00     0.010 C 
ATOM     26  C   UNL     1     189.050 187.418 183.391  1.00  0.00     0.012 C 
ATOM     27  C   UNL     1     189.951 191.129 184.261  1.00  0.00     0.036 C 
ATOM     28  C   UNL     1     191.727 189.614 185.123  1.00  0.00     0.032 C 
ATOM     29  C   UNL     1     191.452 190.852 184.274  1.00  0.00     0.114 C 
BRANCH  29  30
ATOM     30  O   UNL     1     191.940 190.669 182.969  1.00  0.00    -0.393 OA
ATOM     31  H   UNL     1     192.663 191.337 182.838  1.00  0.00     0.210 HD
ENDBRANCH  29  30
ENDBRANCH   9  11
ENDBRANCH   1   9
TORSDOF 7
ENDMDL
MODEL 7
REMARK VINA RESULT:    -6.161      3.128      6.854
REMARK INTER + INTRA:         -10.633
REMARK INTER:                  -8.330
REMARK INTRA:                  -2.303
REMARK UNBOUND:                -2.131
REMARK SMILES CC[C@@H](CC[C@H](C)[C@@H]1CC[C@H]2C3=CC[C@H]4C[C@H](O)CC[C@@]4(C)[C@H]3CC[C@]21C)C(C)C
REMARK SMILES IDX 5 1 4 2 3 3 2 4 1 5 28 6 29 7 30 8 6 9 7 10 8 11 9 12 26 13
REMARK SMILES IDX 10 14 11 15 25 16 27 17 12 18 24 19 23 20 13 21 21 22 14 23
REMARK SMILES IDX 15 24 20 25 22 26 16 27 19 28 17 29 18 30
REMARK H PARENT 18 31
REMARK Flexibility Score: inf
ROOT
ATOM      1  C   UNL     1     188.412 193.886 190.949  1.00  0.00     0.004 C 
ENDROOT
BRANCH   1   2
ATOM      2  C   UNL     1     189.674 193.111 190.507  1.00  0.00     0.004 C 
BRANCH   2   3
ATOM      3  C   UNL     1     189.853 193.096 188.965  1.00  0.00    -0.009 C 
BRANCH   3   4
ATOM      4  C   UNL     1     189.923 191.661 188.354  1.00  0.00     0.000 C 
ATOM      5  C   UNL     1     190.321 190.532 189.314  1.00  0.00     0.004 C 
ENDBRANCH   3   4
BRANCH   3   6
ATOM      6  C   UNL     1     190.996 194.063 188.506  1.00  0.00    -0.014 C 
ATOM      7  C   UNL     1     191.850 194.623 189.652  1.00  0.00     0.007 C 
ATOM      8  C   UNL     1     191.899 193.433 187.433  1.00  0.00     0.007 C 
ENDBRANCH   3   6
ENDBRANCH   2   3
ENDBRANCH   1   2
BRANCH   1   9
ATOM      9  C   UNL     1     187.291 193.932 189.871  1.00  0.00    -0.011 C 
ATOM     10  C   UNL     1     186.864 195.399 189.634  1.00  0.00     0.008 C 
BRANCH   9  11
ATOM     11  C   UNL     1     186.016 193.048 190.203  1.00  0.00    -0.002 C 
ATOM     12  C   UNL     1     186.140 192.225 191.500  1.00  0.00     0.005 C 
ATOM     13  C   UNL     1     185.693 191.922 189.150  1.00  0.00    -0.023 C 
ATOM     14  C   UNL     1     186.837 190.927 191.109  1.00  0.00     0.009 C 
ATOM     15  C   UNL     1     186.651 190.780 189.590  1.00  0.00     0.021 C 
ATOM     16  C   UNL     1     184.165 191.520 189.239  1.00  0.00     0.008 C 
ATOM     17  C   UNL     1     185.979 192.299 187.670  1.00  0.00     0.012 C 
ATOM     18  C   UNL     1     186.191 189.387 189.194  1.00  0.00    -0.067 C 
ATOM     19  C   UNL     1     183.876 190.136 189.835  1.00  0.00     0.009 C 
ATOM     20  C   UNL     1     184.712 189.037 189.153  1.00  0.00     0.021 C 
ATOM     21  C   UNL     1     187.102 188.467 188.826  1.00  0.00    -0.027 C 
ATOM     22  C   UNL     1     184.365 187.528 189.577  1.00  0.00    -0.023 C 
ATOM     23  C   UNL     1     186.691 187.041 188.600  1.00  0.00     0.031 C 
ATOM     24  C   UNL     1     185.666 186.629 189.678  1.00  0.00     0.002 C 
ATOM     25  C   UNL     1     183.507 187.381 190.884  1.00  0.00     0.010 C 
ATOM     26  C   UNL     1     183.472 186.941 188.444  1.00  0.00     0.012 C 
ATOM     27  C   UNL     1     186.363 186.649 191.070  1.00  0.00     0.036 C 
ATOM     28  C   UNL     1     184.301 187.480 192.188  1.00  0.00     0.032 C 
ATOM     29  C   UNL     1     185.401 186.422 192.233  1.00  0.00     0.114 C 
BRANCH  29  30
ATOM     30  O   UNL     1     184.843 185.134 192.179  1.00  0.00    -0.393 OA
ATOM     31  H   UNL     1     184.449 185.031 191.273  1.00  0.00     0.210 HD
ENDBRANCH  29  30
ENDBRANCH   9  11
ENDBRANCH   1   9
TORSDOF 7
ENDMDL
MODEL 8
REMARK VINA RESULT:    -6.153      2.949      7.382
REMARK INTER + INTRA:         -10.621
REMARK INTER:                  -8.051
REMARK INTRA:                  -2.570
REMARK UNBOUND:                -2.131
REMARK SMILES CC[C@@H](CC[C@H](C)[C@@H]1CC[C@H]2C3=CC[C@H]4C[C@H](O)CC[C@@]4(C)[C@H]3CC[C@]21C)C(C)C
REMARK SMILES IDX 5 1 4 2 3 3 2 4 1 5 28 6 29 7 30 8 6 9 7 10 8 11 9 12 26 13
REMARK SMILES IDX 10 14 11 15 25 16 27 17 12 18 24 19 23 20 13 21 21 22 14 23
REMARK SMILES IDX 15 24 20 25 22 26 16 27 19 28 17 29 18 30
REMARK H PARENT 18 31
REMARK Flexibility Score: inf
ROOT
ATOM      1  C   UNL     1     186.541 195.709 190.998  1.00  0.00     0.004 C 
ENDROOT
BRANCH   1   2
ATOM      2  C   UNL     1     186.834 195.667 192.514  1.00  0.00     0.004 C 
BRANCH   2   3
ATOM      3  C   UNL     1     188.165 194.940 192.843  1.00  0.00    -0.009 C 
BRANCH   3   4
ATOM      4  C   UNL     1     187.989 193.685 193.756  1.00  0.00     0.000 C 
ATOM      5  C   UNL     1     189.119 192.647 193.710  1.00  0.00     0.004 C 
ENDBRANCH   3   4
BRANCH   3   6
ATOM      6  C   UNL     1     189.272 195.943 193.311  1.00  0.00    -0.014 C 
ATOM      7  C   UNL     1     190.515 195.980 192.412  1.00  0.00     0.007 C 
ATOM      8  C   UNL     1     188.724 197.366 193.513  1.00  0.00     0.007 C 
ENDBRANCH   3   6
ENDBRANCH   2   3
ENDBRANCH   1   2
BRANCH   1   9
ATOM      9  C   UNL     1     187.605 194.979 190.130  1.00  0.00    -0.011 C 
ATOM     10  C   UNL     1     188.317 196.003 189.215  1.00  0.00     0.008 C 
BRANCH   9  11
ATOM     11  C   UNL     1     187.039 193.781 189.256  1.00  0.00    -0.002 C 
ATOM     12  C   UNL     1     185.601 193.363 189.616  1.00  0.00     0.005 C 
ATOM     13  C   UNL     1     187.809 192.417 189.417  1.00  0.00    -0.023 C 
ATOM     14  C   UNL     1     185.728 192.361 190.758  1.00  0.00     0.009 C 
ATOM     15  C   UNL     1     187.171 191.832 190.707  1.00  0.00     0.021 C 
ATOM     16  C   UNL     1     187.575 191.509 188.141  1.00  0.00     0.008 C 
ATOM     17  C   UNL     1     189.346 192.542 189.608  1.00  0.00     0.012 C 
ATOM     18  C   UNL     1     187.237 190.317 190.810  1.00  0.00    -0.067 C 
ATOM     19  C   UNL     1     186.681 190.280 188.356  1.00  0.00     0.009 C 
ATOM     20  C   UNL     1     187.141 189.447 189.566  1.00  0.00     0.021 C 
ATOM     21  C   UNL     1     187.431 189.742 192.011  1.00  0.00    -0.027 C 
ATOM     22  C   UNL     1     186.387 188.047 189.781  1.00  0.00    -0.023 C 
ATOM     23  C   UNL     1     187.326 188.252 192.163  1.00  0.00     0.031 C 
ATOM     24  C   UNL     1     186.145 187.735 191.315  1.00  0.00     0.002 C 
ATOM     25  C   UNL     1     185.046 187.880 188.980  1.00  0.00     0.010 C 
ATOM     26  C   UNL     1     187.329 186.942 189.217  1.00  0.00     0.012 C 
ATOM     27  C   UNL     1     184.819 188.310 191.894  1.00  0.00     0.036 C 
ATOM     28  C   UNL     1     183.827 188.543 189.623  1.00  0.00     0.032 C 
ATOM     29  C   UNL     1     183.597 188.002 191.032  1.00  0.00     0.114 C 
BRANCH  29  30
ATOM     30  O   UNL     1     183.348 186.620 190.990  1.00  0.00    -0.393 OA
ATOM     31  H   UNL     1     182.441 186.481 191.371  1.00  0.00     0.210 HD
ENDBRANCH  29  30
ENDBRANCH   9  11
ENDBRANCH   1   9
TORSDOF 7
ENDMDL
MODEL 9
REMARK VINA RESULT:    -6.121      3.823      7.498
REMARK INTER + INTRA:         -10.578
REMARK INTER:                  -8.211
REMARK INTRA:                  -2.368
REMARK UNBOUND:                -2.131
REMARK SMILES CC[C@@H](CC[C@H](C)[C@@H]1CC[C@H]2C3=CC[C@H]4C[C@H](O)CC[C@@]4(C)[C@H]3CC[C@]21C)C(C)C
REMARK SMILES IDX 5 1 4 2 3 3 2 4 1 5 28 6 29 7 30 8 6 9 7 10 8 11 9 12 26 13
REMARK SMILES IDX 10 14 11 15 25 16 27 17 12 18 24 19 23 20 13 21 21 22 14 23
REMARK SMILES IDX 15 24 20 25 22 26 16 27 19 28 17 29 18 30
REMARK H PARENT 18 31
REMARK Flexibility Score: inf
ROOT
ATOM      1  C   UNL     1     189.935 194.898 190.689  1.00  0.00     0.004 C 
ENDROOT
BRANCH   1   2
ATOM      2  C   UNL     1     189.265 193.520 190.494  1.00  0.00     0.004 C 
BRANCH   2   3
ATOM      3  C   UNL     1     187.779 193.511 190.943  1.00  0.00    -0.009 C 
BRANCH   3   4
ATOM      4  C   UNL     1     187.522 192.696 192.250  1.00  0.00     0.000 C 
ATOM      5  C   UNL     1     188.765 192.145 192.963  1.00  0.00     0.004 C 
ENDBRANCH   3   4
BRANCH   3   6
ATOM      6  C   UNL     1     186.817 193.171 189.756  1.00  0.00    -0.014 C 
ATOM      7  C   UNL     1     185.787 192.077 190.069  1.00  0.00     0.007 C 
ATOM      8  C   UNL     1     186.111 194.418 189.200  1.00  0.00     0.007 C 
ENDBRANCH   3   6
ENDBRANCH   2   3
ENDBRANCH   1   2
BRANCH   1   9
ATOM      9  C   UNL     1     188.959 196.100 190.537  1.00  0.00    -0.011 C 
ATOM     10  C   UNL     1     189.263 196.849 189.218  1.00  0.00     0.008 C 
BRANCH   9  11
ATOM     11  C   UNL     1     188.973 197.123 191.750  1.00  0.00    -0.002 C 
ATOM     12  C   UNL     1     189.726 196.614 192.994  1.00  0.00     0.005 C 
ATOM     13  C   UNL     1     187.559 197.457 192.357  1.00  0.00    -0.023 C 
ATOM     14  C   UNL     1     188.713 195.804 193.796  1.00  0.00     0.009 C 
ATOM     15  C   UNL     1     187.324 196.257 193.317  1.00  0.00     0.021 C 
ATOM     16  C   UNL     1     187.606 198.851 193.105  1.00  0.00     0.008 C 
ATOM     17  C   UNL     1     186.398 197.533 191.327  1.00  0.00     0.012 C 
ATOM     18  C   UNL     1     186.380 196.551 194.471  1.00  0.00    -0.067 C 
ATOM     19  C   UNL     1     187.524 198.786 194.636  1.00  0.00     0.009 C 
ATOM     20  C   UNL     1     186.333 197.932 195.106  1.00  0.00     0.021 C 
ATOM     21  C   UNL     1     185.541 195.591 194.902  1.00  0.00    -0.027 C 
ATOM     22  C   UNL     1     186.047 197.936 196.685  1.00  0.00    -0.023 C 
ATOM     23  C   UNL     1     184.727 195.799 196.146  1.00  0.00     0.031 C 
ATOM     24  C   UNL     1     185.591 196.512 197.208  1.00  0.00     0.002 C 
ATOM     25  C   UNL     1     187.218 198.485 197.576  1.00  0.00     0.010 C 
ATOM     26  C   UNL     1     184.868 198.926 196.923  1.00  0.00     0.012 C 
ATOM     27  C   UNL     1     186.758 195.568 197.623  1.00  0.00     0.036 C 
ATOM     28  C   UNL     1     188.334 197.478 197.862  1.00  0.00     0.032 C 
ATOM     29  C   UNL     1     187.777 196.233 198.545  1.00  0.00     0.114 C 
BRANCH  29  30
ATOM     30  O   UNL     1     187.192 196.571 199.777  1.00  0.00    -0.393 OA
ATOM     31  H   UNL     1     186.790 197.472 199.665  1.00  0.00     0.210 HD
ENDBRANCH  29  30
ENDBRANCH   9  11
ENDBRANCH   1   9
TORSDOF 7
ENDMDL
