MODEL 1
REMARK VINA RESULT:    -6.493      0.000      0.000
REMARK INTER + INTRA:          -8.176
REMARK INTER:                  -7.821
REMARK INTRA:                  -0.355
REMARK UNBOUND:                -0.355
REMARK SMILES O=c1c(O)c(-c2ccc(O)cc2O)oc2cc(O)cc(O)c12
REMARK SMILES IDX 5 1 3 2 2 3 1 4 22 5 20 6 19 7 17 8 16 9 15 10 14 11 6 12
REMARK SMILES IDX 8 13 7 14 9 15 11 16 12 17 10 18 13 20 4 22 21 24 18 26
REMARK H PARENT 10 19 13 21 4 23 21 25 18 27
REMARK Flexibility Score: inf
ROOT
ATOM      1  C   UNL     1     -16.543  -3.382 -30.259  1.00  0.00     0.184 A 
ATOM      2  C   UNL     1     -16.383  -3.914 -28.972  1.00  0.00     0.208 A 
ATOM      3  C   UNL     1     -15.300  -3.489 -28.188  1.00  0.00     0.238 A 
ATOM      4  O   UNL     1     -15.196  -3.924 -27.012  1.00  0.00    -0.285 OA
ATOM      5  C   UNL     1     -14.373  -2.556 -28.716  1.00  0.00     0.111 A 
ATOM      6  C   UNL     1     -13.215  -2.084 -28.027  1.00  0.00     0.134 A 
ATOM      7  C   UNL     1     -12.436  -1.071 -28.599  1.00  0.00     0.093 A 
ATOM      8  C   UNL     1     -12.737  -0.558 -29.864  1.00  0.00     0.123 A 
ATOM      9  C   UNL     1     -13.831  -1.053 -30.569  1.00  0.00     0.094 A 
ATOM     10  C   UNL     1     -14.649  -2.038 -30.009  1.00  0.00     0.146 A 
ATOM     11  O   UNL     1     -15.689  -2.471 -30.711  1.00  0.00    -0.451 OA
ENDROOT
BRANCH   1  12
ATOM     12  C   UNL     1     -17.653  -3.809 -31.138  1.00  0.00     0.063 A 
ATOM     13  C   UNL     1     -20.044  -3.881 -31.589  1.00  0.00     0.047 A 
ATOM     14  C   UNL     1     -18.971  -3.445 -30.809  1.00  0.00     0.020 A 
ATOM     15  C   UNL     1     -19.819  -4.692 -32.702  1.00  0.00     0.119 A 
ATOM     16  C   UNL     1     -18.511  -5.064 -33.039  1.00  0.00     0.093 A 
ATOM     17  C   UNL     1     -17.426  -4.624 -32.271  1.00  0.00     0.130 A 
BRANCH  15  18
ATOM     18  O   UNL     1     -20.900  -5.124 -33.469  1.00  0.00    -0.508 OA
ATOM     19  H   UNL     1     -21.753  -5.461 -33.039  1.00  0.00     0.293 HD
ENDBRANCH  15  18
BRANCH  17  20
ATOM     20  O   UNL     1     -16.141  -4.994 -32.673  1.00  0.00    -0.507 OA
ATOM     21  H   UNL     1     -15.301  -4.578 -32.291  1.00  0.00     0.293 HD
ENDBRANCH  17  20
ENDBRANCH   1  12
BRANCH   2  22
ATOM     22  O   UNL     1     -17.311  -4.836 -28.478  1.00  0.00    -0.502 OA
ATOM     23  H   UNL     1     -17.413  -5.026 -27.488  1.00  0.00     0.293 HD
ENDBRANCH   2  22
BRANCH   6  24
ATOM     24  O   UNL     1     -12.775  -2.592 -26.802  1.00  0.00    -0.507 OA
ATOM     25  H   UNL     1     -12.014  -3.244 -26.689  1.00  0.00     0.293 HD
ENDBRANCH   6  24
BRANCH   8  26
ATOM     26  O   UNL     1     -11.947   0.439 -30.432  1.00  0.00    -0.508 OA
ATOM     27  H   UNL     1     -12.039   0.698 -31.406  1.00  0.00     0.293 HD
ENDBRANCH   8  26
TORSDOF 6
ENDMDL
MODEL 2
REMARK VINA RESULT:    -6.250      2.407      6.602
REMARK INTER + INTRA:          -7.884
REMARK INTER:                  -7.503
REMARK INTRA:                  -0.382
REMARK UNBOUND:                -0.355
REMARK SMILES O=c1c(O)c(-c2ccc(O)cc2O)oc2cc(O)cc(O)c12
REMARK SMILES IDX 5 1 3 2 2 3 1 4 22 5 20 6 19 7 17 8 16 9 15 10 14 11 6 12
REMARK SMILES IDX 8 13 7 14 9 15 11 16 12 17 10 18 13 20 4 22 21 24 18 26
REMARK H PARENT 10 19 13 21 4 23 21 25 18 27
REMARK Flexibility Score: inf
ROOT
ATOM      1  C   UNL     1     -16.692  -3.058 -28.979  1.00  0.00     0.184 A 
ATOM      2  C   UNL     1     -17.051  -4.017 -29.937  1.00  0.00     0.208 A 
ATOM      3  C   UNL     1     -18.227  -3.833 -30.679  1.00  0.00     0.238 A 
ATOM      4  O   UNL     1     -18.511  -4.665 -31.580  1.00  0.00    -0.285 OA
ATOM      5  C   UNL     1     -19.045  -2.703 -30.433  1.00  0.00     0.111 A 
ATOM      6  C   UNL     1     -20.280  -2.435 -31.097  1.00  0.00     0.134 A 
ATOM      7  C   UNL     1     -20.943  -1.225 -30.859  1.00  0.00     0.093 A 
ATOM      8  C   UNL     1     -20.450  -0.302 -29.932  1.00  0.00     0.123 A 
ATOM      9  C   UNL     1     -19.276  -0.581 -29.236  1.00  0.00     0.094 A 
ATOM     10  C   UNL     1     -18.572  -1.764 -29.479  1.00  0.00     0.146 A 
ATOM     11  O   UNL     1     -17.450  -1.982 -28.803  1.00  0.00    -0.451 OA
ENDROOT
BRANCH   1  12
ATOM     12  C   UNL     1     -15.476  -3.211 -28.152  1.00  0.00     0.063 A 
ATOM     13  C   UNL     1     -14.307  -4.374 -26.361  1.00  0.00     0.047 A 
ATOM     14  C   UNL     1     -15.420  -4.240 -27.194  1.00  0.00     0.020 A 
ATOM     15  C   UNL     1     -13.239  -3.482 -26.466  1.00  0.00     0.119 A 
ATOM     16  C   UNL     1     -13.284  -2.453 -27.415  1.00  0.00     0.093 A 
ATOM     17  C   UNL     1     -14.390  -2.313 -28.263  1.00  0.00     0.130 A 
BRANCH  15  18
ATOM     18  O   UNL     1     -12.138  -3.625 -25.625  1.00  0.00    -0.508 OA
ATOM     19  H   UNL     1     -11.588  -2.826 -25.331  1.00  0.00     0.293 HD
ENDBRANCH  15  18
BRANCH  17  20
ATOM     20  O   UNL     1     -14.365  -1.292 -29.216  1.00  0.00    -0.507 OA
ATOM     21  H   UNL     1     -13.748  -1.299 -30.017  1.00  0.00     0.293 HD
ENDBRANCH  17  20
ENDBRANCH   1  12
BRANCH   2  22
ATOM     22  O   UNL     1     -16.226  -5.125 -30.157  1.00  0.00    -0.502 OA
ATOM     23  H   UNL     1     -16.467  -5.860 -30.811  1.00  0.00     0.293 HD
ENDBRANCH   2  22
BRANCH   6  24
ATOM     24  O   UNL     1     -20.906  -3.326 -31.972  1.00  0.00    -0.507 OA
ATOM     25  H   UNL     1     -20.625  -4.285 -32.115  1.00  0.00     0.293 HD
ENDBRANCH   6  24
BRANCH   8  26
ATOM     26  O   UNL     1     -21.125   0.892 -29.690  1.00  0.00    -0.508 OA
ATOM     27  H   UNL     1     -21.457   1.135 -28.765  1.00  0.00     0.293 HD
ENDBRANCH   8  26
TORSDOF 6
ENDMDL
MODEL 3
REMARK VINA RESULT:    -5.988      1.188      2.845
REMARK INTER + INTRA:          -7.568
REMARK INTER:                  -7.228
REMARK INTRA:                  -0.340
REMARK UNBOUND:                -0.355
REMARK SMILES O=c1c(O)c(-c2ccc(O)cc2O)oc2cc(O)cc(O)c12
REMARK SMILES IDX 5 1 3 2 2 3 1 4 22 5 20 6 19 7 17 8 16 9 15 10 14 11 6 12
REMARK SMILES IDX 8 13 7 14 9 15 11 16 12 17 10 18 13 20 4 22 21 24 18 26
REMARK H PARENT 10 19 13 21 4 23 21 25 18 27
REMARK Flexibility Score: inf
ROOT
ATOM      1  C   UNL     1     -16.340  -2.979 -30.634  1.00  0.00     0.184 A 
ATOM      2  C   UNL     1     -15.467  -2.072 -31.250  1.00  0.00     0.208 A 
ATOM      3  C   UNL     1     -14.374  -1.577 -30.523  1.00  0.00     0.238 A 
ATOM      4  O   UNL     1     -13.559  -0.811 -31.101  1.00  0.00    -0.285 OA
ATOM      5  C   UNL     1     -14.185  -1.976 -29.177  1.00  0.00     0.111 A 
ATOM      6  C   UNL     1     -13.135  -1.507 -28.331  1.00  0.00     0.134 A 
ATOM      7  C   UNL     1     -12.976  -2.063 -27.056  1.00  0.00     0.093 A 
ATOM      8  C   UNL     1     -13.868  -3.023 -26.571  1.00  0.00     0.123 A 
ATOM      9  C   UNL     1     -14.930  -3.445 -27.367  1.00  0.00     0.094 A 
ATOM     10  C   UNL     1     -15.094  -2.936 -28.658  1.00  0.00     0.146 A 
ATOM     11  O   UNL     1     -16.112  -3.375 -29.387  1.00  0.00    -0.451 OA
ENDROOT
BRANCH   1  12
ATOM     12  C   UNL     1     -17.521  -3.516 -31.344  1.00  0.00     0.063 A 
ATOM     13  C   UNL     1     -19.943  -3.667 -31.541  1.00  0.00     0.047 A 
ATOM     14  C   UNL     1     -18.809  -3.134 -30.925  1.00  0.00     0.020 A 
ATOM     15  C   UNL     1     -19.810  -4.595 -32.576  1.00  0.00     0.119 A 
ATOM     16  C   UNL     1     -18.533  -4.984 -33.001  1.00  0.00     0.093 A 
ATOM     17  C   UNL     1     -17.388  -4.448 -32.398  1.00  0.00     0.130 A 
BRANCH  15  18
ATOM     18  O   UNL     1     -20.950  -5.123 -33.178  1.00  0.00    -0.508 OA
ATOM     19  H   UNL     1     -21.425  -4.638 -33.931  1.00  0.00     0.293 HD
ENDBRANCH  15  18
BRANCH  17  20
ATOM     20  O   UNL     1     -16.140  -4.844 -32.885  1.00  0.00    -0.507 OA
ATOM     21  H   UNL     1     -15.947  -5.780 -33.215  1.00  0.00     0.293 HD
ENDBRANCH  17  20
ENDBRANCH   1  12
BRANCH   2  22
ATOM     22  O   UNL     1     -15.679  -1.693 -32.579  1.00  0.00    -0.502 OA
ATOM     23  H   UNL     1     -15.794  -2.369 -33.325  1.00  0.00     0.293 HD
ENDBRANCH   2  22
BRANCH   6  24
ATOM     24  O   UNL     1     -12.245  -0.489 -28.682  1.00  0.00    -0.507 OA
ATOM     25  H   UNL     1     -11.463  -0.598 -29.310  1.00  0.00     0.293 HD
ENDBRANCH   6  24
BRANCH   8  26
ATOM     26  O   UNL     1     -13.710  -3.559 -25.295  1.00  0.00    -0.508 OA
ATOM     27  H   UNL     1     -14.294  -3.265 -24.521  1.00  0.00     0.293 HD
ENDBRANCH   8  26
TORSDOF 6
ENDMDL
MODEL 4
REMARK VINA RESULT:    -5.655      3.159      5.780
REMARK INTER + INTRA:          -7.168
REMARK INTER:                  -6.766
REMARK INTRA:                  -0.401
REMARK UNBOUND:                -0.355
REMARK SMILES O=c1c(O)c(-c2ccc(O)cc2O)oc2cc(O)cc(O)c12
REMARK SMILES IDX 5 1 3 2 2 3 1 4 22 5 20 6 19 7 17 8 16 9 15 10 14 11 6 12
REMARK SMILES IDX 8 13 7 14 9 15 11 16 12 17 10 18 13 20 4 22 21 24 18 26
REMARK H PARENT 10 19 13 21 4 23 21 25 18 27
REMARK Flexibility Score: inf
ROOT
ATOM      1  C   UNL     1     -16.514  -3.107 -31.990  1.00  0.00     0.184 A 
ATOM      2  C   UNL     1     -17.484  -4.096 -32.206  1.00  0.00     0.208 A 
ATOM      3  C   UNL     1     -18.701  -4.021 -31.511  1.00  0.00     0.238 A 
ATOM      4  O   UNL     1     -19.591  -4.876 -31.755  1.00  0.00    -0.285 OA
ATOM      5  C   UNL     1     -18.919  -2.970 -30.587  1.00  0.00     0.111 A 
ATOM      6  C   UNL     1     -20.099  -2.816 -29.797  1.00  0.00     0.134 A 
ATOM      7  C   UNL     1     -20.255  -1.670 -29.007  1.00  0.00     0.093 A 
ATOM      8  C   UNL     1     -19.247  -0.706 -28.927  1.00  0.00     0.123 A 
ATOM      9  C   UNL     1     -18.069  -0.876 -29.649  1.00  0.00     0.094 A 
ATOM     10  C   UNL     1     -17.898  -1.990 -30.475  1.00  0.00     0.146 A 
ATOM     11  O   UNL     1     -16.764  -2.105 -31.156  1.00  0.00    -0.451 OA
ENDROOT
BRANCH   1  12
ATOM     12  C   UNL     1     -15.205  -3.148 -32.677  1.00  0.00     0.063 A 
ATOM     13  C   UNL     1     -13.853  -2.582 -34.620  1.00  0.00     0.047 A 
ATOM     14  C   UNL     1     -15.061  -2.513 -33.923  1.00  0.00     0.020 A 
ATOM     15  C   UNL     1     -12.775  -3.292 -34.089  1.00  0.00     0.119 A 
ATOM     16  C   UNL     1     -12.906  -3.931 -32.849  1.00  0.00     0.093 A 
ATOM     17  C   UNL     1     -14.109  -3.860 -32.136  1.00  0.00     0.130 A 
BRANCH  15  18
ATOM     18  O   UNL     1     -11.577  -3.357 -34.797  1.00  0.00    -0.508 OA
ATOM     19  H   UNL     1     -10.959  -4.156 -34.720  1.00  0.00     0.293 HD
ENDBRANCH  15  18
BRANCH  17  20
ATOM     20  O   UNL     1     -14.174  -4.484 -30.888  1.00  0.00    -0.507 OA
ATOM     21  H   UNL     1     -13.354  -4.779 -30.374  1.00  0.00     0.293 HD
ENDBRANCH  17  20
ENDBRANCH   1  12
BRANCH   2  22
ATOM     22  O   UNL     1     -17.240  -5.125 -33.122  1.00  0.00    -0.502 OA
ATOM     23  H   UNL     1     -17.298  -4.985 -34.123  1.00  0.00     0.293 HD
ENDBRANCH   2  22
BRANCH   6  24
ATOM     24  O   UNL     1     -21.125  -3.762 -29.734  1.00  0.00    -0.507 OA
ATOM     25  H   UNL     1     -21.624  -4.014 -28.895  1.00  0.00     0.293 HD
ENDBRANCH   6  24
BRANCH   8  26
ATOM     26  O   UNL     1     -19.406   0.422 -28.125  1.00  0.00    -0.508 OA
ATOM     27  H   UNL     1     -20.214   0.537 -27.526  1.00  0.00     0.293 HD
ENDBRANCH   8  26
TORSDOF 6
ENDMDL
MODEL 5
REMARK VINA RESULT:    -5.435      3.077      4.074
REMARK INTER + INTRA:          -6.902
REMARK INTER:                  -6.762
REMARK INTRA:                  -0.140
REMARK UNBOUND:                -0.355
REMARK SMILES O=c1c(O)c(-c2ccc(O)cc2O)oc2cc(O)cc(O)c12
REMARK SMILES IDX 5 1 3 2 2 3 1 4 22 5 20 6 19 7 17 8 16 9 15 10 14 11 6 12
REMARK SMILES IDX 8 13 7 14 9 15 11 16 12 17 10 18 13 20 4 22 21 24 18 26
REMARK H PARENT 10 19 13 21 4 23 21 25 18 27
REMARK Flexibility Score: inf
ROOT
ATOM      1  C   UNL     1     -16.360  -2.395 -29.879  1.00  0.00     0.184 A 
ATOM      2  C   UNL     1     -15.455  -3.123 -29.093  1.00  0.00     0.208 A 
ATOM      3  C   UNL     1     -14.296  -3.639 -29.692  1.00  0.00     0.238 A 
ATOM      4  O   UNL     1     -13.458  -4.239 -28.969  1.00  0.00    -0.285 OA
ATOM      5  C   UNL     1     -14.072  -3.443 -31.076  1.00  0.00     0.111 A 
ATOM      6  C   UNL     1     -12.951  -3.956 -31.798  1.00  0.00     0.134 A 
ATOM      7  C   UNL     1     -12.770  -3.596 -33.139  1.00  0.00     0.093 A 
ATOM      8  C   UNL     1     -13.705  -2.797 -33.803  1.00  0.00     0.123 A 
ATOM      9  C   UNL     1     -14.831  -2.339 -33.124  1.00  0.00     0.094 A 
ATOM     10  C   UNL     1     -15.021  -2.651 -31.775  1.00  0.00     0.146 A 
ATOM     11  O   UNL     1     -16.102  -2.182 -31.163  1.00  0.00    -0.451 OA
ENDROOT
BRANCH   1  12
ATOM     12  C   UNL     1     -17.610  -1.847 -29.307  1.00  0.00     0.063 A 
ATOM     13  C   UNL     1     -18.726  -0.641 -27.511  1.00  0.00     0.047 A 
ATOM     14  C   UNL     1     -17.556  -1.123 -28.103  1.00  0.00     0.020 A 
ATOM     15  C   UNL     1     -19.965  -0.881 -28.108  1.00  0.00     0.119 A 
ATOM     16  C   UNL     1     -20.032  -1.602 -29.307  1.00  0.00     0.093 A 
ATOM     17  C   UNL     1     -18.865  -2.082 -29.915  1.00  0.00     0.130 A 
BRANCH  15  18
ATOM     18  O   UNL     1     -21.125  -0.399 -27.504  1.00  0.00    -0.508 OA
ATOM     19  H   UNL     1     -22.034  -0.512 -27.937  1.00  0.00     0.293 HD
ENDBRANCH  15  18
BRANCH  17  20
ATOM     20  O   UNL     1     -18.986  -2.763 -31.128  1.00  0.00    -0.507 OA
ATOM     21  H   UNL     1     -19.846  -3.196 -31.435  1.00  0.00     0.293 HD
ENDBRANCH  17  20
ENDBRANCH   1  12
BRANCH   2  22
ATOM     22  O   UNL     1     -15.704  -3.304 -27.729  1.00  0.00    -0.502 OA
ATOM     23  H   UNL     1     -15.164  -3.944 -27.160  1.00  0.00     0.293 HD
ENDBRANCH   2  22
BRANCH   6  24
ATOM     24  O   UNL     1     -12.009  -4.834 -31.256  1.00  0.00    -0.507 OA
ATOM     25  H   UNL     1     -12.160  -5.408 -30.440  1.00  0.00     0.293 HD
ENDBRANCH   6  24
BRANCH   8  26
ATOM     26  O   UNL     1     -13.524  -2.457 -35.142  1.00  0.00    -0.508 OA
ATOM     27  H   UNL     1     -14.298  -2.446 -35.795  1.00  0.00     0.293 HD
ENDBRANCH   8  26
TORSDOF 6
ENDMDL
MODEL 6
REMARK VINA RESULT:    -5.173      3.304      4.499
REMARK INTER + INTRA:          -6.587
REMARK INTER:                  -6.220
REMARK INTRA:                  -0.367
REMARK UNBOUND:                -0.355
REMARK SMILES O=c1c(O)c(-c2ccc(O)cc2O)oc2cc(O)cc(O)c12
REMARK SMILES IDX 5 1 3 2 2 3 1 4 22 5 20 6 19 7 17 8 16 9 15 10 14 11 6 12
REMARK SMILES IDX 8 13 7 14 9 15 11 16 12 17 10 18 13 20 4 22 21 24 18 26
REMARK H PARENT 10 19 13 21 4 23 21 25 18 27
REMARK Flexibility Score: inf
ROOT
ATOM      1  C   UNL     1     -14.277  -3.572 -30.394  1.00  0.00     0.184 A 
ATOM      2  C   UNL     1     -13.509  -4.239 -29.429  1.00  0.00     0.208 A 
ATOM      3  C   UNL     1     -13.784  -4.022 -28.071  1.00  0.00     0.238 A 
ATOM      4  O   UNL     1     -13.133  -4.671 -27.211  1.00  0.00    -0.285 OA
ATOM      5  C   UNL     1     -14.807  -3.117 -27.696  1.00  0.00     0.111 A 
ATOM      6  C   UNL     1     -15.146  -2.789 -26.348  1.00  0.00     0.134 A 
ATOM      7  C   UNL     1     -16.256  -1.973 -26.094  1.00  0.00     0.093 A 
ATOM      8  C   UNL     1     -16.999  -1.421 -27.142  1.00  0.00     0.123 A 
ATOM      9  C   UNL     1     -16.641  -1.689 -28.460  1.00  0.00     0.094 A 
ATOM     10  C   UNL     1     -15.561  -2.528 -28.745  1.00  0.00     0.146 A 
ATOM     11  O   UNL     1     -15.263  -2.767 -30.017  1.00  0.00    -0.451 OA
ENDROOT
BRANCH   1  12
ATOM     12  C   UNL     1     -14.017  -3.744 -31.840  1.00  0.00     0.063 A 
ATOM     13  C   UNL     1     -14.188  -5.125 -33.838  1.00  0.00     0.047 A 
ATOM     14  C   UNL     1     -14.467  -4.910 -32.486  1.00  0.00     0.020 A 
ATOM     15  C   UNL     1     -13.451  -4.186 -34.561  1.00  0.00     0.119 A 
ATOM     16  C   UNL     1     -12.996  -3.022 -33.929  1.00  0.00     0.093 A 
ATOM     17  C   UNL     1     -13.278  -2.790 -32.576  1.00  0.00     0.130 A 
BRANCH  15  18
ATOM     18  O   UNL     1     -13.176  -4.416 -35.907  1.00  0.00    -0.508 OA
ATOM     19  H   UNL     1     -12.393  -3.971 -36.372  1.00  0.00     0.293 HD
ENDBRANCH  15  18
BRANCH  17  20
ATOM     20  O   UNL     1     -12.832  -1.596 -32.006  1.00  0.00    -0.507 OA
ATOM     21  H   UNL     1     -12.075  -1.047 -32.393  1.00  0.00     0.293 HD
ENDBRANCH  17  20
ENDBRANCH   1  12
BRANCH   2  22
ATOM     22  O   UNL     1     -12.503  -5.125 -29.828  1.00  0.00    -0.502 OA
ATOM     23  H   UNL     1     -12.425  -6.062 -29.453  1.00  0.00     0.293 HD
ENDBRANCH   2  22
BRANCH   6  24
ATOM     24  O   UNL     1     -14.417  -3.213 -25.234  1.00  0.00    -0.507 OA
ATOM     25  H   UNL     1     -14.787  -3.777 -24.484  1.00  0.00     0.293 HD
ENDBRANCH   6  24
BRANCH   8  26
ATOM     26  O   UNL     1     -18.092  -0.598 -26.879  1.00  0.00    -0.508 OA
ATOM     27  H   UNL     1     -17.994   0.407 -26.809  1.00  0.00     0.293 HD
ENDBRANCH   8  26
TORSDOF 6
ENDMDL
MODEL 7
REMARK VINA RESULT:    -5.108      2.177      6.739
REMARK INTER + INTRA:          -6.509
REMARK INTER:                  -6.134
REMARK INTRA:                  -0.374
REMARK UNBOUND:                -0.355
REMARK SMILES O=c1c(O)c(-c2ccc(O)cc2O)oc2cc(O)cc(O)c12
REMARK SMILES IDX 5 1 3 2 2 3 1 4 22 5 20 6 19 7 17 8 16 9 15 10 14 11 6 12
REMARK SMILES IDX 8 13 7 14 9 15 11 16 12 17 10 18 13 20 4 22 21 24 18 26
REMARK H PARENT 10 19 13 21 4 23 21 25 18 27
REMARK Flexibility Score: inf
ROOT
ATOM      1  C   UNL     1     -16.780  -2.773 -28.775  1.00  0.00     0.184 A 
ATOM      2  C   UNL     1     -17.697  -1.776 -28.413  1.00  0.00     0.208 A 
ATOM      3  C   UNL     1     -18.851  -1.597 -29.191  1.00  0.00     0.238 A 
ATOM      4  O   UNL     1     -19.700  -0.744 -28.826  1.00  0.00    -0.285 OA
ATOM      5  C   UNL     1     -19.057  -2.401 -30.339  1.00  0.00     0.111 A 
ATOM      6  C   UNL     1     -20.170  -2.281 -31.225  1.00  0.00     0.134 A 
ATOM      7  C   UNL     1     -20.333  -3.210 -32.260  1.00  0.00     0.093 A 
ATOM      8  C   UNL     1     -19.387  -4.215 -32.482  1.00  0.00     0.123 A 
ATOM      9  C   UNL     1     -18.268  -4.305 -31.659  1.00  0.00     0.094 A 
ATOM     10  C   UNL     1     -18.096  -3.415 -30.595  1.00  0.00     0.146 A 
ATOM     11  O   UNL     1     -17.021  -3.546 -29.827  1.00  0.00    -0.451 OA
ENDROOT
BRANCH   1  12
ATOM     12  C   UNL     1     -15.535  -2.991 -28.006  1.00  0.00     0.063 A 
ATOM     13  C   UNL     1     -14.352  -4.204 -26.258  1.00  0.00     0.047 A 
ATOM     14  C   UNL     1     -15.495  -4.011 -27.038  1.00  0.00     0.020 A 
ATOM     15  C   UNL     1     -13.239  -3.379 -26.427  1.00  0.00     0.119 A 
ATOM     16  C   UNL     1     -13.268  -2.359 -27.386  1.00  0.00     0.093 A 
ATOM     17  C   UNL     1     -14.404  -2.162 -28.182  1.00  0.00     0.130 A 
BRANCH  15  18
ATOM     18  O   UNL     1     -12.108  -3.580 -25.638  1.00  0.00    -0.508 OA
ATOM     19  H   UNL     1     -12.173  -3.665 -24.630  1.00  0.00     0.293 HD
ENDBRANCH  15  18
BRANCH  17  20
ATOM     20  O   UNL     1     -14.365  -1.154 -29.148  1.00  0.00    -0.507 OA
ATOM     21  H   UNL     1     -13.537  -0.608 -29.344  1.00  0.00     0.293 HD
ENDBRANCH  17  20
ENDBRANCH   1  12
BRANCH   2  22
ATOM     22  O   UNL     1     -17.467  -0.995 -27.277  1.00  0.00    -0.502 OA
ATOM     23  H   UNL     1     -17.937  -1.167 -26.396  1.00  0.00     0.293 HD
ENDBRANCH   2  22
BRANCH   6  24
ATOM     24  O   UNL     1     -21.123  -1.261 -31.148  1.00  0.00    -0.507 OA
ATOM     25  H   UNL     1     -21.266  -0.553 -31.852  1.00  0.00     0.293 HD
ENDBRANCH   6  24
BRANCH   8  26
ATOM     26  O   UNL     1     -19.549  -5.125 -33.524  1.00  0.00    -0.508 OA
ATOM     27  H   UNL     1     -20.258  -5.847 -33.491  1.00  0.00     0.293 HD
ENDBRANCH   8  26
TORSDOF 6
ENDMDL
