MODEL 1
REMARK VINA RESULT:    -7.703      0.000      0.000
REMARK INTER + INTRA:          -8.092
REMARK INTER:                  -8.379
REMARK INTRA:                   0.287
REMARK UNBOUND:                 0.287
REMARK SMILES CC1(C)CC[C@]2(C(=O)[O-])CC[C@@]3(C)C(=CC[C@H]4[C@]5(C)CC[C@H](O)C(C)(C)[C@@H]5CC[C@@]43C)[C@H]2C1
REMARK SMILES IDX 6 1 5 2 10 3 32 4 4 5 11 6 14 7 33 8 2 9 12 10 15 11 1 12
REMARK SMILES IDX 3 13 13 14 30 15 16 16 17 17 29 18 31 19 18 20 28 21 27 22
REMARK SMILES IDX 20 23 19 24 24 25 21 26 22 27 25 28 26 29 7 30 8 31 9 32
REMARK SMILES IDX 23 33
REMARK H PARENT 23 34
REMARK Flexibility Score: inf
ROOT
ATOM      1  C   UNL     1     -26.889  30.283 -19.028  1.00  0.00     0.017 C 
ATOM      2  C   UNL     1     -28.463  30.323 -19.148  1.00  0.00     0.014 C 
ATOM      3  C   UNL     1     -26.306  31.746 -19.154  1.00  0.00     0.014 C 
ATOM      4  C   UNL     1     -26.281  29.365 -20.148  1.00  0.00     0.028 C 
ATOM      5  C   UNL     1     -29.068  29.323 -20.145  1.00  0.00     0.007 C 
ATOM      6  C   UNL     1     -25.089  31.901 -20.094  1.00  0.00     0.013 C 
ATOM      7  C   UNL     1     -24.740  29.399 -20.135  1.00  0.00    -0.064 C 
ATOM      8  C   UNL     1     -26.911  27.938 -20.160  1.00  0.00     0.015 C 
ATOM      9  C   UNL     1     -28.468  27.902 -20.023  1.00  0.00    -0.035 C 
ATOM     10  C   UNL     1     -24.037  30.750 -19.995  1.00  0.00    -0.006 C 
ATOM     11  C   UNL     1     -23.992  28.300 -20.421  1.00  0.00    -0.027 C 
ATOM     12  C   UNL     1     -29.069  27.025 -21.146  1.00  0.00     0.011 C 
ATOM     13  C   UNL     1     -28.873  27.270 -18.670  1.00  0.00     0.011 C 
ATOM     14  C   UNL     1     -23.423  30.801 -18.552  1.00  0.00     0.017 C 
ATOM     15  C   UNL     1     -22.922  30.851 -21.156  1.00  0.00    -0.020 C 
ATOM     16  C   UNL     1     -22.496  28.318 -20.671  1.00  0.00     0.032 C 
ATOM     17  C   UNL     1     -21.854  29.733 -20.880  1.00  0.00     0.006 C 
ATOM     18  C   UNL     1     -22.214  32.239 -21.154  1.00  0.00     0.008 C 
ATOM     19  C   UNL     1     -23.587  30.656 -22.563  1.00  0.00     0.012 C 
ATOM     20  C   UNL     1     -20.534  29.736 -21.761  1.00  0.00    -0.025 C 
ATOM     21  C   UNL     1     -20.951  32.309 -22.025  1.00  0.00     0.005 C 
ATOM     22  C   UNL     1     -19.890  31.187 -21.792  1.00  0.00     0.003 C 
ATOM     23  C   UNL     1     -19.528  28.713 -21.122  1.00  0.00     0.010 C 
ATOM     24  C   UNL     1     -20.792  29.268 -23.237  1.00  0.00     0.012 C 
ATOM     25  C   UNL     1     -18.761  31.469 -20.712  1.00  0.00    -0.006 C 
ATOM     26  C   UNL     1     -18.068  29.035 -21.442  1.00  0.00     0.033 C 
ATOM     27  C   UNL     1     -17.607  30.407 -20.896  1.00  0.00     0.120 C 
ATOM     28  C   UNL     1     -18.125  32.870 -20.947  1.00  0.00     0.014 C 
ATOM     29  C   UNL     1     -19.280  31.475 -19.247  1.00  0.00     0.014 C 
ENDROOT
BRANCH   1  30
ATOM     30  C   UNL     1     -26.535  29.753 -17.633  1.00  0.00     0.048 C 
ATOM     31  O   UNL     1     -26.762  30.464 -16.617  1.00  0.00    -0.550 OA
ATOM     32  O   UNL     1     -25.925  28.517 -17.453  1.00  0.00    -0.550 OA
ENDBRANCH   1  30
BRANCH  27  33
ATOM     33  O   UNL     1     -16.886  30.234 -19.699  1.00  0.00    -0.393 OA
ATOM     34  H   UNL     1     -16.326  29.421 -19.805  1.00  0.00     0.210 HD
ENDBRANCH  27  33
TORSDOF 2
ENDMDL
MODEL 2
REMARK VINA RESULT:    -7.649      4.274      6.191
REMARK INTER + INTRA:          -8.032
REMARK INTER:                  -8.403
REMARK INTRA:                   0.371
REMARK UNBOUND:                 0.287
REMARK SMILES CC1(C)CC[C@]2(C(=O)[O-])CC[C@@]3(C)C(=CC[C@H]4[C@]5(C)CC[C@H](O)C(C)(C)[C@@H]5CC[C@@]43C)[C@H]2C1
REMARK SMILES IDX 6 1 5 2 10 3 32 4 4 5 11 6 14 7 33 8 2 9 12 10 15 11 1 12
REMARK SMILES IDX 3 13 13 14 30 15 16 16 17 17 29 18 31 19 18 20 28 21 27 22
REMARK SMILES IDX 20 23 19 24 24 25 21 26 22 27 25 28 26 29 7 30 8 31 9 32
REMARK SMILES IDX 23 33
REMARK H PARENT 23 34
REMARK Flexibility Score: inf
ROOT
ATOM      1  C   UNL     1     -25.866  29.767 -16.371  1.00  0.00     0.017 C 
ATOM      2  C   UNL     1     -27.365  29.289 -16.508  1.00  0.00     0.014 C 
ATOM      3  C   UNL     1     -25.387  29.603 -14.875  1.00  0.00     0.014 C 
ATOM      4  C   UNL     1     -25.730  31.267 -16.817  1.00  0.00     0.028 C 
ATOM      5  C   UNL     1     -28.300  30.271 -17.231  1.00  0.00     0.007 C 
ATOM      6  C   UNL     1     -24.627  30.811 -14.280  1.00  0.00     0.013 C 
ATOM      7  C   UNL     1     -24.303  31.801 -16.583  1.00  0.00    -0.064 C 
ATOM      8  C   UNL     1     -26.306  31.523 -18.243  1.00  0.00     0.015 C 
ATOM      9  C   UNL     1     -27.689  30.853 -18.528  1.00  0.00    -0.035 C 
ATOM     10  C   UNL     1     -23.610  31.486 -15.256  1.00  0.00    -0.006 C 
ATOM     11  C   UNL     1     -23.715  32.685 -17.433  1.00  0.00    -0.027 C 
ATOM     12  C   UNL     1     -28.671  31.905 -19.096  1.00  0.00     0.011 C 
ATOM     13  C   UNL     1     -27.537  29.736 -19.589  1.00  0.00     0.011 C 
ATOM     14  C   UNL     1     -22.488  30.433 -15.564  1.00  0.00     0.017 C 
ATOM     15  C   UNL     1     -23.029  32.867 -14.659  1.00  0.00    -0.020 C 
ATOM     16  C   UNL     1     -22.431  33.438 -17.139  1.00  0.00     0.032 C 
ATOM     17  C   UNL     1     -21.929  33.384 -15.655  1.00  0.00     0.006 C 
ATOM     18  C   UNL     1     -22.385  32.661 -13.256  1.00  0.00     0.008 C 
ATOM     19  C   UNL     1     -24.183  33.918 -14.506  1.00  0.00     0.012 C 
ATOM     20  C   UNL     1     -21.051  34.627 -15.209  1.00  0.00    -0.025 C 
ATOM     21  C   UNL     1     -21.556  33.854 -12.757  1.00  0.00     0.005 C 
ATOM     22  C   UNL     1     -20.479  34.406 -13.744  1.00  0.00     0.003 C 
ATOM     23  C   UNL     1     -19.870  34.772 -16.233  1.00  0.00     0.010 C 
ATOM     24  C   UNL     1     -21.854  35.975 -15.237  1.00  0.00     0.012 C 
ATOM     25  C   UNL     1     -19.023  33.779 -13.654  1.00  0.00    -0.006 C 
ATOM     26  C   UNL     1     -18.648  35.472 -15.637  1.00  0.00     0.033 C 
ATOM     27  C   UNL     1     -18.021  34.708 -14.446  1.00  0.00     0.120 C 
ATOM     28  C   UNL     1     -18.537  33.750 -12.176  1.00  0.00     0.014 C 
ATOM     29  C   UNL     1     -18.938  32.313 -14.162  1.00  0.00     0.014 C 
ENDROOT
BRANCH   1  30
ATOM     30  C   UNL     1     -24.998  28.855 -17.247  1.00  0.00     0.048 C 
ATOM     31  O   UNL     1     -24.595  27.750 -16.793  1.00  0.00    -0.550 OA
ATOM     32  O   UNL     1     -24.601  29.229 -18.525  1.00  0.00    -0.550 OA
ENDBRANCH   1  30
BRANCH  27  33
ATOM     33  O   UNL     1     -16.893  33.983 -14.875  1.00  0.00    -0.393 OA
ATOM     34  H   UNL     1     -16.104  34.354 -14.401  1.00  0.00     0.210 HD
ENDBRANCH  27  33
TORSDOF 2
ENDMDL
MODEL 3
REMARK VINA RESULT:    -7.595      3.613      5.035
REMARK INTER + INTRA:          -7.974
REMARK INTER:                  -8.381
REMARK INTRA:                   0.408
REMARK UNBOUND:                 0.287
REMARK SMILES CC1(C)CC[C@]2(C(=O)[O-])CC[C@@]3(C)C(=CC[C@H]4[C@]5(C)CC[C@H](O)C(C)(C)[C@@H]5CC[C@@]43C)[C@H]2C1
REMARK SMILES IDX 6 1 5 2 10 3 32 4 4 5 11 6 14 7 33 8 2 9 12 10 15 11 1 12
REMARK SMILES IDX 3 13 13 14 30 15 16 16 17 17 29 18 31 19 18 20 28 21 27 22
REMARK SMILES IDX 20 23 19 24 24 25 21 26 22 27 25 28 26 29 7 30 8 31 9 32
REMARK SMILES IDX 23 33
REMARK H PARENT 23 34
REMARK Flexibility Score: inf
ROOT
ATOM      1  C   UNL     1     -27.787  30.563 -18.327  1.00  0.00     0.017 C 
ATOM      2  C   UNL     1     -28.758  30.160 -19.506  1.00  0.00     0.014 C 
ATOM      3  C   UNL     1     -27.694  32.136 -18.226  1.00  0.00     0.014 C 
ATOM      4  C   UNL     1     -26.358  29.955 -18.567  1.00  0.00     0.028 C 
ATOM      5  C   UNL     1     -28.199  29.116 -20.485  1.00  0.00     0.007 C 
ATOM      6  C   UNL     1     -26.268  32.713 -18.072  1.00  0.00     0.013 C 
ATOM      7  C   UNL     1     -25.354  30.428 -17.497  1.00  0.00    -0.064 C 
ATOM      8  C   UNL     1     -26.394  28.415 -18.805  1.00  0.00     0.015 C 
ATOM      9  C   UNL     1     -27.514  27.922 -19.778  1.00  0.00    -0.035 C 
ATOM     10  C   UNL     1     -25.339  31.908 -17.109  1.00  0.00    -0.006 C 
ATOM     11  C   UNL     1     -24.369  29.619 -17.024  1.00  0.00    -0.027 C 
ATOM     12  C   UNL     1     -26.897  27.007 -20.862  1.00  0.00     0.011 C 
ATOM     13  C   UNL     1     -28.566  27.088 -19.008  1.00  0.00     0.011 C 
ATOM     14  C   UNL     1     -25.956  32.010 -15.670  1.00  0.00     0.017 C 
ATOM     15  C   UNL     1     -23.812  32.422 -17.174  1.00  0.00    -0.020 C 
ATOM     16  C   UNL     1     -23.206  30.087 -16.170  1.00  0.00     0.032 C 
ATOM     17  C   UNL     1     -23.003  31.638 -16.080  1.00  0.00     0.006 C 
ATOM     18  C   UNL     1     -23.707  33.949 -16.885  1.00  0.00     0.008 C 
ATOM     19  C   UNL     1     -23.215  32.165 -18.602  1.00  0.00     0.012 C 
ATOM     20  C   UNL     1     -21.511  32.094 -15.791  1.00  0.00    -0.025 C 
ATOM     21  C   UNL     1     -22.276  34.452 -16.640  1.00  0.00     0.005 C 
ATOM     22  C   UNL     1     -21.442  33.666 -15.579  1.00  0.00     0.003 C 
ATOM     23  C   UNL     1     -21.025  31.352 -14.496  1.00  0.00     0.010 C 
ATOM     24  C   UNL     1     -20.525  31.699 -16.948  1.00  0.00     0.012 C 
ATOM     25  C   UNL     1     -21.524  34.168 -14.074  1.00  0.00    -0.006 C 
ATOM     26  C   UNL     1     -19.916  32.105 -13.760  1.00  0.00     0.033 C 
ATOM     27  C   UNL     1     -20.351  33.500 -13.253  1.00  0.00     0.120 C 
ATOM     28  C   UNL     1     -21.303  35.706 -14.005  1.00  0.00     0.014 C 
ATOM     29  C   UNL     1     -22.896  33.900 -13.397  1.00  0.00     0.014 C 
ENDROOT
BRANCH   1  30
ATOM     30  C   UNL     1     -28.391  30.041 -17.018  1.00  0.00     0.048 C 
ATOM     31  O   UNL     1     -29.568  30.360 -16.700  1.00  0.00    -0.550 OA
ATOM     32  O   UNL     1     -27.660  29.250 -16.139  1.00  0.00    -0.550 OA
ENDBRANCH   1  30
BRANCH  27  33
ATOM     33  O   UNL     1     -20.667  33.441 -11.882  1.00  0.00    -0.393 OA
ATOM     34  H   UNL     1     -20.011  34.013 -11.402  1.00  0.00     0.210 HD
ENDBRANCH  27  33
TORSDOF 2
ENDMDL
MODEL 4
REMARK VINA RESULT:    -7.418      4.076      6.254
REMARK INTER + INTRA:          -7.782
REMARK INTER:                  -8.069
REMARK INTRA:                   0.288
REMARK UNBOUND:                 0.287
REMARK SMILES CC1(C)CC[C@]2(C(=O)[O-])CC[C@@]3(C)C(=CC[C@H]4[C@]5(C)CC[C@H](O)C(C)(C)[C@@H]5CC[C@@]43C)[C@H]2C1
REMARK SMILES IDX 6 1 5 2 10 3 32 4 4 5 11 6 14 7 33 8 2 9 12 10 15 11 1 12
REMARK SMILES IDX 3 13 13 14 30 15 16 16 17 17 29 18 31 19 18 20 28 21 27 22
REMARK SMILES IDX 20 23 19 24 24 25 21 26 22 27 25 28 26 29 7 30 8 31 9 32
REMARK SMILES IDX 23 33
REMARK H PARENT 23 34
REMARK Flexibility Score: inf
ROOT
ATOM      1  C   UNL     1     -25.855  29.242 -18.423  1.00  0.00     0.017 C 
ATOM      2  C   UNL     1     -26.996  28.209 -18.777  1.00  0.00     0.014 C 
ATOM      3  C   UNL     1     -24.618  28.480 -17.803  1.00  0.00     0.014 C 
ATOM      4  C   UNL     1     -26.388  30.315 -17.406  1.00  0.00     0.028 C 
ATOM      5  C   UNL     1     -28.395  28.578 -18.258  1.00  0.00     0.007 C 
ATOM      6  C   UNL     1     -24.012  29.113 -16.530  1.00  0.00     0.013 C 
ATOM      7  C   UNL     1     -25.266  31.268 -16.947  1.00  0.00    -0.064 C 
ATOM      8  C   UNL     1     -27.689  31.016 -17.903  1.00  0.00     0.015 C 
ATOM      9  C   UNL     1     -28.767  30.059 -18.508  1.00  0.00    -0.035 C 
ATOM     10  C   UNL     1     -23.910  30.672 -16.562  1.00  0.00    -0.006 C 
ATOM     11  C   UNL     1     -25.495  32.585 -16.701  1.00  0.00    -0.027 C 
ATOM     12  C   UNL     1     -30.137  30.332 -17.844  1.00  0.00     0.011 C 
ATOM     13  C   UNL     1     -28.925  30.317 -20.025  1.00  0.00     0.011 C 
ATOM     14  C   UNL     1     -22.903  31.052 -17.704  1.00  0.00     0.017 C 
ATOM     15  C   UNL     1     -23.492  31.279 -15.128  1.00  0.00    -0.020 C 
ATOM     16  C   UNL     1     -24.513  33.516 -16.014  1.00  0.00     0.032 C 
ATOM     17  C   UNL     1     -23.294  32.827 -15.311  1.00  0.00     0.006 C 
ATOM     18  C   UNL     1     -22.163  30.656 -14.607  1.00  0.00     0.008 C 
ATOM     19  C   UNL     1     -24.608  30.979 -14.067  1.00  0.00     0.012 C 
ATOM     20  C   UNL     1     -22.683  33.644 -14.097  1.00  0.00    -0.025 C 
ATOM     21  C   UNL     1     -21.549  31.387 -13.402  1.00  0.00     0.005 C 
ATOM     22  C   UNL     1     -21.373  32.932 -13.550  1.00  0.00     0.003 C 
ATOM     23  C   UNL     1     -22.336  35.085 -14.615  1.00  0.00     0.010 C 
ATOM     24  C   UNL     1     -23.697  33.812 -12.911  1.00  0.00     0.012 C 
ATOM     25  C   UNL     1     -19.997  33.452 -14.148  1.00  0.00    -0.006 C 
ATOM     26  C   UNL     1     -21.226  35.758 -13.807  1.00  0.00     0.033 C 
ATOM     27  C   UNL     1     -19.877  35.002 -13.867  1.00  0.00     0.120 C 
ATOM     28  C   UNL     1     -18.801  32.769 -13.425  1.00  0.00     0.014 C 
ATOM     29  C   UNL     1     -19.816  33.148 -15.661  1.00  0.00     0.014 C 
ENDROOT
BRANCH   1  30
ATOM     30  C   UNL     1     -25.396  29.904 -19.727  1.00  0.00     0.048 C 
ATOM     31  O   UNL     1     -24.756  29.231 -20.579  1.00  0.00    -0.550 OA
ATOM     32  O   UNL     1     -25.629  31.250 -19.986  1.00  0.00    -0.550 OA
ENDBRANCH   1  30
BRANCH  27  33
ATOM     33  O   UNL     1     -19.018  35.617 -14.798  1.00  0.00    -0.393 OA
ATOM     34  H   UNL     1     -19.313  35.336 -15.704  1.00  0.00     0.210 HD
ENDBRANCH  27  33
TORSDOF 2
ENDMDL
MODEL 5
REMARK VINA RESULT:    -7.271      3.728      5.200
REMARK INTER + INTRA:          -7.621
REMARK INTER:                  -8.005
REMARK INTRA:                   0.384
REMARK UNBOUND:                 0.287
REMARK SMILES CC1(C)CC[C@]2(C(=O)[O-])CC[C@@]3(C)C(=CC[C@H]4[C@]5(C)CC[C@H](O)C(C)(C)[C@@H]5CC[C@@]43C)[C@H]2C1
REMARK SMILES IDX 6 1 5 2 10 3 32 4 4 5 11 6 14 7 33 8 2 9 12 10 15 11 1 12
REMARK SMILES IDX 3 13 13 14 30 15 16 16 17 17 29 18 31 19 18 20 28 21 27 22
REMARK SMILES IDX 20 23 19 24 24 25 21 26 22 27 25 28 26 29 7 30 8 31 9 32
REMARK SMILES IDX 23 33
REMARK H PARENT 23 34
REMARK Flexibility Score: inf
ROOT
ATOM      1  C   UNL     1     -29.734  29.547 -19.786  1.00  0.00     0.017 C 
ATOM      2  C   UNL     1     -30.687  29.286 -21.018  1.00  0.00     0.014 C 
ATOM      3  C   UNL     1     -29.858  31.052 -19.324  1.00  0.00     0.014 C 
ATOM      4  C   UNL     1     -28.244  29.225 -20.172  1.00  0.00     0.028 C 
ATOM      5  C   UNL     1     -30.028  28.586 -22.217  1.00  0.00     0.007 C 
ATOM      6  C   UNL     1     -28.522  31.781 -19.053  1.00  0.00     0.013 C 
ATOM      7  C   UNL     1     -27.273  29.584 -19.030  1.00  0.00    -0.064 C 
ATOM      8  C   UNL     1     -28.074  27.791 -20.760  1.00  0.00     0.015 C 
ATOM      9  C   UNL     1     -29.153  27.375 -21.812  1.00  0.00    -0.035 C 
ATOM     10  C   UNL     1     -27.449  30.921 -18.309  1.00  0.00    -0.006 C 
ATOM     11  C   UNL     1     -26.165  28.840 -18.766  1.00  0.00    -0.027 C 
ATOM     12  C   UNL     1     -28.460  26.833 -23.083  1.00  0.00     0.011 C 
ATOM     13  C   UNL     1     -30.045  26.243 -21.248  1.00  0.00     0.011 C 
ATOM     14  C   UNL     1     -28.014  30.601 -16.881  1.00  0.00     0.017 C 
ATOM     15  C   UNL     1     -26.013  31.654 -18.267  1.00  0.00    -0.020 C 
ATOM     16  C   UNL     1     -25.045  29.266 -17.836  1.00  0.00     0.032 C 
ATOM     17  C   UNL     1     -25.058  30.768 -17.390  1.00  0.00     0.006 C 
ATOM     18  C   UNL     1     -26.112  33.074 -17.632  1.00  0.00     0.008 C 
ATOM     19  C   UNL     1     -25.447  31.819 -19.720  1.00  0.00     0.012 C 
ATOM     20  C   UNL     1     -23.634  31.359 -17.016  1.00  0.00    -0.025 C 
ATOM     21  C   UNL     1     -24.756  33.711 -17.288  1.00  0.00     0.005 C 
ATOM     22  C   UNL     1     -23.777  32.833 -16.445  1.00  0.00     0.003 C 
ATOM     23  C   UNL     1     -22.995  30.420 -15.932  1.00  0.00     0.010 C 
ATOM     24  C   UNL     1     -22.652  31.386 -18.240  1.00  0.00     0.012 C 
ATOM     25  C   UNL     1     -23.866  32.961 -14.865  1.00  0.00    -0.006 C 
ATOM     26  C   UNL     1     -21.973  31.139 -15.051  1.00  0.00     0.033 C 
ATOM     27  C   UNL     1     -22.578  32.303 -14.231  1.00  0.00     0.120 C 
ATOM     28  C   UNL     1     -23.860  34.459 -14.443  1.00  0.00     0.014 C 
ATOM     29  C   UNL     1     -25.158  32.349 -14.257  1.00  0.00     0.014 C 
ENDROOT
BRANCH   1  30
ATOM     30  C   UNL     1     -30.203  28.657 -18.629  1.00  0.00     0.048 C 
ATOM     31  O   UNL     1     -31.125  29.055 -17.867  1.00  0.00    -0.550 OA
ATOM     32  O   UNL     1     -29.610  27.429 -18.363  1.00  0.00    -0.550 OA
ENDBRANCH   1  30
BRANCH  27  33
ATOM     33  O   UNL     1     -22.825  31.887 -12.908  1.00  0.00    -0.393 OA
ATOM     34  H   UNL     1     -22.109  32.273 -12.338  1.00  0.00     0.210 HD
ENDBRANCH  27  33
TORSDOF 2
ENDMDL
MODEL 6
REMARK VINA RESULT:    -7.067      4.238      8.064
REMARK INTER + INTRA:          -7.400
REMARK INTER:                  -7.687
REMARK INTRA:                   0.287
REMARK UNBOUND:                 0.287
REMARK SMILES CC1(C)CC[C@]2(C(=O)[O-])CC[C@@]3(C)C(=CC[C@H]4[C@]5(C)CC[C@H](O)C(C)(C)[C@@H]5CC[C@@]43C)[C@H]2C1
REMARK SMILES IDX 6 1 5 2 10 3 32 4 4 5 11 6 14 7 33 8 2 9 12 10 15 11 1 12
REMARK SMILES IDX 3 13 13 14 30 15 16 16 17 17 29 18 31 19 18 20 28 21 27 22
REMARK SMILES IDX 20 23 19 24 24 25 21 26 22 27 25 28 26 29 7 30 8 31 9 32
REMARK SMILES IDX 23 33
REMARK H PARENT 23 34
REMARK Flexibility Score: inf
ROOT
ATOM      1  C   UNL     1     -21.894  32.951 -21.780  1.00  0.00     0.017 C 
ATOM      2  C   UNL     1     -22.164  33.459 -23.251  1.00  0.00     0.014 C 
ATOM      3  C   UNL     1     -23.189  32.248 -21.211  1.00  0.00     0.014 C 
ATOM      4  C   UNL     1     -21.487  34.154 -20.854  1.00  0.00     0.028 C 
ATOM      5  C   UNL     1     -21.770  34.920 -23.520  1.00  0.00     0.007 C 
ATOM      6  C   UNL     1     -23.594  32.653 -19.776  1.00  0.00     0.013 C 
ATOM      7  C   UNL     1     -21.333  33.713 -19.385  1.00  0.00    -0.064 C 
ATOM      8  C   UNL     1     -20.290  34.972 -21.428  1.00  0.00     0.015 C 
ATOM      9  C   UNL     1     -20.378  35.290 -22.956  1.00  0.00    -0.035 C 
ATOM     10  C   UNL     1     -22.401  32.800 -18.778  1.00  0.00    -0.006 C 
ATOM     11  C   UNL     1     -20.389  34.248 -18.567  1.00  0.00    -0.027 C 
ATOM     12  C   UNL     1     -20.149  36.802 -23.188  1.00  0.00     0.011 C 
ATOM     13  C   UNL     1     -19.274  34.529 -23.728  1.00  0.00     0.011 C 
ATOM     14  C   UNL     1     -21.750  31.382 -18.614  1.00  0.00     0.017 C 
ATOM     15  C   UNL     1     -22.864  33.445 -17.374  1.00  0.00    -0.020 C 
ATOM     16  C   UNL     1     -20.341  34.051 -17.063  1.00  0.00     0.032 C 
ATOM     17  C   UNL     1     -21.621  33.424 -16.414  1.00  0.00     0.006 C 
ATOM     18  C   UNL     1     -24.022  32.632 -16.723  1.00  0.00     0.008 C 
ATOM     19  C   UNL     1     -23.375  34.912 -17.596  1.00  0.00     0.012 C 
ATOM     20  C   UNL     1     -21.853  33.818 -14.895  1.00  0.00    -0.025 C 
ATOM     21  C   UNL     1     -24.316  33.004 -15.262  1.00  0.00     0.005 C 
ATOM     22  C   UNL     1     -23.089  33.022 -14.296  1.00  0.00     0.003 C 
ATOM     23  C   UNL     1     -20.545  33.461 -14.102  1.00  0.00     0.010 C 
ATOM     24  C   UNL     1     -22.103  35.356 -14.702  1.00  0.00     0.012 C 
ATOM     25  C   UNL     1     -22.743  31.671 -13.536  1.00  0.00    -0.006 C 
ATOM     26  C   UNL     1     -20.803  33.197 -12.618  1.00  0.00     0.033 C 
ATOM     27  C   UNL     1     -21.740  31.993 -12.361  1.00  0.00     0.120 C 
ATOM     28  C   UNL     1     -24.024  31.074 -12.885  1.00  0.00     0.014 C 
ATOM     29  C   UNL     1     -22.175  30.559 -14.461  1.00  0.00     0.014 C 
ENDROOT
BRANCH   1  30
ATOM     30  C   UNL     1     -20.776  31.904 -21.839  1.00  0.00     0.048 C 
ATOM     31  O   UNL     1     -21.003  30.774 -22.350  1.00  0.00    -0.550 OA
ATOM     32  O   UNL     1     -19.517  32.146 -21.303  1.00  0.00    -0.550 OA
ENDBRANCH   1  30
BRANCH  27  33
ATOM     33  O   UNL     1     -20.984  30.855 -12.018  1.00  0.00    -0.393 OA
ATOM     34  H   UNL     1     -21.612  30.087 -11.967  1.00  0.00     0.210 HD
ENDBRANCH  27  33
TORSDOF 2
ENDMDL
MODEL 7
REMARK VINA RESULT:    -7.061      4.064      8.679
REMARK INTER + INTRA:          -7.393
REMARK INTER:                  -7.681
REMARK INTRA:                   0.288
REMARK UNBOUND:                 0.287
REMARK SMILES CC1(C)CC[C@]2(C(=O)[O-])CC[C@@]3(C)C(=CC[C@H]4[C@]5(C)CC[C@H](O)C(C)(C)[C@@H]5CC[C@@]43C)[C@H]2C1
REMARK SMILES IDX 6 1 5 2 10 3 32 4 4 5 11 6 14 7 33 8 2 9 12 10 15 11 1 12
REMARK SMILES IDX 3 13 13 14 30 15 16 16 17 17 29 18 31 19 18 20 28 21 27 22
REMARK SMILES IDX 20 23 19 24 24 25 21 26 22 27 25 28 26 29 7 30 8 31 9 32
REMARK SMILES IDX 23 33
REMARK H PARENT 23 34
REMARK Flexibility Score: inf
ROOT
ATOM      1  C   UNL     1     -21.094  33.172 -14.118  1.00  0.00     0.017 C 
ATOM      2  C   UNL     1     -19.639  33.511 -13.605  1.00  0.00     0.014 C 
ATOM      3  C   UNL     1     -21.314  31.608 -14.107  1.00  0.00     0.014 C 
ATOM      4  C   UNL     1     -21.304  33.733 -15.571  1.00  0.00     0.028 C 
ATOM      5  C   UNL     1     -18.840  34.473 -14.497  1.00  0.00     0.007 C 
ATOM      6  C   UNL     1     -21.963  31.015 -15.379  1.00  0.00     0.013 C 
ATOM      7  C   UNL     1     -22.672  33.316 -16.147  1.00  0.00    -0.064 C 
ATOM      8  C   UNL     1     -20.977  35.254 -15.677  1.00  0.00     0.015 C 
ATOM      9  C   UNL     1     -19.661  35.700 -14.961  1.00  0.00    -0.035 C 
ATOM     10  C   UNL     1     -23.130  31.867 -15.973  1.00  0.00    -0.006 C 
ATOM     11  C   UNL     1     -23.394  34.137 -16.955  1.00  0.00    -0.027 C 
ATOM     12  C   UNL     1     -18.790  36.524 -15.937  1.00  0.00     0.011 C 
ATOM     13  C   UNL     1     -19.989  36.605 -13.750  1.00  0.00     0.011 C 
ATOM     14  C   UNL     1     -24.288  31.878 -14.914  1.00  0.00     0.017 C 
ATOM     15  C   UNL     1     -23.603  31.320 -17.414  1.00  0.00    -0.020 C 
ATOM     16  C   UNL     1     -24.611  33.707 -17.753  1.00  0.00     0.032 C 
ATOM     17  C   UNL     1     -24.855  32.163 -17.850  1.00  0.00     0.006 C 
ATOM     18  C   UNL     1     -24.001  29.815 -17.355  1.00  0.00     0.008 C 
ATOM     19  C   UNL     1     -22.440  31.466 -18.456  1.00  0.00     0.012 C 
ATOM     20  C   UNL     1     -25.646  31.699 -19.144  1.00  0.00    -0.025 C 
ATOM     21  C   UNL     1     -24.735  29.303 -18.604  1.00  0.00     0.005 C 
ATOM     22  C   UNL     1     -25.963  30.145 -19.075  1.00  0.00     0.003 C 
ATOM     23  C   UNL     1     -26.983  32.520 -19.209  1.00  0.00     0.010 C 
ATOM     24  C   UNL     1     -24.859  31.993 -20.471  1.00  0.00     0.012 C 
ATOM     25  C   UNL     1     -27.383  29.750 -18.483  1.00  0.00    -0.006 C 
ATOM     26  C   UNL     1     -28.088  31.798 -19.983  1.00  0.00     0.033 C 
ATOM     27  C   UNL     1     -28.504  30.450 -19.348  1.00  0.00     0.120 C 
ATOM     28  C   UNL     1     -27.612  28.216 -18.605  1.00  0.00     0.014 C 
ATOM     29  C   UNL     1     -27.551  30.091 -16.977  1.00  0.00     0.014 C 
ENDROOT
BRANCH   1  30
ATOM     30  C   UNL     1     -22.097  33.795 -13.140  1.00  0.00     0.048 C 
ATOM     31  O   UNL     1     -22.213  33.324 -11.977  1.00  0.00    -0.550 OA
ATOM     32  O   UNL     1     -22.923  34.850 -13.511  1.00  0.00    -0.550 OA
ENDBRANCH   1  30
BRANCH  27  33
ATOM     33  O   UNL     1     -29.688  30.611 -18.603  1.00  0.00    -0.393 OA
ATOM     34  H   UNL     1     -29.524  31.331 -17.939  1.00  0.00     0.210 HD
ENDBRANCH  27  33
TORSDOF 2
ENDMDL
MODEL 8
REMARK VINA RESULT:    -6.926      4.151      5.647
REMARK INTER + INTRA:          -7.246
REMARK INTER:                  -7.583
REMARK INTRA:                   0.336
REMARK UNBOUND:                 0.287
REMARK SMILES CC1(C)CC[C@]2(C(=O)[O-])CC[C@@]3(C)C(=CC[C@H]4[C@]5(C)CC[C@H](O)C(C)(C)[C@@H]5CC[C@@]43C)[C@H]2C1
REMARK SMILES IDX 6 1 5 2 10 3 32 4 4 5 11 6 14 7 33 8 2 9 12 10 15 11 1 12
REMARK SMILES IDX 3 13 13 14 30 15 16 16 17 17 29 18 31 19 18 20 28 21 27 22
REMARK SMILES IDX 20 23 19 24 24 25 21 26 22 27 25 28 26 29 7 30 8 31 9 32
REMARK SMILES IDX 23 33
REMARK H PARENT 23 34
REMARK Flexibility Score: inf
ROOT
ATOM      1  C   UNL     1     -27.912  29.464 -18.147  1.00  0.00     0.017 C 
ATOM      2  C   UNL     1     -29.426  29.080 -18.381  1.00  0.00     0.014 C 
ATOM      3  C   UNL     1     -27.423  28.891 -16.759  1.00  0.00     0.014 C 
ATOM      4  C   UNL     1     -27.737  31.026 -18.174  1.00  0.00     0.028 C 
ATOM      5  C   UNL     1     -30.339  30.244 -18.795  1.00  0.00     0.007 C 
ATOM      6  C   UNL     1     -26.621  29.873 -15.875  1.00  0.00     0.013 C 
ATOM      7  C   UNL     1     -26.292  31.440 -17.831  1.00  0.00    -0.064 C 
ATOM      8  C   UNL     1     -28.320  31.672 -19.468  1.00  0.00     0.015 C 
ATOM      9  C   UNL     1     -29.725  31.139 -19.898  1.00  0.00    -0.035 C 
ATOM     10  C   UNL     1     -25.595  30.761 -16.650  1.00  0.00    -0.006 C 
ATOM     11  C   UNL     1     -25.688  32.506 -18.421  1.00  0.00    -0.027 C 
ATOM     12  C   UNL     1     -30.681  32.330 -20.143  1.00  0.00     0.011 C 
ATOM     13  C   UNL     1     -29.618  30.347 -21.223  1.00  0.00     0.011 C 
ATOM     14  C   UNL     1     -24.508  29.802 -17.251  1.00  0.00     0.017 C 
ATOM     15  C   UNL     1     -24.967  31.914 -15.714  1.00  0.00    -0.020 C 
ATOM     16  C   UNL     1     -24.379  33.118 -17.958  1.00  0.00     0.032 C 
ATOM     17  C   UNL     1     -23.864  32.652 -16.554  1.00  0.00     0.006 C 
ATOM     18  C   UNL     1     -24.315  31.320 -14.430  1.00  0.00     0.008 C 
ATOM     19  C   UNL     1     -26.089  32.914 -15.262  1.00  0.00     0.012 C 
ATOM     20  C   UNL     1     -22.944  33.706 -15.804  1.00  0.00    -0.025 C 
ATOM     21  C   UNL     1     -23.446  32.313 -13.643  1.00  0.00     0.005 C 
ATOM     22  C   UNL     1     -22.364  33.083 -14.464  1.00  0.00     0.003 C 
ATOM     23  C   UNL     1     -21.770  34.092 -16.773  1.00  0.00     0.010 C 
ATOM     24  C   UNL     1     -23.708  35.032 -15.453  1.00  0.00     0.012 C 
ATOM     25  C   UNL     1     -20.925  32.418 -14.573  1.00  0.00    -0.006 C 
ATOM     26  C   UNL     1     -20.522  34.574 -16.032  1.00  0.00     0.033 C 
ATOM     27  C   UNL     1     -19.906  33.501 -15.103  1.00  0.00     0.120 C 
ATOM     28  C   UNL     1     -20.426  31.979 -13.166  1.00  0.00     0.014 C 
ATOM     29  C   UNL     1     -20.890  31.142 -15.459  1.00  0.00     0.014 C 
ENDROOT
BRANCH   1  30
ATOM     30  C   UNL     1     -27.080  28.801 -19.251  1.00  0.00     0.048 C 
ATOM     31  O   UNL     1     -27.078  27.546 -19.365  1.00  0.00    -0.550 OA
ATOM     32  O   UNL     1     -26.287  29.545 -20.117  1.00  0.00    -0.550 OA
ENDBRANCH   1  30
BRANCH  27  33
ATOM     33  O   UNL     1     -18.804  32.890 -15.732  1.00  0.00    -0.393 OA
ATOM     34  H   UNL     1     -18.468  32.183 -15.120  1.00  0.00     0.210 HD
ENDBRANCH  27  33
TORSDOF 2
ENDMDL
