MODEL 1
REMARK VINA RESULT:    -4.998      0.000      0.000
REMARK INTER + INTRA:          -9.744
REMARK INTER:                  -8.504
REMARK INTRA:                  -1.240
REMARK UNBOUND:                -1.240
REMARK SMILES CCCCCCCCCCCCCC(=O)[O-]
REMARK SMILES IDX 8 1 9 2 10 3 11 4 12 5 13 6 14 7 15 8 16 9 7 10 6 11 5 12
REMARK SMILES IDX 4 13 3 14 2 15 1 16
REMARK H PARENT
REMARK Flexibility Score: inf
ROOT
ATOM      1  C   UNL     1      25.237  11.984  32.026  1.00  0.00     0.000 C 
ENDROOT
BRANCH   1   2
ATOM      2  C   UNL     1      24.282  11.721  33.209  1.00  0.00     0.000 C 
BRANCH   2   3
ATOM      3  C   UNL     1      24.956  11.988  34.566  1.00  0.00     0.000 C 
BRANCH   3   4
ATOM      4  C   UNL     1      23.985  12.557  35.617  1.00  0.00     0.000 C 
BRANCH   4   5
ATOM      5  C   UNL     1      22.614  12.986  35.066  1.00  0.00     0.006 C 
BRANCH   5   6
ATOM      6  C   UNL     1      21.443  12.482  35.920  1.00  0.00     0.053 C 
BRANCH   6   7
ATOM      7  C   UNL     1      20.266  13.395  35.783  1.00  0.00     0.041 C 
ATOM      8  O   UNL     1      20.297  14.352  34.966  1.00  0.00    -0.550 OA
ATOM      9  O   UNL     1      19.152  13.219  36.595  1.00  0.00    -0.550 OA
ENDBRANCH   6   7
ENDBRANCH   5   6
ENDBRANCH   4   5
ENDBRANCH   3   4
ENDBRANCH   2   3
ENDBRANCH   1   2
BRANCH   1  10
ATOM     10  C   UNL     1      26.097  10.767  31.644  1.00  0.00     0.000 C 
BRANCH  10  11
ATOM     11  C   UNL     1      27.556  11.142  31.338  1.00  0.00    -0.000 C 
BRANCH  11  12
ATOM     12  C   UNL     1      27.753  12.655  31.131  1.00  0.00    -0.000 C 
BRANCH  12  13
ATOM     13  C   UNL     1      28.752  13.327  32.095  1.00  0.00    -0.000 C 
BRANCH  13  14
ATOM     14  C   UNL     1      28.470  13.101  33.594  1.00  0.00    -0.000 C 
BRANCH  14  15
ATOM     15  C   UNL     1      27.893  14.321  34.333  1.00  0.00    -0.003 C 
ATOM     16  C   UNL     1      27.762  14.097  35.839  1.00  0.00     0.004 C 
ENDBRANCH  14  15
ENDBRANCH  13  14
ENDBRANCH  12  13
ENDBRANCH  11  12
ENDBRANCH  10  11
ENDBRANCH   1  10
TORSDOF 12
ENDMDL
MODEL 2
REMARK VINA RESULT:    -4.865      0.998      1.535
REMARK INTER + INTRA:          -9.518
REMARK INTER:                  -8.246
REMARK INTRA:                  -1.273
REMARK UNBOUND:                -1.240
REMARK SMILES CCCCCCCCCCCCCC(=O)[O-]
REMARK SMILES IDX 8 1 9 2 10 3 11 4 12 5 13 6 14 7 15 8 16 9 7 10 6 11 5 12
REMARK SMILES IDX 4 13 3 14 2 15 1 16
REMARK H PARENT
REMARK Flexibility Score: inf
ROOT
ATOM      1  C   UNL     1      25.754  10.321  31.536  1.00  0.00     0.000 C 
ENDROOT
BRANCH   1   2
ATOM      2  C   UNL     1      24.363  10.943  31.784  1.00  0.00     0.000 C 
BRANCH   2   3
ATOM      3  C   UNL     1      24.449  12.245  32.599  1.00  0.00     0.000 C 
BRANCH   3   4
ATOM      4  C   UNL     1      24.745  12.001  34.091  1.00  0.00     0.000 C 
BRANCH   4   5
ATOM      5  C   UNL     1      23.719  12.611  35.062  1.00  0.00     0.006 C 
BRANCH   5   6
ATOM      6  C   UNL     1      22.312  12.714  34.457  1.00  0.00     0.053 C 
BRANCH   6   7
ATOM      7  C   UNL     1      21.283  12.788  35.539  1.00  0.00     0.041 C 
ATOM      8  O   UNL     1      21.102  11.809  36.310  1.00  0.00    -0.550 OA
ATOM      9  O   UNL     1      20.487  13.921  35.665  1.00  0.00    -0.550 OA
ENDBRANCH   6   7
ENDBRANCH   5   6
ENDBRANCH   4   5
ENDBRANCH   3   4
ENDBRANCH   2   3
ENDBRANCH   1   2
BRANCH   1  10
ATOM     10  C   UNL     1      26.655  11.169  30.622  1.00  0.00     0.000 C 
BRANCH  10  11
ATOM     11  C   UNL     1      28.032  11.453  31.244  1.00  0.00    -0.000 C 
BRANCH  11  12
ATOM     12  C   UNL     1      28.305  12.957  31.428  1.00  0.00    -0.000 C 
BRANCH  12  13
ATOM     13  C   UNL     1      27.867  13.544  32.786  1.00  0.00    -0.000 C 
BRANCH  13  14
ATOM     14  C   UNL     1      28.601  12.973  34.015  1.00  0.00    -0.000 C 
BRANCH  14  15
ATOM     15  C   UNL     1      27.839  13.113  35.345  1.00  0.00    -0.003 C 
ATOM     16  C   UNL     1      27.770  14.557  35.841  1.00  0.00     0.004 C 
ENDBRANCH  14  15
ENDBRANCH  13  14
ENDBRANCH  12  13
ENDBRANCH  11  12
ENDBRANCH  10  11
ENDBRANCH   1  10
TORSDOF 12
ENDMDL
MODEL 3
REMARK VINA RESULT:    -4.853      1.153      2.948
REMARK INTER + INTRA:          -9.498
REMARK INTER:                  -7.891
REMARK INTRA:                  -1.607
REMARK UNBOUND:                -1.240
REMARK SMILES CCCCCCCCCCCCCC(=O)[O-]
REMARK SMILES IDX 8 1 9 2 10 3 11 4 12 5 13 6 14 7 15 8 16 9 7 10 6 11 5 12
REMARK SMILES IDX 4 13 3 14 2 15 1 16
REMARK H PARENT
REMARK Flexibility Score: inf
ROOT
ATOM      1  C   UNL     1      27.395  13.388  35.136  1.00  0.00     0.000 C 
ENDROOT
BRANCH   1   2
ATOM      2  C   UNL     1      27.058  11.882  35.112  1.00  0.00     0.000 C 
BRANCH   2   3
ATOM      3  C   UNL     1      25.540  11.630  35.130  1.00  0.00     0.000 C 
BRANCH   3   4
ATOM      4  C   UNL     1      24.776  12.629  36.017  1.00  0.00     0.000 C 
BRANCH   4   5
ATOM      5  C   UNL     1      23.246  12.608  35.845  1.00  0.00     0.006 C 
BRANCH   5   6
ATOM      6  C   UNL     1      22.801  12.954  34.418  1.00  0.00     0.053 C 
BRANCH   6   7
ATOM      7  C   UNL     1      21.345  13.294  34.394  1.00  0.00     0.041 C 
ATOM      8  O   UNL     1      20.653  13.044  33.372  1.00  0.00    -0.550 OA
ATOM      9  O   UNL     1      20.762  13.933  35.482  1.00  0.00    -0.550 OA
ENDBRANCH   6   7
ENDBRANCH   5   6
ENDBRANCH   4   5
ENDBRANCH   3   4
ENDBRANCH   2   3
ENDBRANCH   1   2
BRANCH   1  10
ATOM     10  C   UNL     1      27.914  13.926  33.790  1.00  0.00     0.000 C 
BRANCH  10  11
ATOM     11  C   UNL     1      28.755  12.894  33.022  1.00  0.00    -0.000 C 
BRANCH  11  12
ATOM     12  C   UNL     1      28.749  13.132  31.501  1.00  0.00    -0.000 C 
BRANCH  12  13
ATOM     13  C   UNL     1      28.010  12.062  30.671  1.00  0.00    -0.000 C 
BRANCH  13  14
ATOM     14  C   UNL     1      27.211  11.031  31.492  1.00  0.00    -0.000 C 
BRANCH  14  15
ATOM     15  C   UNL     1      25.682  11.133  31.345  1.00  0.00    -0.003 C 
ATOM     16  C   UNL     1      25.158  12.552  31.561  1.00  0.00     0.004 C 
ENDBRANCH  14  15
ENDBRANCH  13  14
ENDBRANCH  12  13
ENDBRANCH  11  12
ENDBRANCH  10  11
ENDBRANCH   1  10
TORSDOF 12
ENDMDL
MODEL 4
REMARK VINA RESULT:    -4.793      1.826      2.816
REMARK INTER + INTRA:          -9.395
REMARK INTER:                  -7.995
REMARK INTRA:                  -1.400
REMARK UNBOUND:                -1.240
REMARK SMILES CCCCCCCCCCCCCC(=O)[O-]
REMARK SMILES IDX 8 1 9 2 10 3 11 4 12 5 13 6 14 7 15 8 16 9 7 10 6 11 5 12
REMARK SMILES IDX 4 13 3 14 2 15 1 16
REMARK H PARENT
REMARK Flexibility Score: inf
ROOT
ATOM      1  C   UNL     1      26.536  10.587  31.579  1.00  0.00     0.000 C 
ENDROOT
BRANCH   1   2
ATOM      2  C   UNL     1      25.078  10.128  31.367  1.00  0.00     0.000 C 
BRANCH   2   3
ATOM      3  C   UNL     1      24.206  11.236  30.752  1.00  0.00     0.000 C 
BRANCH   3   4
ATOM      4  C   UNL     1      23.841  12.342  31.759  1.00  0.00     0.000 C 
BRANCH   4   5
ATOM      5  C   UNL     1      23.599  11.852  33.198  1.00  0.00     0.006 C 
BRANCH   5   6
ATOM      6  C   UNL     1      24.624  12.405  34.197  1.00  0.00     0.053 C 
BRANCH   6   7
ATOM      7  C   UNL     1      23.973  12.678  35.516  1.00  0.00     0.041 C 
ATOM      8  O   UNL     1      22.719  12.767  35.597  1.00  0.00    -0.550 OA
ATOM      9  O   UNL     1      24.753  12.883  36.647  1.00  0.00    -0.550 OA
ENDBRANCH   6   7
ENDBRANCH   5   6
ENDBRANCH   4   5
ENDBRANCH   3   4
ENDBRANCH   2   3
ENDBRANCH   1   2
BRANCH   1  10
ATOM     10  C   UNL     1      27.124  11.350  30.378  1.00  0.00     0.000 C 
BRANCH  10  11
ATOM     11  C   UNL     1      27.441  12.818  30.704  1.00  0.00    -0.000 C 
BRANCH  11  12
ATOM     12  C   UNL     1      28.678  12.976  31.607  1.00  0.00    -0.000 C 
BRANCH  12  13
ATOM     13  C   UNL     1      28.401  13.562  33.007  1.00  0.00    -0.000 C 
BRANCH  13  14
ATOM     14  C   UNL     1      28.349  12.531  34.151  1.00  0.00    -0.000 C 
BRANCH  14  15
ATOM     15  C   UNL     1      28.136  13.132  35.552  1.00  0.00    -0.003 C 
ATOM     16  C   UNL     1      27.855  14.633  35.518  1.00  0.00     0.004 C 
ENDBRANCH  14  15
ENDBRANCH  13  14
ENDBRANCH  12  13
ENDBRANCH  11  12
ENDBRANCH  10  11
ENDBRANCH   1  10
TORSDOF 12
ENDMDL
MODEL 5
REMARK VINA RESULT:    -4.744      2.899      6.413
REMARK INTER + INTRA:          -9.311
REMARK INTER:                  -8.218
REMARK INTRA:                  -1.093
REMARK UNBOUND:                -1.240
REMARK SMILES CCCCCCCCCCCCCC(=O)[O-]
REMARK SMILES IDX 8 1 9 2 10 3 11 4 12 5 13 6 14 7 15 8 16 9 7 10 6 11 5 12
REMARK SMILES IDX 4 13 3 14 2 15 1 16
REMARK H PARENT
REMARK Flexibility Score: inf
ROOT
ATOM      1  C   UNL     1      24.778  11.764  31.671  1.00  0.00     0.000 C 
ENDROOT
BRANCH   1   2
ATOM      2  C   UNL     1      25.868  10.698  31.909  1.00  0.00     0.000 C 
BRANCH   2   3
ATOM      3  C   UNL     1      27.248  11.160  31.411  1.00  0.00     0.000 C 
BRANCH   3   4
ATOM      4  C   UNL     1      27.441  12.685  31.506  1.00  0.00     0.000 C 
BRANCH   4   5
ATOM      5  C   UNL     1      28.539  13.138  32.484  1.00  0.00     0.006 C 
BRANCH   5   6
ATOM      6  C   UNL     1      27.988  13.940  33.671  1.00  0.00     0.053 C 
BRANCH   6   7
ATOM      7  C   UNL     1      28.014  13.114  34.917  1.00  0.00     0.041 C 
ATOM      8  O   UNL     1      28.351  11.902  34.867  1.00  0.00    -0.550 OA
ATOM      9  O   UNL     1      27.618  13.670  36.128  1.00  0.00    -0.550 OA
ENDBRANCH   6   7
ENDBRANCH   5   6
ENDBRANCH   4   5
ENDBRANCH   3   4
ENDBRANCH   2   3
ENDBRANCH   1   2
BRANCH   1  10
ATOM     10  C   UNL     1      23.900  12.036  32.906  1.00  0.00     0.000 C 
BRANCH  10  11
ATOM     11  C   UNL     1      24.713  12.114  34.208  1.00  0.00    -0.000 C 
BRANCH  11  12
ATOM     12  C   UNL     1      23.889  12.644  35.396  1.00  0.00    -0.000 C 
BRANCH  12  13
ATOM     13  C   UNL     1      22.437  13.043  35.063  1.00  0.00    -0.000 C 
BRANCH  13  14
ATOM     14  C   UNL     1      21.353  12.310  35.877  1.00  0.00    -0.000 C 
BRANCH  14  15
ATOM     15  C   UNL     1      19.922  12.838  35.670  1.00  0.00    -0.003 C 
ATOM     16  C   UNL     1      18.980  12.468  36.814  1.00  0.00     0.004 C 
ENDBRANCH  14  15
ENDBRANCH  13  14
ENDBRANCH  12  13
ENDBRANCH  11  12
ENDBRANCH  10  11
ENDBRANCH   1  10
TORSDOF 12
ENDMDL
MODEL 6
REMARK VINA RESULT:    -4.734      2.603      5.472
REMARK INTER + INTRA:          -9.295
REMARK INTER:                  -7.951
REMARK INTRA:                  -1.344
REMARK UNBOUND:                -1.240
REMARK SMILES CCCCCCCCCCCCCC(=O)[O-]
REMARK SMILES IDX 8 1 9 2 10 3 11 4 12 5 13 6 14 7 15 8 16 9 7 10 6 11 5 12
REMARK SMILES IDX 4 13 3 14 2 15 1 16
REMARK H PARENT
REMARK Flexibility Score: inf
ROOT
ATOM      1  C   UNL     1      26.940  11.969  30.608  1.00  0.00     0.000 C 
ENDROOT
BRANCH   1   2
ATOM      2  C   UNL     1      28.465  12.046  30.389  1.00  0.00     0.000 C 
BRANCH   2   3
ATOM      3  C   UNL     1      29.132  13.073  31.321  1.00  0.00     0.000 C 
BRANCH   3   4
ATOM      4  C   UNL     1      28.235  13.479  32.505  1.00  0.00     0.000 C 
BRANCH   4   5
ATOM      5  C   UNL     1      28.652  12.889  33.864  1.00  0.00     0.006 C 
BRANCH   5   6
ATOM      6  C   UNL     1      27.454  12.458  34.721  1.00  0.00     0.053 C 
BRANCH   6   7
ATOM      7  C   UNL     1      27.049  13.562  35.645  1.00  0.00     0.041 C 
ATOM      8  O   UNL     1      25.941  13.514  36.242  1.00  0.00    -0.550 OA
ATOM      9  O   UNL     1      27.873  14.669  35.809  1.00  0.00    -0.550 OA
ENDBRANCH   6   7
ENDBRANCH   5   6
ENDBRANCH   4   5
ENDBRANCH   3   4
ENDBRANCH   2   3
ENDBRANCH   1   2
BRANCH   1  10
ATOM     10  C   UNL     1      26.467  10.624  31.187  1.00  0.00     0.000 C 
BRANCH  10  11
ATOM     11  C   UNL     1      25.100  10.723  31.883  1.00  0.00    -0.000 C 
BRANCH  11  12
ATOM     12  C   UNL     1      24.711  12.172  32.231  1.00  0.00    -0.000 C 
BRANCH  12  13
ATOM     13  C   UNL     1      23.893  12.340  33.528  1.00  0.00    -0.000 C 
BRANCH  13  14
ATOM     14  C   UNL     1      22.363  12.267  33.352  1.00  0.00    -0.000 C 
BRANCH  14  15
ATOM     15  C   UNL     1      21.552  12.592  34.619  1.00  0.00    -0.003 C 
ATOM     16  C   UNL     1      22.408  12.613  35.884  1.00  0.00     0.004 C 
ENDBRANCH  14  15
ENDBRANCH  13  14
ENDBRANCH  12  13
ENDBRANCH  11  12
ENDBRANCH  10  11
ENDBRANCH   1  10
TORSDOF 12
ENDMDL
MODEL 7
REMARK VINA RESULT:    -4.733      4.187      6.590
REMARK INTER + INTRA:          -9.293
REMARK INTER:                  -7.662
REMARK INTRA:                  -1.631
REMARK UNBOUND:                -1.240
REMARK SMILES CCCCCCCCCCCCCC(=O)[O-]
REMARK SMILES IDX 8 1 9 2 10 3 11 4 12 5 13 6 14 7 15 8 16 9 7 10 6 11 5 12
REMARK SMILES IDX 4 13 3 14 2 15 1 16
REMARK H PARENT
REMARK Flexibility Score: inf
ROOT
ATOM      1  C   UNL     1      25.405  13.098  36.300  1.00  0.00     0.000 C 
ENDROOT
BRANCH   1   2
ATOM      2  C   UNL     1      26.740  13.421  35.596  1.00  0.00     0.000 C 
BRANCH   2   3
ATOM      3  C   UNL     1      27.526  12.148  35.236  1.00  0.00     0.000 C 
BRANCH   3   4
ATOM      4  C   UNL     1      28.056  12.159  33.790  1.00  0.00     0.000 C 
BRANCH   4   5
ATOM      5  C   UNL     1      27.788  13.460  33.013  1.00  0.00     0.006 C 
BRANCH   5   6
ATOM      6  C   UNL     1      27.432  13.214  31.541  1.00  0.00     0.053 C 
BRANCH   6   7
ATOM      7  C   UNL     1      28.608  12.655  30.806  1.00  0.00     0.041 C 
ATOM      8  O   UNL     1      29.712  13.260  30.823  1.00  0.00    -0.550 OA
ATOM      9  O   UNL     1      28.472  11.490  30.060  1.00  0.00    -0.550 OA
ENDBRANCH   6   7
ENDBRANCH   5   6
ENDBRANCH   4   5
ENDBRANCH   3   4
ENDBRANCH   2   3
ENDBRANCH   1   2
BRANCH   1  10
ATOM     10  C   UNL     1      24.520  12.108  35.522  1.00  0.00     0.000 C 
BRANCH  10  11
ATOM     11  C   UNL     1      24.242  12.565  34.081  1.00  0.00    -0.000 C 
BRANCH  11  12
ATOM     12  C   UNL     1      24.334  11.414  33.062  1.00  0.00    -0.000 C 
BRANCH  12  13
ATOM     13  C   UNL     1      24.094  11.817  31.592  1.00  0.00    -0.000 C 
BRANCH  13  14
ATOM     14  C   UNL     1      24.827  10.954  30.547  1.00  0.00    -0.000 C 
BRANCH  14  15
ATOM     15  C   UNL     1      25.585   9.745  31.125  1.00  0.00    -0.003 C 
ATOM     16  C   UNL     1      25.138   8.417  30.517  1.00  0.00     0.004 C 
ENDBRANCH  14  15
ENDBRANCH  13  14
ENDBRANCH  12  13
ENDBRANCH  11  12
ENDBRANCH  10  11
ENDBRANCH   1  10
TORSDOF 12
ENDMDL
MODEL 8
REMARK VINA RESULT:    -4.626      2.953      6.091
REMARK INTER + INTRA:          -9.111
REMARK INTER:                  -7.814
REMARK INTRA:                  -1.297
REMARK UNBOUND:                -1.240
REMARK SMILES CCCCCCCCCCCCCC(=O)[O-]
REMARK SMILES IDX 8 1 9 2 10 3 11 4 12 5 13 6 14 7 15 8 16 9 7 10 6 11 5 12
REMARK SMILES IDX 4 13 3 14 2 15 1 16
REMARK H PARENT
REMARK Flexibility Score: inf
ROOT
ATOM      1  C   UNL     1      27.972  14.116  34.820  1.00  0.00     0.000 C 
ENDROOT
BRANCH   1   2
ATOM      2  C   UNL     1      28.369  12.874  33.994  1.00  0.00     0.000 C 
BRANCH   2   3
ATOM      3  C   UNL     1      28.726  13.237  32.542  1.00  0.00     0.000 C 
BRANCH   3   4
ATOM      4  C   UNL     1      27.952  12.399  31.507  1.00  0.00     0.000 C 
BRANCH   4   5
ATOM      5  C   UNL     1      26.458  12.202  31.820  1.00  0.00     0.006 C 
BRANCH   5   6
ATOM      6  C   UNL     1      26.104  10.746  32.152  1.00  0.00     0.053 C 
BRANCH   6   7
ATOM      7  C   UNL     1      25.162  10.192  31.132  1.00  0.00     0.041 C 
ATOM      8  O   UNL     1      25.259   8.992  30.764  1.00  0.00    -0.550 OA
ATOM      9  O   UNL     1      24.206  11.016  30.549  1.00  0.00    -0.550 OA
ENDBRANCH   6   7
ENDBRANCH   5   6
ENDBRANCH   4   5
ENDBRANCH   3   4
ENDBRANCH   2   3
ENDBRANCH   1   2
BRANCH   1  10
ATOM     10  C   UNL     1      26.879  13.836  35.868  1.00  0.00     0.000 C 
BRANCH  10  11
ATOM     11  C   UNL     1      25.954  12.676  35.467  1.00  0.00    -0.000 C 
BRANCH  11  12
ATOM     12  C   UNL     1      24.656  12.634  36.295  1.00  0.00    -0.000 C 
BRANCH  12  13
ATOM     13  C   UNL     1      23.352  12.742  35.479  1.00  0.00    -0.000 C 
BRANCH  13  14
ATOM     14  C   UNL     1      23.496  12.465  33.970  1.00  0.00    -0.000 C 
BRANCH  14  15
ATOM     15  C   UNL     1      22.243  12.780  33.133  1.00  0.00    -0.003 C 
ATOM     16  C   UNL     1      21.461  11.527  32.741  1.00  0.00     0.004 C 
ENDBRANCH  14  15
ENDBRANCH  13  14
ENDBRANCH  12  13
ENDBRANCH  11  12
ENDBRANCH  10  11
ENDBRANCH   1  10
TORSDOF 12
ENDMDL
MODEL 9
REMARK VINA RESULT:    -4.611      1.293      3.194
REMARK INTER + INTRA:          -9.085
REMARK INTER:                  -8.073
REMARK INTRA:                  -1.012
REMARK UNBOUND:                -1.240
REMARK SMILES CCCCCCCCCCCCCC(=O)[O-]
REMARK SMILES IDX 8 1 9 2 10 3 11 4 12 5 13 6 14 7 15 8 16 9 7 10 6 11 5 12
REMARK SMILES IDX 4 13 3 14 2 15 1 16
REMARK H PARENT
REMARK Flexibility Score: inf
ROOT
ATOM      1  C   UNL     1      26.529  12.023  35.102  1.00  0.00     0.000 C 
ENDROOT
BRANCH   1   2
ATOM      2  C   UNL     1      25.046  12.297  35.430  1.00  0.00     0.000 C 
BRANCH   2   3
ATOM      3  C   UNL     1      24.161  12.269  34.173  1.00  0.00     0.000 C 
BRANCH   3   4
ATOM      4  C   UNL     1      22.793  12.945  34.385  1.00  0.00     0.000 C 
BRANCH   4   5
ATOM      5  C   UNL     1      22.151  12.687  35.760  1.00  0.00     0.006 C 
BRANCH   5   6
ATOM      6  C   UNL     1      20.687  13.141  35.831  1.00  0.00     0.053 C 
BRANCH   6   7
ATOM      7  C   UNL     1      19.810  12.010  36.264  1.00  0.00     0.041 C 
ATOM      8  O   UNL     1      19.942  10.871  35.744  1.00  0.00    -0.550 OA
ATOM      9  O   UNL     1      18.813  12.226  37.207  1.00  0.00    -0.550 OA
ENDBRANCH   6   7
ENDBRANCH   5   6
ENDBRANCH   4   5
ENDBRANCH   3   4
ENDBRANCH   2   3
ENDBRANCH   1   2
BRANCH   1  10
ATOM     10  C   UNL     1      27.253  13.224  34.468  1.00  0.00     0.000 C 
BRANCH  10  11
ATOM     11  C   UNL     1      28.541  12.822  33.734  1.00  0.00    -0.000 C 
BRANCH  11  12
ATOM     12  C   UNL     1      28.455  13.040  32.212  1.00  0.00    -0.000 C 
BRANCH  12  13
ATOM     13  C   UNL     1      28.008  11.810  31.395  1.00  0.00    -0.000 C 
BRANCH  13  14
ATOM     14  C   UNL     1      26.488  11.680  31.182  1.00  0.00    -0.000 C 
BRANCH  14  15
ATOM     15  C   UNL     1      25.877  10.356  31.674  1.00  0.00    -0.003 C 
ATOM     16  C   UNL     1      25.540   9.396  30.534  1.00  0.00     0.004 C 
ENDBRANCH  14  15
ENDBRANCH  13  14
ENDBRANCH  12  13
ENDBRANCH  11  12
ENDBRANCH  10  11
ENDBRANCH   1  10
TORSDOF 12
ENDMDL
