MODEL 1
REMARK VINA RESULT:    -2.550      0.000      0.000
REMARK INTER + INTRA:          -6.915
REMARK INTER:                  -4.936
REMARK INTRA:                  -1.979
REMARK UNBOUND:                -1.979
REMARK SMILES CCCCCCCCCCCCCCCCCC(=O)[O-]
REMARK SMILES IDX 10 1 11 2 12 3 13 4 14 5 15 6 16 7 17 8 18 9 19 10 20 11
REMARK SMILES IDX 9 12 8 13 7 14 6 15 5 16 4 17 3 18 2 19 1 20
REMARK H PARENT
REMARK Flexibility Score: inf
ROOT
ATOM      1  C   UNL     1     -10.304 -17.223  12.736  1.00  0.00     0.000 C 
ENDROOT
BRANCH   1   2
ATOM      2  C   UNL     1      -8.897 -17.214  13.368  1.00  0.00     0.000 C 
BRANCH   2   3
ATOM      3  C   UNL     1      -8.807 -16.529  14.743  1.00  0.00     0.000 C 
BRANCH   3   4
ATOM      4  C   UNL     1      -8.920 -17.520  15.913  1.00  0.00     0.000 C 
BRANCH   4   5
ATOM      5  C   UNL     1     -10.352 -18.072  16.078  1.00  0.00     0.000 C 
BRANCH   5   6
ATOM      6  C   UNL     1     -10.464 -19.588  15.831  1.00  0.00     0.000 C 
BRANCH   6   7
ATOM      7  C   UNL     1     -11.904 -20.129  15.761  1.00  0.00     0.006 C 
BRANCH   7   8
ATOM      8  C   UNL     1     -12.003 -21.614  15.374  1.00  0.00     0.053 C 
BRANCH   8   9
ATOM      9  C   UNL     1     -13.214 -21.896  14.539  1.00  0.00     0.041 C 
ATOM     10  O   UNL     1     -14.348 -21.495  14.911  1.00  0.00    -0.550 OA
ATOM     11  O   UNL     1     -13.084 -22.575  13.333  1.00  0.00    -0.550 OA
ENDBRANCH   8   9
ENDBRANCH   7   8
ENDBRANCH   6   7
ENDBRANCH   5   6
ENDBRANCH   4   5
ENDBRANCH   3   4
ENDBRANCH   2   3
ENDBRANCH   1   2
BRANCH   1  12
ATOM     12  C   UNL     1     -10.335 -17.076  11.202  1.00  0.00     0.000 C 
BRANCH  12  13
ATOM     13  C   UNL     1      -9.018 -17.432  10.489  1.00  0.00    -0.000 C 
BRANCH  13  14
ATOM     14  C   UNL     1      -9.162 -18.621   9.527  1.00  0.00    -0.000 C 
BRANCH  14  15
ATOM     15  C   UNL     1      -7.875 -19.459   9.497  1.00  0.00    -0.000 C 
BRANCH  15  16
ATOM     16  C   UNL     1      -7.967 -20.722  10.370  1.00  0.00    -0.000 C 
BRANCH  16  17
ATOM     17  C   UNL     1      -8.254 -20.400  11.846  1.00  0.00    -0.000 C 
BRANCH  17  18
ATOM     18  C   UNL     1      -9.620 -20.932  12.312  1.00  0.00    -0.000 C 
BRANCH  18  19
ATOM     19  C   UNL     1      -9.576 -22.414  12.708  1.00  0.00    -0.003 C 
ATOM     20  C   UNL     1      -8.767 -22.617  13.986  1.00  0.00     0.004 C 
ENDBRANCH  18  19
ENDBRANCH  17  18
ENDBRANCH  16  17
ENDBRANCH  15  16
ENDBRANCH  14  15
ENDBRANCH  13  14
ENDBRANCH  12  13
ENDBRANCH   1  12
TORSDOF 16
ENDMDL
MODEL 2
REMARK VINA RESULT:    -2.428      1.204      4.056
REMARK INTER + INTRA:          -6.679
REMARK INTER:                  -4.856
REMARK INTRA:                  -1.822
REMARK UNBOUND:                -1.979
REMARK SMILES CCCCCCCCCCCCCCCCCC(=O)[O-]
REMARK SMILES IDX 10 1 11 2 12 3 13 4 14 5 15 6 16 7 17 8 18 9 19 10 20 11
REMARK SMILES IDX 9 12 8 13 7 14 6 15 5 16 4 17 3 18 2 19 1 20
REMARK H PARENT
REMARK Flexibility Score: inf
ROOT
ATOM      1  C   UNL     1      -9.809 -18.607  10.277  1.00  0.00     0.000 C 
ENDROOT
BRANCH   1   2
ATOM      2  C   UNL     1      -9.728 -19.904  11.108  1.00  0.00     0.000 C 
BRANCH   2   3
ATOM      3  C   UNL     1      -8.378 -20.638  11.033  1.00  0.00     0.000 C 
BRANCH   3   4
ATOM      4  C   UNL     1      -8.298 -21.843  11.986  1.00  0.00     0.000 C 
BRANCH   4   5
ATOM      5  C   UNL     1      -9.693 -22.335  12.425  1.00  0.00     0.000 C 
BRANCH   5   6
ATOM      6  C   UNL     1      -9.884 -22.373  13.953  1.00  0.00     0.000 C 
BRANCH   6   7
ATOM      7  C   UNL     1     -11.261 -22.878  14.423  1.00  0.00     0.006 C 
BRANCH   7   8
ATOM      8  C   UNL     1     -12.240 -21.762  14.825  1.00  0.00     0.053 C 
BRANCH   8   9
ATOM      9  C   UNL     1     -13.649 -22.085  14.433  1.00  0.00     0.041 C 
ATOM     10  O   UNL     1     -14.614 -21.613  15.090  1.00  0.00    -0.550 OA
ATOM     11  O   UNL     1     -13.896 -22.883  13.322  1.00  0.00    -0.550 OA
ENDBRANCH   8   9
ENDBRANCH   7   8
ENDBRANCH   6   7
ENDBRANCH   5   6
ENDBRANCH   4   5
ENDBRANCH   3   4
ENDBRANCH   2   3
ENDBRANCH   1   2
BRANCH   1  12
ATOM     12  C   UNL     1      -9.296 -17.339  10.989  1.00  0.00     0.000 C 
BRANCH  12  13
ATOM     13  C   UNL     1      -7.887 -17.461  11.598  1.00  0.00    -0.000 C 
BRANCH  13  14
ATOM     14  C   UNL     1      -7.875 -17.258  13.121  1.00  0.00    -0.000 C 
BRANCH  14  15
ATOM     15  C   UNL     1      -8.025 -18.601  13.852  1.00  0.00    -0.000 C 
BRANCH  15  16
ATOM     16  C   UNL     1      -7.942 -18.458  15.381  1.00  0.00    -0.000 C 
BRANCH  16  17
ATOM     17  C   UNL     1      -9.323 -18.515  16.055  1.00  0.00    -0.000 C 
BRANCH  17  18
ATOM     18  C   UNL     1     -10.477 -18.483  15.039  1.00  0.00    -0.000 C 
BRANCH  18  19
ATOM     19  C   UNL     1     -11.323 -17.206  15.143  1.00  0.00    -0.003 C 
ATOM     20  C   UNL     1     -11.292 -16.419  13.836  1.00  0.00     0.004 C 
ENDBRANCH  18  19
ENDBRANCH  17  18
ENDBRANCH  16  17
ENDBRANCH  15  16
ENDBRANCH  14  15
ENDBRANCH  13  14
ENDBRANCH  12  13
ENDBRANCH   1  12
TORSDOF 16
ENDMDL
MODEL 3
REMARK VINA RESULT:    -2.215      1.588      3.915
REMARK INTER + INTRA:          -6.266
REMARK INTER:                  -5.120
REMARK INTRA:                  -1.145
REMARK UNBOUND:                -1.979
REMARK SMILES CCCCCCCCCCCCCCCCCC(=O)[O-]
REMARK SMILES IDX 10 1 11 2 12 3 13 4 14 5 15 6 16 7 17 8 18 9 19 10 20 11
REMARK SMILES IDX 9 12 8 13 7 14 6 15 5 16 4 17 3 18 2 19 1 20
REMARK H PARENT
REMARK Flexibility Score: inf
ROOT
ATOM      1  C   UNL     1      -9.489 -18.858   9.786  1.00  0.00     0.000 C 
ENDROOT
BRANCH   1   2
ATOM      2  C   UNL     1      -9.234 -17.341   9.899  1.00  0.00     0.000 C 
BRANCH   2   3
ATOM      3  C   UNL     1      -8.207 -16.935  10.969  1.00  0.00     0.000 C 
BRANCH   3   4
ATOM      4  C   UNL     1      -8.664 -17.276  12.398  1.00  0.00     0.000 C 
BRANCH   4   5
ATOM      5  C   UNL     1     -10.194 -17.168  12.565  1.00  0.00     0.000 C 
BRANCH   5   6
ATOM      6  C   UNL     1     -10.633 -16.742  13.978  1.00  0.00     0.000 C 
BRANCH   6   7
ATOM      7  C   UNL     1      -9.529 -16.811  15.050  1.00  0.00     0.006 C 
BRANCH   7   8
ATOM      8  C   UNL     1      -9.756 -17.888  16.123  1.00  0.00     0.053 C 
BRANCH   8   9
ATOM      9  C   UNL     1     -10.560 -19.039  15.601  1.00  0.00     0.041 C 
ATOM     10  O   UNL     1      -9.989 -19.998  15.018  1.00  0.00    -0.550 OA
ATOM     11  O   UNL     1     -11.936 -19.066  15.788  1.00  0.00    -0.550 OA
ENDBRANCH   8   9
ENDBRANCH   7   8
ENDBRANCH   6   7
ENDBRANCH   5   6
ENDBRANCH   4   5
ENDBRANCH   3   4
ENDBRANCH   2   3
ENDBRANCH   1   2
BRANCH   1  12
ATOM     12  C   UNL     1      -8.223 -19.737   9.779  1.00  0.00     0.000 C 
BRANCH  12  13
ATOM     13  C   UNL     1      -7.895 -20.414  11.123  1.00  0.00    -0.000 C 
BRANCH  13  14
ATOM     14  C   UNL     1      -8.239 -21.911  11.137  1.00  0.00    -0.000 C 
BRANCH  14  15
ATOM     15  C   UNL     1      -8.617 -22.372  12.553  1.00  0.00    -0.000 C 
BRANCH  15  16
ATOM     16  C   UNL     1      -9.983 -23.078  12.605  1.00  0.00    -0.000 C 
BRANCH  16  17
ATOM     17  C   UNL     1     -11.145 -22.140  12.237  1.00  0.00    -0.000 C 
BRANCH  17  18
ATOM     18  C   UNL     1     -12.491 -22.616  12.807  1.00  0.00    -0.000 C 
BRANCH  18  19
ATOM     19  C   UNL     1     -12.697 -22.198  14.270  1.00  0.00    -0.003 C 
ATOM     20  C   UNL     1     -14.144 -21.786  14.524  1.00  0.00     0.004 C 
ENDBRANCH  18  19
ENDBRANCH  17  18
ENDBRANCH  16  17
ENDBRANCH  15  16
ENDBRANCH  14  15
ENDBRANCH  13  14
ENDBRANCH  12  13
ENDBRANCH   1  12
TORSDOF 16
ENDMDL
MODEL 4
REMARK VINA RESULT:    -0.818      2.065      4.873
REMARK INTER + INTRA:          -3.563
REMARK INTER:                  -3.046
REMARK INTRA:                  -0.518
REMARK UNBOUND:                -1.979
REMARK SMILES CCCCCCCCCCCCCCCCCC(=O)[O-]
REMARK SMILES IDX 10 1 11 2 12 3 13 4 14 5 15 6 16 7 17 8 18 9 19 10 20 11
REMARK SMILES IDX 9 12 8 13 7 14 6 15 5 16 4 17 3 18 2 19 1 20
REMARK H PARENT
REMARK Flexibility Score: inf
ROOT
ATOM      1  C   UNL     1      -8.515 -17.563  11.196  1.00  0.00     0.000 C 
ENDROOT
BRANCH   1   2
ATOM      2  C   UNL     1     -10.045 -17.674  11.029  1.00  0.00     0.000 C 
BRANCH   2   3
ATOM      3  C   UNL     1     -10.554 -19.074  10.647  1.00  0.00     0.000 C 
BRANCH   3   4
ATOM      4  C   UNL     1      -9.814 -20.202  11.386  1.00  0.00     0.000 C 
BRANCH   4   5
ATOM      5  C   UNL     1     -10.782 -21.250  11.976  1.00  0.00     0.000 C 
BRANCH   5   6
ATOM      6  C   UNL     1     -10.075 -22.499  12.536  1.00  0.00     0.000 C 
BRANCH   6   7
ATOM      7  C   UNL     1      -8.536 -22.434  12.524  1.00  0.00     0.006 C 
BRANCH   7   8
ATOM      8  C   UNL     1      -7.875 -22.871  13.841  1.00  0.00     0.053 C 
BRANCH   8   9
ATOM      9  C   UNL     1      -8.519 -22.229  15.032  1.00  0.00     0.041 C 
ATOM     10  O   UNL     1      -9.071 -22.938  15.914  1.00  0.00    -0.550 OA
ATOM     11  O   UNL     1      -8.480 -20.848  15.182  1.00  0.00    -0.550 OA
ENDBRANCH   8   9
ENDBRANCH   7   8
ENDBRANCH   6   7
ENDBRANCH   5   6
ENDBRANCH   4   5
ENDBRANCH   3   4
ENDBRANCH   2   3
ENDBRANCH   1   2
BRANCH   1  12
ATOM     12  C   UNL     1      -7.906 -18.476  12.278  1.00  0.00     0.000 C 
BRANCH  12  13
ATOM     13  C   UNL     1      -7.958 -17.911  13.709  1.00  0.00    -0.000 C 
BRANCH  13  14
ATOM     14  C   UNL     1      -9.312 -17.271  14.050  1.00  0.00    -0.000 C 
BRANCH  14  15
ATOM     15  C   UNL     1      -9.457 -17.072  15.566  1.00  0.00    -0.000 C 
BRANCH  15  16
ATOM     16  C   UNL     1     -10.912 -16.823  15.997  1.00  0.00    -0.000 C 
BRANCH  16  17
ATOM     17  C   UNL     1     -11.878 -17.890  15.455  1.00  0.00    -0.000 C 
BRANCH  17  18
ATOM     18  C   UNL     1     -11.322 -19.316  15.596  1.00  0.00    -0.000 C 
BRANCH  18  19
ATOM     19  C   UNL     1     -12.366 -20.311  16.123  1.00  0.00    -0.003 C 
ATOM     20  C   UNL     1     -12.338 -21.611  15.324  1.00  0.00     0.004 C 
ENDBRANCH  18  19
ENDBRANCH  17  18
ENDBRANCH  16  17
ENDBRANCH  15  16
ENDBRANCH  14  15
ENDBRANCH  13  14
ENDBRANCH  12  13
ENDBRANCH   1  12
TORSDOF 16
ENDMDL
MODEL 5
REMARK VINA RESULT:    -0.806      1.766      4.610
REMARK INTER + INTRA:          -3.539
REMARK INTER:                  -3.020
REMARK INTRA:                  -0.518
REMARK UNBOUND:                -1.979
REMARK SMILES CCCCCCCCCCCCCCCCCC(=O)[O-]
REMARK SMILES IDX 10 1 11 2 12 3 13 4 14 5 15 6 16 7 17 8 18 9 19 10 20 11
REMARK SMILES IDX 9 12 8 13 7 14 6 15 5 16 4 17 3 18 2 19 1 20
REMARK H PARENT
REMARK Flexibility Score: inf
ROOT
ATOM      1  C   UNL     1      -9.761 -19.767  11.188  1.00  0.00     0.000 C 
ENDROOT
BRANCH   1   2
ATOM      2  C   UNL     1      -9.887 -20.624  12.465  1.00  0.00     0.000 C 
BRANCH   2   3
ATOM      3  C   UNL     1      -9.415 -22.080  12.317  1.00  0.00     0.000 C 
BRANCH   3   4
ATOM      4  C   UNL     1     -10.325 -23.081  13.047  1.00  0.00     0.000 C 
BRANCH   4   5
ATOM      5  C   UNL     1     -11.779 -23.034  12.533  1.00  0.00     0.000 C 
BRANCH   5   6
ATOM      6  C   UNL     1     -12.731 -22.230  13.439  1.00  0.00     0.000 C 
BRANCH   6   7
ATOM      7  C   UNL     1     -13.183 -22.962  14.716  1.00  0.00     0.006 C 
BRANCH   7   8
ATOM      8  C   UNL     1     -12.114 -23.029  15.819  1.00  0.00     0.053 C 
BRANCH   8   9
ATOM      9  C   UNL     1     -11.432 -21.710  16.019  1.00  0.00     0.041 C 
ATOM     10  O   UNL     1     -12.112 -20.655  16.125  1.00  0.00    -0.550 OA
ATOM     11  O   UNL     1     -10.048 -21.651  16.120  1.00  0.00    -0.550 OA
ENDBRANCH   8   9
ENDBRANCH   7   8
ENDBRANCH   6   7
ENDBRANCH   5   6
ENDBRANCH   4   5
ENDBRANCH   3   4
ENDBRANCH   2   3
ENDBRANCH   1   2
BRANCH   1  12
ATOM     12  C   UNL     1      -8.627 -18.724  11.208  1.00  0.00     0.000 C 
BRANCH  12  13
ATOM     13  C   UNL     1      -8.178 -18.279  12.612  1.00  0.00    -0.000 C 
BRANCH  13  14
ATOM     14  C   UNL     1      -8.158 -16.752  12.777  1.00  0.00    -0.000 C 
BRANCH  14  15
ATOM     15  C   UNL     1      -8.475 -16.353  14.226  1.00  0.00    -0.000 C 
BRANCH  15  16
ATOM     16  C   UNL     1      -8.444 -17.550  15.192  1.00  0.00    -0.000 C 
BRANCH  16  17
ATOM     17  C   UNL     1      -9.755 -18.354  15.176  1.00  0.00    -0.000 C 
BRANCH  17  18
ATOM     18  C   UNL     1     -10.903 -17.600  14.485  1.00  0.00    -0.000 C 
BRANCH  18  19
ATOM     19  C   UNL     1     -12.145 -17.464  15.377  1.00  0.00    -0.003 C 
ATOM     20  C   UNL     1     -12.143 -16.132  16.122  1.00  0.00     0.004 C 
ENDBRANCH  18  19
ENDBRANCH  17  18
ENDBRANCH  16  17
ENDBRANCH  15  16
ENDBRANCH  14  15
ENDBRANCH  13  14
ENDBRANCH  12  13
ENDBRANCH   1  12
TORSDOF 16
ENDMDL
