MODEL 1
REMARK VINA RESULT:    -4.647      0.000      0.000
REMARK INTER + INTRA:         -13.963
REMARK INTER:                 -11.711
REMARK INTRA:                  -2.251
REMARK UNBOUND:                -2.251
REMARK SMILES CCCCCCCCCCCCCCCCCCCCCCCCCCCC(=O)[O-]
REMARK SMILES IDX 15 1 16 2 17 3 18 4 19 5 20 6 21 7 22 8 23 9 24 10 25 11
REMARK SMILES IDX 26 12 27 13 28 14 29 15 30 16 14 17 13 18 12 19 11 20 10 21
REMARK SMILES IDX 9 22 8 23 7 24 6 25 5 26 4 27 3 28 2 29 1 30
REMARK H PARENT
REMARK Flexibility Score: inf
ROOT
ATOM      1  C   UNL     1      -9.588  -6.434  -5.273  1.00  0.00     0.000 C 
ENDROOT
BRANCH   1   2
ATOM      2  C   UNL     1      -9.215  -5.808  -6.632  1.00  0.00     0.000 C 
BRANCH   2   3
ATOM      3  C   UNL     1     -10.120  -6.266  -7.791  1.00  0.00     0.000 C 
BRANCH   3   4
ATOM      4  C   UNL     1     -11.086  -5.161  -8.255  1.00  0.00     0.000 C 
BRANCH   4   5
ATOM      5  C   UNL     1     -10.780  -3.798  -7.608  1.00  0.00     0.000 C 
BRANCH   5   6
ATOM      6  C   UNL     1     -11.633  -3.470  -6.364  1.00  0.00     0.000 C 
BRANCH   6   7
ATOM      7  C   UNL     1     -12.903  -4.332  -6.190  1.00  0.00     0.000 C 
BRANCH   7   8
ATOM      8  C   UNL     1     -12.866  -5.320  -5.009  1.00  0.00     0.000 C 
BRANCH   8   9
ATOM      9  C   UNL     1     -13.228  -6.756  -5.426  1.00  0.00     0.000 C 
BRANCH   9  10
ATOM     10  C   UNL     1     -13.886  -7.567  -4.296  1.00  0.00     0.000 C 
BRANCH  10  11
ATOM     11  C   UNL     1     -14.116  -9.058  -4.601  1.00  0.00     0.000 C 
BRANCH  11  12
ATOM     12  C   UNL     1     -12.911  -9.800  -5.205  1.00  0.00     0.006 C 
BRANCH  12  13
ATOM     13  C   UNL     1     -13.083 -11.330  -5.262  1.00  0.00     0.053 C 
BRANCH  13  14
ATOM     14  C   UNL     1     -13.039 -11.962  -3.902  1.00  0.00     0.041 C 
ATOM     15  O   UNL     1     -14.046 -12.579  -3.457  1.00  0.00    -0.550 OA
ATOM     16  O   UNL     1     -11.900 -11.845  -3.111  1.00  0.00    -0.550 OA
ENDBRANCH  13  14
ENDBRANCH  12  13
ENDBRANCH  11  12
ENDBRANCH  10  11
ENDBRANCH   9  10
ENDBRANCH   8   9
ENDBRANCH   7   8
ENDBRANCH   6   7
ENDBRANCH   5   6
ENDBRANCH   4   5
ENDBRANCH   3   4
ENDBRANCH   2   3
ENDBRANCH   1   2
BRANCH   1  17
ATOM     17  C   UNL     1      -9.930  -7.935  -5.355  1.00  0.00     0.000 C 
BRANCH  17  18
ATOM     18  C   UNL     1      -8.806  -8.824  -4.801  1.00  0.00     0.000 C 
BRANCH  18  19
ATOM     19  C   UNL     1      -9.078 -10.306  -5.104  1.00  0.00     0.000 C 
BRANCH  19  20
ATOM     20  C   UNL     1      -7.818 -11.177  -4.999  1.00  0.00     0.000 C 
BRANCH  20  21
ATOM     21  C   UNL     1      -6.532 -10.417  -5.371  1.00  0.00     0.000 C 
BRANCH  21  22
ATOM     22  C   UNL     1      -6.161 -10.593  -6.859  1.00  0.00    -0.000 C 
BRANCH  22  23
ATOM     23  C   UNL     1      -5.555 -11.968  -7.182  1.00  0.00    -0.000 C 
BRANCH  23  24
ATOM     24  C   UNL     1      -4.047 -12.037  -6.909  1.00  0.00    -0.000 C 
BRANCH  24  25
ATOM     25  C   UNL     1      -3.721 -11.485  -5.513  1.00  0.00    -0.000 C 
BRANCH  25  26
ATOM     26  C   UNL     1      -2.216 -11.576  -5.180  1.00  0.00    -0.000 C 
BRANCH  26  27
ATOM     27  C   UNL     1      -1.649 -13.004  -5.256  1.00  0.00    -0.000 C 
BRANCH  27  28
ATOM     28  C   UNL     1      -2.306 -13.961  -4.252  1.00  0.00    -0.000 C 
BRANCH  28  29
ATOM     29  C   UNL     1      -2.169 -13.437  -2.818  1.00  0.00    -0.003 C 
ATOM     30  C   UNL     1      -0.794 -13.762  -2.242  1.00  0.00     0.004 C 
ENDBRANCH  28  29
ENDBRANCH  27  28
ENDBRANCH  26  27
ENDBRANCH  25  26
ENDBRANCH  24  25
ENDBRANCH  23  24
ENDBRANCH  22  23
ENDBRANCH  21  22
ENDBRANCH  20  21
ENDBRANCH  19  20
ENDBRANCH  18  19
ENDBRANCH  17  18
ENDBRANCH   1  17
TORSDOF 26
ENDMDL
MODEL 2
REMARK VINA RESULT:    -4.604      3.006      7.682
REMARK INTER + INTRA:         -13.853
REMARK INTER:                 -10.990
REMARK INTRA:                  -2.863
REMARK UNBOUND:                -2.251
REMARK SMILES CCCCCCCCCCCCCCCCCCCCCCCCCCCC(=O)[O-]
REMARK SMILES IDX 15 1 16 2 17 3 18 4 19 5 20 6 21 7 22 8 23 9 24 10 25 11
REMARK SMILES IDX 26 12 27 13 28 14 29 15 30 16 14 17 13 18 12 19 11 20 10 21
REMARK SMILES IDX 9 22 8 23 7 24 6 25 5 26 4 27 3 28 2 29 1 30
REMARK H PARENT
REMARK Flexibility Score: inf
ROOT
ATOM      1  C   UNL     1     -11.115  -3.471  -7.102  1.00  0.00     0.000 C 
ENDROOT
BRANCH   1   2
ATOM      2  C   UNL     1     -11.438  -4.157  -8.445  1.00  0.00     0.000 C 
BRANCH   2   3
ATOM      3  C   UNL     1     -10.366  -5.168  -8.894  1.00  0.00     0.000 C 
BRANCH   3   4
ATOM      4  C   UNL     1     -10.361  -6.442  -8.030  1.00  0.00     0.000 C 
BRANCH   4   5
ATOM      5  C   UNL     1      -9.422  -6.328  -6.815  1.00  0.00     0.000 C 
BRANCH   5   6
ATOM      6  C   UNL     1      -9.909  -7.074  -5.554  1.00  0.00     0.000 C 
BRANCH   6   7
ATOM      7  C   UNL     1      -8.799  -7.741  -4.713  1.00  0.00     0.000 C 
BRANCH   7   8
ATOM      8  C   UNL     1      -8.493  -9.207  -5.078  1.00  0.00     0.000 C 
BRANCH   8   9
ATOM      9  C   UNL     1      -7.190  -9.358  -5.882  1.00  0.00     0.000 C 
BRANCH   9  10
ATOM     10  C   UNL     1      -6.423 -10.650  -5.554  1.00  0.00     0.000 C 
BRANCH  10  11
ATOM     11  C   UNL     1      -5.985 -11.484  -6.771  1.00  0.00     0.000 C 
BRANCH  11  12
ATOM     12  C   UNL     1      -4.467 -11.696  -6.912  1.00  0.00     0.006 C 
BRANCH  12  13
ATOM     13  C   UNL     1      -3.637 -11.032  -5.796  1.00  0.00     0.053 C 
BRANCH  13  14
ATOM     14  C   UNL     1      -2.749 -12.008  -5.085  1.00  0.00     0.041 C 
ATOM     15  O   UNL     1      -2.091 -12.863  -5.741  1.00  0.00    -0.550 OA
ATOM     16  O   UNL     1      -2.668 -12.000  -3.695  1.00  0.00    -0.550 OA
ENDBRANCH  13  14
ENDBRANCH  12  13
ENDBRANCH  11  12
ENDBRANCH  10  11
ENDBRANCH   9  10
ENDBRANCH   8   9
ENDBRANCH   7   8
ENDBRANCH   6   7
ENDBRANCH   5   6
ENDBRANCH   4   5
ENDBRANCH   3   4
ENDBRANCH   2   3
ENDBRANCH   1   2
BRANCH   1  17
ATOM     17  C   UNL     1     -12.255  -3.564  -6.069  1.00  0.00     0.000 C 
BRANCH  17  18
ATOM     18  C   UNL     1     -12.721  -5.010  -5.838  1.00  0.00     0.000 C 
BRANCH  18  19
ATOM     19  C   UNL     1     -12.637  -5.384  -4.349  1.00  0.00     0.000 C 
BRANCH  19  20
ATOM     20  C   UNL     1     -13.668  -6.446  -3.942  1.00  0.00     0.000 C 
BRANCH  20  21
ATOM     21  C   UNL     1     -13.975  -7.448  -5.070  1.00  0.00     0.000 C 
BRANCH  21  22
ATOM     22  C   UNL     1     -13.767  -8.910  -4.622  1.00  0.00    -0.000 C 
BRANCH  22  23
ATOM     23  C   UNL     1     -12.610  -9.615  -5.348  1.00  0.00    -0.000 C 
BRANCH  23  24
ATOM     24  C   UNL     1     -12.439 -11.079  -4.921  1.00  0.00    -0.000 C 
BRANCH  24  25
ATOM     25  C   UNL     1     -10.975 -11.375  -4.565  1.00  0.00    -0.000 C 
BRANCH  25  26
ATOM     26  C   UNL     1     -10.433 -12.626  -5.289  1.00  0.00    -0.000 C 
BRANCH  26  27
ATOM     27  C   UNL     1      -9.883 -12.339  -6.697  1.00  0.00    -0.000 C 
BRANCH  27  28
ATOM     28  C   UNL     1      -9.942 -13.562  -7.623  1.00  0.00    -0.000 C 
BRANCH  28  29
ATOM     29  C   UNL     1     -11.088 -13.435  -8.632  1.00  0.00    -0.003 C 
ATOM     30  C   UNL     1     -11.908 -12.174  -8.378  1.00  0.00     0.004 C 
ENDBRANCH  28  29
ENDBRANCH  27  28
ENDBRANCH  26  27
ENDBRANCH  25  26
ENDBRANCH  24  25
ENDBRANCH  23  24
ENDBRANCH  22  23
ENDBRANCH  21  22
ENDBRANCH  20  21
ENDBRANCH  19  20
ENDBRANCH  18  19
ENDBRANCH  17  18
ENDBRANCH   1  17
TORSDOF 26
ENDMDL
MODEL 3
REMARK VINA RESULT:    -4.535      3.101      6.699
REMARK INTER + INTRA:         -13.680
REMARK INTER:                 -10.048
REMARK INTRA:                  -3.632
REMARK UNBOUND:                -2.251
REMARK SMILES CCCCCCCCCCCCCCCCCCCCCCCCCCCC(=O)[O-]
REMARK SMILES IDX 15 1 16 2 17 3 18 4 19 5 20 6 21 7 22 8 23 9 24 10 25 11
REMARK SMILES IDX 26 12 27 13 28 14 29 15 30 16 14 17 13 18 12 19 11 20 10 21
REMARK SMILES IDX 9 22 8 23 7 24 6 25 5 26 4 27 3 28 2 29 1 30
REMARK H PARENT
REMARK Flexibility Score: inf
ROOT
ATOM      1  C   UNL     1     -12.797  -5.781  -5.466  1.00  0.00     0.000 C 
ENDROOT
BRANCH   1   2
ATOM      2  C   UNL     1     -13.424  -6.563  -4.294  1.00  0.00     0.000 C 
BRANCH   2   3
ATOM      3  C   UNL     1     -14.057  -7.903  -4.715  1.00  0.00     0.000 C 
BRANCH   3   4
ATOM      4  C   UNL     1     -13.007  -8.930  -5.176  1.00  0.00     0.000 C 
BRANCH   4   5
ATOM      5  C   UNL     1     -13.544 -10.373  -5.157  1.00  0.00     0.000 C 
BRANCH   5   6
ATOM      6  C   UNL     1     -13.769 -10.958  -3.746  1.00  0.00     0.000 C 
BRANCH   6   7
ATOM      7  C   UNL     1     -13.137 -12.345  -3.500  1.00  0.00     0.000 C 
BRANCH   7   8
ATOM      8  C   UNL     1     -11.798 -12.328  -2.736  1.00  0.00     0.000 C 
BRANCH   8   9
ATOM      9  C   UNL     1     -10.766 -13.303  -3.329  1.00  0.00     0.000 C 
BRANCH   9  10
ATOM     10  C   UNL     1     -11.313 -14.115  -4.516  1.00  0.00     0.000 C 
BRANCH  10  11
ATOM     11  C   UNL     1     -10.877 -13.624  -5.908  1.00  0.00     0.000 C 
BRANCH  11  12
ATOM     12  C   UNL     1     -11.767 -14.084  -7.077  1.00  0.00     0.006 C 
BRANCH  12  13
ATOM     13  C   UNL     1     -12.718 -12.993  -7.605  1.00  0.00     0.053 C 
BRANCH  13  14
ATOM     14  C   UNL     1     -12.289 -12.455  -8.937  1.00  0.00     0.041 C 
ATOM     15  O   UNL     1     -11.461 -13.094  -9.643  1.00  0.00    -0.550 OA
ATOM     16  O   UNL     1     -12.776 -11.231  -9.389  1.00  0.00    -0.550 OA
ENDBRANCH  13  14
ENDBRANCH  12  13
ENDBRANCH  11  12
ENDBRANCH  10  11
ENDBRANCH   9  10
ENDBRANCH   8   9
ENDBRANCH   7   8
ENDBRANCH   6   7
ENDBRANCH   5   6
ENDBRANCH   4   5
ENDBRANCH   3   4
ENDBRANCH   2   3
ENDBRANCH   1   2
BRANCH   1  17
ATOM     17  C   UNL     1     -12.009  -4.532  -5.026  1.00  0.00     0.000 C 
BRANCH  17  18
ATOM     18  C   UNL     1     -11.665  -3.610  -6.206  1.00  0.00     0.000 C 
BRANCH  18  19
ATOM     19  C   UNL     1     -12.500  -3.968  -7.445  1.00  0.00     0.000 C 
BRANCH  19  20
ATOM     20  C   UNL     1     -11.774  -3.662  -8.762  1.00  0.00     0.000 C 
BRANCH  20  21
ATOM     21  C   UNL     1     -10.416  -4.379  -8.879  1.00  0.00     0.000 C 
BRANCH  21  22
ATOM     22  C   UNL     1     -10.506  -5.865  -8.470  1.00  0.00    -0.000 C 
BRANCH  22  23
ATOM     23  C   UNL     1      -9.528  -6.252  -7.350  1.00  0.00    -0.000 C 
BRANCH  23  24
ATOM     24  C   UNL     1     -10.069  -7.363  -6.440  1.00  0.00    -0.000 C 
BRANCH  24  25
ATOM     25  C   UNL     1      -9.400  -7.310  -5.059  1.00  0.00    -0.000 C 
BRANCH  25  26
ATOM     26  C   UNL     1      -8.576  -8.580  -4.754  1.00  0.00    -0.000 C 
BRANCH  26  27
ATOM     27  C   UNL     1      -9.315  -9.891  -5.073  1.00  0.00    -0.000 C 
BRANCH  27  28
ATOM     28  C   UNL     1      -8.365 -11.033  -5.462  1.00  0.00    -0.000 C 
BRANCH  28  29
ATOM     29  C   UNL     1      -6.975 -10.497  -5.817  1.00  0.00    -0.003 C 
ATOM     30  C   UNL     1      -6.357 -11.289  -6.966  1.00  0.00     0.004 C 
ENDBRANCH  28  29
ENDBRANCH  27  28
ENDBRANCH  26  27
ENDBRANCH  25  26
ENDBRANCH  24  25
ENDBRANCH  23  24
ENDBRANCH  22  23
ENDBRANCH  21  22
ENDBRANCH  20  21
ENDBRANCH  19  20
ENDBRANCH  18  19
ENDBRANCH  17  18
ENDBRANCH   1  17
TORSDOF 26
ENDMDL
MODEL 4
REMARK VINA RESULT:    -4.530      2.964      9.651
REMARK INTER + INTRA:         -13.668
REMARK INTER:                 -10.767
REMARK INTRA:                  -2.901
REMARK UNBOUND:                -2.251
REMARK SMILES CCCCCCCCCCCCCCCCCCCCCCCCCCCC(=O)[O-]
REMARK SMILES IDX 15 1 16 2 17 3 18 4 19 5 20 6 21 7 22 8 23 9 24 10 25 11
REMARK SMILES IDX 26 12 27 13 28 14 29 15 30 16 14 17 13 18 12 19 11 20 10 21
REMARK SMILES IDX 9 22 8 23 7 24 6 25 5 26 4 27 3 28 2 29 1 30
REMARK H PARENT
REMARK Flexibility Score: inf
ROOT
ATOM      1  C   UNL     1     -11.257 -11.727  -4.788  1.00  0.00     0.000 C 
ENDROOT
BRANCH   1   2
ATOM      2  C   UNL     1     -11.003 -12.898  -5.759  1.00  0.00     0.000 C 
BRANCH   2   3
ATOM      3  C   UNL     1     -10.177 -12.503  -6.998  1.00  0.00     0.000 C 
BRANCH   3   4
ATOM      4  C   UNL     1      -8.797 -13.185  -7.026  1.00  0.00     0.000 C 
BRANCH   4   5
ATOM      5  C   UNL     1      -7.637 -12.173  -6.983  1.00  0.00     0.000 C 
BRANCH   5   6
ATOM      6  C   UNL     1      -7.792 -11.061  -5.923  1.00  0.00     0.000 C 
BRANCH   6   7
ATOM      7  C   UNL     1      -6.470 -10.507  -5.350  1.00  0.00     0.000 C 
BRANCH   7   8
ATOM      8  C   UNL     1      -5.342 -10.308  -6.382  1.00  0.00     0.000 C 
BRANCH   8   9
ATOM      9  C   UNL     1      -4.069 -11.094  -6.028  1.00  0.00     0.000 C 
BRANCH   9  10
ATOM     10  C   UNL     1      -3.886 -12.364  -6.877  1.00  0.00     0.000 C 
BRANCH  10  11
ATOM     11  C   UNL     1      -3.117 -13.509  -6.195  1.00  0.00     0.000 C 
BRANCH  11  12
ATOM     12  C   UNL     1      -1.674 -13.177  -5.776  1.00  0.00     0.006 C 
BRANCH  12  13
ATOM     13  C   UNL     1      -1.202 -13.919  -4.512  1.00  0.00     0.053 C 
BRANCH  13  14
ATOM     14  C   UNL     1      -1.745 -13.310  -3.254  1.00  0.00     0.041 C 
ATOM     15  O   UNL     1      -2.277 -12.166  -3.282  1.00  0.00    -0.550 OA
ATOM     16  O   UNL     1      -1.638 -13.987  -2.043  1.00  0.00    -0.550 OA
ENDBRANCH  13  14
ENDBRANCH  12  13
ENDBRANCH  11  12
ENDBRANCH  10  11
ENDBRANCH   9  10
ENDBRANCH   8   9
ENDBRANCH   7   8
ENDBRANCH   6   7
ENDBRANCH   5   6
ENDBRANCH   4   5
ENDBRANCH   3   4
ENDBRANCH   2   3
ENDBRANCH   1   2
BRANCH   1  17
ATOM     17  C   UNL     1     -11.265 -10.345  -5.472  1.00  0.00     0.000 C 
BRANCH  17  18
ATOM     18  C   UNL     1     -12.664  -9.938  -5.957  1.00  0.00     0.000 C 
BRANCH  18  19
ATOM     19  C   UNL     1     -13.608  -9.692  -4.769  1.00  0.00     0.000 C 
BRANCH  19  20
ATOM     20  C   UNL     1     -13.815  -8.200  -4.471  1.00  0.00     0.000 C 
BRANCH  20  21
ATOM     21  C   UNL     1     -12.967  -7.285  -5.373  1.00  0.00     0.000 C 
BRANCH  21  22
ATOM     22  C   UNL     1     -12.842  -5.857  -4.801  1.00  0.00    -0.000 C 
BRANCH  22  23
ATOM     23  C   UNL     1     -13.104  -4.755  -5.839  1.00  0.00    -0.000 C 
BRANCH  23  24
ATOM     24  C   UNL     1     -11.895  -3.835  -6.054  1.00  0.00    -0.000 C 
BRANCH  24  25
ATOM     25  C   UNL     1     -11.716  -3.511  -7.544  1.00  0.00    -0.000 C 
BRANCH  25  26
ATOM     26  C   UNL     1     -10.441  -4.148  -8.137  1.00  0.00    -0.000 C 
BRANCH  26  27
ATOM     27  C   UNL     1     -10.652  -5.574  -8.675  1.00  0.00    -0.000 C 
BRANCH  27  28
ATOM     28  C   UNL     1     -10.440  -6.653  -7.604  1.00  0.00    -0.000 C 
BRANCH  28  29
ATOM     29  C   UNL     1      -9.296  -6.274  -6.658  1.00  0.00    -0.003 C 
ATOM     30  C   UNL     1      -9.322  -7.128  -5.393  1.00  0.00     0.004 C 
ENDBRANCH  28  29
ENDBRANCH  27  28
ENDBRANCH  26  27
ENDBRANCH  25  26
ENDBRANCH  24  25
ENDBRANCH  23  24
ENDBRANCH  22  23
ENDBRANCH  21  22
ENDBRANCH  20  21
ENDBRANCH  19  20
ENDBRANCH  18  19
ENDBRANCH  17  18
ENDBRANCH   1  17
TORSDOF 26
ENDMDL
MODEL 5
REMARK VINA RESULT:    -4.489      3.541     10.506
REMARK INTER + INTRA:         -13.562
REMARK INTER:                 -11.068
REMARK INTRA:                  -2.495
REMARK UNBOUND:                -2.251
REMARK SMILES CCCCCCCCCCCCCCCCCCCCCCCCCCCC(=O)[O-]
REMARK SMILES IDX 15 1 16 2 17 3 18 4 19 5 20 6 21 7 22 8 23 9 24 10 25 11
REMARK SMILES IDX 26 12 27 13 28 14 29 15 30 16 14 17 13 18 12 19 11 20 10 21
REMARK SMILES IDX 9 22 8 23 7 24 6 25 5 26 4 27 3 28 2 29 1 30
REMARK H PARENT
REMARK Flexibility Score: inf
ROOT
ATOM      1  C   UNL     1      -8.254 -11.899  -5.690  1.00  0.00     0.000 C 
ENDROOT
BRANCH   1   2
ATOM      2  C   UNL     1      -9.624 -12.347  -6.240  1.00  0.00     0.000 C 
BRANCH   2   3
ATOM      3  C   UNL     1      -9.523 -13.342  -7.411  1.00  0.00     0.000 C 
BRANCH   3   4
ATOM      4  C   UNL     1      -8.099 -13.901  -7.585  1.00  0.00     0.000 C 
BRANCH   4   5
ATOM      5  C   UNL     1      -7.506 -13.588  -8.972  1.00  0.00     0.000 C 
BRANCH   5   6
ATOM      6  C   UNL     1      -5.996 -13.265  -8.967  1.00  0.00     0.000 C 
BRANCH   6   7
ATOM      7  C   UNL     1      -5.157 -14.053  -7.937  1.00  0.00     0.000 C 
BRANCH   7   8
ATOM      8  C   UNL     1      -4.067 -13.235  -7.218  1.00  0.00     0.000 C 
BRANCH   8   9
ATOM      9  C   UNL     1      -4.506 -11.789  -6.930  1.00  0.00     0.000 C 
BRANCH   9  10
ATOM     10  C   UNL     1      -3.657 -11.105  -5.844  1.00  0.00     0.000 C 
BRANCH  10  11
ATOM     11  C   UNL     1      -2.854 -12.056  -4.938  1.00  0.00     0.000 C 
BRANCH  11  12
ATOM     12  C   UNL     1      -1.333 -11.828  -4.927  1.00  0.00     0.006 C 
BRANCH  12  13
ATOM     13  C   UNL     1      -0.509 -13.112  -4.716  1.00  0.00     0.053 C 
BRANCH  13  14
ATOM     14  C   UNL     1      -0.232 -13.383  -3.268  1.00  0.00     0.041 C 
ATOM     15  O   UNL     1       0.946 -13.304  -2.822  1.00  0.00    -0.550 OA
ATOM     16  O   UNL     1      -1.266 -13.754  -2.413  1.00  0.00    -0.550 OA
ENDBRANCH  13  14
ENDBRANCH  12  13
ENDBRANCH  11  12
ENDBRANCH  10  11
ENDBRANCH   9  10
ENDBRANCH   8   9
ENDBRANCH   7   8
ENDBRANCH   6   7
ENDBRANCH   5   6
ENDBRANCH   4   5
ENDBRANCH   3   4
ENDBRANCH   2   3
ENDBRANCH   1   2
BRANCH   1  17
ATOM     17  C   UNL     1      -7.812 -10.508  -6.187  1.00  0.00     0.000 C 
BRANCH  17  18
ATOM     18  C   UNL     1      -7.525  -9.536  -5.032  1.00  0.00     0.000 C 
BRANCH  18  19
ATOM     19  C   UNL     1      -8.663  -8.514  -4.879  1.00  0.00     0.000 C 
BRANCH  19  20
ATOM     20  C   UNL     1      -9.995  -9.014  -5.453  1.00  0.00     0.000 C 
BRANCH  20  21
ATOM     21  C   UNL     1     -10.984  -7.874  -5.755  1.00  0.00     0.000 C 
BRANCH  21  22
ATOM     22  C   UNL     1     -10.330  -6.483  -5.611  1.00  0.00    -0.000 C 
BRANCH  22  23
ATOM     23  C   UNL     1     -11.058  -5.562  -4.619  1.00  0.00    -0.000 C 
BRANCH  23  24
ATOM     24  C   UNL     1     -12.528  -5.326  -4.989  1.00  0.00    -0.000 C 
BRANCH  24  25
ATOM     25  C   UNL     1     -12.647  -4.761  -6.412  1.00  0.00    -0.000 C 
BRANCH  25  26
ATOM     26  C   UNL     1     -11.789  -3.494  -6.617  1.00  0.00    -0.000 C 
BRANCH  26  27
ATOM     27  C   UNL     1     -10.863  -3.563  -7.844  1.00  0.00    -0.000 C 
BRANCH  27  28
ATOM     28  C   UNL     1     -11.632  -3.597  -9.172  1.00  0.00    -0.000 C 
BRANCH  28  29
ATOM     29  C   UNL     1     -11.223  -4.808 -10.016  1.00  0.00    -0.003 C 
ATOM     30  C   UNL     1     -10.656  -5.922  -9.141  1.00  0.00     0.004 C 
ENDBRANCH  28  29
ENDBRANCH  27  28
ENDBRANCH  26  27
ENDBRANCH  25  26
ENDBRANCH  24  25
ENDBRANCH  23  24
ENDBRANCH  22  23
ENDBRANCH  21  22
ENDBRANCH  20  21
ENDBRANCH  19  20
ENDBRANCH  18  19
ENDBRANCH  17  18
ENDBRANCH   1  17
TORSDOF 26
ENDMDL
MODEL 6
REMARK VINA RESULT:    -4.452      1.288      2.768
REMARK INTER + INTRA:         -13.471
REMARK INTER:                 -10.658
REMARK INTRA:                  -2.813
REMARK UNBOUND:                -2.251
REMARK SMILES CCCCCCCCCCCCCCCCCCCCCCCCCCCC(=O)[O-]
REMARK SMILES IDX 15 1 16 2 17 3 18 4 19 5 20 6 21 7 22 8 23 9 24 10 25 11
REMARK SMILES IDX 26 12 27 13 28 14 29 15 30 16 14 17 13 18 12 19 11 20 10 21
REMARK SMILES IDX 9 22 8 23 7 24 6 25 5 26 4 27 3 28 2 29 1 30
REMARK H PARENT
REMARK Flexibility Score: inf
ROOT
ATOM      1  C   UNL     1     -10.228  -6.248  -7.408  1.00  0.00     0.000 C 
ENDROOT
BRANCH   1   2
ATOM      2  C   UNL     1     -10.679  -4.776  -7.317  1.00  0.00     0.000 C 
BRANCH   2   3
ATOM      3  C   UNL     1     -11.404  -4.433  -6.002  1.00  0.00     0.000 C 
BRANCH   3   4
ATOM      4  C   UNL     1     -12.805  -5.067  -5.921  1.00  0.00     0.000 C 
BRANCH   4   5
ATOM      5  C   UNL     1     -12.930  -6.080  -4.768  1.00  0.00     0.000 C 
BRANCH   5   6
ATOM      6  C   UNL     1     -13.490  -7.458  -5.181  1.00  0.00     0.000 C 
BRANCH   6   7
ATOM      7  C   UNL     1     -12.530  -8.649  -4.973  1.00  0.00     0.000 C 
BRANCH   7   8
ATOM      8  C   UNL     1     -11.920  -9.231  -6.263  1.00  0.00     0.000 C 
BRANCH   8   9
ATOM      9  C   UNL     1     -12.246 -10.722  -6.452  1.00  0.00     0.000 C 
BRANCH   9  10
ATOM     10  C   UNL     1     -10.993 -11.612  -6.515  1.00  0.00     0.000 C 
BRANCH  10  11
ATOM     11  C   UNL     1     -11.024 -12.860  -5.613  1.00  0.00     0.000 C 
BRANCH  11  12
ATOM     12  C   UNL     1     -12.103 -12.853  -4.517  1.00  0.00     0.006 C 
BRANCH  12  13
ATOM     13  C   UNL     1     -11.737 -12.006  -3.283  1.00  0.00     0.053 C 
BRANCH  13  14
ATOM     14  C   UNL     1     -12.601 -12.317  -2.098  1.00  0.00     0.041 C 
ATOM     15  O   UNL     1     -13.097 -13.469  -1.959  1.00  0.00    -0.550 OA
ATOM     16  O   UNL     1     -12.886 -11.329  -1.159  1.00  0.00    -0.550 OA
ENDBRANCH  13  14
ENDBRANCH  12  13
ENDBRANCH  11  12
ENDBRANCH  10  11
ENDBRANCH   9  10
ENDBRANCH   8   9
ENDBRANCH   7   8
ENDBRANCH   6   7
ENDBRANCH   5   6
ENDBRANCH   4   5
ENDBRANCH   3   4
ENDBRANCH   2   3
ENDBRANCH   1   2
BRANCH   1  17
ATOM     17  C   UNL     1      -8.993  -6.572  -6.544  1.00  0.00     0.000 C 
BRANCH  17  18
ATOM     18  C   UNL     1      -9.369  -6.992  -5.115  1.00  0.00     0.000 C 
BRANCH  18  19
ATOM     19  C   UNL     1      -8.871  -8.413  -4.811  1.00  0.00     0.000 C 
BRANCH  19  20
ATOM     20  C   UNL     1      -7.652  -8.812  -5.654  1.00  0.00     0.000 C 
BRANCH  20  21
ATOM     21  C   UNL     1      -7.007 -10.130  -5.190  1.00  0.00     0.000 C 
BRANCH  21  22
ATOM     22  C   UNL     1      -7.350 -11.308  -6.127  1.00  0.00    -0.000 C 
BRANCH  22  23
ATOM     23  C   UNL     1      -6.208 -11.681  -7.087  1.00  0.00    -0.000 C 
BRANCH  23  24
ATOM     24  C   UNL     1      -4.908 -10.921  -6.794  1.00  0.00    -0.000 C 
BRANCH  24  25
ATOM     25  C   UNL     1      -3.862 -11.854  -6.166  1.00  0.00    -0.000 C 
BRANCH  25  26
ATOM     26  C   UNL     1      -2.782 -11.082  -5.377  1.00  0.00    -0.000 C 
BRANCH  26  27
ATOM     27  C   UNL     1      -1.808 -11.991  -4.608  1.00  0.00    -0.000 C 
BRANCH  27  28
ATOM     28  C   UNL     1      -2.353 -13.411  -4.399  1.00  0.00    -0.000 C 
BRANCH  28  29
ATOM     29  C   UNL     1      -2.348 -13.792  -2.915  1.00  0.00    -0.003 C 
ATOM     30  C   UNL     1      -0.958 -13.622  -2.309  1.00  0.00     0.004 C 
ENDBRANCH  28  29
ENDBRANCH  27  28
ENDBRANCH  26  27
ENDBRANCH  25  26
ENDBRANCH  24  25
ENDBRANCH  23  24
ENDBRANCH  22  23
ENDBRANCH  21  22
ENDBRANCH  20  21
ENDBRANCH  19  20
ENDBRANCH  18  19
ENDBRANCH  17  18
ENDBRANCH   1  17
TORSDOF 26
ENDMDL
MODEL 7
REMARK VINA RESULT:    -4.342      3.227      7.061
REMARK INTER + INTRA:         -13.194
REMARK INTER:                  -9.722
REMARK INTRA:                  -3.472
REMARK UNBOUND:                -2.251
REMARK SMILES CCCCCCCCCCCCCCCCCCCCCCCCCCCC(=O)[O-]
REMARK SMILES IDX 15 1 16 2 17 3 18 4 19 5 20 6 21 7 22 8 23 9 24 10 25 11
REMARK SMILES IDX 26 12 27 13 28 14 29 15 30 16 14 17 13 18 12 19 11 20 10 21
REMARK SMILES IDX 9 22 8 23 7 24 6 25 5 26 4 27 3 28 2 29 1 30
REMARK H PARENT
REMARK Flexibility Score: inf
ROOT
ATOM      1  C   UNL     1     -11.127  -3.247  -7.081  1.00  0.00     0.000 C 
ENDROOT
BRANCH   1   2
ATOM      2  C   UNL     1     -12.042  -3.403  -8.312  1.00  0.00     0.000 C 
BRANCH   2   3
ATOM      3  C   UNL     1     -11.286  -3.787  -9.598  1.00  0.00     0.000 C 
BRANCH   3   4
ATOM      4  C   UNL     1     -11.140  -5.310  -9.762  1.00  0.00     0.000 C 
BRANCH   4   5
ATOM      5  C   UNL     1     -10.055  -5.902  -8.843  1.00  0.00     0.000 C 
BRANCH   5   6
ATOM      6  C   UNL     1     -10.598  -6.617  -7.587  1.00  0.00     0.000 C 
BRANCH   6   7
ATOM      7  C   UNL     1      -9.615  -6.695  -6.398  1.00  0.00     0.000 C 
BRANCH   7   8
ATOM      8  C   UNL     1      -9.813  -7.905  -5.464  1.00  0.00     0.000 C 
BRANCH   8   9
ATOM      9  C   UNL     1      -8.573  -8.196  -4.601  1.00  0.00     0.000 C 
BRANCH   9  10
ATOM     10  C   UNL     1      -8.076  -9.647  -4.726  1.00  0.00     0.000 C 
BRANCH  10  11
ATOM     11  C   UNL     1      -6.956  -9.874  -5.758  1.00  0.00     0.000 C 
BRANCH  11  12
ATOM     12  C   UNL     1      -7.056 -11.182  -6.562  1.00  0.00     0.006 C 
BRANCH  12  13
ATOM     13  C   UNL     1      -8.384 -11.937  -6.364  1.00  0.00     0.053 C 
BRANCH  13  14
ATOM     14  C   UNL     1      -8.527 -13.099  -7.301  1.00  0.00     0.041 C 
ATOM     15  O   UNL     1      -7.503 -13.699  -7.729  1.00  0.00    -0.550 OA
ATOM     16  O   UNL     1      -9.788 -13.503  -7.730  1.00  0.00    -0.550 OA
ENDBRANCH  13  14
ENDBRANCH  12  13
ENDBRANCH  11  12
ENDBRANCH  10  11
ENDBRANCH   9  10
ENDBRANCH   8   9
ENDBRANCH   7   8
ENDBRANCH   6   7
ENDBRANCH   5   6
ENDBRANCH   4   5
ENDBRANCH   3   4
ENDBRANCH   2   3
ENDBRANCH   1   2
BRANCH   1  17
ATOM     17  C   UNL     1     -11.858  -3.437  -5.737  1.00  0.00     0.000 C 
BRANCH  17  18
ATOM     18  C   UNL     1     -12.683  -4.732  -5.696  1.00  0.00     0.000 C 
BRANCH  18  19
ATOM     19  C   UNL     1     -12.493  -5.463  -4.357  1.00  0.00     0.000 C 
BRANCH  19  20
ATOM     20  C   UNL     1     -13.639  -6.433  -4.039  1.00  0.00     0.000 C 
BRANCH  20  21
ATOM     21  C   UNL     1     -13.798  -7.542  -5.095  1.00  0.00     0.000 C 
BRANCH  21  22
ATOM     22  C   UNL     1     -13.527  -8.944  -4.511  1.00  0.00    -0.000 C 
BRANCH  22  23
ATOM     23  C   UNL     1     -12.691  -9.843  -5.436  1.00  0.00    -0.000 C 
BRANCH  23  24
ATOM     24  C   UNL     1     -13.371 -11.183  -5.744  1.00  0.00    -0.000 C 
BRANCH  24  25
ATOM     25  C   UNL     1     -12.454 -12.357  -5.372  1.00  0.00    -0.000 C 
BRANCH  25  26
ATOM     26  C   UNL     1     -11.384 -11.963  -4.331  1.00  0.00    -0.000 C 
BRANCH  26  27
ATOM     27  C   UNL     1     -11.603 -12.596  -2.946  1.00  0.00    -0.000 C 
BRANCH  27  28
ATOM     28  C   UNL     1     -13.082 -12.874  -2.643  1.00  0.00    -0.000 C 
BRANCH  28  29
ATOM     29  C   UNL     1     -13.731 -11.686  -1.926  1.00  0.00    -0.003 C 
ATOM     30  C   UNL     1     -12.764 -11.047  -0.933  1.00  0.00     0.004 C 
ENDBRANCH  28  29
ENDBRANCH  27  28
ENDBRANCH  26  27
ENDBRANCH  25  26
ENDBRANCH  24  25
ENDBRANCH  23  24
ENDBRANCH  22  23
ENDBRANCH  21  22
ENDBRANCH  20  21
ENDBRANCH  19  20
ENDBRANCH  18  19
ENDBRANCH  17  18
ENDBRANCH   1  17
TORSDOF 26
ENDMDL
MODEL 8
REMARK VINA RESULT:    -4.306      1.384      2.319
REMARK INTER + INTRA:         -13.103
REMARK INTER:                 -10.114
REMARK INTRA:                  -2.989
REMARK UNBOUND:                -2.251
REMARK SMILES CCCCCCCCCCCCCCCCCCCCCCCCCCCC(=O)[O-]
REMARK SMILES IDX 15 1 16 2 17 3 18 4 19 5 20 6 21 7 22 8 23 9 24 10 25 11
REMARK SMILES IDX 26 12 27 13 28 14 29 15 30 16 14 17 13 18 12 19 11 20 10 21
REMARK SMILES IDX 9 22 8 23 7 24 6 25 5 26 4 27 3 28 2 29 1 30
REMARK H PARENT
REMARK Flexibility Score: inf
ROOT
ATOM      1  C   UNL     1      -7.657  -9.061  -5.440  1.00  0.00     0.000 C 
ENDROOT
BRANCH   1   2
ATOM      2  C   UNL     1      -8.962  -8.624  -4.744  1.00  0.00     0.000 C 
BRANCH   2   3
ATOM      3  C   UNL     1      -9.899  -7.802  -5.649  1.00  0.00     0.000 C 
BRANCH   3   4
ATOM      4  C   UNL     1      -9.557  -6.301  -5.640  1.00  0.00     0.000 C 
BRANCH   4   5
ATOM      5  C   UNL     1     -10.177  -5.546  -6.830  1.00  0.00     0.000 C 
BRANCH   5   6
ATOM      6  C   UNL     1     -11.226  -4.482  -6.440  1.00  0.00     0.000 C 
BRANCH   6   7
ATOM      7  C   UNL     1     -12.576  -5.041  -5.939  1.00  0.00     0.000 C 
BRANCH   7   8
ATOM      8  C   UNL     1     -12.667  -5.266  -4.417  1.00  0.00     0.000 C 
BRANCH   8   9
ATOM      9  C   UNL     1     -13.715  -6.325  -4.037  1.00  0.00     0.000 C 
BRANCH   9  10
ATOM     10  C   UNL     1     -13.666  -7.574  -4.934  1.00  0.00     0.000 C 
BRANCH  10  11
ATOM     11  C   UNL     1     -13.889  -8.915  -4.211  1.00  0.00     0.000 C 
BRANCH  11  12
ATOM     12  C   UNL     1     -13.743 -10.170  -5.090  1.00  0.00     0.006 C 
BRANCH  12  13
ATOM     13  C   UNL     1     -12.284 -10.606  -5.320  1.00  0.00     0.053 C 
BRANCH  13  14
ATOM     14  C   UNL     1     -11.929 -11.844  -4.552  1.00  0.00     0.041 C 
ATOM     15  O   UNL     1     -11.678 -12.919  -5.162  1.00  0.00    -0.550 OA
ATOM     16  O   UNL     1     -11.904 -11.823  -3.160  1.00  0.00    -0.550 OA
ENDBRANCH  13  14
ENDBRANCH  12  13
ENDBRANCH  11  12
ENDBRANCH  10  11
ENDBRANCH   9  10
ENDBRANCH   8   9
ENDBRANCH   7   8
ENDBRANCH   6   7
ENDBRANCH   5   6
ENDBRANCH   4   5
ENDBRANCH   3   4
ENDBRANCH   2   3
ENDBRANCH   1   2
BRANCH   1  17
ATOM     17  C   UNL     1      -7.218 -10.497  -5.089  1.00  0.00     0.000 C 
BRANCH  17  18
ATOM     18  C   UNL     1      -8.377 -11.502  -5.172  1.00  0.00     0.000 C 
BRANCH  18  19
ATOM     19  C   UNL     1      -8.722 -11.823  -6.635  1.00  0.00     0.000 C 
BRANCH  19  20
ATOM     20  C   UNL     1      -8.594 -13.317  -6.964  1.00  0.00     0.000 C 
BRANCH  20  21
ATOM     21  C   UNL     1      -7.349 -13.640  -7.810  1.00  0.00     0.000 C 
BRANCH  21  22
ATOM     22  C   UNL     1      -6.466 -12.396  -8.045  1.00  0.00    -0.000 C 
BRANCH  22  23
ATOM     23  C   UNL     1      -4.987 -12.618  -7.691  1.00  0.00    -0.000 C 
BRANCH  23  24
ATOM     24  C   UNL     1      -4.389 -11.467  -6.871  1.00  0.00    -0.000 C 
BRANCH  24  25
ATOM     25  C   UNL     1      -3.428 -12.003  -5.800  1.00  0.00    -0.000 C 
BRANCH  25  26
ATOM     26  C   UNL     1      -2.965 -13.447  -6.093  1.00  0.00    -0.000 C 
BRANCH  26  27
ATOM     27  C   UNL     1      -1.610 -13.805  -5.459  1.00  0.00    -0.000 C 
BRANCH  27  28
ATOM     28  C   UNL     1      -0.978 -12.630  -4.698  1.00  0.00    -0.000 C 
BRANCH  28  29
ATOM     29  C   UNL     1       0.523 -12.530  -4.988  1.00  0.00    -0.003 C 
ATOM     30  C   UNL     1       0.898 -13.323  -6.236  1.00  0.00     0.004 C 
ENDBRANCH  28  29
ENDBRANCH  27  28
ENDBRANCH  26  27
ENDBRANCH  25  26
ENDBRANCH  24  25
ENDBRANCH  23  24
ENDBRANCH  22  23
ENDBRANCH  21  22
ENDBRANCH  20  21
ENDBRANCH  19  20
ENDBRANCH  18  19
ENDBRANCH  17  18
ENDBRANCH   1  17
TORSDOF 26
ENDMDL
MODEL 9
REMARK VINA RESULT:    -4.207      2.246      4.477
REMARK INTER + INTRA:         -12.853
REMARK INTER:                 -10.064
REMARK INTRA:                  -2.789
REMARK UNBOUND:                -2.251
REMARK SMILES CCCCCCCCCCCCCCCCCCCCCCCCCCCC(=O)[O-]
REMARK SMILES IDX 15 1 16 2 17 3 18 4 19 5 20 6 21 7 22 8 23 9 24 10 25 11
REMARK SMILES IDX 26 12 27 13 28 14 29 15 30 16 14 17 13 18 12 19 11 20 10 21
REMARK SMILES IDX 9 22 8 23 7 24 6 25 5 26 4 27 3 28 2 29 1 30
REMARK H PARENT
REMARK Flexibility Score: inf
ROOT
ATOM      1  C   UNL     1     -10.607 -10.412  -5.697  1.00  0.00     0.000 C 
ENDROOT
BRANCH   1   2
ATOM      2  C   UNL     1      -9.554  -9.820  -4.738  1.00  0.00     0.000 C 
BRANCH   2   3
ATOM      3  C   UNL     1      -8.753  -8.654  -5.346  1.00  0.00     0.000 C 
BRANCH   3   4
ATOM      4  C   UNL     1      -9.416  -7.288  -5.090  1.00  0.00     0.000 C 
BRANCH   4   5
ATOM      5  C   UNL     1      -9.246  -6.317  -6.273  1.00  0.00     0.000 C 
BRANCH   5   6
ATOM      6  C   UNL     1     -10.104  -6.656  -7.511  1.00  0.00     0.000 C 
BRANCH   6   7
ATOM      7  C   UNL     1      -9.925  -5.706  -8.716  1.00  0.00     0.000 C 
BRANCH   7   8
ATOM      8  C   UNL     1     -11.205  -5.438  -9.533  1.00  0.00     0.000 C 
BRANCH   8   9
ATOM      9  C   UNL     1     -11.968  -4.194  -9.045  1.00  0.00     0.000 C 
BRANCH   9  10
ATOM     10  C   UNL     1     -11.111  -3.263  -8.170  1.00  0.00     0.000 C 
BRANCH  10  11
ATOM     11  C   UNL     1     -11.405  -3.322  -6.660  1.00  0.00     0.000 C 
BRANCH  11  12
ATOM     12  C   UNL     1     -12.432  -4.384  -6.230  1.00  0.00     0.006 C 
BRANCH  12  13
ATOM     13  C   UNL     1     -12.342  -4.773  -4.742  1.00  0.00     0.053 C 
BRANCH  13  14
ATOM     14  C   UNL     1     -13.143  -6.000  -4.422  1.00  0.00     0.041 C 
ATOM     15  O   UNL     1     -13.880  -6.027  -3.398  1.00  0.00    -0.550 OA
ATOM     16  O   UNL     1     -13.054  -7.127  -5.234  1.00  0.00    -0.550 OA
ENDBRANCH  13  14
ENDBRANCH  12  13
ENDBRANCH  11  12
ENDBRANCH  10  11
ENDBRANCH   9  10
ENDBRANCH   8   9
ENDBRANCH   7   8
ENDBRANCH   6   7
ENDBRANCH   5   6
ENDBRANCH   4   5
ENDBRANCH   3   4
ENDBRANCH   2   3
ENDBRANCH   1   2
BRANCH   1  17
ATOM     17  C   UNL     1     -11.288 -11.686  -5.159  1.00  0.00     0.000 C 
BRANCH  17  18
ATOM     18  C   UNL     1     -11.994 -12.486  -6.265  1.00  0.00     0.000 C 
BRANCH  18  19
ATOM     19  C   UNL     1     -11.534 -13.953  -6.262  1.00  0.00     0.000 C 
BRANCH  19  20
ATOM     20  C   UNL     1     -10.034 -14.108  -6.549  1.00  0.00     0.000 C 
BRANCH  20  21
ATOM     21  C   UNL     1      -9.600 -13.426  -7.859  1.00  0.00     0.000 C 
BRANCH  21  22
ATOM     22  C   UNL     1      -8.196 -13.880  -8.314  1.00  0.00    -0.000 C 
BRANCH  22  23
ATOM     23  C   UNL     1      -7.057 -13.282  -7.473  1.00  0.00    -0.000 C 
BRANCH  23  24
ATOM     24  C   UNL     1      -7.418 -11.925  -6.855  1.00  0.00    -0.000 C 
BRANCH  24  25
ATOM     25  C   UNL     1      -6.301 -10.900  -7.101  1.00  0.00    -0.000 C 
BRANCH  25  26
ATOM     26  C   UNL     1      -4.904 -11.555  -7.164  1.00  0.00    -0.000 C 
BRANCH  26  27
ATOM     27  C   UNL     1      -3.988 -11.176  -5.987  1.00  0.00    -0.000 C 
BRANCH  27  28
ATOM     28  C   UNL     1      -2.923 -12.242  -5.692  1.00  0.00    -0.000 C 
BRANCH  28  29
ATOM     29  C   UNL     1      -2.011 -11.808  -4.540  1.00  0.00    -0.003 C 
ATOM     30  C   UNL     1      -2.169 -12.731  -3.335  1.00  0.00     0.004 C 
ENDBRANCH  28  29
ENDBRANCH  27  28
ENDBRANCH  26  27
ENDBRANCH  25  26
ENDBRANCH  24  25
ENDBRANCH  23  24
ENDBRANCH  22  23
ENDBRANCH  21  22
ENDBRANCH  20  21
ENDBRANCH  19  20
ENDBRANCH  18  19
ENDBRANCH  17  18
ENDBRANCH   1  17
TORSDOF 26
ENDMDL
