MODEL 1
REMARK VINA RESULT:     5.086      0.000      0.000
REMARK INTER + INTRA:           7.599
REMARK INTER:                   8.059
REMARK INTRA:                  -0.460
REMARK UNBOUND:                -0.460
REMARK SMILES CCCCCCCCCCCC(=O)[O-]
REMARK SMILES IDX 7 1 8 2 9 3 10 4 11 5 12 6 13 7 14 8 6 9 5 10 4 11 3 12 2 13
REMARK SMILES IDX 1 14
REMARK H PARENT
REMARK Flexibility Score: inf
ROOT
ATOM      1  C   UNL     1     -18.188  23.431  18.327  1.00  0.00     0.000 C 
ENDROOT
BRANCH   1   2
ATOM      2  C   UNL     1     -19.117  22.311  18.820  1.00  0.00     0.000 C 
BRANCH   2   3
ATOM      3  C   UNL     1     -19.017  22.082  20.337  1.00  0.00     0.000 C 
BRANCH   3   4
ATOM      4  C   UNL     1     -19.125  20.599  20.721  1.00  0.00     0.006 C 
BRANCH   4   5
ATOM      5  C   UNL     1     -18.291  20.295  21.969  1.00  0.00     0.053 C 
BRANCH   5   6
ATOM      6  C   UNL     1     -17.672  18.937  21.868  1.00  0.00     0.041 C 
ATOM      7  O   UNL     1     -18.173  18.068  21.107  1.00  0.00    -0.550 OA
ATOM      8  O   UNL     1     -16.514  18.645  22.577  1.00  0.00    -0.550 OA
ENDBRANCH   5   6
ENDBRANCH   4   5
ENDBRANCH   3   4
ENDBRANCH   2   3
ENDBRANCH   1   2
BRANCH   1   9
ATOM      9  C   UNL     1     -18.976  24.501  17.563  1.00  0.00     0.000 C 
BRANCH   9  10
ATOM     10  C   UNL     1     -18.099  25.728  17.272  1.00  0.00    -0.000 C 
BRANCH  10  11
ATOM     11  C   UNL     1     -17.756  25.875  15.781  1.00  0.00    -0.000 C 
BRANCH  11  12
ATOM     12  C   UNL     1     -16.307  25.468  15.464  1.00  0.00    -0.000 C 
BRANCH  12  13
ATOM     13  C   UNL     1     -15.343  25.783  16.618  1.00  0.00    -0.003 C 
ATOM     14  C   UNL     1     -14.039  24.989  16.537  1.00  0.00     0.004 C 
ENDBRANCH  12  13
ENDBRANCH  11  12
ENDBRANCH  10  11
ENDBRANCH   9  10
ENDBRANCH   1   9
TORSDOF 10
ENDMDL
MODEL 2
REMARK VINA RESULT:     5.500      3.548      7.241
REMARK INTER + INTRA:           8.256
REMARK INTER:                   7.902
REMARK INTRA:                   0.353
REMARK UNBOUND:                -0.460
REMARK SMILES CCCCCCCCCCCC(=O)[O-]
REMARK SMILES IDX 7 1 8 2 9 3 10 4 11 5 12 6 13 7 14 8 6 9 5 10 4 11 3 12 2 13
REMARK SMILES IDX 1 14
REMARK H PARENT
REMARK Flexibility Score: inf
ROOT
ATOM      1  C   UNL     1     -18.236  23.604  18.656  1.00  0.00     0.000 C 
ENDROOT
BRANCH   1   2
ATOM      2  C   UNL     1     -18.634  24.463  17.445  1.00  0.00     0.000 C 
BRANCH   2   3
ATOM      3  C   UNL     1     -17.733  25.698  17.274  1.00  0.00     0.000 C 
BRANCH   3   4
ATOM      4  C   UNL     1     -17.548  26.096  15.803  1.00  0.00     0.006 C 
BRANCH   4   5
ATOM      5  C   UNL     1     -16.184  25.639  15.279  1.00  0.00     0.053 C 
BRANCH   5   6
ATOM      6  C   UNL     1     -15.181  25.605  16.389  1.00  0.00     0.041 C 
ATOM      7  O   UNL     1     -14.245  24.763  16.371  1.00  0.00    -0.550 OA
ATOM      8  O   UNL     1     -15.251  26.534  17.419  1.00  0.00    -0.550 OA
ENDBRANCH   5   6
ENDBRANCH   4   5
ENDBRANCH   3   4
ENDBRANCH   2   3
ENDBRANCH   1   2
BRANCH   1   9
ATOM      9  C   UNL     1     -19.123  22.358  18.758  1.00  0.00     0.000 C 
BRANCH   9  10
ATOM     10  C   UNL     1     -18.552  21.358  19.776  1.00  0.00    -0.000 C 
BRANCH  10  11
ATOM     11  C   UNL     1     -18.968  21.677  21.221  1.00  0.00    -0.000 C 
BRANCH  11  12
ATOM     12  C   UNL     1     -19.110  20.414  22.087  1.00  0.00    -0.000 C 
BRANCH  12  13
ATOM     13  C   UNL     1     -18.217  19.263  21.599  1.00  0.00    -0.003 C 
ATOM     14  C   UNL     1     -17.052  18.972  22.545  1.00  0.00     0.004 C 
ENDBRANCH  12  13
ENDBRANCH  11  12
ENDBRANCH  10  11
ENDBRANCH   9  10
ENDBRANCH   1   9
TORSDOF 10
ENDMDL
MODEL 3
REMARK VINA RESULT:     6.565      3.728      7.415
REMARK INTER + INTRA:           9.943
REMARK INTER:                  10.426
REMARK INTRA:                  -0.484
REMARK UNBOUND:                -0.460
REMARK SMILES CCCCCCCCCCCC(=O)[O-]
REMARK SMILES IDX 7 1 8 2 9 3 10 4 11 5 12 6 13 7 14 8 6 9 5 10 4 11 3 12 2 13
REMARK SMILES IDX 1 14
REMARK H PARENT
REMARK Flexibility Score: inf
ROOT
ATOM      1  C   UNL     1     -18.673  21.758  19.791  1.00  0.00     0.000 C 
ENDROOT
BRANCH   1   2
ATOM      2  C   UNL     1     -19.116  22.636  18.610  1.00  0.00     0.000 C 
BRANCH   2   3
ATOM      3  C   UNL     1     -18.210  23.861  18.409  1.00  0.00     0.000 C 
BRANCH   3   4
ATOM      4  C   UNL     1     -18.638  24.725  17.214  1.00  0.00     0.006 C 
BRANCH   4   5
ATOM      5  C   UNL     1     -17.761  25.975  17.100  1.00  0.00     0.053 C 
BRANCH   5   6
ATOM      6  C   UNL     1     -16.594  25.716  16.200  1.00  0.00     0.041 C 
ATOM      7  O   UNL     1     -16.769  25.571  14.961  1.00  0.00    -0.550 OA
ATOM      8  O   UNL     1     -15.307  25.682  16.721  1.00  0.00    -0.550 OA
ENDBRANCH   5   6
ENDBRANCH   4   5
ENDBRANCH   3   4
ENDBRANCH   2   3
ENDBRANCH   1   2
BRANCH   1   9
ATOM      9  C   UNL     1     -19.125  20.306  19.596  1.00  0.00     0.000 C 
BRANCH   9  10
ATOM     10  C   UNL     1     -19.106  19.540  20.928  1.00  0.00    -0.000 C 
BRANCH  10  11
ATOM     11  C   UNL     1     -18.679  20.420  22.114  1.00  0.00    -0.000 C 
BRANCH  11  12
ATOM     12  C   UNL     1     -17.497  19.823  22.897  1.00  0.00    -0.000 C 
BRANCH  12  13
ATOM     13  C   UNL     1     -16.827  18.658  22.151  1.00  0.00    -0.003 C 
ATOM     14  C   UNL     1     -15.729  17.981  22.972  1.00  0.00     0.004 C 
ENDBRANCH  12  13
ENDBRANCH  11  12
ENDBRANCH  10  11
ENDBRANCH   9  10
ENDBRANCH   1   9
TORSDOF 10
ENDMDL
