MODEL 1
REMARK VINA RESULT:    -7.129      0.000      0.000
REMARK INTER + INTRA:         -11.429
REMARK INTER:                 -10.464
REMARK INTRA:                  -0.966
REMARK UNBOUND:                -0.966
REMARK SMILES O=c1c(O[C@@H]2O[C@@H](CO)[C@@H](O)[C@@H](O)[C@H]2O)c(-c2ccc(O)c(O)c2)oc2cc(O)cc(O)c12
REMARK SMILES IDX 4 1 3 2 16 3 25 4 2 5 26 6 1 7 33 8 27 9 31 10 28 11 30 12
REMARK SMILES IDX 17 13 18 14 19 15 20 16 24 17 22 18 21 19 23 21 32 23 29 25
REMARK SMILES IDX 5 27 14 28 6 29 12 30 7 31 10 32 15 33 13 35 8 37 9 38 11 40
REMARK H PARENT 21 20 23 22 32 24 29 26 15 34 13 36 9 39 11 41
REMARK Flexibility Score: inf
ROOT
ATOM      1  O   UNL     1     -38.213   6.084  81.358  1.00  0.00    -0.454 OA
ENDROOT
BRANCH   1   2
ATOM      2  C   UNL     1     -38.885   5.302  80.395  1.00  0.00     0.214 A 
ATOM      3  C   UNL     1     -38.298   5.068  79.128  1.00  0.00     0.180 A 
ATOM      4  O   UNL     1     -39.012   4.429  78.208  1.00  0.00    -0.452 OA
ATOM      5  C   UNL     1     -40.141   4.718  80.676  1.00  0.00     0.239 A 
ATOM      6  C   UNL     1     -40.230   3.942  78.401  1.00  0.00     0.146 A 
ATOM      7  O   UNL     1     -40.589   4.785  81.845  1.00  0.00    -0.285 OA
ATOM      8  C   UNL     1     -40.861   4.044  79.665  1.00  0.00     0.111 A 
ATOM      9  C   UNL     1     -40.866   3.299  77.338  1.00  0.00     0.094 A 
ATOM     10  C   UNL     1     -42.155   3.451  79.828  1.00  0.00     0.134 A 
ATOM     11  C   UNL     1     -42.121   2.729  77.502  1.00  0.00     0.123 A 
ATOM     12  C   UNL     1     -42.757   2.801  78.744  1.00  0.00     0.093 A 
BRANCH   3  13
ATOM     13  C   UNL     1     -36.908   5.471  78.727  1.00  0.00     0.025 A 
ATOM     14  C   UNL     1     -36.761   6.684  78.027  1.00  0.00     0.016 A 
ATOM     15  C   UNL     1     -35.494   7.184  77.720  1.00  0.00     0.051 A 
ATOM     16  C   UNL     1     -34.342   6.483  78.092  1.00  0.00     0.157 A 
ATOM     17  C   UNL     1     -35.740   4.732  79.035  1.00  0.00     0.062 A 
ATOM     18  C   UNL     1     -34.470   5.236  78.720  1.00  0.00     0.158 A 
BRANCH  16  19
ATOM     19  O   UNL     1     -33.088   7.033  77.818  1.00  0.00    -0.504 OA
ATOM     20  H   UNL     1     -32.228   6.544  78.050  1.00  0.00     0.293 HD
ENDBRANCH  16  19
BRANCH  18  21
ATOM     21  O   UNL     1     -33.330   4.504  79.046  1.00  0.00    -0.504 OA
ATOM     22  H   UNL     1     -33.306   3.488  78.958  1.00  0.00     0.293 HD
ENDBRANCH  18  21
ENDBRANCH   3  13
BRANCH  10  23
ATOM     23  O   UNL     1     -42.904   3.471  81.011  1.00  0.00    -0.507 OA
ATOM     24  H   UNL     1     -43.803   3.908  81.143  1.00  0.00     0.293 HD
ENDBRANCH  10  23
BRANCH  11  25
ATOM     25  O   UNL     1     -42.731   2.098  76.417  1.00  0.00    -0.508 OA
ATOM     26  H   UNL     1     -43.004   2.630  75.588  1.00  0.00     0.293 HD
ENDBRANCH  11  25
ENDBRANCH   1   2
BRANCH   1  27
ATOM     27  C   UNL     1     -36.866   5.860  81.820  1.00  0.00     0.339 C 
ATOM     28  C   UNL     1     -36.159   7.192  82.155  1.00  0.00     0.214 C 
ATOM     29  O   UNL     1     -36.896   4.998  82.947  1.00  0.00    -0.332 OA
ATOM     30  C   UNL     1     -34.715   6.911  82.609  1.00  0.00     0.180 C 
ATOM     31  C   UNL     1     -35.598   4.622  83.388  1.00  0.00     0.179 C 
ATOM     32  C   UNL     1     -34.722   5.856  83.736  1.00  0.00     0.177 C 
BRANCH  28  33
ATOM     33  O   UNL     1     -36.147   8.010  81.016  1.00  0.00    -0.384 OA
ATOM     34  H   UNL     1     -37.082   8.184  80.746  1.00  0.00     0.211 HD
ENDBRANCH  28  33
BRANCH  30  35
ATOM     35  O   UNL     1     -33.933   6.477  81.523  1.00  0.00    -0.387 OA
ATOM     36  H   UNL     1     -34.207   5.542  81.323  1.00  0.00     0.211 HD
ENDBRANCH  30  35
BRANCH  31  37
ATOM     37  C   UNL     1     -34.939   3.567  82.461  1.00  0.00     0.191 C 
BRANCH  37  38
ATOM     38  O   UNL     1     -33.539   3.529  82.608  1.00  0.00    -0.394 OA
ATOM     39  H   UNL     1     -33.279   2.620  82.903  1.00  0.00     0.210 HD
ENDBRANCH  37  38
ENDBRANCH  31  37
BRANCH  32  40
ATOM     40  O   UNL     1     -33.425   5.487  84.125  1.00  0.00    -0.387 OA
ATOM     41  H   UNL     1     -33.162   6.037  84.902  1.00  0.00     0.211 HD
ENDBRANCH  32  40
ENDBRANCH   1  27
TORSDOF 12
ENDMDL
MODEL 2
REMARK VINA RESULT:    -7.047      2.804      7.490
REMARK INTER + INTRA:         -11.308
REMARK INTER:                 -10.228
REMARK INTRA:                  -1.080
REMARK UNBOUND:                -0.966
REMARK SMILES O=c1c(O[C@@H]2O[C@@H](CO)[C@@H](O)[C@@H](O)[C@H]2O)c(-c2ccc(O)c(O)c2)oc2cc(O)cc(O)c12
REMARK SMILES IDX 4 1 3 2 16 3 25 4 2 5 26 6 1 7 33 8 27 9 31 10 28 11 30 12
REMARK SMILES IDX 17 13 18 14 19 15 20 16 24 17 22 18 21 19 23 21 32 23 29 25
REMARK SMILES IDX 5 27 14 28 6 29 12 30 7 31 10 32 15 33 13 35 8 37 9 38 11 40
REMARK H PARENT 21 20 23 22 32 24 29 26 15 34 13 36 9 39 11 41
REMARK Flexibility Score: inf
ROOT
ATOM      1  O   UNL     1     -38.484   5.998  77.456  1.00  0.00    -0.454 OA
ENDROOT
BRANCH   1   2
ATOM      2  C   UNL     1     -37.711   5.395  78.470  1.00  0.00     0.214 A 
ATOM      3  C   UNL     1     -38.288   4.431  79.332  1.00  0.00     0.180 A 
ATOM      4  O   UNL     1     -37.563   3.976  80.349  1.00  0.00    -0.452 OA
ATOM      5  C   UNL     1     -36.344   5.717  78.636  1.00  0.00     0.239 A 
ATOM      6  C   UNL     1     -36.306   4.319  80.593  1.00  0.00     0.146 A 
ATOM      7  O   UNL     1     -35.788   6.442  77.778  1.00  0.00    -0.285 OA
ATOM      8  C   UNL     1     -35.614   5.204  79.730  1.00  0.00     0.111 A 
ATOM      9  C   UNL     1     -35.669   3.766  81.704  1.00  0.00     0.094 A 
ATOM     10  C   UNL     1     -34.240   5.495  80.015  1.00  0.00     0.134 A 
ATOM     11  C   UNL     1     -34.339   4.055  81.977  1.00  0.00     0.123 A 
ATOM     12  C   UNL     1     -33.629   4.910  81.131  1.00  0.00     0.093 A 
BRANCH   3  13
ATOM     13  C   UNL     1     -39.668   3.855  79.191  1.00  0.00     0.025 A 
ATOM     14  C   UNL     1     -40.466   3.792  80.350  1.00  0.00     0.016 A 
ATOM     15  C   UNL     1     -41.797   3.377  80.280  1.00  0.00     0.051 A 
ATOM     16  C   UNL     1     -42.363   3.004  79.057  1.00  0.00     0.157 A 
ATOM     17  C   UNL     1     -40.227   3.407  77.970  1.00  0.00     0.062 A 
ATOM     18  C   UNL     1     -41.562   2.986  77.906  1.00  0.00     0.158 A 
BRANCH  16  19
ATOM     19  O   UNL     1     -43.712   2.644  79.009  1.00  0.00    -0.504 OA
ATOM     20  H   UNL     1     -44.035   1.854  78.458  1.00  0.00     0.293 HD
ENDBRANCH  16  19
BRANCH  18  21
ATOM     21  O   UNL     1     -42.103   2.565  76.693  1.00  0.00    -0.504 OA
ATOM     22  H   UNL     1     -41.688   2.839  75.802  1.00  0.00     0.293 HD
ENDBRANCH  18  21
ENDBRANCH   3  13
BRANCH  10  23
ATOM     23  O   UNL     1     -33.427   6.349  79.260  1.00  0.00    -0.507 OA
ATOM     24  H   UNL     1     -33.541   7.345  79.153  1.00  0.00     0.293 HD
ENDBRANCH  10  23
BRANCH  11  25
ATOM     25  O   UNL     1     -33.733   3.488  83.100  1.00  0.00    -0.508 OA
ATOM     26  H   UNL     1     -34.294   3.182  83.897  1.00  0.00     0.293 HD
ENDBRANCH  11  25
ENDBRANCH   1   2
BRANCH   1  27
ATOM     27  C   UNL     1     -39.220   7.231  77.592  1.00  0.00     0.339 C 
ATOM     28  C   UNL     1     -39.729   7.732  76.222  1.00  0.00     0.214 C 
ATOM     29  O   UNL     1     -40.294   7.038  78.498  1.00  0.00    -0.332 OA
ATOM     30  C   UNL     1     -40.475   9.067  76.406  1.00  0.00     0.180 C 
ATOM     31  C   UNL     1     -40.994   8.240  78.788  1.00  0.00     0.179 C 
ATOM     32  C   UNL     1     -41.550   8.912  77.503  1.00  0.00     0.177 C 
BRANCH  28  33
ATOM     33  O   UNL     1     -38.638   7.915  75.360  1.00  0.00    -0.384 OA
ATOM     34  H   UNL     1     -37.807   7.876  75.894  1.00  0.00     0.211 HD
ENDBRANCH  28  33
BRANCH  30  35
ATOM     35  O   UNL     1     -39.573  10.096  76.731  1.00  0.00    -0.387 OA
ATOM     36  H   UNL     1     -38.924   9.717  77.383  1.00  0.00     0.211 HD
ENDBRANCH  30  35
BRANCH  31  37
ATOM     37  C   UNL     1     -40.206   9.169  79.748  1.00  0.00     0.191 C 
BRANCH  37  38
ATOM     38  O   UNL     1     -39.655   8.467  80.837  1.00  0.00    -0.394 OA
ATOM     39  H   UNL     1     -39.435   9.119  81.550  1.00  0.00     0.210 HD
ENDBRANCH  37  38
ENDBRANCH  31  37
BRANCH  32  40
ATOM     40  O   UNL     1     -42.200  10.124  77.784  1.00  0.00    -0.387 OA
ATOM     41  H   UNL     1     -43.114  10.084  77.412  1.00  0.00     0.211 HD
ENDBRANCH  32  40
ENDBRANCH   1  27
TORSDOF 12
ENDMDL
MODEL 3
REMARK VINA RESULT:    -6.877      0.933      1.907
REMARK INTER + INTRA:         -11.059
REMARK INTER:                 -10.752
REMARK INTRA:                  -0.307
REMARK UNBOUND:                -0.966
REMARK SMILES O=c1c(O[C@@H]2O[C@@H](CO)[C@@H](O)[C@@H](O)[C@H]2O)c(-c2ccc(O)c(O)c2)oc2cc(O)cc(O)c12
REMARK SMILES IDX 4 1 3 2 16 3 25 4 2 5 26 6 1 7 33 8 27 9 31 10 28 11 30 12
REMARK SMILES IDX 17 13 18 14 19 15 20 16 24 17 22 18 21 19 23 21 32 23 29 25
REMARK SMILES IDX 5 27 14 28 6 29 12 30 7 31 10 32 15 33 13 35 8 37 9 38 11 40
REMARK H PARENT 21 20 23 22 32 24 29 26 15 34 13 36 9 39 11 41
REMARK Flexibility Score: inf
ROOT
ATOM      1  O   UNL     1     -38.011   5.913  81.497  1.00  0.00    -0.454 OA
ENDROOT
BRANCH   1   2
ATOM      2  C   UNL     1     -38.730   5.225  80.497  1.00  0.00     0.214 A 
ATOM      3  C   UNL     1     -38.195   5.096  79.192  1.00  0.00     0.180 A 
ATOM      4  O   UNL     1     -38.953   4.548  78.249  1.00  0.00    -0.452 OA
ATOM      5  C   UNL     1     -39.982   4.632  80.776  1.00  0.00     0.239 A 
ATOM      6  C   UNL     1     -40.169   4.058  78.447  1.00  0.00     0.146 A 
ATOM      7  O   UNL     1     -40.384   4.601  81.963  1.00  0.00    -0.285 OA
ATOM      8  C   UNL     1     -40.749   4.057  79.739  1.00  0.00     0.111 A 
ATOM      9  C   UNL     1     -40.854   3.518  77.358  1.00  0.00     0.094 A 
ATOM     10  C   UNL     1     -42.045   3.465  79.901  1.00  0.00     0.134 A 
ATOM     11  C   UNL     1     -42.110   2.949  77.521  1.00  0.00     0.123 A 
ATOM     12  C   UNL     1     -42.696   2.919  78.789  1.00  0.00     0.093 A 
BRANCH   3  13
ATOM     13  C   UNL     1     -36.816   5.518  78.773  1.00  0.00     0.025 A 
ATOM     14  C   UNL     1     -36.679   6.786  78.177  1.00  0.00     0.016 A 
ATOM     15  C   UNL     1     -35.417   7.298  77.865  1.00  0.00     0.051 A 
ATOM     16  C   UNL     1     -34.263   6.554  78.128  1.00  0.00     0.157 A 
ATOM     17  C   UNL     1     -35.647   4.742  78.969  1.00  0.00     0.062 A 
ATOM     18  C   UNL     1     -34.384   5.258  78.649  1.00  0.00     0.158 A 
BRANCH  16  19
ATOM     19  O   UNL     1     -33.012   7.114  77.854  1.00  0.00    -0.504 OA
ATOM     20  H   UNL     1     -32.263   7.109  78.540  1.00  0.00     0.293 HD
ENDBRANCH  16  19
BRANCH  18  21
ATOM     21  O   UNL     1     -33.242   4.489  78.865  1.00  0.00    -0.504 OA
ATOM     22  H   UNL     1     -33.293   3.474  78.953  1.00  0.00     0.293 HD
ENDBRANCH  18  21
ENDBRANCH   3  13
BRANCH  10  23
ATOM     23  O   UNL     1     -42.748   3.390  81.111  1.00  0.00    -0.507 OA
ATOM     24  H   UNL     1     -43.724   3.595  81.249  1.00  0.00     0.293 HD
ENDBRANCH  10  23
BRANCH  11  25
ATOM     25  O   UNL     1     -42.770   2.421  76.411  1.00  0.00    -0.508 OA
ATOM     26  H   UNL     1     -43.035   1.435  76.380  1.00  0.00     0.293 HD
ENDBRANCH  11  25
ENDBRANCH   1   2
BRANCH   1  27
ATOM     27  C   UNL     1     -36.879   5.388  82.219  1.00  0.00     0.339 C 
ATOM     28  C   UNL     1     -36.685   3.881  81.938  1.00  0.00     0.214 C 
ATOM     29  O   UNL     1     -35.718   6.126  81.872  1.00  0.00    -0.332 OA
ATOM     30  C   UNL     1     -35.491   3.352  82.756  1.00  0.00     0.180 C 
ATOM     31  C   UNL     1     -34.579   5.757  82.638  1.00  0.00     0.179 C 
ATOM     32  C   UNL     1     -34.256   4.244  82.504  1.00  0.00     0.177 C 
BRANCH  28  33
ATOM     33  O   UNL     1     -37.850   3.188  82.299  1.00  0.00    -0.384 OA
ATOM     34  H   UNL     1     -37.743   2.857  83.224  1.00  0.00     0.211 HD
ENDBRANCH  28  33
BRANCH  30  35
ATOM     35  O   UNL     1     -35.810   3.314  84.125  1.00  0.00    -0.387 OA
ATOM     36  H   UNL     1     -36.800   3.381  84.195  1.00  0.00     0.211 HD
ENDBRANCH  30  35
BRANCH  31  37
ATOM     37  C   UNL     1     -34.632   6.309  84.086  1.00  0.00     0.191 C 
BRANCH  37  38
ATOM     38  O   UNL     1     -34.882   7.695  84.119  1.00  0.00    -0.394 OA
ATOM     39  H   UNL     1     -34.219   8.118  84.723  1.00  0.00     0.210 HD
ENDBRANCH  37  38
ENDBRANCH  31  37
BRANCH  32  40
ATOM     40  O   UNL     1     -33.161   3.868  83.298  1.00  0.00    -0.387 OA
ATOM     41  H   UNL     1     -33.324   4.174  84.223  1.00  0.00     0.211 HD
ENDBRANCH  32  40
ENDBRANCH   1  27
TORSDOF 12
ENDMDL
MODEL 4
REMARK VINA RESULT:    -6.400      2.766      7.467
REMARK INTER + INTRA:         -10.358
REMARK INTER:                  -9.697
REMARK INTRA:                  -0.661
REMARK UNBOUND:                -0.966
REMARK SMILES O=c1c(O[C@@H]2O[C@@H](CO)[C@@H](O)[C@@H](O)[C@H]2O)c(-c2ccc(O)c(O)c2)oc2cc(O)cc(O)c12
REMARK SMILES IDX 4 1 3 2 16 3 25 4 2 5 26 6 1 7 33 8 27 9 31 10 28 11 30 12
REMARK SMILES IDX 17 13 18 14 19 15 20 16 24 17 22 18 21 19 23 21 32 23 29 25
REMARK SMILES IDX 5 27 14 28 6 29 12 30 7 31 10 32 15 33 13 35 8 37 9 38 11 40
REMARK H PARENT 21 20 23 22 32 24 29 26 15 34 13 36 9 39 11 41
REMARK Flexibility Score: inf
ROOT
ATOM      1  O   UNL     1     -37.897   5.116  77.704  1.00  0.00    -0.454 OA
ENDROOT
BRANCH   1   2
ATOM      2  C   UNL     1     -37.027   6.109  78.201  1.00  0.00     0.214 A 
ATOM      3  C   UNL     1     -37.485   7.437  78.380  1.00  0.00     0.180 A 
ATOM      4  O   UNL     1     -36.605   8.367  78.734  1.00  0.00    -0.452 OA
ATOM      5  C   UNL     1     -35.693   5.802  78.551  1.00  0.00     0.239 A 
ATOM      6  C   UNL     1     -35.325   8.138  78.987  1.00  0.00     0.146 A 
ATOM      7  O   UNL     1     -35.331   4.601  78.551  1.00  0.00    -0.285 OA
ATOM      8  C   UNL     1     -34.796   6.826  78.927  1.00  0.00     0.111 A 
ATOM      9  C   UNL     1     -34.513   9.217  79.343  1.00  0.00     0.094 A 
ATOM     10  C   UNL     1     -33.416   6.632  79.263  1.00  0.00     0.134 A 
ATOM     11  C   UNL     1     -33.176   9.023  79.664  1.00  0.00     0.123 A 
ATOM     12  C   UNL     1     -32.636   7.736  79.630  1.00  0.00     0.093 A 
BRANCH   3  13
ATOM     13  C   UNL     1     -38.906   7.895  78.216  1.00  0.00     0.025 A 
ATOM     14  C   UNL     1     -39.730   7.874  79.357  1.00  0.00     0.016 A 
ATOM     15  C   UNL     1     -41.027   8.391  79.314  1.00  0.00     0.051 A 
ATOM     16  C   UNL     1     -41.538   8.930  78.129  1.00  0.00     0.157 A 
ATOM     17  C   UNL     1     -39.457   8.376  77.003  1.00  0.00     0.062 A 
ATOM     18  C   UNL     1     -40.761   8.889  76.963  1.00  0.00     0.158 A 
BRANCH  16  19
ATOM     19  O   UNL     1     -42.819   9.488  78.130  1.00  0.00    -0.504 OA
ATOM     20  H   UNL     1     -43.632   8.958  78.431  1.00  0.00     0.293 HD
ENDBRANCH  16  19
BRANCH  18  21
ATOM     21  O   UNL     1     -41.282   9.376  75.766  1.00  0.00    -0.504 OA
ATOM     22  H   UNL     1     -40.851   9.153  74.869  1.00  0.00     0.293 HD
ENDBRANCH  18  21
ENDBRANCH   3  13
BRANCH  10  23
ATOM     23  O   UNL     1     -32.751   5.400  79.248  1.00  0.00    -0.507 OA
ATOM     24  H   UNL     1     -31.794   5.233  79.519  1.00  0.00     0.293 HD
ENDBRANCH  10  23
BRANCH  11  25
ATOM     25  O   UNL     1     -32.392  10.124  80.011  1.00  0.00    -0.508 OA
ATOM     26  H   UNL     1     -32.239  10.887  79.348  1.00  0.00     0.293 HD
ENDBRANCH  11  25
ENDBRANCH   1   2
BRANCH   1  27
ATOM     27  C   UNL     1     -38.857   4.381  78.490  1.00  0.00     0.339 C 
ATOM     28  C   UNL     1     -38.616   4.585  80.003  1.00  0.00     0.214 C 
ATOM     29  O   UNL     1     -40.168   4.778  78.121  1.00  0.00    -0.332 OA
ATOM     30  C   UNL     1     -39.636   3.755  80.805  1.00  0.00     0.180 C 
ATOM     31  C   UNL     1     -41.178   4.008  78.758  1.00  0.00     0.179 C 
ATOM     32  C   UNL     1     -41.064   4.067  80.305  1.00  0.00     0.177 C 
BRANCH  28  33
ATOM     33  O   UNL     1     -37.315   4.176  80.325  1.00  0.00    -0.384 OA
ATOM     34  H   UNL     1     -37.090   3.386  79.776  1.00  0.00     0.211 HD
ENDBRANCH  28  33
BRANCH  30  35
ATOM     35  O   UNL     1     -39.355   2.382  80.688  1.00  0.00    -0.387 OA
ATOM     36  H   UNL     1     -38.962   2.092  81.555  1.00  0.00     0.211 HD
ENDBRANCH  30  35
BRANCH  31  37
ATOM     37  C   UNL     1     -41.317   2.589  78.146  1.00  0.00     0.191 C 
BRANCH  37  38
ATOM     38  O   UNL     1     -42.444   1.904  78.640  1.00  0.00    -0.394 OA
ATOM     39  H   UNL     1     -42.835   1.372  77.901  1.00  0.00     0.210 HD
ENDBRANCH  37  38
ENDBRANCH  31  37
BRANCH  32  40
ATOM     40  O   UNL     1     -42.031   3.267  80.934  1.00  0.00    -0.387 OA
ATOM     41  H   UNL     1     -42.673   2.955  80.251  1.00  0.00     0.211 HD
ENDBRANCH  32  40
ENDBRANCH   1  27
TORSDOF 12
ENDMDL
MODEL 5
REMARK VINA RESULT:    -6.369      2.238      7.588
REMARK INTER + INTRA:         -10.313
REMARK INTER:                  -9.295
REMARK INTRA:                  -1.018
REMARK UNBOUND:                -0.966
REMARK SMILES O=c1c(O[C@@H]2O[C@@H](CO)[C@@H](O)[C@@H](O)[C@H]2O)c(-c2ccc(O)c(O)c2)oc2cc(O)cc(O)c12
REMARK SMILES IDX 4 1 3 2 16 3 25 4 2 5 26 6 1 7 33 8 27 9 31 10 28 11 30 12
REMARK SMILES IDX 17 13 18 14 19 15 20 16 24 17 22 18 21 19 23 21 32 23 29 25
REMARK SMILES IDX 5 27 14 28 6 29 12 30 7 31 10 32 15 33 13 35 8 37 9 38 11 40
REMARK H PARENT 21 20 23 22 32 24 29 26 15 34 13 36 9 39 11 41
REMARK Flexibility Score: inf
ROOT
ATOM      1  O   UNL     1     -38.476   6.435  79.393  1.00  0.00    -0.454 OA
ENDROOT
BRANCH   1   2
ATOM      2  C   UNL     1     -37.197   6.642  79.951  1.00  0.00     0.214 A 
ATOM      3  C   UNL     1     -36.871   6.093  81.215  1.00  0.00     0.180 A 
ATOM      4  O   UNL     1     -35.701   6.410  81.759  1.00  0.00    -0.452 OA
ATOM      5  C   UNL     1     -36.208   7.377  79.258  1.00  0.00     0.239 A 
ATOM      6  C   UNL     1     -34.780   7.168  81.182  1.00  0.00     0.146 A 
ATOM      7  O   UNL     1     -36.434   7.724  78.074  1.00  0.00    -0.285 OA
ATOM      8  C   UNL     1     -34.977   7.684  79.877  1.00  0.00     0.111 A 
ATOM      9  C   UNL     1     -33.597   7.425  81.877  1.00  0.00     0.094 A 
ATOM     10  C   UNL     1     -33.923   8.453  79.284  1.00  0.00     0.134 A 
ATOM     11  C   UNL     1     -32.581   8.173  81.298  1.00  0.00     0.123 A 
ATOM     12  C   UNL     1     -32.744   8.678  80.005  1.00  0.00     0.093 A 
BRANCH   3  13
ATOM     13  C   UNL     1     -37.738   5.156  82.005  1.00  0.00     0.025 A 
ATOM     14  C   UNL     1     -38.546   5.715  83.013  1.00  0.00     0.016 A 
ATOM     15  C   UNL     1     -39.464   4.928  83.713  1.00  0.00     0.051 A 
ATOM     16  C   UNL     1     -39.590   3.564  83.434  1.00  0.00     0.157 A 
ATOM     17  C   UNL     1     -37.820   3.760  81.780  1.00  0.00     0.062 A 
ATOM     18  C   UNL     1     -38.739   2.974  82.489  1.00  0.00     0.158 A 
BRANCH  16  19
ATOM     19  O   UNL     1     -40.553   2.814  84.114  1.00  0.00    -0.504 OA
ATOM     20  H   UNL     1     -40.306   2.202  84.886  1.00  0.00     0.293 HD
ENDBRANCH  16  19
BRANCH  18  21
ATOM     21  O   UNL     1     -38.821   1.605  82.243  1.00  0.00    -0.504 OA
ATOM     22  H   UNL     1     -38.061   1.101  81.785  1.00  0.00     0.293 HD
ENDBRANCH  18  21
ENDBRANCH   3  13
BRANCH  10  23
ATOM     23  O   UNL     1     -33.970   9.029  78.008  1.00  0.00    -0.507 OA
ATOM     24  H   UNL     1     -33.849  10.005  77.788  1.00  0.00     0.293 HD
ENDBRANCH  10  23
BRANCH  11  25
ATOM     25  O   UNL     1     -31.413   8.415  82.022  1.00  0.00    -0.508 OA
ATOM     26  H   UNL     1     -31.394   9.116  82.765  1.00  0.00     0.293 HD
ENDBRANCH  11  25
ENDBRANCH   1   2
BRANCH   1  27
ATOM     27  C   UNL     1     -39.104   5.152  79.203  1.00  0.00     0.339 C 
ATOM     28  C   UNL     1     -40.638   5.250  79.359  1.00  0.00     0.214 C 
ATOM     29  O   UNL     1     -38.751   4.642  77.927  1.00  0.00    -0.332 OA
ATOM     30  C   UNL     1     -41.265   3.853  79.186  1.00  0.00     0.180 C 
ATOM     31  C   UNL     1     -39.224   3.319  77.710  1.00  0.00     0.179 C 
ATOM     32  C   UNL     1     -40.766   3.222  77.868  1.00  0.00     0.177 C 
BRANCH  28  33
ATOM     33  O   UNL     1     -40.943   5.751  80.632  1.00  0.00    -0.384 OA
ATOM     34  H   UNL     1     -40.768   5.042  81.298  1.00  0.00     0.211 HD
ENDBRANCH  28  33
BRANCH  30  35
ATOM     35  O   UNL     1     -40.952   3.033  80.284  1.00  0.00    -0.387 OA
ATOM     36  H   UNL     1     -41.659   2.335  80.337  1.00  0.00     0.211 HD
ENDBRANCH  30  35
BRANCH  31  37
ATOM     37  C   UNL     1     -38.399   2.259  78.484  1.00  0.00     0.191 C 
BRANCH  37  38
ATOM     38  O   UNL     1     -38.080   1.144  77.685  1.00  0.00    -0.394 OA
ATOM     39  H   UNL     1     -37.481   1.443  76.954  1.00  0.00     0.210 HD
ENDBRANCH  37  38
ENDBRANCH  31  37
BRANCH  32  40
ATOM     40  O   UNL     1     -41.229   1.907  77.703  1.00  0.00    -0.387 OA
ATOM     41  H   UNL     1     -41.981   1.917  77.063  1.00  0.00     0.211 HD
ENDBRANCH  32  40
ENDBRANCH   1  27
TORSDOF 12
ENDMDL
MODEL 6
REMARK VINA RESULT:    -6.353      1.561      2.615
REMARK INTER + INTRA:         -10.290
REMARK INTER:                  -8.586
REMARK INTRA:                  -1.704
REMARK UNBOUND:                -0.966
REMARK SMILES O=c1c(O[C@@H]2O[C@@H](CO)[C@@H](O)[C@@H](O)[C@H]2O)c(-c2ccc(O)c(O)c2)oc2cc(O)cc(O)c12
REMARK SMILES IDX 4 1 3 2 16 3 25 4 2 5 26 6 1 7 33 8 27 9 31 10 28 11 30 12
REMARK SMILES IDX 17 13 18 14 19 15 20 16 24 17 22 18 21 19 23 21 32 23 29 25
REMARK SMILES IDX 5 27 14 28 6 29 12 30 7 31 10 32 15 33 13 35 8 37 9 38 11 40
REMARK H PARENT 21 20 23 22 32 24 29 26 15 34 13 36 9 39 11 41
REMARK Flexibility Score: inf
ROOT
ATOM      1  O   UNL     1     -37.657   5.127  81.760  1.00  0.00    -0.454 OA
ENDROOT
BRANCH   1   2
ATOM      2  C   UNL     1     -38.441   4.635  80.695  1.00  0.00     0.214 A 
ATOM      3  C   UNL     1     -37.960   4.697  79.364  1.00  0.00     0.180 A 
ATOM      4  O   UNL     1     -38.775   4.336  78.380  1.00  0.00    -0.452 OA
ATOM      5  C   UNL     1     -39.707   4.052  80.929  1.00  0.00     0.239 A 
ATOM      6  C   UNL     1     -40.003   3.866  78.549  1.00  0.00     0.146 A 
ATOM      7  O   UNL     1     -40.065   3.845  82.113  1.00  0.00    -0.285 OA
ATOM      8  C   UNL     1     -40.536   3.679  79.849  1.00  0.00     0.111 A 
ATOM      9  C   UNL     1     -40.751   3.532  77.419  1.00  0.00     0.094 A 
ATOM     10  C   UNL     1     -41.849   3.117  79.971  1.00  0.00     0.134 A 
ATOM     11  C   UNL     1     -42.023   2.992  77.544  1.00  0.00     0.123 A 
ATOM     12  C   UNL     1     -42.563   2.781  78.815  1.00  0.00     0.093 A 
BRANCH   3  13
ATOM     13  C   UNL     1     -36.581   5.130  78.959  1.00  0.00     0.025 A 
ATOM     14  C   UNL     1     -36.451   6.387  78.338  1.00  0.00     0.016 A 
ATOM     15  C   UNL     1     -35.192   6.909  78.035  1.00  0.00     0.051 A 
ATOM     16  C   UNL     1     -34.032   6.188  78.333  1.00  0.00     0.157 A 
ATOM     17  C   UNL     1     -35.405   4.375  79.190  1.00  0.00     0.062 A 
ATOM     18  C   UNL     1     -34.143   4.902  78.879  1.00  0.00     0.158 A 
BRANCH  16  19
ATOM     19  O   UNL     1     -32.784   6.759  78.067  1.00  0.00    -0.504 OA
ATOM     20  H   UNL     1     -32.445   6.881  77.117  1.00  0.00     0.293 HD
ENDBRANCH  16  19
BRANCH  18  21
ATOM     21  O   UNL     1     -32.995   4.153  79.130  1.00  0.00    -0.504 OA
ATOM     22  H   UNL     1     -32.397   4.348  79.933  1.00  0.00     0.293 HD
ENDBRANCH  18  21
ENDBRANCH   3  13
BRANCH  10  23
ATOM     23  O   UNL     1     -42.509   2.875  81.182  1.00  0.00    -0.507 OA
ATOM     24  H   UNL     1     -42.137   2.382  81.978  1.00  0.00     0.293 HD
ENDBRANCH  10  23
BRANCH  11  25
ATOM     25  O   UNL     1     -42.746   2.674  76.393  1.00  0.00    -0.508 OA
ATOM     26  H   UNL     1     -42.276   2.577  75.491  1.00  0.00     0.293 HD
ENDBRANCH  11  25
ENDBRANCH   1   2
BRANCH   1  27
ATOM     27  C   UNL     1     -37.518   6.516  82.120  1.00  0.00     0.339 C 
ATOM     28  C   UNL     1     -38.054   6.781  83.545  1.00  0.00     0.214 C 
ATOM     29  O   UNL     1     -36.156   6.896  82.006  1.00  0.00    -0.332 OA
ATOM     30  C   UNL     1     -37.922   8.280  83.875  1.00  0.00     0.180 C 
ATOM     31  C   UNL     1     -35.951   8.286  82.219  1.00  0.00     0.179 C 
ATOM     32  C   UNL     1     -36.473   8.743  83.608  1.00  0.00     0.177 C 
BRANCH  28  33
ATOM     33  O   UNL     1     -39.401   6.398  83.613  1.00  0.00    -0.384 OA
ATOM     34  H   UNL     1     -39.785   6.441  82.703  1.00  0.00     0.211 HD
ENDBRANCH  28  33
BRANCH  30  35
ATOM     35  O   UNL     1     -38.836   9.034  83.118  1.00  0.00    -0.387 OA
ATOM     36  H   UNL     1     -39.748   8.766  83.412  1.00  0.00     0.211 HD
ENDBRANCH  30  35
BRANCH  31  37
ATOM     37  C   UNL     1     -36.406   9.145  81.011  1.00  0.00     0.191 C 
BRANCH  37  38
ATOM     38  O   UNL     1     -35.325   9.790  80.379  1.00  0.00    -0.394 OA
ATOM     39  H   UNL     1     -34.500   9.274  80.564  1.00  0.00     0.210 HD
ENDBRANCH  37  38
ENDBRANCH  31  37
BRANCH  32  40
ATOM     40  O   UNL     1     -36.315  10.125  83.800  1.00  0.00    -0.387 OA
ATOM     41  H   UNL     1     -36.377  10.573  82.921  1.00  0.00     0.211 HD
ENDBRANCH  32  40
ENDBRANCH   1  27
TORSDOF 12
ENDMDL
MODEL 7
REMARK VINA RESULT:    -6.300      2.177      6.580
REMARK INTER + INTRA:         -10.212
REMARK INTER:                  -9.911
REMARK INTRA:                  -0.302
REMARK UNBOUND:                -0.966
REMARK SMILES O=c1c(O[C@@H]2O[C@@H](CO)[C@@H](O)[C@@H](O)[C@H]2O)c(-c2ccc(O)c(O)c2)oc2cc(O)cc(O)c12
REMARK SMILES IDX 4 1 3 2 16 3 25 4 2 5 26 6 1 7 33 8 27 9 31 10 28 11 30 12
REMARK SMILES IDX 17 13 18 14 19 15 20 16 24 17 22 18 21 19 23 21 32 23 29 25
REMARK SMILES IDX 5 27 14 28 6 29 12 30 7 31 10 32 15 33 13 35 8 37 9 38 11 40
REMARK H PARENT 21 20 23 22 32 24 29 26 15 34 13 36 9 39 11 41
REMARK Flexibility Score: inf
ROOT
ATOM      1  O   UNL     1     -36.280   4.010  81.281  1.00  0.00    -0.454 OA
ENDROOT
BRANCH   1   2
ATOM      2  C   UNL     1     -35.971   5.127  80.476  1.00  0.00     0.214 A 
ATOM      3  C   UNL     1     -36.658   5.340  79.255  1.00  0.00     0.180 A 
ATOM      4  O   UNL     1     -36.256   6.333  78.469  1.00  0.00    -0.452 OA
ATOM      5  C   UNL     1     -34.994   6.067  80.874  1.00  0.00     0.239 A 
ATOM      6  C   UNL     1     -35.285   7.185  78.764  1.00  0.00     0.146 A 
ATOM      7  O   UNL     1     -34.503   5.975  82.024  1.00  0.00    -0.285 OA
ATOM      8  C   UNL     1     -34.605   7.109  80.005  1.00  0.00     0.111 A 
ATOM      9  C   UNL     1     -34.965   8.177  77.837  1.00  0.00     0.094 A 
ATOM     10  C   UNL     1     -33.600   8.090  80.290  1.00  0.00     0.134 A 
ATOM     11  C   UNL     1     -33.988   9.123  78.118  1.00  0.00     0.123 A 
ATOM     12  C   UNL     1     -33.316   9.080  79.342  1.00  0.00     0.093 A 
BRANCH   3  13
ATOM     13  C   UNL     1     -37.829   4.538  78.766  1.00  0.00     0.025 A 
ATOM     14  C   UNL     1     -39.010   5.238  78.455  1.00  0.00     0.016 A 
ATOM     15  C   UNL     1     -40.104   4.581  77.887  1.00  0.00     0.051 A 
ATOM     16  C   UNL     1     -40.052   3.209  77.626  1.00  0.00     0.157 A 
ATOM     17  C   UNL     1     -37.812   3.136  78.567  1.00  0.00     0.062 A 
ATOM     18  C   UNL     1     -38.914   2.480  78.001  1.00  0.00     0.158 A 
BRANCH  16  19
ATOM     19  O   UNL     1     -41.142   2.589  77.009  1.00  0.00    -0.504 OA
ATOM     20  H   UNL     1     -41.050   2.117  76.114  1.00  0.00     0.293 HD
ENDBRANCH  16  19
BRANCH  18  21
ATOM     21  O   UNL     1     -38.875   1.103  77.795  1.00  0.00    -0.504 OA
ATOM     22  H   UNL     1     -38.419   0.478  78.460  1.00  0.00     0.293 HD
ENDBRANCH  18  21
ENDBRANCH   3  13
BRANCH  10  23
ATOM     23  O   UNL     1     -32.843   8.146  81.467  1.00  0.00    -0.507 OA
ATOM     24  H   UNL     1     -32.694   7.392  82.119  1.00  0.00     0.293 HD
ENDBRANCH  10  23
BRANCH  11  25
ATOM     25  O   UNL     1     -33.689  10.099  77.166  1.00  0.00    -0.508 OA
ATOM     26  H   UNL     1     -34.434  10.591  76.670  1.00  0.00     0.293 HD
ENDBRANCH  11  25
ENDBRANCH   1   2
BRANCH   1  27
ATOM     27  C   UNL     1     -37.543   3.779  81.936  1.00  0.00     0.339 C 
ATOM     28  C   UNL     1     -37.370   3.680  83.468  1.00  0.00     0.214 C 
ATOM     29  O   UNL     1     -38.448   4.815  81.588  1.00  0.00    -0.332 OA
ATOM     30  C   UNL     1     -38.735   3.396  84.124  1.00  0.00     0.180 C 
ATOM     31  C   UNL     1     -39.759   4.595  82.089  1.00  0.00     0.179 C 
ATOM     32  C   UNL     1     -39.770   4.430  83.633  1.00  0.00     0.177 C 
BRANCH  28  33
ATOM     33  O   UNL     1     -36.476   2.643  83.768  1.00  0.00    -0.384 OA
ATOM     34  H   UNL     1     -36.995   1.817  83.925  1.00  0.00     0.211 HD
ENDBRANCH  28  33
BRANCH  30  35
ATOM     35  O   UNL     1     -39.159   2.087  83.834  1.00  0.00    -0.387 OA
ATOM     36  H   UNL     1     -39.549   2.104  82.919  1.00  0.00     0.211 HD
ENDBRANCH  30  35
BRANCH  31  37
ATOM     37  C   UNL     1     -40.525   3.508  81.290  1.00  0.00     0.191 C 
BRANCH  37  38
ATOM     38  O   UNL     1     -41.237   2.631  82.131  1.00  0.00    -0.394 OA
ATOM     39  H   UNL     1     -41.541   3.137  82.927  1.00  0.00     0.210 HD
ENDBRANCH  37  38
ENDBRANCH  31  37
BRANCH  32  40
ATOM     40  O   UNL     1     -41.059   4.164  84.124  1.00  0.00    -0.387 OA
ATOM     41  H   UNL     1     -41.675   4.854  83.778  1.00  0.00     0.211 HD
ENDBRANCH  32  40
ENDBRANCH   1  27
TORSDOF 12
ENDMDL
MODEL 8
REMARK VINA RESULT:    -6.191      2.555      7.127
REMARK INTER + INTRA:         -10.051
REMARK INTER:                  -8.361
REMARK INTRA:                  -1.691
REMARK UNBOUND:                -0.966
REMARK SMILES O=c1c(O[C@@H]2O[C@@H](CO)[C@@H](O)[C@@H](O)[C@H]2O)c(-c2ccc(O)c(O)c2)oc2cc(O)cc(O)c12
REMARK SMILES IDX 4 1 3 2 16 3 25 4 2 5 26 6 1 7 33 8 27 9 31 10 28 11 30 12
REMARK SMILES IDX 17 13 18 14 19 15 20 16 24 17 22 18 21 19 23 21 32 23 29 25
REMARK SMILES IDX 5 27 14 28 6 29 12 30 7 31 10 32 15 33 13 35 8 37 9 38 11 40
REMARK H PARENT 21 20 23 22 32 24 29 26 15 34 13 36 9 39 11 41
REMARK Flexibility Score: inf
ROOT
ATOM      1  O   UNL     1     -39.073   6.677  81.278  1.00  0.00    -0.454 OA
ENDROOT
BRANCH   1   2
ATOM      2  C   UNL     1     -37.771   7.168  81.050  1.00  0.00     0.214 A 
ATOM      3  C   UNL     1     -37.452   7.808  79.828  1.00  0.00     0.180 A 
ATOM      4  O   UNL     1     -36.188   8.149  79.603  1.00  0.00    -0.452 OA
ATOM      5  C   UNL     1     -36.765   7.057  82.037  1.00  0.00     0.239 A 
ATOM      6  C   UNL     1     -35.196   7.982  80.466  1.00  0.00     0.146 A 
ATOM      7  O   UNL     1     -37.082   6.641  83.177  1.00  0.00    -0.285 OA
ATOM      8  C   UNL     1     -35.436   7.437  81.752  1.00  0.00     0.111 A 
ATOM      9  C   UNL     1     -33.912   8.381  80.091  1.00  0.00     0.094 A 
ATOM     10  C   UNL     1     -34.333   7.330  82.661  1.00  0.00     0.134 A 
ATOM     11  C   UNL     1     -32.848   8.272  80.975  1.00  0.00     0.123 A 
ATOM     12  C   UNL     1     -33.062   7.755  82.255  1.00  0.00     0.093 A 
BRANCH   3  13
ATOM     13  C   UNL     1     -38.435   8.156  78.748  1.00  0.00     0.025 A 
ATOM     14  C   UNL     1     -39.423   9.111  79.052  1.00  0.00     0.016 A 
ATOM     15  C   UNL     1     -40.301   9.572  78.069  1.00  0.00     0.051 A 
ATOM     16  C   UNL     1     -40.224   9.085  76.761  1.00  0.00     0.157 A 
ATOM     17  C   UNL     1     -38.411   7.614  77.439  1.00  0.00     0.062 A 
ATOM     18  C   UNL     1     -39.298   8.076  76.457  1.00  0.00     0.158 A 
BRANCH  16  19
ATOM     19  O   UNL     1     -41.080   9.603  75.786  1.00  0.00    -0.504 OA
ATOM     20  H   UNL     1     -41.343  10.584  75.774  1.00  0.00     0.293 HD
ENDBRANCH  16  19
BRANCH  18  21
ATOM     21  O   UNL     1     -39.250   7.546  75.169  1.00  0.00    -0.504 OA
ATOM     22  H   UNL     1     -38.472   7.745  74.541  1.00  0.00     0.293 HD
ENDBRANCH  18  21
ENDBRANCH   3  13
BRANCH  10  23
ATOM     23  O   UNL     1     -34.411   6.813  83.960  1.00  0.00    -0.507 OA
ATOM     24  H   UNL     1     -35.254   6.589  84.466  1.00  0.00     0.293 HD
ENDBRANCH  10  23
BRANCH  11  25
ATOM     25  O   UNL     1     -31.576   8.676  80.566  1.00  0.00    -0.508 OA
ATOM     26  H   UNL     1     -31.338   9.667  80.505  1.00  0.00     0.293 HD
ENDBRANCH  11  25
ENDBRANCH   1   2
BRANCH   1  27
ATOM     27  C   UNL     1     -39.587   5.421  80.790  1.00  0.00     0.339 C 
ATOM     28  C   UNL     1     -40.155   4.562  81.942  1.00  0.00     0.214 C 
ATOM     29  O   UNL     1     -40.575   5.671  79.803  1.00  0.00    -0.332 OA
ATOM     30  C   UNL     1     -40.658   3.217  81.384  1.00  0.00     0.180 C 
ATOM     31  C   UNL     1     -41.042   4.484  79.176  1.00  0.00     0.179 C 
ATOM     32  C   UNL     1     -41.620   3.474  80.205  1.00  0.00     0.177 C 
BRANCH  28  33
ATOM     33  O   UNL     1     -39.147   4.334  82.891  1.00  0.00    -0.384 OA
ATOM     34  H   UNL     1     -38.559   3.614  82.556  1.00  0.00     0.211 HD
ENDBRANCH  28  33
BRANCH  30  35
ATOM     35  O   UNL     1     -39.575   2.415  80.981  1.00  0.00    -0.387 OA
ATOM     36  H   UNL     1     -39.551   1.631  81.593  1.00  0.00     0.211 HD
ENDBRANCH  30  35
BRANCH  31  37
ATOM     37  C   UNL     1     -40.020   3.906  78.164  1.00  0.00     0.191 C 
BRANCH  37  38
ATOM     38  O   UNL     1     -40.643   3.166  77.141  1.00  0.00    -0.394 OA
ATOM     39  H   UNL     1     -40.161   2.307  77.037  1.00  0.00     0.210 HD
ENDBRANCH  37  38
ENDBRANCH  31  37
BRANCH  32  40
ATOM     40  O   UNL     1     -42.037   2.282  79.592  1.00  0.00    -0.387 OA
ATOM     41  H   UNL     1     -41.309   1.958  79.007  1.00  0.00     0.211 HD
ENDBRANCH  32  40
ENDBRANCH   1  27
TORSDOF 12
ENDMDL
MODEL 9
REMARK VINA RESULT:    -6.065      2.681      4.796
REMARK INTER + INTRA:          -9.867
REMARK INTER:                  -8.607
REMARK INTRA:                  -1.260
REMARK UNBOUND:                -0.966
REMARK SMILES O=c1c(O[C@@H]2O[C@@H](CO)[C@@H](O)[C@@H](O)[C@H]2O)c(-c2ccc(O)c(O)c2)oc2cc(O)cc(O)c12
REMARK SMILES IDX 4 1 3 2 16 3 25 4 2 5 26 6 1 7 33 8 27 9 31 10 28 11 30 12
REMARK SMILES IDX 17 13 18 14 19 15 20 16 24 17 22 18 21 19 23 21 32 23 29 25
REMARK SMILES IDX 5 27 14 28 6 29 12 30 7 31 10 32 15 33 13 35 8 37 9 38 11 40
REMARK H PARENT 21 20 23 22 32 24 29 26 15 34 13 36 9 39 11 41
REMARK Flexibility Score: inf
ROOT
ATOM      1  O   UNL     1     -37.448   7.766  80.576  1.00  0.00    -0.454 OA
ENDROOT
BRANCH   1   2
ATOM      2  C   UNL     1     -38.268   6.644  80.821  1.00  0.00     0.214 A 
ATOM      3  C   UNL     1     -39.399   6.395  80.007  1.00  0.00     0.180 A 
ATOM      4  O   UNL     1     -40.213   5.399  80.343  1.00  0.00    -0.452 OA
ATOM      5  C   UNL     1     -37.971   5.736  81.862  1.00  0.00     0.239 A 
ATOM      6  C   UNL     1     -40.019   4.577  81.364  1.00  0.00     0.146 A 
ATOM      7  O   UNL     1     -36.886   5.859  82.479  1.00  0.00    -0.285 OA
ATOM      8  C   UNL     1     -38.865   4.690  82.178  1.00  0.00     0.111 A 
ATOM      9  C   UNL     1     -40.964   3.578  81.603  1.00  0.00     0.094 A 
ATOM     10  C   UNL     1     -38.683   3.739  83.235  1.00  0.00     0.134 A 
ATOM     11  C   UNL     1     -40.784   2.662  82.631  1.00  0.00     0.123 A 
ATOM     12  C   UNL     1     -39.645   2.741  83.436  1.00  0.00     0.093 A 
BRANCH   3  13
ATOM     13  C   UNL     1     -39.762   7.159  78.766  1.00  0.00     0.025 A 
ATOM     14  C   UNL     1     -40.752   8.154  78.883  1.00  0.00     0.016 A 
ATOM     15  C   UNL     1     -41.063   8.984  77.805  1.00  0.00     0.051 A 
ATOM     16  C   UNL     1     -40.405   8.836  76.579  1.00  0.00     0.157 A 
ATOM     17  C   UNL     1     -39.154   6.967  77.502  1.00  0.00     0.062 A 
ATOM     18  C   UNL     1     -39.474   7.800  76.421  1.00  0.00     0.158 A 
BRANCH  16  19
ATOM     19  O   UNL     1     -40.700   9.715  75.535  1.00  0.00    -0.504 OA
ATOM     20  H   UNL     1     -40.349   9.562  74.594  1.00  0.00     0.293 HD
ENDBRANCH  16  19
BRANCH  18  21
ATOM     21  O   UNL     1     -38.852   7.611  75.188  1.00  0.00    -0.504 OA
ATOM     22  H   UNL     1     -38.087   8.211  74.880  1.00  0.00     0.293 HD
ENDBRANCH  18  21
ENDBRANCH   3  13
BRANCH  10  23
ATOM     23  O   UNL     1     -37.600   3.721  84.122  1.00  0.00    -0.507 OA
ATOM     24  H   UNL     1     -37.604   3.364  85.064  1.00  0.00     0.293 HD
ENDBRANCH  10  23
BRANCH  11  25
ATOM     25  O   UNL     1     -41.750   1.678  82.846  1.00  0.00    -0.508 OA
ATOM     26  H   UNL     1     -42.602   1.888  83.370  1.00  0.00     0.293 HD
ENDBRANCH  11  25
ENDBRANCH   1   2
BRANCH   1  27
ATOM     27  C   UNL     1     -36.177   7.736  79.896  1.00  0.00     0.339 C 
ATOM     28  C   UNL     1     -35.023   8.127  80.847  1.00  0.00     0.214 C 
ATOM     29  O   UNL     1     -35.971   6.445  79.345  1.00  0.00    -0.332 OA
ATOM     30  C   UNL     1     -33.691   8.118  80.073  1.00  0.00     0.180 C 
ATOM     31  C   UNL     1     -34.799   6.366  78.546  1.00  0.00     0.179 C 
ATOM     32  C   UNL     1     -33.527   6.769  79.340  1.00  0.00     0.177 C 
BRANCH  28  33
ATOM     33  O   UNL     1     -35.262   9.408  81.364  1.00  0.00    -0.384 OA
ATOM     34  H   UNL     1     -35.842   9.321  82.160  1.00  0.00     0.211 HD
ENDBRANCH  28  33
BRANCH  30  35
ATOM     35  O   UNL     1     -33.643   9.190  79.164  1.00  0.00    -0.387 OA
ATOM     36  H   UNL     1     -33.768   8.806  78.255  1.00  0.00     0.211 HD
ENDBRANCH  30  35
BRANCH  31  37
ATOM     37  C   UNL     1     -34.974   7.049  77.164  1.00  0.00     0.191 C 
BRANCH  37  38
ATOM     38  O   UNL     1     -33.873   7.859  76.826  1.00  0.00    -0.394 OA
ATOM     39  H   UNL     1     -34.213   8.697  76.422  1.00  0.00     0.210 HD
ENDBRANCH  37  38
ENDBRANCH  31  37
BRANCH  32  40
ATOM     40  O   UNL     1     -32.375   6.739  78.539  1.00  0.00    -0.387 OA
ATOM     41  H   UNL     1     -32.606   7.090  77.644  1.00  0.00     0.211 HD
ENDBRANCH  32  40
ENDBRANCH   1  27
TORSDOF 12
ENDMDL
