MODEL 1
REMARK VINA RESULT:    -4.238      0.000      0.000
REMARK INTER + INTRA:          -5.108
REMARK INTER:                  -4.981
REMARK INTRA:                  -0.128
REMARK UNBOUND:                -0.128
REMARK SMILES O=C([O-])C=Cc1ccc(O)c(O)c1
REMARK SMILES IDX 6 1 13 2 7 3 11 4 8 5 9 6 5 7 4 8 2 9 1 10 3 11 12 12 10 14
REMARK H PARENT 12 13 10 15
REMARK Flexibility Score: inf
ROOT
ATOM      1  C   UNL     1      -7.173   5.818 -26.199  1.00  0.00    -0.022 A 
ATOM      2  C   UNL     1      -8.196   6.454 -25.477  1.00  0.00     0.058 A 
ATOM      3  C   UNL     1      -6.896   4.461 -25.933  1.00  0.00     0.012 A 
ATOM      4  C   UNL     1      -8.948   5.750 -24.525  1.00  0.00     0.157 A 
ATOM      5  C   UNL     1      -7.644   3.760 -24.984  1.00  0.00     0.051 A 
ATOM      6  C   UNL     1      -8.671   4.396 -24.280  1.00  0.00     0.157 A 
ENDROOT
BRANCH   1   7
ATOM      7  C   UNL     1      -6.401   6.612 -27.187  1.00  0.00     0.010 C 
ATOM      8  C   UNL     1      -5.593   7.629 -26.858  1.00  0.00     0.025 C 
BRANCH   8   9
ATOM      9  C   UNL     1      -4.838   8.382 -27.870  1.00  0.00     0.064 C 
ATOM     10  O   UNL     1      -4.095   9.333 -27.511  1.00  0.00    -0.545 OA
ATOM     11  O   UNL     1      -4.931   8.062 -29.220  1.00  0.00    -0.545 OA
ENDBRANCH   8   9
ENDBRANCH   1   7
BRANCH   4  12
ATOM     12  O   UNL     1      -9.966   6.393 -23.822  1.00  0.00    -0.504 OA
ATOM     13  H   UNL     1     -10.104   7.394 -23.884  1.00  0.00     0.293 HD
ENDBRANCH   4  12
BRANCH   6  14
ATOM     14  O   UNL     1      -9.400   3.667 -23.341  1.00  0.00    -0.504 OA
ATOM     15  H   UNL     1      -9.697   2.714 -23.514  1.00  0.00     0.293 HD
ENDBRANCH   6  14
TORSDOF 4
ENDMDL
MODEL 2
REMARK VINA RESULT:    -4.078     15.988     16.959
REMARK INTER + INTRA:          -4.921
REMARK INTER:                  -4.792
REMARK INTRA:                  -0.129
REMARK UNBOUND:                -0.128
REMARK SMILES O=C([O-])C=Cc1ccc(O)c(O)c1
REMARK SMILES IDX 6 1 13 2 7 3 11 4 8 5 9 6 5 7 4 8 2 9 1 10 3 11 12 12 10 14
REMARK H PARENT 12 13 10 15
REMARK Flexibility Score: inf
ROOT
ATOM      1  C   UNL     1      -9.978  -4.920 -37.709  1.00  0.00    -0.022 A 
ATOM      2  C   UNL     1     -10.226  -4.979 -36.327  1.00  0.00     0.058 A 
ATOM      3  C   UNL     1      -8.940  -5.706 -38.248  1.00  0.00     0.012 A 
ATOM      4  C   UNL     1      -9.471  -5.822 -35.499  1.00  0.00     0.157 A 
ATOM      5  C   UNL     1      -8.187  -6.545 -37.422  1.00  0.00     0.051 A 
ATOM      6  C   UNL     1      -8.449  -6.611 -36.050  1.00  0.00     0.157 A 
ENDROOT
BRANCH   1   7
ATOM      7  C   UNL     1     -10.799  -4.003 -38.538  1.00  0.00     0.010 C 
ATOM      8  C   UNL     1     -11.764  -4.416 -39.372  1.00  0.00     0.025 C 
BRANCH   8   9
ATOM      9  C   UNL     1     -12.562  -3.470 -40.167  1.00  0.00     0.064 C 
ATOM     10  O   UNL     1     -13.801  -3.652 -40.291  1.00  0.00    -0.545 OA
ATOM     11  O   UNL     1     -11.969  -2.376 -40.788  1.00  0.00    -0.545 OA
ENDBRANCH   8   9
ENDBRANCH   1   7
BRANCH   4  12
ATOM     12  O   UNL     1      -9.734  -5.878 -34.130  1.00  0.00    -0.504 OA
ATOM     13  H   UNL     1     -10.571  -5.470 -33.733  1.00  0.00     0.293 HD
ENDBRANCH   4  12
BRANCH   6  14
ATOM     14  O   UNL     1      -7.681  -7.460 -35.254  1.00  0.00    -0.504 OA
ATOM     15  H   UNL     1      -8.020  -7.820 -34.370  1.00  0.00     0.293 HD
ENDBRANCH   6  14
TORSDOF 4
ENDMDL
MODEL 3
REMARK VINA RESULT:    -4.072     12.119     13.955
REMARK INTER + INTRA:          -4.914
REMARK INTER:                  -4.772
REMARK INTRA:                  -0.142
REMARK UNBOUND:                -0.128
REMARK SMILES O=C([O-])C=Cc1ccc(O)c(O)c1
REMARK SMILES IDX 6 1 13 2 7 3 11 4 8 5 9 6 5 7 4 8 2 9 1 10 3 11 12 12 10 14
REMARK H PARENT 12 13 10 15
REMARK Flexibility Score: inf
ROOT
ATOM      1  C   UNL     1     -12.489   7.694 -37.568  1.00  0.00    -0.022 A 
ATOM      2  C   UNL     1     -13.033   7.506 -38.850  1.00  0.00     0.058 A 
ATOM      3  C   UNL     1     -11.718   8.847 -37.319  1.00  0.00     0.012 A 
ATOM      4  C   UNL     1     -12.833   8.458 -39.860  1.00  0.00     0.157 A 
ATOM      5  C   UNL     1     -11.518   9.795 -38.325  1.00  0.00     0.051 A 
ATOM      6  C   UNL     1     -12.074   9.609 -39.595  1.00  0.00     0.157 A 
ENDROOT
BRANCH   1   7
ATOM      7  C   UNL     1     -12.722   6.651 -36.538  1.00  0.00     0.010 C 
ATOM      8  C   UNL     1     -12.226   6.708 -35.294  1.00  0.00     0.025 C 
BRANCH   8   9
ATOM      9  C   UNL     1     -12.491   5.656 -34.301  1.00  0.00     0.064 C 
ATOM     10  O   UNL     1     -11.805   5.609 -33.247  1.00  0.00    -0.545 OA
ATOM     11  O   UNL     1     -13.488   4.710 -34.509  1.00  0.00    -0.545 OA
ENDBRANCH   8   9
ENDBRANCH   1   7
BRANCH   4  12
ATOM     12  O   UNL     1     -13.386   8.263 -41.125  1.00  0.00    -0.504 OA
ATOM     13  H   UNL     1     -14.379   8.363 -41.292  1.00  0.00     0.293 HD
ENDBRANCH   4  12
BRANCH   6  14
ATOM     14  O   UNL     1     -11.858  10.575 -40.577  1.00  0.00    -0.504 OA
ATOM     15  H   UNL     1     -11.230  10.418 -41.356  1.00  0.00     0.293 HD
ENDBRANCH   6  14
TORSDOF 4
ENDMDL
MODEL 4
REMARK VINA RESULT:    -4.042     14.337     15.446
REMARK INTER + INTRA:          -4.879
REMARK INTER:                  -4.750
REMARK INTRA:                  -0.129
REMARK UNBOUND:                -0.128
REMARK SMILES O=C([O-])C=Cc1ccc(O)c(O)c1
REMARK SMILES IDX 6 1 13 2 7 3 11 4 8 5 9 6 5 7 4 8 2 9 1 10 3 11 12 12 10 14
REMARK H PARENT 12 13 10 15
REMARK Flexibility Score: inf
ROOT
ATOM      1  C   UNL     1     -17.885   5.977 -35.498  1.00  0.00    -0.022 A 
ATOM      2  C   UNL     1     -16.893   6.687 -36.194  1.00  0.00     0.058 A 
ATOM      3  C   UNL     1     -18.120   4.629 -35.835  1.00  0.00     0.012 A 
ATOM      4  C   UNL     1     -16.130   6.063 -37.191  1.00  0.00     0.157 A 
ATOM      5  C   UNL     1     -17.360   4.007 -36.829  1.00  0.00     0.051 A 
ATOM      6  C   UNL     1     -16.363   4.715 -37.507  1.00  0.00     0.157 A 
ENDROOT
BRANCH   1   7
ATOM      7  C   UNL     1     -18.671   6.689 -34.459  1.00  0.00     0.010 C 
ATOM      8  C   UNL     1     -19.585   7.631 -34.732  1.00  0.00     0.025 C 
BRANCH   8   9
ATOM      9  C   UNL     1     -20.350   8.304 -33.670  1.00  0.00     0.064 C 
ATOM     10  O   UNL     1     -20.478   7.747 -32.549  1.00  0.00    -0.545 OA
ATOM     11  O   UNL     1     -20.936   9.546 -33.886  1.00  0.00    -0.545 OA
ENDBRANCH   8   9
ENDBRANCH   1   7
BRANCH   4  12
ATOM     12  O   UNL     1     -15.142   6.777 -37.868  1.00  0.00    -0.504 OA
ATOM     13  H   UNL     1     -14.158   6.624 -37.686  1.00  0.00     0.293 HD
ENDBRANCH   4  12
BRANCH   6  14
ATOM     14  O   UNL     1     -15.622   4.064 -38.493  1.00  0.00    -0.504 OA
ATOM     15  H   UNL     1     -14.634   4.242 -38.626  1.00  0.00     0.293 HD
ENDBRANCH   6  14
TORSDOF 4
ENDMDL
MODEL 5
REMARK VINA RESULT:    -4.035     16.544     17.653
REMARK INTER + INTRA:          -4.871
REMARK INTER:                  -4.744
REMARK INTRA:                  -0.126
REMARK UNBOUND:                -0.128
REMARK SMILES O=C([O-])C=Cc1ccc(O)c(O)c1
REMARK SMILES IDX 6 1 13 2 7 3 11 4 8 5 9 6 5 7 4 8 2 9 1 10 3 11 12 12 10 14
REMARK H PARENT 12 13 10 15
REMARK Flexibility Score: inf
ROOT
ATOM      1  C   UNL     1     -10.828  -3.821 -38.558  1.00  0.00    -0.022 A 
ATOM      2  C   UNL     1     -11.795  -4.422 -39.381  1.00  0.00     0.058 A 
ATOM      3  C   UNL     1     -10.652  -2.424 -38.624  1.00  0.00     0.012 A 
ATOM      4  C   UNL     1     -12.590  -3.647 -40.238  1.00  0.00     0.157 A 
ATOM      5  C   UNL     1     -11.443  -1.652 -39.478  1.00  0.00     0.051 A 
ATOM      6  C   UNL     1     -12.414  -2.255 -40.284  1.00  0.00     0.157 A 
ENDROOT
BRANCH   1   7
ATOM      7  C   UNL     1     -10.007  -4.689 -37.677  1.00  0.00     0.010 C 
ATOM      8  C   UNL     1      -9.219  -5.674 -38.128  1.00  0.00     0.025 C 
BRANCH   8   9
ATOM      9  C   UNL     1      -8.412  -6.503 -37.219  1.00  0.00     0.064 C 
ATOM     10  O   UNL     1      -8.494  -7.757 -37.285  1.00  0.00    -0.545 OA
ATOM     11  O   UNL     1      -7.559  -5.923 -36.286  1.00  0.00    -0.545 OA
ENDBRANCH   8   9
ENDBRANCH   1   7
BRANCH   4  12
ATOM     12  O   UNL     1     -13.551  -4.256 -41.043  1.00  0.00    -0.504 OA
ATOM     13  H   UNL     1     -14.293  -3.723 -41.480  1.00  0.00     0.293 HD
ENDBRANCH   4  12
BRANCH   6  14
ATOM     14  O   UNL     1     -13.188  -1.456 -41.124  1.00  0.00    -0.504 OA
ATOM     15  H   UNL     1     -12.793  -0.976 -41.924  1.00  0.00     0.293 HD
ENDBRANCH   6  14
TORSDOF 4
ENDMDL
MODEL 6
REMARK VINA RESULT:    -3.833     13.167     14.748
REMARK INTER + INTRA:          -4.633
REMARK INTER:                  -4.506
REMARK INTRA:                  -0.127
REMARK UNBOUND:                -0.128
REMARK SMILES O=C([O-])C=Cc1ccc(O)c(O)c1
REMARK SMILES IDX 6 1 13 2 7 3 11 4 8 5 9 6 5 7 4 8 2 9 1 10 3 11 12 12 10 14
REMARK H PARENT 12 13 10 15
REMARK Flexibility Score: inf
ROOT
ATOM      1  C   UNL     1     -14.656   6.198 -36.722  1.00  0.00    -0.022 A 
ATOM      2  C   UNL     1     -14.845   6.158 -38.113  1.00  0.00     0.058 A 
ATOM      3  C   UNL     1     -13.404   6.605 -36.217  1.00  0.00     0.012 A 
ATOM      4  C   UNL     1     -13.817   6.538 -38.988  1.00  0.00     0.157 A 
ATOM      5  C   UNL     1     -12.380   6.983 -37.089  1.00  0.00     0.051 A 
ATOM      6  C   UNL     1     -12.580   6.955 -38.473  1.00  0.00     0.157 A 
ENDROOT
BRANCH   1   7
ATOM      7  C   UNL     1     -15.773   5.776 -35.840  1.00  0.00     0.010 C 
ATOM      8  C   UNL     1     -17.005   6.300 -35.897  1.00  0.00     0.025 C 
BRANCH   8   9
ATOM      9  C   UNL     1     -18.086   5.842 -35.011  1.00  0.00     0.064 C 
ATOM     10  O   UNL     1     -18.669   6.670 -34.263  1.00  0.00    -0.545 OA
ATOM     11  O   UNL     1     -18.476   4.508 -34.985  1.00  0.00    -0.545 OA
ENDBRANCH   8   9
ENDBRANCH   1   7
BRANCH   4  12
ATOM     12  O   UNL     1     -14.022   6.500 -40.367  1.00  0.00    -0.504 OA
ATOM     13  H   UNL     1     -13.361   6.052 -40.990  1.00  0.00     0.293 HD
ENDBRANCH   4  12
BRANCH   6  14
ATOM     14  O   UNL     1     -11.538   7.340 -39.316  1.00  0.00    -0.504 OA
ATOM     15  H   UNL     1     -11.698   7.888 -40.152  1.00  0.00     0.293 HD
ENDBRANCH   6  14
TORSDOF 4
ENDMDL
MODEL 7
REMARK VINA RESULT:    -3.769     13.917     15.443
REMARK INTER + INTRA:          -4.558
REMARK INTER:                  -4.432
REMARK INTRA:                  -0.126
REMARK UNBOUND:                -0.128
REMARK SMILES O=C([O-])C=Cc1ccc(O)c(O)c1
REMARK SMILES IDX 6 1 13 2 7 3 11 4 8 5 9 6 5 7 4 8 2 9 1 10 3 11 12 12 10 14
REMARK H PARENT 12 13 10 15
REMARK Flexibility Score: inf
ROOT
ATOM      1  C   UNL     1     -12.044   5.656 -39.993  1.00  0.00    -0.022 A 
ATOM      2  C   UNL     1     -12.122   6.259 -38.727  1.00  0.00     0.058 A 
ATOM      3  C   UNL     1     -12.437   6.398 -41.125  1.00  0.00     0.012 A 
ATOM      4  C   UNL     1     -12.562   7.584 -38.589  1.00  0.00     0.157 A 
ATOM      5  C   UNL     1     -12.876   7.717 -40.988  1.00  0.00     0.051 A 
ATOM      6  C   UNL     1     -12.938   8.316 -39.726  1.00  0.00     0.157 A 
ENDROOT
BRANCH   1   7
ATOM      7  C   UNL     1     -11.582   4.248 -40.082  1.00  0.00     0.010 C 
ATOM      8  C   UNL     1     -12.270   3.206 -39.595  1.00  0.00     0.025 C 
BRANCH   8   9
ATOM      9  C   UNL     1     -11.779   1.825 -39.715  1.00  0.00     0.064 C 
ATOM     10  O   UNL     1     -12.206   1.093 -40.645  1.00  0.00    -0.545 OA
ATOM     11  O   UNL     1     -10.851   1.313 -38.815  1.00  0.00    -0.545 OA
ENDBRANCH   8   9
ENDBRANCH   1   7
BRANCH   4  12
ATOM     12  O   UNL     1     -12.627   8.172 -37.327  1.00  0.00    -0.504 OA
ATOM     13  H   UNL     1     -12.065   8.980 -37.088  1.00  0.00     0.293 HD
ENDBRANCH   4  12
BRANCH   6  14
ATOM     14  O   UNL     1     -13.379   9.635 -39.624  1.00  0.00    -0.504 OA
ATOM     15  H   UNL     1     -14.278   9.930 -39.984  1.00  0.00     0.293 HD
ENDBRANCH   6  14
TORSDOF 4
ENDMDL
MODEL 8
REMARK VINA RESULT:    -3.767     11.984     14.654
REMARK INTER + INTRA:          -4.556
REMARK INTER:                  -4.430
REMARK INTRA:                  -0.126
REMARK UNBOUND:                -0.128
REMARK SMILES O=C([O-])C=Cc1ccc(O)c(O)c1
REMARK SMILES IDX 6 1 13 2 7 3 11 4 8 5 9 6 5 7 4 8 2 9 1 10 3 11 12 12 10 14
REMARK H PARENT 12 13 10 15
REMARK Flexibility Score: inf
ROOT
ATOM      1  C   UNL     1     -15.252  -5.375 -24.649  1.00  0.00    -0.022 A 
ATOM      2  C   UNL     1     -14.890  -5.612 -25.986  1.00  0.00     0.058 A 
ATOM      3  C   UNL     1     -16.388  -6.027 -24.127  1.00  0.00     0.012 A 
ATOM      4  C   UNL     1     -15.627  -6.499 -26.783  1.00  0.00     0.157 A 
ATOM      5  C   UNL     1     -17.123  -6.910 -24.922  1.00  0.00     0.051 A 
ATOM      6  C   UNL     1     -16.748  -7.153 -26.246  1.00  0.00     0.157 A 
ENDROOT
BRANCH   1   7
ATOM      7  C   UNL     1     -14.443  -4.418 -23.853  1.00  0.00     0.010 C 
ATOM      8  C   UNL     1     -13.384  -4.774 -23.114  1.00  0.00     0.025 C 
BRANCH   8   9
ATOM      9  C   UNL     1     -12.603  -3.790 -22.348  1.00  0.00     0.064 C 
ATOM     10  O   UNL     1     -12.590  -2.586 -22.715  1.00  0.00    -0.545 OA
ATOM     11  O   UNL     1     -11.876  -4.169 -21.225  1.00  0.00    -0.545 OA
ENDBRANCH   8   9
ENDBRANCH   1   7
BRANCH   4  12
ATOM     12  O   UNL     1     -15.251  -6.731 -28.105  1.00  0.00    -0.504 OA
ATOM     13  H   UNL     1     -15.812  -6.405 -28.882  1.00  0.00     0.293 HD
ENDBRANCH   4  12
BRANCH   6  14
ATOM     14  O   UNL     1     -17.502  -8.041 -27.012  1.00  0.00    -0.504 OA
ATOM     15  H   UNL     1     -17.317  -9.037 -27.016  1.00  0.00     0.293 HD
ENDBRANCH   6  14
TORSDOF 4
ENDMDL
