MODEL 1
REMARK VINA RESULT:    -5.983      0.000      0.000
REMARK INTER + INTRA:         -15.639
REMARK INTER:                 -12.978
REMARK INTRA:                  -2.661
REMARK UNBOUND:                -2.661
REMARK SMILES CCCCCCCCCCCCCCCCCCCCCC(=O)[O-]
REMARK SMILES IDX 12 1 11 2 10 3 9 4 8 5 7 6 6 7 5 8 4 9 3 10 2 11 1 12 13 13
REMARK SMILES IDX 14 14 15 15 16 16 17 17 18 18 19 19 20 20 21 21 22 22 23 23
REMARK SMILES IDX 24 24
REMARK H PARENT
REMARK Flexibility Score: inf
ROOT
ATOM      1  C   UNL     1       9.251 -31.900  20.460  1.00  0.00     0.000 C 
ENDROOT
BRANCH   1   2
ATOM      2  C   UNL     1       8.218 -31.395  21.482  1.00  0.00     0.000 C 
BRANCH   2   3
ATOM      3  C   UNL     1       7.958 -29.885  21.354  1.00  0.00     0.000 C 
BRANCH   3   4
ATOM      4  C   UNL     1       7.617 -29.230  22.704  1.00  0.00    -0.000 C 
BRANCH   4   5
ATOM      5  C   UNL     1       6.808 -30.156  23.631  1.00  0.00    -0.000 C 
BRANCH   5   6
ATOM      6  C   UNL     1       6.816 -29.759  25.119  1.00  0.00    -0.000 C 
BRANCH   6   7
ATOM      7  C   UNL     1       5.417 -29.409  25.652  1.00  0.00    -0.000 C 
BRANCH   7   8
ATOM      8  C   UNL     1       4.317 -29.540  24.581  1.00  0.00    -0.000 C 
BRANCH   8   9
ATOM      9  C   UNL     1       2.955 -28.921  24.956  1.00  0.00    -0.000 C 
BRANCH   9  10
ATOM     10  C   UNL     1       1.854 -29.047  23.883  1.00  0.00    -0.000 C 
BRANCH  10  11
ATOM     11  C   UNL     1       0.945 -30.280  24.032  1.00  0.00    -0.003 C 
ATOM     12  C   UNL     1      -0.026 -30.449  22.861  1.00  0.00     0.004 C 
ENDBRANCH  10  11
ENDBRANCH   9  10
ENDBRANCH   8   9
ENDBRANCH   7   8
ENDBRANCH   6   7
ENDBRANCH   5   6
ENDBRANCH   4   5
ENDBRANCH   3   4
ENDBRANCH   2   3
ENDBRANCH   1   2
BRANCH   1  13
ATOM     13  C   UNL     1      10.437 -32.622  21.134  1.00  0.00     0.000 C 
BRANCH  13  14
ATOM     14  C   UNL     1      11.700 -31.753  21.265  1.00  0.00     0.000 C 
BRANCH  14  15
ATOM     15  C   UNL     1      11.465 -30.467  22.077  1.00  0.00     0.000 C 
BRANCH  15  16
ATOM     16  C   UNL     1      11.813 -30.647  23.569  1.00  0.00     0.000 C 
BRANCH  16  17
ATOM     17  C   UNL     1      10.579 -30.686  24.489  1.00  0.00     0.000 C 
BRANCH  17  18
ATOM     18  C   UNL     1      10.062 -32.114  24.733  1.00  0.00     0.000 C 
BRANCH  18  19
ATOM     19  C   UNL     1      10.865 -32.861  25.809  1.00  0.00     0.000 C 
BRANCH  19  20
ATOM     20  C   UNL     1      11.206 -34.303  25.398  1.00  0.00     0.006 C 
BRANCH  20  21
ATOM     21  C   UNL     1      11.984 -34.360  24.076  1.00  0.00     0.053 C 
BRANCH  21  22
ATOM     22  C   UNL     1      13.438 -34.059  24.272  1.00  0.00     0.041 C 
ATOM     23  O   UNL     1      14.050 -33.329  23.447  1.00  0.00    -0.550 OA
ATOM     24  O   UNL     1      14.108 -34.551  25.384  1.00  0.00    -0.550 OA
ENDBRANCH  21  22
ENDBRANCH  20  21
ENDBRANCH  19  20
ENDBRANCH  18  19
ENDBRANCH  17  18
ENDBRANCH  16  17
ENDBRANCH  15  16
ENDBRANCH  14  15
ENDBRANCH  13  14
ENDBRANCH   1  13
TORSDOF 20
ENDMDL
MODEL 2
REMARK VINA RESULT:    -5.899      4.026      8.213
REMARK INTER + INTRA:         -15.457
REMARK INTER:                 -12.426
REMARK INTRA:                  -3.031
REMARK UNBOUND:                -2.661
REMARK SMILES CCCCCCCCCCCCCCCCCCCCCC(=O)[O-]
REMARK SMILES IDX 12 1 11 2 10 3 9 4 8 5 7 6 6 7 5 8 4 9 3 10 2 11 1 12 13 13
REMARK SMILES IDX 14 14 15 15 16 16 17 17 18 18 19 19 20 20 21 21 22 22 23 23
REMARK SMILES IDX 24 24
REMARK H PARENT
REMARK Flexibility Score: inf
ROOT
ATOM      1  C   UNL     1      10.431 -31.772  20.846  1.00  0.00     0.000 C 
ENDROOT
BRANCH   1   2
ATOM      2  C   UNL     1      11.471 -32.821  21.278  1.00  0.00     0.000 C 
BRANCH   2   3
ATOM      3  C   UNL     1      12.796 -32.183  21.725  1.00  0.00     0.000 C 
BRANCH   3   4
ATOM      4  C   UNL     1      13.789 -33.217  22.284  1.00  0.00    -0.000 C 
BRANCH   4   5
ATOM      5  C   UNL     1      13.695 -33.370  23.813  1.00  0.00    -0.000 C 
BRANCH   5   6
ATOM      6  C   UNL     1      12.837 -34.553  24.300  1.00  0.00    -0.000 C 
BRANCH   6   7
ATOM      7  C   UNL     1      11.530 -34.106  24.974  1.00  0.00    -0.000 C 
BRANCH   7   8
ATOM      8  C   UNL     1      11.552 -32.628  25.407  1.00  0.00    -0.000 C 
BRANCH   8   9
ATOM      9  C   UNL     1      10.526 -31.719  24.699  1.00  0.00    -0.000 C 
BRANCH   9  10
ATOM     10  C   UNL     1      11.059 -30.341  24.258  1.00  0.00    -0.000 C 
BRANCH  10  11
ATOM     11  C   UNL     1      12.479 -30.009  24.748  1.00  0.00    -0.003 C 
ATOM     12  C   UNL     1      13.314 -29.270  23.701  1.00  0.00     0.004 C 
ENDBRANCH  10  11
ENDBRANCH   9  10
ENDBRANCH   8   9
ENDBRANCH   7   8
ENDBRANCH   6   7
ENDBRANCH   5   6
ENDBRANCH   4   5
ENDBRANCH   3   4
ENDBRANCH   2   3
ENDBRANCH   1   2
BRANCH   1  13
ATOM     13  C   UNL     1       8.983 -32.276  21.020  1.00  0.00     0.000 C 
BRANCH  13  14
ATOM     14  C   UNL     1       8.011 -31.206  21.547  1.00  0.00     0.000 C 
BRANCH  14  15
ATOM     15  C   UNL     1       6.833 -31.800  22.338  1.00  0.00     0.000 C 
BRANCH  15  16
ATOM     16  C   UNL     1       6.733 -31.216  23.763  1.00  0.00     0.000 C 
BRANCH  16  17
ATOM     17  C   UNL     1       7.420 -29.847  23.916  1.00  0.00     0.000 C 
BRANCH  17  18
ATOM     18  C   UNL     1       6.918 -29.060  25.138  1.00  0.00     0.000 C 
BRANCH  18  19
ATOM     19  C   UNL     1       5.717 -29.730  25.824  1.00  0.00     0.000 C 
BRANCH  19  20
ATOM     20  C   UNL     1       4.391 -29.005  25.537  1.00  0.00     0.006 C 
BRANCH  20  21
ATOM     21  C   UNL     1       3.767 -29.445  24.205  1.00  0.00     0.053 C 
BRANCH  21  22
ATOM     22  C   UNL     1       2.314 -29.090  24.127  1.00  0.00     0.041 C 
ATOM     23  O   UNL     1       1.554 -29.314  25.107  1.00  0.00    -0.550 OA
ATOM     24  O   UNL     1       1.806 -28.478  22.989  1.00  0.00    -0.550 OA
ENDBRANCH  21  22
ENDBRANCH  20  21
ENDBRANCH  19  20
ENDBRANCH  18  19
ENDBRANCH  17  18
ENDBRANCH  16  17
ENDBRANCH  15  16
ENDBRANCH  14  15
ENDBRANCH  13  14
ENDBRANCH   1  13
TORSDOF 20
ENDMDL
MODEL 3
REMARK VINA RESULT:    -5.878      2.690      7.024
REMARK INTER + INTRA:         -15.411
REMARK INTER:                 -11.957
REMARK INTRA:                  -3.454
REMARK UNBOUND:                -2.661
REMARK SMILES CCCCCCCCCCCCCCCCCCCCCC(=O)[O-]
REMARK SMILES IDX 12 1 11 2 10 3 9 4 8 5 7 6 6 7 5 8 4 9 3 10 2 11 1 12 13 13
REMARK SMILES IDX 14 14 15 15 16 16 17 17 18 18 19 19 20 20 21 21 22 22 23 23
REMARK SMILES IDX 24 24
REMARK H PARENT
REMARK Flexibility Score: inf
ROOT
ATOM      1  C   UNL     1       6.814 -31.477  22.768  1.00  0.00     0.000 C 
ENDROOT
BRANCH   1   2
ATOM      2  C   UNL     1       7.569 -30.785  21.620  1.00  0.00     0.000 C 
BRANCH   2   3
ATOM      3  C   UNL     1       8.748 -29.937  22.122  1.00  0.00     0.000 C 
BRANCH   3   4
ATOM      4  C   UNL     1      10.097 -30.405  21.547  1.00  0.00    -0.000 C 
BRANCH   4   5
ATOM      5  C   UNL     1       9.987 -31.726  20.764  1.00  0.00    -0.000 C 
BRANCH   5   6
ATOM      6  C   UNL     1      11.227 -32.635  20.839  1.00  0.00    -0.000 C 
BRANCH   6   7
ATOM      7  C   UNL     1      12.231 -32.190  21.914  1.00  0.00    -0.000 C 
BRANCH   7   8
ATOM      8  C   UNL     1      12.760 -33.361  22.764  1.00  0.00    -0.000 C 
BRANCH   8   9
ATOM      9  C   UNL     1      11.675 -34.243  23.417  1.00  0.00    -0.000 C 
BRANCH   9  10
ATOM     10  C   UNL     1      12.199 -35.331  24.375  1.00  0.00    -0.000 C 
BRANCH  10  11
ATOM     11  C   UNL     1      13.612 -35.079  24.931  1.00  0.00    -0.003 C 
ATOM     12  C   UNL     1      14.592 -36.207  24.603  1.00  0.00     0.004 C 
ENDBRANCH  10  11
ENDBRANCH   9  10
ENDBRANCH   8   9
ENDBRANCH   7   8
ENDBRANCH   6   7
ENDBRANCH   5   6
ENDBRANCH   4   5
ENDBRANCH   3   4
ENDBRANCH   2   3
ENDBRANCH   1   2
BRANCH   1  13
ATOM     13  C   UNL     1       5.957 -30.488  23.587  1.00  0.00     0.000 C 
BRANCH  13  14
ATOM     14  C   UNL     1       6.290 -30.473  25.089  1.00  0.00     0.000 C 
BRANCH  14  15
ATOM     15  C   UNL     1       7.126 -29.251  25.508  1.00  0.00     0.000 C 
BRANCH  15  16
ATOM     16  C   UNL     1       8.576 -29.633  25.872  1.00  0.00     0.000 C 
BRANCH  16  17
ATOM     17  C   UNL     1       8.811 -31.152  25.950  1.00  0.00     0.000 C 
BRANCH  17  18
ATOM     18  C   UNL     1      10.011 -31.615  25.107  1.00  0.00     0.000 C 
BRANCH  18  19
ATOM     19  C   UNL     1      11.207 -32.054  25.965  1.00  0.00     0.000 C 
BRANCH  19  20
ATOM     20  C   UNL     1      12.481 -31.246  25.663  1.00  0.00     0.006 C 
BRANCH  20  21
ATOM     21  C   UNL     1      12.186 -29.986  24.839  1.00  0.00     0.053 C 
BRANCH  21  22
ATOM     22  C   UNL     1      13.398 -29.119  24.693  1.00  0.00     0.041 C 
ATOM     23  O   UNL     1      13.868 -28.513  25.693  1.00  0.00    -0.550 OA
ATOM     24  O   UNL     1      14.033 -29.010  23.462  1.00  0.00    -0.550 OA
ENDBRANCH  21  22
ENDBRANCH  20  21
ENDBRANCH  19  20
ENDBRANCH  18  19
ENDBRANCH  17  18
ENDBRANCH  16  17
ENDBRANCH  15  16
ENDBRANCH  14  15
ENDBRANCH  13  14
ENDBRANCH   1  13
TORSDOF 20
ENDMDL
MODEL 4
REMARK VINA RESULT:    -5.868      4.184      8.795
REMARK INTER + INTRA:         -15.390
REMARK INTER:                 -12.914
REMARK INTRA:                  -2.476
REMARK UNBOUND:                -2.661
REMARK SMILES CCCCCCCCCCCCCCCCCCCCCC(=O)[O-]
REMARK SMILES IDX 12 1 11 2 10 3 9 4 8 5 7 6 6 7 5 8 4 9 3 10 2 11 1 12 13 13
REMARK SMILES IDX 14 14 15 15 16 16 17 17 18 18 19 19 20 20 21 21 22 22 23 23
REMARK SMILES IDX 24 24
REMARK H PARENT
REMARK Flexibility Score: inf
ROOT
ATOM      1  C   UNL     1       8.756 -32.061  20.693  1.00  0.00     0.000 C 
ENDROOT
BRANCH   1   2
ATOM      2  C   UNL     1      10.177 -32.568  20.998  1.00  0.00     0.000 C 
BRANCH   2   3
ATOM      3  C   UNL     1      11.135 -31.429  21.382  1.00  0.00     0.000 C 
BRANCH   3   4
ATOM      4  C   UNL     1      12.104 -31.828  22.510  1.00  0.00    -0.000 C 
BRANCH   4   5
ATOM      5  C   UNL     1      12.101 -30.830  23.682  1.00  0.00    -0.000 C 
BRANCH   5   6
ATOM      6  C   UNL     1      10.886 -30.931  24.622  1.00  0.00    -0.000 C 
BRANCH   6   7
ATOM      7  C   UNL     1      10.289 -32.346  24.680  1.00  0.00    -0.000 C 
BRANCH   7   8
ATOM      8  C   UNL     1      10.722 -33.130  25.934  1.00  0.00    -0.000 C 
BRANCH   8   9
ATOM      9  C   UNL     1      11.044 -34.620  25.701  1.00  0.00    -0.000 C 
BRANCH   9  10
ATOM     10  C   UNL     1      11.815 -34.933  24.403  1.00  0.00    -0.000 C 
BRANCH  10  11
ATOM     11  C   UNL     1      13.294 -35.308  24.603  1.00  0.00    -0.003 C 
ATOM     12  C   UNL     1      14.230 -34.099  24.536  1.00  0.00     0.004 C 
ENDBRANCH  10  11
ENDBRANCH   9  10
ENDBRANCH   8   9
ENDBRANCH   7   8
ENDBRANCH   6   7
ENDBRANCH   5   6
ENDBRANCH   4   5
ENDBRANCH   3   4
ENDBRANCH   2   3
ENDBRANCH   1   2
BRANCH   1  13
ATOM     13  C   UNL     1       8.042 -31.528  21.952  1.00  0.00     0.000 C 
BRANCH  13  14
ATOM     14  C   UNL     1       7.799 -30.008  21.932  1.00  0.00     0.000 C 
BRANCH  14  15
ATOM     15  C   UNL     1       7.734 -29.391  23.340  1.00  0.00     0.000 C 
BRANCH  15  16
ATOM     16  C   UNL     1       6.916 -30.257  24.321  1.00  0.00     0.000 C 
BRANCH  16  17
ATOM     17  C   UNL     1       5.394 -30.069  24.186  1.00  0.00     0.000 C 
BRANCH  17  18
ATOM     18  C   UNL     1       4.771 -29.355  25.397  1.00  0.00     0.000 C 
BRANCH  18  19
ATOM     19  C   UNL     1       3.334 -28.879  25.133  1.00  0.00     0.000 C 
BRANCH  19  20
ATOM     20  C   UNL     1       2.836 -29.254  23.726  1.00  0.00     0.006 C 
BRANCH  20  21
ATOM     21  C   UNL     1       1.348 -28.932  23.534  1.00  0.00     0.053 C 
BRANCH  21  22
ATOM     22  C   UNL     1       0.472 -30.074  23.948  1.00  0.00     0.041 C 
ATOM     23  O   UNL     1       0.199 -30.992  23.129  1.00  0.00    -0.550 OA
ATOM     24  O   UNL     1      -0.010 -30.147  25.249  1.00  0.00    -0.550 OA
ENDBRANCH  21  22
ENDBRANCH  20  21
ENDBRANCH  19  20
ENDBRANCH  18  19
ENDBRANCH  17  18
ENDBRANCH  16  17
ENDBRANCH  15  16
ENDBRANCH  14  15
ENDBRANCH  13  14
ENDBRANCH   1  13
TORSDOF 20
ENDMDL
MODEL 5
REMARK VINA RESULT:    -5.777      2.698      7.661
REMARK INTER + INTRA:         -15.191
REMARK INTER:                 -12.244
REMARK INTRA:                  -2.948
REMARK UNBOUND:                -2.661
REMARK SMILES CCCCCCCCCCCCCCCCCCCCCC(=O)[O-]
REMARK SMILES IDX 12 1 11 2 10 3 9 4 8 5 7 6 6 7 5 8 4 9 3 10 2 11 1 12 13 13
REMARK SMILES IDX 14 14 15 15 16 16 17 17 18 18 19 19 20 20 21 21 22 22 23 23
REMARK SMILES IDX 24 24
REMARK H PARENT
REMARK Flexibility Score: inf
ROOT
ATOM      1  C   UNL     1       9.797 -32.518  25.228  1.00  0.00     0.000 C 
ENDROOT
BRANCH   1   2
ATOM      2  C   UNL     1      10.939 -33.146  26.045  1.00  0.00     0.000 C 
BRANCH   2   3
ATOM      3  C   UNL     1      10.994 -34.675  25.895  1.00  0.00     0.000 C 
BRANCH   3   4
ATOM      4  C   UNL     1      11.754 -35.116  24.631  1.00  0.00    -0.000 C 
BRANCH   4   5
ATOM      5  C   UNL     1      13.270 -35.257  24.864  1.00  0.00    -0.000 C 
BRANCH   5   6
ATOM      6  C   UNL     1      14.109 -34.029  24.466  1.00  0.00    -0.000 C 
BRANCH   6   7
ATOM      7  C   UNL     1      13.804 -33.531  23.044  1.00  0.00    -0.000 C 
BRANCH   7   8
ATOM      8  C   UNL     1      13.957 -32.005  22.897  1.00  0.00    -0.000 C 
BRANCH   8   9
ATOM      9  C   UNL     1      12.933 -31.161  23.685  1.00  0.00    -0.000 C 
BRANCH   9  10
ATOM     10  C   UNL     1      12.780 -29.701  23.214  1.00  0.00    -0.000 C 
BRANCH  10  11
ATOM     11  C   UNL     1      13.775 -28.711  23.843  1.00  0.00    -0.003 C 
ATOM     12  C   UNL     1      13.787 -28.767  25.372  1.00  0.00     0.004 C 
ENDBRANCH  10  11
ENDBRANCH   9  10
ENDBRANCH   8   9
ENDBRANCH   7   8
ENDBRANCH   6   7
ENDBRANCH   5   6
ENDBRANCH   4   5
ENDBRANCH   3   4
ENDBRANCH   2   3
ENDBRANCH   1   2
BRANCH   1  13
ATOM     13  C   UNL     1       9.746 -30.983  25.376  1.00  0.00     0.000 C 
BRANCH  13  14
ATOM     14  C   UNL     1       8.463 -30.465  26.050  1.00  0.00     0.000 C 
BRANCH  14  15
ATOM     15  C   UNL     1       7.188 -31.139  25.513  1.00  0.00     0.000 C 
BRANCH  15  16
ATOM     16  C   UNL     1       6.378 -30.205  24.589  1.00  0.00     0.000 C 
BRANCH  16  17
ATOM     17  C   UNL     1       6.642 -30.442  23.091  1.00  0.00     0.000 C 
BRANCH  17  18
ATOM     18  C   UNL     1       7.451 -29.306  22.441  1.00  0.00     0.000 C 
BRANCH  18  19
ATOM     19  C   UNL     1       8.894 -29.718  22.109  1.00  0.00     0.000 C 
BRANCH  19  20
ATOM     20  C   UNL     1       8.978 -30.654  20.892  1.00  0.00     0.006 C 
BRANCH  20  21
ATOM     21  C   UNL     1       9.067 -32.131  21.301  1.00  0.00     0.053 C 
BRANCH  21  22
ATOM     22  C   UNL     1      10.460 -32.663  21.164  1.00  0.00     0.041 C 
ATOM     23  O   UNL     1      10.735 -33.827  21.562  1.00  0.00    -0.550 OA
ATOM     24  O   UNL     1      11.446 -31.891  20.564  1.00  0.00    -0.550 OA
ENDBRANCH  21  22
ENDBRANCH  20  21
ENDBRANCH  19  20
ENDBRANCH  18  19
ENDBRANCH  17  18
ENDBRANCH  16  17
ENDBRANCH  15  16
ENDBRANCH  14  15
ENDBRANCH  13  14
ENDBRANCH   1  13
TORSDOF 20
ENDMDL
MODEL 6
REMARK VINA RESULT:    -5.775      4.345      8.809
REMARK INTER + INTRA:         -15.188
REMARK INTER:                 -12.534
REMARK INTRA:                  -2.654
REMARK UNBOUND:                -2.661
REMARK SMILES CCCCCCCCCCCCCCCCCCCCCC(=O)[O-]
REMARK SMILES IDX 12 1 11 2 10 3 9 4 8 5 7 6 6 7 5 8 4 9 3 10 2 11 1 12 13 13
REMARK SMILES IDX 14 14 15 15 16 16 17 17 18 18 19 19 20 20 21 21 22 22 23 23
REMARK SMILES IDX 24 24
REMARK H PARENT
REMARK Flexibility Score: inf
ROOT
ATOM      1  C   UNL     1       8.555 -30.991  21.253  1.00  0.00     0.000 C 
ENDROOT
BRANCH   1   2
ATOM      2  C   UNL     1       9.469 -30.063  22.072  1.00  0.00     0.000 C 
BRANCH   2   3
ATOM      3  C   UNL     1      10.932 -30.119  21.603  1.00  0.00     0.000 C 
BRANCH   3   4
ATOM      4  C   UNL     1      11.265 -31.432  20.872  1.00  0.00    -0.000 C 
BRANCH   4   5
ATOM      5  C   UNL     1      12.158 -32.370  21.705  1.00  0.00    -0.000 C 
BRANCH   5   6
ATOM      6  C   UNL     1      11.405 -33.455  22.496  1.00  0.00    -0.000 C 
BRANCH   6   7
ATOM      7  C   UNL     1      11.606 -33.336  24.015  1.00  0.00    -0.000 C 
BRANCH   7   8
ATOM      8  C   UNL     1      10.557 -32.431  24.690  1.00  0.00    -0.000 C 
BRANCH   8   9
ATOM      9  C   UNL     1      11.089 -31.077  25.203  1.00  0.00    -0.000 C 
BRANCH   9  10
ATOM     10  C   UNL     1      12.609 -30.868  25.059  1.00  0.00    -0.000 C 
BRANCH  10  11
ATOM     11  C   UNL     1      13.057 -29.397  24.991  1.00  0.00    -0.003 C 
ATOM     12  C   UNL     1      13.731 -29.039  23.665  1.00  0.00     0.004 C 
ENDBRANCH  10  11
ENDBRANCH   9  10
ENDBRANCH   8   9
ENDBRANCH   7   8
ENDBRANCH   6   7
ENDBRANCH   5   6
ENDBRANCH   4   5
ENDBRANCH   3   4
ENDBRANCH   2   3
ENDBRANCH   1   2
BRANCH   1  13
ATOM     13  C   UNL     1       7.511 -31.711  22.133  1.00  0.00     0.000 C 
BRANCH  13  14
ATOM     14  C   UNL     1       6.766 -30.778  23.103  1.00  0.00     0.000 C 
BRANCH  14  15
ATOM     15  C   UNL     1       6.967 -31.161  24.580  1.00  0.00     0.000 C 
BRANCH  15  16
ATOM     16  C   UNL     1       6.614 -30.003  25.537  1.00  0.00     0.000 C 
BRANCH  16  17
ATOM     17  C   UNL     1       5.461 -29.117  25.031  1.00  0.00     0.000 C 
BRANCH  17  18
ATOM     18  C   UNL     1       4.292 -29.031  26.026  1.00  0.00     0.000 C 
BRANCH  18  19
ATOM     19  C   UNL     1       2.941 -29.389  25.388  1.00  0.00     0.000 C 
BRANCH  19  20
ATOM     20  C   UNL     1       2.499 -28.367  24.326  1.00  0.00     0.006 C 
BRANCH  20  21
ATOM     21  C   UNL     1       1.723 -29.025  23.177  1.00  0.00     0.053 C 
BRANCH  21  22
ATOM     22  C   UNL     1       0.519 -29.767  23.670  1.00  0.00     0.041 C 
ATOM     23  O   UNL     1      -0.125 -29.339  24.664  1.00  0.00    -0.550 OA
ATOM     24  O   UNL     1       0.085 -30.909  23.009  1.00  0.00    -0.550 OA
ENDBRANCH  21  22
ENDBRANCH  20  21
ENDBRANCH  19  20
ENDBRANCH  18  19
ENDBRANCH  17  18
ENDBRANCH  16  17
ENDBRANCH  15  16
ENDBRANCH  14  15
ENDBRANCH  13  14
ENDBRANCH   1  13
TORSDOF 20
ENDMDL
MODEL 7
REMARK VINA RESULT:    -5.740      1.556      2.097
REMARK INTER + INTRA:         -15.112
REMARK INTER:                 -12.605
REMARK INTRA:                  -2.507
REMARK UNBOUND:                -2.661
REMARK SMILES CCCCCCCCCCCCCCCCCCCCCC(=O)[O-]
REMARK SMILES IDX 12 1 11 2 10 3 9 4 8 5 7 6 6 7 5 8 4 9 3 10 2 11 1 12 13 13
REMARK SMILES IDX 14 14 15 15 16 16 17 17 18 18 19 19 20 20 21 21 22 22 23 23
REMARK SMILES IDX 24 24
REMARK H PARENT
REMARK Flexibility Score: inf
ROOT
ATOM      1  C   UNL     1       9.488 -31.989  20.455  1.00  0.00     0.000 C 
ENDROOT
BRANCH   1   2
ATOM      2  C   UNL     1       8.109 -32.466  20.946  1.00  0.00     0.000 C 
BRANCH   2   3
ATOM      3  C   UNL     1       7.557 -31.590  22.082  1.00  0.00     0.000 C 
BRANCH   3   4
ATOM      4  C   UNL     1       7.639 -30.087  21.760  1.00  0.00    -0.000 C 
BRANCH   4   5
ATOM      5  C   UNL     1       8.075 -29.240  22.969  1.00  0.00    -0.000 C 
BRANCH   5   6
ATOM      6  C   UNL     1       8.356 -30.036  24.257  1.00  0.00    -0.000 C 
BRANCH   6   7
ATOM      7  C   UNL     1       7.580 -29.501  25.472  1.00  0.00    -0.000 C 
BRANCH   7   8
ATOM      8  C   UNL     1       6.171 -30.112  25.601  1.00  0.00    -0.000 C 
BRANCH   8   9
ATOM      9  C   UNL     1       5.005 -29.139  25.330  1.00  0.00    -0.000 C 
BRANCH   9  10
ATOM     10  C   UNL     1       3.932 -29.652  24.349  1.00  0.00    -0.000 C 
BRANCH  10  11
ATOM     11  C   UNL     1       2.553 -28.985  24.491  1.00  0.00    -0.003 C 
ATOM     12  C   UNL     1       1.995 -28.479  23.159  1.00  0.00     0.004 C 
ENDBRANCH  10  11
ENDBRANCH   9  10
ENDBRANCH   8   9
ENDBRANCH   7   8
ENDBRANCH   6   7
ENDBRANCH   5   6
ENDBRANCH   4   5
ENDBRANCH   3   4
ENDBRANCH   2   3
ENDBRANCH   1   2
BRANCH   1  13
ATOM     13  C   UNL     1      10.645 -32.602  21.271  1.00  0.00     0.000 C 
BRANCH  13  14
ATOM     14  C   UNL     1      11.801 -31.624  21.543  1.00  0.00     0.000 C 
BRANCH  14  15
ATOM     15  C   UNL     1      11.356 -30.364  22.306  1.00  0.00     0.000 C 
BRANCH  15  16
ATOM     16  C   UNL     1      12.549 -29.469  22.701  1.00  0.00     0.000 C 
BRANCH  16  17
ATOM     17  C   UNL     1      12.974 -29.624  24.173  1.00  0.00     0.000 C 
BRANCH  17  18
ATOM     18  C   UNL     1      11.987 -30.472  24.992  1.00  0.00     0.000 C 
BRANCH  18  19
ATOM     19  C   UNL     1      12.666 -31.657  25.698  1.00  0.00     0.000 C 
BRANCH  19  20
ATOM     20  C   UNL     1      13.212 -32.701  24.709  1.00  0.00     0.006 C 
BRANCH  20  21
ATOM     21  C   UNL     1      13.212 -34.116  25.303  1.00  0.00     0.053 C 
BRANCH  21  22
ATOM     22  C   UNL     1      11.895 -34.802  25.106  1.00  0.00     0.041 C 
ATOM     23  O   UNL     1      10.977 -34.667  25.958  1.00  0.00    -0.550 OA
ATOM     24  O   UNL     1      11.668 -35.559  23.964  1.00  0.00    -0.550 OA
ENDBRANCH  21  22
ENDBRANCH  20  21
ENDBRANCH  19  20
ENDBRANCH  18  19
ENDBRANCH  17  18
ENDBRANCH  16  17
ENDBRANCH  15  16
ENDBRANCH  14  15
ENDBRANCH  13  14
ENDBRANCH   1  13
TORSDOF 20
ENDMDL
MODEL 8
REMARK VINA RESULT:    -5.721      1.709      3.012
REMARK INTER + INTRA:         -15.070
REMARK INTER:                 -12.546
REMARK INTRA:                  -2.524
REMARK UNBOUND:                -2.661
REMARK SMILES CCCCCCCCCCCCCCCCCCCCCC(=O)[O-]
REMARK SMILES IDX 12 1 11 2 10 3 9 4 8 5 7 6 6 7 5 8 4 9 3 10 2 11 1 12 13 13
REMARK SMILES IDX 14 14 15 15 16 16 17 17 18 18 19 19 20 20 21 21 22 22 23 23
REMARK SMILES IDX 24 24
REMARK H PARENT
REMARK Flexibility Score: inf
ROOT
ATOM      1  C   UNL     1      11.138 -31.961  21.257  1.00  0.00     0.000 C 
ENDROOT
BRANCH   1   2
ATOM      2  C   UNL     1       9.920 -32.884  21.077  1.00  0.00     0.000 C 
BRANCH   2   3
ATOM      3  C   UNL     1       8.621 -32.098  20.836  1.00  0.00     0.000 C 
BRANCH   3   4
ATOM      4  C   UNL     1       8.015 -31.547  22.139  1.00  0.00    -0.000 C 
BRANCH   4   5
ATOM      5  C   UNL     1       7.902 -30.011  22.143  1.00  0.00    -0.000 C 
BRANCH   5   6
ATOM      6  C   UNL     1       7.740 -29.373  23.535  1.00  0.00    -0.000 C 
BRANCH   6   7
ATOM      7  C   UNL     1       7.072 -30.313  24.551  1.00  0.00    -0.000 C 
BRANCH   7   8
ATOM      8  C   UNL     1       5.736 -29.765  25.088  1.00  0.00    -0.000 C 
BRANCH   8   9
ATOM      9  C   UNL     1       4.563 -29.794  24.086  1.00  0.00    -0.000 C 
BRANCH   9  10
ATOM     10  C   UNL     1       3.245 -29.177  24.597  1.00  0.00    -0.000 C 
BRANCH  10  11
ATOM     11  C   UNL     1       2.136 -29.053  23.537  1.00  0.00    -0.003 C 
ATOM     12  C   UNL     1       1.180 -30.248  23.532  1.00  0.00     0.004 C 
ENDBRANCH  10  11
ENDBRANCH   9  10
ENDBRANCH   8   9
ENDBRANCH   7   8
ENDBRANCH   6   7
ENDBRANCH   5   6
ENDBRANCH   4   5
ENDBRANCH   3   4
ENDBRANCH   2   3
ENDBRANCH   1   2
BRANCH   1  13
ATOM     13  C   UNL     1      12.469 -32.742  21.259  1.00  0.00     0.000 C 
BRANCH  13  14
ATOM     14  C   UNL     1      13.382 -32.412  22.453  1.00  0.00     0.000 C 
BRANCH  14  15
ATOM     15  C   UNL     1      13.985 -33.664  23.114  1.00  0.00     0.000 C 
BRANCH  15  16
ATOM     16  C   UNL     1      13.525 -33.831  24.578  1.00  0.00     0.000 C 
BRANCH  16  17
ATOM     17  C   UNL     1      12.040 -34.214  24.716  1.00  0.00     0.000 C 
BRANCH  17  18
ATOM     18  C   UNL     1      11.236 -33.196  25.542  1.00  0.00     0.000 C 
BRANCH  18  19
ATOM     19  C   UNL     1      10.492 -32.175  24.668  1.00  0.00     0.000 C 
BRANCH  19  20
ATOM     20  C   UNL     1      10.921 -30.726  24.954  1.00  0.00     0.006 C 
BRANCH  20  21
ATOM     21  C   UNL     1      12.415 -30.620  25.290  1.00  0.00     0.053 C 
BRANCH  21  22
ATOM     22  C   UNL     1      13.046 -29.421  24.652  1.00  0.00     0.041 C 
ATOM     23  O   UNL     1      13.769 -28.647  25.335  1.00  0.00    -0.550 OA
ATOM     24  O   UNL     1      12.870 -29.180  23.296  1.00  0.00    -0.550 OA
ENDBRANCH  21  22
ENDBRANCH  20  21
ENDBRANCH  19  20
ENDBRANCH  18  19
ENDBRANCH  17  18
ENDBRANCH  16  17
ENDBRANCH  15  16
ENDBRANCH  14  15
ENDBRANCH  13  14
ENDBRANCH   1  13
TORSDOF 20
ENDMDL
MODEL 9
REMARK VINA RESULT:    -5.718      1.290      1.962
REMARK INTER + INTRA:         -15.064
REMARK INTER:                 -13.051
REMARK INTRA:                  -2.013
REMARK UNBOUND:                -2.661
REMARK SMILES CCCCCCCCCCCCCCCCCCCCCC(=O)[O-]
REMARK SMILES IDX 12 1 11 2 10 3 9 4 8 5 7 6 6 7 5 8 4 9 3 10 2 11 1 12 13 13
REMARK SMILES IDX 14 14 15 15 16 16 17 17 18 18 19 19 20 20 21 21 22 22 23 23
REMARK SMILES IDX 24 24
REMARK H PARENT
REMARK Flexibility Score: inf
ROOT
ATOM      1  C   UNL     1       8.343 -31.957  21.241  1.00  0.00     0.000 C 
ENDROOT
BRANCH   1   2
ATOM      2  C   UNL     1       7.274 -31.614  22.294  1.00  0.00     0.000 C 
BRANCH   2   3
ATOM      3  C   UNL     1       7.227 -30.111  22.612  1.00  0.00     0.000 C 
BRANCH   3   4
ATOM      4  C   UNL     1       7.982 -29.759  23.907  1.00  0.00    -0.000 C 
BRANCH   4   5
ATOM      5  C   UNL     1       7.046 -29.609  25.121  1.00  0.00    -0.000 C 
BRANCH   5   6
ATOM      6  C   UNL     1       5.550 -29.813  24.822  1.00  0.00    -0.000 C 
BRANCH   6   7
ATOM      7  C   UNL     1       4.638 -29.276  25.937  1.00  0.00    -0.000 C 
BRANCH   7   8
ATOM      8  C   UNL     1       3.392 -28.549  25.396  1.00  0.00    -0.000 C 
BRANCH   8   9
ATOM      9  C   UNL     1       2.826 -29.107  24.075  1.00  0.00    -0.000 C 
BRANCH   9  10
ATOM     10  C   UNL     1       1.583 -28.376  23.528  1.00  0.00    -0.000 C 
BRANCH  10  11
ATOM     11  C   UNL     1       0.564 -29.279  22.811  1.00  0.00    -0.003 C 
ATOM     12  C   UNL     1       0.692 -30.752  23.204  1.00  0.00     0.004 C 
ENDBRANCH  10  11
ENDBRANCH   9  10
ENDBRANCH   8   9
ENDBRANCH   7   8
ENDBRANCH   6   7
ENDBRANCH   5   6
ENDBRANCH   4   5
ENDBRANCH   3   4
ENDBRANCH   2   3
ENDBRANCH   1   2
BRANCH   1  13
ATOM     13  C   UNL     1       9.661 -32.441  21.880  1.00  0.00     0.000 C 
BRANCH  13  14
ATOM     14  C   UNL     1      10.903 -31.666  21.408  1.00  0.00     0.000 C 
BRANCH  14  15
ATOM     15  C   UNL     1      10.636 -30.163  21.213  1.00  0.00     0.000 C 
BRANCH  15  16
ATOM     16  C   UNL     1      11.531 -29.289  22.117  1.00  0.00     0.000 C 
BRANCH  16  17
ATOM     17  C   UNL     1      12.703 -30.060  22.752  1.00  0.00     0.000 C 
BRANCH  17  18
ATOM     18  C   UNL     1      13.319 -29.325  23.954  1.00  0.00     0.000 C 
BRANCH  18  19
ATOM     19  C   UNL     1      12.943 -29.966  25.299  1.00  0.00     0.000 C 
BRANCH  19  20
ATOM     20  C   UNL     1      12.120 -31.255  25.131  1.00  0.00     0.006 C 
BRANCH  20  21
ATOM     21  C   UNL     1      12.911 -32.505  25.540  1.00  0.00     0.053 C 
BRANCH  21  22
ATOM     22  C   UNL     1      12.945 -33.526  24.445  1.00  0.00     0.041 C 
ATOM     23  O   UNL     1      11.876 -34.060  24.044  1.00  0.00    -0.550 OA
ATOM     24  O   UNL     1      14.149 -33.859  23.839  1.00  0.00    -0.550 OA
ENDBRANCH  21  22
ENDBRANCH  20  21
ENDBRANCH  19  20
ENDBRANCH  18  19
ENDBRANCH  17  18
ENDBRANCH  16  17
ENDBRANCH  15  16
ENDBRANCH  14  15
ENDBRANCH  13  14
ENDBRANCH   1  13
TORSDOF 20
ENDMDL
