MODEL 1
REMARK VINA RESULT:    -4.464      0.000      0.000
REMARK INTER + INTRA:          -9.340
REMARK INTER:                  -7.596
REMARK INTRA:                  -1.744
REMARK UNBOUND:                -1.744
REMARK SMILES CCCCCCCCCCCCCC(=O)[O-]
REMARK SMILES IDX 8 1 9 2 10 3 11 4 12 5 13 6 14 7 15 8 16 9 7 10 6 11 5 12
REMARK SMILES IDX 4 13 3 14 2 15 1 16
REMARK H PARENT
REMARK Flexibility Score: inf
ROOT
ATOM      1  C   UNL     1      28.875  14.666  -9.731  1.00  0.00     0.000 C 
ENDROOT
BRANCH   1   2
ATOM      2  C   UNL     1      28.663  13.188 -10.096  1.00  0.00     0.000 C 
BRANCH   2   3
ATOM      3  C   UNL     1      28.598  12.958 -11.614  1.00  0.00     0.000 C 
BRANCH   3   4
ATOM      4  C   UNL     1      27.141  12.846 -12.089  1.00  0.00     0.000 C 
BRANCH   4   5
ATOM      5  C   UNL     1      26.968  13.214 -13.575  1.00  0.00     0.006 C 
BRANCH   5   6
ATOM      6  C   UNL     1      25.522  13.536 -13.983  1.00  0.00     0.053 C 
BRANCH   6   7
ATOM      7  C   UNL     1      25.410  14.876 -14.643  1.00  0.00     0.041 C 
ATOM      8  O   UNL     1      24.475  15.659 -14.333  1.00  0.00    -0.550 OA
ATOM      9  O   UNL     1      26.358  15.272 -15.578  1.00  0.00    -0.550 OA
ENDBRANCH   6   7
ENDBRANCH   5   6
ENDBRANCH   4   5
ENDBRANCH   3   4
ENDBRANCH   2   3
ENDBRANCH   1   2
BRANCH   1  10
ATOM     10  C   UNL     1      27.769  15.211  -8.810  1.00  0.00     0.000 C 
BRANCH  10  11
ATOM     11  C   UNL     1      26.386  14.622  -9.129  1.00  0.00    -0.000 C 
BRANCH  11  12
ATOM     12  C   UNL     1      25.316  15.708  -9.337  1.00  0.00    -0.000 C 
BRANCH  12  13
ATOM     13  C   UNL     1      25.092  16.039 -10.822  1.00  0.00    -0.000 C 
BRANCH  13  14
ATOM     14  C   UNL     1      25.813  17.328 -11.255  1.00  0.00    -0.000 C 
BRANCH  14  15
ATOM     15  C   UNL     1      27.082  17.045 -12.074  1.00  0.00    -0.003 C 
ATOM     16  C   UNL     1      27.137  17.841 -13.377  1.00  0.00     0.004 C 
ENDBRANCH  14  15
ENDBRANCH  13  14
ENDBRANCH  12  13
ENDBRANCH  11  12
ENDBRANCH  10  11
ENDBRANCH   1  10
TORSDOF 12
ENDMDL
MODEL 2
REMARK VINA RESULT:    -4.364      1.790      4.221
REMARK INTER + INTRA:          -9.169
REMARK INTER:                  -7.588
REMARK INTRA:                  -1.581
REMARK UNBOUND:                -1.744
REMARK SMILES CCCCCCCCCCCCCC(=O)[O-]
REMARK SMILES IDX 8 1 9 2 10 3 11 4 12 5 13 6 14 7 15 8 16 9 7 10 6 11 5 12
REMARK SMILES IDX 4 13 3 14 2 15 1 16
REMARK H PARENT
REMARK Flexibility Score: inf
ROOT
ATOM      1  C   UNL     1      28.232  15.021  -9.870  1.00  0.00     0.000 C 
ENDROOT
BRANCH   1   2
ATOM      2  C   UNL     1      26.748  15.280  -9.569  1.00  0.00     0.000 C 
BRANCH   2   3
ATOM      3  C   UNL     1      26.076  16.167 -10.628  1.00  0.00     0.000 C 
BRANCH   3   4
ATOM      4  C   UNL     1      27.113  16.725 -11.615  1.00  0.00     0.000 C 
BRANCH   4   5
ATOM      5  C   UNL     1      26.776  18.150 -12.093  1.00  0.00     0.006 C 
BRANCH   5   6
ATOM      6  C   UNL     1      25.404  18.664 -11.631  1.00  0.00     0.053 C 
BRANCH   6   7
ATOM      7  C   UNL     1      24.623  19.269 -12.757  1.00  0.00     0.041 C 
ATOM      8  O   UNL     1      24.941  19.030 -13.950  1.00  0.00    -0.550 OA
ATOM      9  O   UNL     1      23.522  20.073 -12.486  1.00  0.00    -0.550 OA
ENDBRANCH   6   7
ENDBRANCH   5   6
ENDBRANCH   4   5
ENDBRANCH   3   4
ENDBRANCH   2   3
ENDBRANCH   1   2
BRANCH   1  10
ATOM     10  C   UNL     1      28.567  13.521  -9.953  1.00  0.00     0.000 C 
BRANCH  10  11
ATOM     11  C   UNL     1      28.666  13.015 -11.402  1.00  0.00    -0.000 C 
BRANCH  11  12
ATOM     12  C   UNL     1      27.287  12.724 -12.020  1.00  0.00    -0.000 C 
BRANCH  12  13
ATOM     13  C   UNL     1      27.262  12.957 -13.540  1.00  0.00    -0.000 C 
BRANCH  13  14
ATOM     14  C   UNL     1      25.856  13.307 -14.060  1.00  0.00    -0.000 C 
BRANCH  14  15
ATOM     15  C   UNL     1      25.760  14.755 -14.567  1.00  0.00    -0.003 C 
ATOM     16  C   UNL     1      24.573  15.512 -13.973  1.00  0.00     0.004 C 
ENDBRANCH  14  15
ENDBRANCH  13  14
ENDBRANCH  12  13
ENDBRANCH  11  12
ENDBRANCH  10  11
ENDBRANCH   1  10
TORSDOF 12
ENDMDL
MODEL 3
REMARK VINA RESULT:    -4.255      2.522      4.989
REMARK INTER + INTRA:          -8.985
REMARK INTER:                  -7.173
REMARK INTRA:                  -1.812
REMARK UNBOUND:                -1.744
REMARK SMILES CCCCCCCCCCCCCC(=O)[O-]
REMARK SMILES IDX 8 1 9 2 10 3 11 4 12 5 13 6 14 7 15 8 16 9 7 10 6 11 5 12
REMARK SMILES IDX 4 13 3 14 2 15 1 16
REMARK H PARENT
REMARK Flexibility Score: inf
ROOT
ATOM      1  C   UNL     1      24.233  17.663 -11.057  1.00  0.00     0.000 C 
ENDROOT
BRANCH   1   2
ATOM      2  C   UNL     1      24.791  17.050  -9.763  1.00  0.00     0.000 C 
BRANCH   2   3
ATOM      3  C   UNL     1      24.808  15.515  -9.796  1.00  0.00     0.000 C 
BRANCH   3   4
ATOM      4  C   UNL     1      26.178  14.972  -9.360  1.00  0.00     0.000 C 
BRANCH   4   5
ATOM      5  C   UNL     1      27.305  15.334 -10.345  1.00  0.00     0.006 C 
BRANCH   5   6
ATOM      6  C   UNL     1      28.688  14.789  -9.953  1.00  0.00     0.053 C 
BRANCH   6   7
ATOM      7  C   UNL     1      28.848  13.347 -10.325  1.00  0.00     0.041 C 
ATOM      8  O   UNL     1      29.477  13.027 -11.366  1.00  0.00    -0.550 OA
ATOM      9  O   UNL     1      28.331  12.355  -9.501  1.00  0.00    -0.550 OA
ENDBRANCH   6   7
ENDBRANCH   5   6
ENDBRANCH   4   5
ENDBRANCH   3   4
ENDBRANCH   2   3
ENDBRANCH   1   2
BRANCH   1  10
ATOM     10  C   UNL     1      25.089  18.832 -11.575  1.00  0.00     0.000 C 
BRANCH  10  11
ATOM     11  C   UNL     1      26.302  18.362 -12.395  1.00  0.00    -0.000 C 
BRANCH  11  12
ATOM     12  C   UNL     1      25.895  17.693 -13.720  1.00  0.00    -0.000 C 
BRANCH  12  13
ATOM     13  C   UNL     1      26.281  16.206 -13.773  1.00  0.00    -0.000 C 
BRANCH  13  14
ATOM     14  C   UNL     1      25.056  15.280 -13.874  1.00  0.00    -0.000 C 
BRANCH  14  15
ATOM     15  C   UNL     1      25.267  13.943 -13.147  1.00  0.00    -0.003 C 
ATOM     16  C   UNL     1      26.593  13.274 -13.510  1.00  0.00     0.004 C 
ENDBRANCH  14  15
ENDBRANCH  13  14
ENDBRANCH  12  13
ENDBRANCH  11  12
ENDBRANCH  10  11
ENDBRANCH   1  10
TORSDOF 12
ENDMDL
MODEL 4
REMARK VINA RESULT:    -4.252      1.366      4.189
REMARK INTER + INTRA:          -8.979
REMARK INTER:                  -7.439
REMARK INTRA:                  -1.540
REMARK UNBOUND:                -1.744
REMARK SMILES CCCCCCCCCCCCCC(=O)[O-]
REMARK SMILES IDX 8 1 9 2 10 3 11 4 12 5 13 6 14 7 15 8 16 9 7 10 6 11 5 12
REMARK SMILES IDX 4 13 3 14 2 15 1 16
REMARK H PARENT
REMARK Flexibility Score: inf
ROOT
ATOM      1  C   UNL     1      25.199  17.382 -10.899  1.00  0.00     0.000 C 
ENDROOT
BRANCH   1   2
ATOM      2  C   UNL     1      25.973  18.424 -11.722  1.00  0.00     0.000 C 
BRANCH   2   3
ATOM      3  C   UNL     1      27.248  17.849 -12.355  1.00  0.00     0.000 C 
BRANCH   3   4
ATOM      4  C   UNL     1      27.192  17.947 -13.888  1.00  0.00     0.000 C 
BRANCH   4   5
ATOM      5  C   UNL     1      25.803  18.362 -14.409  1.00  0.00     0.006 C 
BRANCH   5   6
ATOM      6  C   UNL     1      25.107  17.297 -15.271  1.00  0.00     0.053 C 
BRANCH   6   7
ATOM      7  C   UNL     1      24.313  16.334 -14.442  1.00  0.00     0.041 C 
ATOM      8  O   UNL     1      24.841  15.270 -14.027  1.00  0.00    -0.550 OA
ATOM      9  O   UNL     1      23.000  16.631 -14.100  1.00  0.00    -0.550 OA
ENDBRANCH   6   7
ENDBRANCH   5   6
ENDBRANCH   4   5
ENDBRANCH   3   4
ENDBRANCH   2   3
ENDBRANCH   1   2
BRANCH   1  10
ATOM     10  C   UNL     1      25.953  16.046 -10.777  1.00  0.00     0.000 C 
BRANCH  10  11
ATOM     11  C   UNL     1      26.006  15.525  -9.332  1.00  0.00    -0.000 C 
BRANCH  11  12
ATOM     12  C   UNL     1      27.438  15.189  -8.879  1.00  0.00    -0.000 C 
BRANCH  12  13
ATOM     13  C   UNL     1      28.442  15.195 -10.044  1.00  0.00    -0.000 C 
BRANCH  13  14
ATOM     14  C   UNL     1      29.116  13.827 -10.250  1.00  0.00    -0.000 C 
BRANCH  14  15
ATOM     15  C   UNL     1      28.583  13.089 -11.489  1.00  0.00    -0.003 C 
ATOM     16  C   UNL     1      27.200  12.478 -11.266  1.00  0.00     0.004 C 
ENDBRANCH  14  15
ENDBRANCH  13  14
ENDBRANCH  12  13
ENDBRANCH  11  12
ENDBRANCH  10  11
ENDBRANCH   1  10
TORSDOF 12
ENDMDL
MODEL 5
REMARK VINA RESULT:    -4.201      1.776      3.922
REMARK INTER + INTRA:          -8.893
REMARK INTER:                  -6.969
REMARK INTRA:                  -1.924
REMARK UNBOUND:                -1.744
REMARK SMILES CCCCCCCCCCCCCC(=O)[O-]
REMARK SMILES IDX 8 1 9 2 10 3 11 4 12 5 13 6 14 7 15 8 16 9 7 10 6 11 5 12
REMARK SMILES IDX 4 13 3 14 2 15 1 16
REMARK H PARENT
REMARK Flexibility Score: inf
ROOT
ATOM      1  C   UNL     1      27.494  12.683 -13.365  1.00  0.00     0.000 C 
ENDROOT
BRANCH   1   2
ATOM      2  C   UNL     1      26.177  13.261 -13.906  1.00  0.00     0.000 C 
BRANCH   2   3
ATOM      3  C   UNL     1      25.294  13.857 -12.799  1.00  0.00     0.000 C 
BRANCH   3   4
ATOM      4  C   UNL     1      24.952  15.324 -13.102  1.00  0.00     0.000 C 
BRANCH   4   5
ATOM      5  C   UNL     1      26.009  16.014 -13.985  1.00  0.00     0.006 C 
BRANCH   5   6
ATOM      6  C   UNL     1      26.487  17.375 -13.454  1.00  0.00     0.053 C 
BRANCH   6   7
ATOM      7  C   UNL     1      27.009  18.253 -14.549  1.00  0.00     0.041 C 
ATOM      8  O   UNL     1      26.228  19.014 -15.179  1.00  0.00    -0.550 OA
ATOM      9  O   UNL     1      28.365  18.255 -14.852  1.00  0.00    -0.550 OA
ENDBRANCH   6   7
ENDBRANCH   5   6
ENDBRANCH   4   5
ENDBRANCH   3   4
ENDBRANCH   2   3
ENDBRANCH   1   2
BRANCH   1  10
ATOM     10  C   UNL     1      27.545  12.666 -11.827  1.00  0.00     0.000 C 
BRANCH  10  11
ATOM     11  C   UNL     1      28.925  13.061 -11.274  1.00  0.00    -0.000 C 
BRANCH  11  12
ATOM     12  C   UNL     1      28.839  14.172 -10.213  1.00  0.00    -0.000 C 
BRANCH  12  13
ATOM     13  C   UNL     1      28.077  15.409 -10.715  1.00  0.00    -0.000 C 
BRANCH  13  14
ATOM     14  C   UNL     1      26.808  15.695  -9.892  1.00  0.00    -0.000 C 
BRANCH  14  15
ATOM     15  C   UNL     1      26.526  14.605  -8.847  1.00  0.00    -0.003 C 
ATOM     16  C   UNL     1      25.216  13.861  -9.104  1.00  0.00     0.004 C 
ENDBRANCH  14  15
ENDBRANCH  13  14
ENDBRANCH  12  13
ENDBRANCH  11  12
ENDBRANCH  10  11
ENDBRANCH   1  10
TORSDOF 12
ENDMDL
MODEL 6
REMARK VINA RESULT:    -4.123      1.320      4.352
REMARK INTER + INTRA:          -8.759
REMARK INTER:                  -7.318
REMARK INTRA:                  -1.441
REMARK UNBOUND:                -1.744
REMARK SMILES CCCCCCCCCCCCCC(=O)[O-]
REMARK SMILES IDX 8 1 9 2 10 3 11 4 12 5 13 6 14 7 15 8 16 9 7 10 6 11 5 12
REMARK SMILES IDX 4 13 3 14 2 15 1 16
REMARK H PARENT
REMARK Flexibility Score: inf
ROOT
ATOM      1  C   UNL     1      25.639  15.296  -9.124  1.00  0.00     0.000 C 
ENDROOT
BRANCH   1   2
ATOM      2  C   UNL     1      25.101  15.450 -10.554  1.00  0.00     0.000 C 
BRANCH   2   3
ATOM      3  C   UNL     1      24.173  16.665 -10.709  1.00  0.00     0.000 C 
BRANCH   3   4
ATOM      4  C   UNL     1      24.873  17.952 -10.246  1.00  0.00     0.000 C 
BRANCH   4   5
ATOM      5  C   UNL     1      25.300  18.855 -11.419  1.00  0.00     0.006 C 
BRANCH   5   6
ATOM      6  C   UNL     1      26.474  18.305 -12.246  1.00  0.00     0.053 C 
BRANCH   6   7
ATOM      7  C   UNL     1      26.047  17.892 -13.621  1.00  0.00     0.041 C 
ATOM      8  O   UNL     1      26.796  17.169 -14.327  1.00  0.00    -0.550 OA
ATOM      9  O   UNL     1      24.805  18.280 -14.109  1.00  0.00    -0.550 OA
ENDBRANCH   6   7
ENDBRANCH   5   6
ENDBRANCH   4   5
ENDBRANCH   3   4
ENDBRANCH   2   3
ENDBRANCH   1   2
BRANCH   1  10
ATOM     10  C   UNL     1      27.176  15.249  -9.071  1.00  0.00     0.000 C 
BRANCH  10  11
ATOM     11  C   UNL     1      27.819  15.288 -10.467  1.00  0.00    -0.000 C 
BRANCH  11  12
ATOM     12  C   UNL     1      29.026  14.341 -10.588  1.00  0.00    -0.000 C 
BRANCH  12  13
ATOM     13  C   UNL     1      28.607  12.870 -10.752  1.00  0.00    -0.000 C 
BRANCH  13  14
ATOM     14  C   UNL     1      27.304  12.713 -11.556  1.00  0.00    -0.000 C 
BRANCH  14  15
ATOM     15  C   UNL     1      27.529  12.840 -13.071  1.00  0.00    -0.003 C 
ATOM     16  C   UNL     1      26.314  13.407 -13.805  1.00  0.00     0.004 C 
ENDBRANCH  14  15
ENDBRANCH  13  14
ENDBRANCH  12  13
ENDBRANCH  11  12
ENDBRANCH  10  11
ENDBRANCH   1  10
TORSDOF 12
ENDMDL
MODEL 7
REMARK VINA RESULT:    -4.115      2.283      4.114
REMARK INTER + INTRA:          -8.746
REMARK INTER:                  -6.940
REMARK INTRA:                  -1.806
REMARK UNBOUND:                -1.744
REMARK SMILES CCCCCCCCCCCCCC(=O)[O-]
REMARK SMILES IDX 8 1 9 2 10 3 11 4 12 5 13 6 14 7 15 8 16 9 7 10 6 11 5 12
REMARK SMILES IDX 4 13 3 14 2 15 1 16
REMARK H PARENT
REMARK Flexibility Score: inf
ROOT
ATOM      1  C   UNL     1      28.865  13.001 -11.288  1.00  0.00     0.000 C 
ENDROOT
BRANCH   1   2
ATOM      2  C   UNL     1      28.874  14.389 -10.628  1.00  0.00     0.000 C 
BRANCH   2   3
ATOM      3  C   UNL     1      28.460  14.342  -9.149  1.00  0.00     0.000 C 
BRANCH   3   4
ATOM      4  C   UNL     1      27.203  15.190  -8.903  1.00  0.00     0.000 C 
BRANCH   4   5
ATOM      5  C   UNL     1      25.899  14.388  -9.071  1.00  0.00     0.006 C 
BRANCH   5   6
ATOM      6  C   UNL     1      24.623  15.244  -9.059  1.00  0.00     0.053 C 
BRANCH   6   7
ATOM      7  C   UNL     1      23.384  14.407  -9.153  1.00  0.00     0.041 C 
ATOM      8  O   UNL     1      23.062  13.643  -8.207  1.00  0.00    -0.550 OA
ATOM      9  O   UNL     1      22.568  14.497 -10.274  1.00  0.00    -0.550 OA
ENDBRANCH   6   7
ENDBRANCH   5   6
ENDBRANCH   4   5
ENDBRANCH   3   4
ENDBRANCH   2   3
ENDBRANCH   1   2
BRANCH   1  10
ATOM     10  C   UNL     1      27.466  12.588 -11.778  1.00  0.00     0.000 C 
BRANCH  10  11
ATOM     11  C   UNL     1      27.107  13.207 -13.139  1.00  0.00    -0.000 C 
BRANCH  11  12
ATOM     12  C   UNL     1      25.604  13.512 -13.270  1.00  0.00    -0.000 C 
BRANCH  12  13
ATOM     13  C   UNL     1      25.225  14.877 -12.671  1.00  0.00    -0.000 C 
BRANCH  13  14
ATOM     14  C   UNL     1      26.256  15.972 -12.998  1.00  0.00    -0.000 C 
BRANCH  14  15
ATOM     15  C   UNL     1      26.431  16.976 -11.848  1.00  0.00    -0.003 C 
ATOM     16  C   UNL     1      25.926  18.375 -12.200  1.00  0.00     0.004 C 
ENDBRANCH  14  15
ENDBRANCH  13  14
ENDBRANCH  12  13
ENDBRANCH  11  12
ENDBRANCH  10  11
ENDBRANCH   1  10
TORSDOF 12
ENDMDL
MODEL 8
REMARK VINA RESULT:    -4.100      1.938      4.960
REMARK INTER + INTRA:          -8.721
REMARK INTER:                  -6.866
REMARK INTRA:                  -1.855
REMARK UNBOUND:                -1.744
REMARK SMILES CCCCCCCCCCCCCC(=O)[O-]
REMARK SMILES IDX 8 1 9 2 10 3 11 4 12 5 13 6 14 7 15 8 16 9 7 10 6 11 5 12
REMARK SMILES IDX 4 13 3 14 2 15 1 16
REMARK H PARENT
REMARK Flexibility Score: inf
ROOT
ATOM      1  C   UNL     1      26.220  14.794 -14.614  1.00  0.00     0.000 C 
ENDROOT
BRANCH   1   2
ATOM      2  C   UNL     1      25.543  15.855 -13.733  1.00  0.00     0.000 C 
BRANCH   2   3
ATOM      3  C   UNL     1      26.502  16.984 -13.324  1.00  0.00     0.000 C 
BRANCH   3   4
ATOM      4  C   UNL     1      26.752  16.969 -11.808  1.00  0.00     0.000 C 
BRANCH   4   5
ATOM      5  C   UNL     1      25.468  17.204 -10.989  1.00  0.00     0.006 C 
BRANCH   5   6
ATOM      6  C   UNL     1      25.199  16.138  -9.915  1.00  0.00     0.053 C 
BRANCH   6   7
ATOM      7  C   UNL     1      23.742  15.810  -9.802  1.00  0.00     0.041 C 
ATOM      8  O   UNL     1      23.090  16.163  -8.785  1.00  0.00    -0.550 OA
ATOM      9  O   UNL     1      23.098  15.143 -10.836  1.00  0.00    -0.550 OA
ENDBRANCH   6   7
ENDBRANCH   5   6
ENDBRANCH   4   5
ENDBRANCH   3   4
ENDBRANCH   2   3
ENDBRANCH   1   2
BRANCH   1  10
ATOM     10  C   UNL     1      26.313  13.422 -13.922  1.00  0.00     0.000 C 
BRANCH  10  11
ATOM     11  C   UNL     1      25.609  13.398 -12.555  1.00  0.00    -0.000 C 
BRANCH  11  12
ATOM     12  C   UNL     1      26.565  13.028 -11.407  1.00  0.00    -0.000 C 
BRANCH  12  13
ATOM     13  C   UNL     1      28.021  12.878 -11.876  1.00  0.00    -0.000 C 
BRANCH  13  14
ATOM     14  C   UNL     1      29.036  13.150 -10.751  1.00  0.00    -0.000 C 
BRANCH  14  15
ATOM     15  C   UNL     1      29.024  14.615 -10.289  1.00  0.00    -0.003 C 
ATOM     16  C   UNL     1      28.483  14.785  -8.870  1.00  0.00     0.004 C 
ENDBRANCH  14  15
ENDBRANCH  13  14
ENDBRANCH  12  13
ENDBRANCH  11  12
ENDBRANCH  10  11
ENDBRANCH   1  10
TORSDOF 12
ENDMDL
MODEL 9
REMARK VINA RESULT:    -4.064      1.619      2.797
REMARK INTER + INTRA:          -8.659
REMARK INTER:                  -6.856
REMARK INTRA:                  -1.803
REMARK UNBOUND:                -1.744
REMARK SMILES CCCCCCCCCCCCCC(=O)[O-]
REMARK SMILES IDX 8 1 9 2 10 3 11 4 12 5 13 6 14 7 15 8 16 9 7 10 6 11 5 12
REMARK SMILES IDX 4 13 3 14 2 15 1 16
REMARK H PARENT
REMARK Flexibility Score: inf
ROOT
ATOM      1  C   UNL     1      28.689  14.638 -10.631  1.00  0.00     0.000 C 
ENDROOT
BRANCH   1   2
ATOM      2  C   UNL     1      28.832  13.147 -10.976  1.00  0.00     0.000 C 
BRANCH   2   3
ATOM      3  C   UNL     1      27.682  12.630 -11.853  1.00  0.00     0.000 C 
BRANCH   3   4
ATOM      4  C   UNL     1      26.822  13.794 -12.371  1.00  0.00     0.000 C 
BRANCH   4   5
ATOM      5  C   UNL     1      25.981  13.411 -13.604  1.00  0.00     0.006 C 
BRANCH   5   6
ATOM      6  C   UNL     1      26.108  14.387 -14.784  1.00  0.00     0.053 C 
BRANCH   6   7
ATOM      7  C   UNL     1      25.511  15.725 -14.473  1.00  0.00     0.041 C 
ATOM      8  O   UNL     1      24.264  15.887 -14.509  1.00  0.00    -0.550 OA
ATOM      9  O   UNL     1      26.333  16.785 -14.110  1.00  0.00    -0.550 OA
ENDBRANCH   6   7
ENDBRANCH   5   6
ENDBRANCH   4   5
ENDBRANCH   3   4
ENDBRANCH   2   3
ENDBRANCH   1   2
BRANCH   1  10
ATOM     10  C   UNL     1      28.630  14.891  -9.115  1.00  0.00     0.000 C 
BRANCH  10  11
ATOM     11  C   UNL     1      27.251  14.573  -8.513  1.00  0.00    -0.000 C 
BRANCH  11  12
ATOM     12  C   UNL     1      26.123  15.403  -9.152  1.00  0.00    -0.000 C 
BRANCH  12  13
ATOM     13  C   UNL     1      24.845  14.581  -9.385  1.00  0.00    -0.000 C 
BRANCH  13  14
ATOM     14  C   UNL     1      25.000  13.112  -8.952  1.00  0.00    -0.000 C 
BRANCH  14  15
ATOM     15  C   UNL     1      24.546  12.127 -10.041  1.00  0.00    -0.003 C 
ATOM     16  C   UNL     1      23.350  12.640 -10.843  1.00  0.00     0.004 C 
ENDBRANCH  14  15
ENDBRANCH  13  14
ENDBRANCH  12  13
ENDBRANCH  11  12
ENDBRANCH  10  11
ENDBRANCH   1  10
TORSDOF 12
ENDMDL
