MODEL 1
REMARK VINA RESULT:    71.839      0.000      0.000
REMARK INTER + INTRA:         121.931
REMARK INTER:                 118.036
REMARK INTRA:                   3.894
REMARK UNBOUND:                 3.894
REMARK SMILES C[C@@H]1O[C@@H](OC[C@H]2O[C@H](Oc3c(-c4ccc(O)c(O)c4)oc4cc(O)cc(O)c4c3=O)[C@@H](O)[C@@H](O)[C@H]2O)[C@@H](O)[C@@H](O)[C@@H]1O
REMARK SMILES IDX 7 1 36 2 34 3 32 4 9 5 8 6 6 7 5 8 4 9 1 10 2 11 42 12 3 13
REMARK SMILES IDX 40 14 38 15 43 16 41 18 39 20 37 22 35 24 10 26 11 27 12 28
REMARK SMILES IDX 30 29 21 30 29 31 31 32 22 33 27 34 23 35 26 36 24 37 13 38
REMARK SMILES IDX 20 39 14 40 18 41 15 42 16 43 19 44 17 46 28 48 25 50 33 52
REMARK H PARENT 43 17 41 19 39 21 37 23 35 25 19 45 17 47 28 49 25 51 33 53
REMARK Flexibility Score: inf
ROOT
ATOM      1  C   UNL     1      16.174  49.380  59.017  1.00  0.00     0.180 C 
ATOM      2  C   UNL     1      16.108  48.628  60.376  1.00  0.00     0.177 C 
ATOM      3  C   UNL     1      16.357  49.647  61.501  1.00  0.00     0.180 C 
ATOM      4  C   UNL     1      15.404  50.844  61.376  1.00  0.00     0.214 C 
ATOM      5  C   UNL     1      15.426  51.402  59.931  1.00  0.00     0.339 C 
ATOM      6  O   UNL     1      15.174  50.387  58.971  1.00  0.00    -0.332 OA
ENDROOT
BRANCH   1   7
ATOM      7  C   UNL     1      16.042  48.456  57.794  1.00  0.00     0.198 C 
BRANCH   7   8
ATOM      8  O   UNL     1      16.542  47.170  58.101  1.00  0.00    -0.347 OA
BRANCH   8   9
ATOM      9  C   UNL     1      17.762  46.854  57.441  1.00  0.00     0.281 C 
ATOM     10  C   UNL     1      16.561  46.468  53.986  1.00  0.00     0.041 C 
ATOM     11  C   UNL     1      16.469  46.427  55.520  1.00  0.00     0.150 C 
ATOM     12  C   UNL     1      16.185  44.997  56.105  1.00  0.00     0.174 C 
ATOM     13  O   UNL     1      17.647  47.025  56.038  1.00  0.00    -0.344 OA
ATOM     14  C   UNL     1      17.400  44.374  56.861  1.00  0.00     0.179 C 
ATOM     15  C   UNL     1      18.186  45.407  57.724  1.00  0.00     0.202 C 
BRANCH  12  16
ATOM     16  O   UNL     1      15.676  44.108  55.139  1.00  0.00    -0.388 OA
ATOM     17  H   UNL     1      15.511  44.627  54.308  1.00  0.00     0.211 HD
ENDBRANCH  12  16
BRANCH  14  18
ATOM     18  O   UNL     1      17.003  43.254  57.622  1.00  0.00    -0.387 OA
ATOM     19  H   UNL     1      17.439  42.455  57.225  1.00  0.00     0.211 HD
ENDBRANCH  14  18
BRANCH  15  20
ATOM     20  O   UNL     1      18.164  45.129  59.110  1.00  0.00    -0.385 OA
ATOM     21  H   UNL     1      18.126  45.996  59.602  1.00  0.00     0.211 HD
ENDBRANCH  15  20
ENDBRANCH   8   9
ENDBRANCH   7   8
ENDBRANCH   1   7
BRANCH   2  22
ATOM     22  O   UNL     1      14.853  48.025  60.582  1.00  0.00    -0.387 OA
ATOM     23  H   UNL     1      14.187  48.758  60.597  1.00  0.00     0.211 HD
ENDBRANCH   2  22
BRANCH   3  24
ATOM     24  O   UNL     1      16.199  49.044  62.759  1.00  0.00    -0.387 OA
ATOM     25  H   UNL     1      15.233  48.843  62.858  1.00  0.00     0.211 HD
ENDBRANCH   3  24
BRANCH   5  26
ATOM     26  O   UNL     1      16.674  52.050  59.676  1.00  0.00    -0.454 OA
BRANCH  26  27
ATOM     27  C   UNL     1      17.603  52.301  60.685  1.00  0.00     0.214 A 
ATOM     28  C   UNL     1      17.215  53.028  61.819  1.00  0.00     0.180 A 
ATOM     29  C   UNL     1      18.922  51.848  60.575  1.00  0.00     0.239 A 
ATOM     30  O   UNL     1      18.118  53.329  62.745  1.00  0.00    -0.452 OA
ATOM     31  C   UNL     1      19.847  52.131  61.609  1.00  0.00     0.111 A 
ATOM     32  O   UNL     1      19.258  51.214  59.539  1.00  0.00    -0.285 OA
ATOM     33  C   UNL     1      19.383  52.936  62.689  1.00  0.00     0.146 A 
ATOM     34  C   UNL     1      21.200  51.689  61.636  1.00  0.00     0.134 A 
ATOM     35  C   UNL     1      20.253  53.325  63.712  1.00  0.00     0.094 A 
ATOM     36  C   UNL     1      22.052  52.120  62.659  1.00  0.00     0.093 A 
ATOM     37  C   UNL     1      21.590  52.934  63.694  1.00  0.00     0.123 A 
BRANCH  28  38
ATOM     38  C   UNL     1      15.821  53.489  62.010  1.00  0.00     0.025 A 
ATOM     39  C   UNL     1      14.937  52.721  62.780  1.00  0.00     0.062 A 
ATOM     40  C   UNL     1      15.370  54.688  61.438  1.00  0.00     0.016 A 
ATOM     41  C   UNL     1      13.622  53.153  63.000  1.00  0.00     0.158 A 
ATOM     42  C   UNL     1      14.057  55.121  61.645  1.00  0.00     0.051 A 
ATOM     43  C   UNL     1      13.182  54.355  62.421  1.00  0.00     0.157 A 
BRANCH  41  44
ATOM     44  O   UNL     1      12.755  52.398  63.793  1.00  0.00    -0.504 OA
ATOM     45  H   UNL     1      12.933  52.268  64.780  1.00  0.00     0.293 HD
ENDBRANCH  41  44
BRANCH  43  46
ATOM     46  O   UNL     1      11.877  54.800  62.596  1.00  0.00    -0.504 OA
ATOM     47  H   UNL     1      11.169  54.687  61.879  1.00  0.00     0.293 HD
ENDBRANCH  43  46
ENDBRANCH  28  38
BRANCH  34  48
ATOM     48  O   UNL     1      21.744  50.797  60.706  1.00  0.00    -0.507 OA
ATOM     49  H   UNL     1      21.377  49.883  60.484  1.00  0.00     0.293 HD
ENDBRANCH  34  48
BRANCH  37  50
ATOM     50  O   UNL     1      22.467  53.333  64.698  1.00  0.00    -0.508 OA
ATOM     51  H   UNL     1      23.136  52.686  65.102  1.00  0.00     0.293 HD
ENDBRANCH  37  50
ENDBRANCH  26  27
ENDBRANCH   5  26
BRANCH   4  52
ATOM     52  O   UNL     1      14.108  50.448  61.723  1.00  0.00    -0.384 OA
ATOM     53  H   UNL     1      14.214  49.657  62.356  1.00  0.00     0.211 HD
ENDBRANCH   4  52
TORSDOF 16
ENDMDL
MODEL 2
REMARK VINA RESULT:    72.163      0.814      1.420
REMARK INTER + INTRA:         122.463
REMARK INTER:                 119.210
REMARK INTRA:                   3.253
REMARK UNBOUND:                 3.894
REMARK SMILES C[C@@H]1O[C@@H](OC[C@H]2O[C@H](Oc3c(-c4ccc(O)c(O)c4)oc4cc(O)cc(O)c4c3=O)[C@@H](O)[C@@H](O)[C@H]2O)[C@@H](O)[C@@H](O)[C@@H]1O
REMARK SMILES IDX 7 1 36 2 34 3 32 4 9 5 8 6 6 7 5 8 4 9 1 10 2 11 42 12 3 13
REMARK SMILES IDX 40 14 38 15 43 16 41 18 39 20 37 22 35 24 10 26 11 27 12 28
REMARK SMILES IDX 30 29 21 30 29 31 31 32 22 33 27 34 23 35 26 36 24 37 13 38
REMARK SMILES IDX 20 39 14 40 18 41 15 42 16 43 19 44 17 46 28 48 25 50 33 52
REMARK H PARENT 43 17 41 19 39 21 37 23 35 25 19 45 17 47 28 49 25 51 33 53
REMARK Flexibility Score: inf
ROOT
ATOM      1  C   UNL     1      16.090  49.365  59.037  1.00  0.00     0.180 C 
ATOM      2  C   UNL     1      16.026  48.636  60.408  1.00  0.00     0.177 C 
ATOM      3  C   UNL     1      16.357  49.656  61.511  1.00  0.00     0.180 C 
ATOM      4  C   UNL     1      15.459  50.897  61.395  1.00  0.00     0.214 C 
ATOM      5  C   UNL     1      15.467  51.433  59.943  1.00  0.00     0.339 C 
ATOM      6  O   UNL     1      15.139  50.419  59.005  1.00  0.00    -0.332 OA
ENDROOT
BRANCH   1   7
ATOM      7  C   UNL     1      15.879  48.433  57.832  1.00  0.00     0.198 C 
BRANCH   7   8
ATOM      8  O   UNL     1      17.005  47.595  57.663  1.00  0.00    -0.347 OA
BRANCH   8   9
ATOM      9  C   UNL     1      16.900  46.348  58.338  1.00  0.00     0.281 C 
ATOM     10  C   UNL     1      19.923  44.666  57.089  1.00  0.00     0.041 C 
ATOM     11  C   UNL     1      18.726  45.630  57.037  1.00  0.00     0.150 C 
ATOM     12  C   UNL     1      17.704  45.318  55.886  1.00  0.00     0.174 C 
ATOM     13  O   UNL     1      18.135  45.652  58.327  1.00  0.00    -0.344 OA
ATOM     14  C   UNL     1      16.336  44.761  56.393  1.00  0.00     0.179 C 
ATOM     15  C   UNL     1      15.830  45.457  57.693  1.00  0.00     0.202 C 
BRANCH  12  16
ATOM     16  O   UNL     1      18.250  44.491  54.885  1.00  0.00    -0.388 OA
ATOM     17  H   UNL     1      19.149  44.848  54.657  1.00  0.00     0.211 HD
ENDBRANCH  12  16
BRANCH  14  18
ATOM     18  O   UNL     1      15.364  44.796  55.371  1.00  0.00    -0.387 OA
ATOM     19  H   UNL     1      14.642  45.410  55.667  1.00  0.00     0.211 HD
ENDBRANCH  14  18
BRANCH  15  20
ATOM     20  O   UNL     1      14.611  46.156  57.531  1.00  0.00    -0.385 OA
ATOM     21  H   UNL     1      14.673  47.013  58.037  1.00  0.00     0.211 HD
ENDBRANCH  15  20
ENDBRANCH   8   9
ENDBRANCH   7   8
ENDBRANCH   1   7
BRANCH   2  22
ATOM     22  O   UNL     1      14.750  48.097  60.658  1.00  0.00    -0.387 OA
ATOM     23  H   UNL     1      14.454  48.466  61.528  1.00  0.00     0.211 HD
ENDBRANCH   2  22
BRANCH   3  24
ATOM     24  O   UNL     1      16.206  49.078  62.782  1.00  0.00    -0.387 OA
ATOM     25  H   UNL     1      16.665  49.679  63.424  1.00  0.00     0.211 HD
ENDBRANCH   3  24
BRANCH   5  26
ATOM     26  O   UNL     1      16.737  52.017  59.644  1.00  0.00    -0.454 OA
BRANCH  26  27
ATOM     27  C   UNL     1      17.686  52.281  60.630  1.00  0.00     0.214 A 
ATOM     28  C   UNL     1      17.339  53.077  61.730  1.00  0.00     0.180 A 
ATOM     29  C   UNL     1      18.986  51.774  60.530  1.00  0.00     0.239 A 
ATOM     30  O   UNL     1      18.263  53.389  62.631  1.00  0.00    -0.452 OA
ATOM     31  C   UNL     1      19.932  52.072  61.540  1.00  0.00     0.111 A 
ATOM     32  O   UNL     1      19.287  51.078  59.523  1.00  0.00    -0.285 OA
ATOM     33  C   UNL     1      19.511  52.946  62.583  1.00  0.00     0.146 A 
ATOM     34  C   UNL     1      21.268  51.581  61.576  1.00  0.00     0.134 A 
ATOM     35  C   UNL     1      20.406  53.351  63.578  1.00  0.00     0.094 A 
ATOM     36  C   UNL     1      22.148  52.030  62.568  1.00  0.00     0.093 A 
ATOM     37  C   UNL     1      21.728  52.910  63.567  1.00  0.00     0.123 A 
BRANCH  28  38
ATOM     38  C   UNL     1      15.965  53.599  61.911  1.00  0.00     0.025 A 
ATOM     39  C   UNL     1      15.147  53.064  62.917  1.00  0.00     0.062 A 
ATOM     40  C   UNL     1      15.468  54.628  61.097  1.00  0.00     0.016 A 
ATOM     41  C   UNL     1      13.855  53.564  63.127  1.00  0.00     0.158 A 
ATOM     42  C   UNL     1      14.176  55.124  61.294  1.00  0.00     0.051 A 
ATOM     43  C   UNL     1      13.369  54.594  62.303  1.00  0.00     0.157 A 
BRANCH  41  44
ATOM     44  O   UNL     1      13.057  53.047  64.150  1.00  0.00    -0.504 OA
ATOM     45  H   UNL     1      13.441  52.420  64.843  1.00  0.00     0.293 HD
ENDBRANCH  41  44
BRANCH  43  46
ATOM     46  O   UNL     1      12.082  55.094  62.466  1.00  0.00    -0.504 OA
ATOM     47  H   UNL     1      11.901  55.966  62.950  1.00  0.00     0.293 HD
ENDBRANCH  43  46
ENDBRANCH  28  38
BRANCH  34  48
ATOM     48  O   UNL     1      21.768  50.625  60.686  1.00  0.00    -0.507 OA
ATOM     49  H   UNL     1      22.009  49.673  60.921  1.00  0.00     0.293 HD
ENDBRANCH  34  48
BRANCH  37  50
ATOM     50  O   UNL     1      22.630  53.324  64.541  1.00  0.00    -0.508 OA
ATOM     51  H   UNL     1      22.994  52.677  65.232  1.00  0.00     0.293 HD
ENDBRANCH  37  50
ENDBRANCH  26  27
ENDBRANCH   5  26
BRANCH   4  52
ATOM     52  O   UNL     1      14.156  50.569  61.784  1.00  0.00    -0.384 OA
ATOM     53  H   UNL     1      13.540  51.186  61.258  1.00  0.00     0.211 HD
ENDBRANCH   4  52
TORSDOF 16
ENDMDL
