MODEL 1
REMARK VINA RESULT:    -3.895      0.000      0.000
REMARK INTER + INTRA:          -8.543
REMARK INTER:                  -6.628
REMARK INTRA:                  -1.915
REMARK UNBOUND:                -1.915
REMARK SMILES CCCCCCCCCCCCCC(=O)[O-]
REMARK SMILES IDX 8 1 9 2 10 3 11 4 12 5 13 6 14 7 15 8 16 9 7 10 6 11 5 12
REMARK SMILES IDX 4 13 3 14 2 15 1 16
REMARK H PARENT
REMARK Flexibility Score: inf
ROOT
ATOM      1  C   UNL     1      15.315  29.316  71.166  1.00  0.00     0.000 C 
ENDROOT
BRANCH   1   2
ATOM      2  C   UNL     1      14.873  30.505  70.300  1.00  0.00     0.000 C 
BRANCH   2   3
ATOM      3  C   UNL     1      14.603  30.112  68.837  1.00  0.00     0.000 C 
BRANCH   3   4
ATOM      4  C   UNL     1      15.222  31.051  67.782  1.00  0.00     0.000 C 
BRANCH   4   5
ATOM      5  C   UNL     1      15.580  32.458  68.291  1.00  0.00     0.006 C 
BRANCH   5   6
ATOM      6  C   UNL     1      15.096  33.572  67.355  1.00  0.00     0.053 C 
BRANCH   6   7
ATOM      7  C   UNL     1      13.865  34.218  67.904  1.00  0.00     0.041 C 
ATOM      8  O   UNL     1      13.007  33.530  68.518  1.00  0.00    -0.550 OA
ATOM      9  O   UNL     1      13.638  35.573  67.693  1.00  0.00    -0.550 OA
ENDBRANCH   6   7
ENDBRANCH   5   6
ENDBRANCH   4   5
ENDBRANCH   3   4
ENDBRANCH   2   3
ENDBRANCH   1   2
BRANCH   1  10
ATOM     10  C   UNL     1      16.721  29.544  71.735  1.00  0.00     0.000 C 
BRANCH  10  11
ATOM     11  C   UNL     1      17.286  30.896  71.281  1.00  0.00    -0.000 C 
BRANCH  11  12
ATOM     12  C   UNL     1      18.647  30.718  70.591  1.00  0.00    -0.000 C 
BRANCH  12  13
ATOM     13  C   UNL     1      18.598  29.707  69.434  1.00  0.00    -0.000 C 
BRANCH  13  14
ATOM     14  C   UNL     1      18.817  30.368  68.061  1.00  0.00    -0.000 C 
BRANCH  14  15
ATOM     15  C   UNL     1      19.310  31.818  68.180  1.00  0.00    -0.003 C 
ATOM     16  C   UNL     1      19.093  32.626  66.900  1.00  0.00     0.004 C 
ENDBRANCH  14  15
ENDBRANCH  13  14
ENDBRANCH  12  13
ENDBRANCH  11  12
ENDBRANCH  10  11
ENDBRANCH   1  10
TORSDOF 12
ENDMDL
MODEL 2
REMARK VINA RESULT:    -3.889      1.194      1.685
REMARK INTER + INTRA:          -8.532
REMARK INTER:                  -6.802
REMARK INTRA:                  -1.730
REMARK UNBOUND:                -1.915
REMARK SMILES CCCCCCCCCCCCCC(=O)[O-]
REMARK SMILES IDX 8 1 9 2 10 3 11 4 12 5 13 6 14 7 15 8 16 9 7 10 6 11 5 12
REMARK SMILES IDX 4 13 3 14 2 15 1 16
REMARK H PARENT
REMARK Flexibility Score: inf
ROOT
ATOM      1  C   UNL     1      15.998  30.882  70.761  1.00  0.00     0.000 C 
ENDROOT
BRANCH   1   2
ATOM      2  C   UNL     1      15.604  30.035  69.542  1.00  0.00     0.000 C 
BRANCH   2   3
ATOM      3  C   UNL     1      15.470  30.866  68.254  1.00  0.00     0.000 C 
BRANCH   3   4
ATOM      4  C   UNL     1      15.268  32.380  68.470  1.00  0.00     0.000 C 
BRANCH   4   5
ATOM      5  C   UNL     1      15.466  33.250  67.217  1.00  0.00     0.006 C 
BRANCH   5   6
ATOM      6  C   UNL     1      14.315  34.237  66.988  1.00  0.00     0.053 C 
BRANCH   6   7
ATOM      7  C   UNL     1      14.742  35.628  67.332  1.00  0.00     0.041 C 
ATOM      8  O   UNL     1      15.965  35.918  67.397  1.00  0.00    -0.550 OA
ATOM      9  O   UNL     1      13.789  36.593  67.633  1.00  0.00    -0.550 OA
ENDBRANCH   6   7
ENDBRANCH   5   6
ENDBRANCH   4   5
ENDBRANCH   3   4
ENDBRANCH   2   3
ENDBRANCH   1   2
BRANCH   1  10
ATOM     10  C   UNL     1      17.247  30.312  71.445  1.00  0.00     0.000 C 
BRANCH  10  11
ATOM     11  C   UNL     1      18.525  30.900  70.834  1.00  0.00    -0.000 C 
BRANCH  11  12
ATOM     12  C   UNL     1      19.276  29.842  70.010  1.00  0.00    -0.000 C 
BRANCH  12  13
ATOM     13  C   UNL     1      19.431  30.240  68.533  1.00  0.00    -0.000 C 
BRANCH  13  14
ATOM     14  C   UNL     1      19.070  31.714  68.277  1.00  0.00    -0.000 C 
BRANCH  14  15
ATOM     15  C   UNL     1      19.017  32.056  66.780  1.00  0.00    -0.003 C 
ATOM     16  C   UNL     1      18.448  30.918  65.932  1.00  0.00     0.004 C 
ENDBRANCH  14  15
ENDBRANCH  13  14
ENDBRANCH  12  13
ENDBRANCH  11  12
ENDBRANCH  10  11
ENDBRANCH   1  10
TORSDOF 12
ENDMDL
MODEL 3
REMARK VINA RESULT:    -3.803      1.875      4.582
REMARK INTER + INTRA:          -8.386
REMARK INTER:                  -6.951
REMARK INTRA:                  -1.435
REMARK UNBOUND:                -1.915
REMARK SMILES CCCCCCCCCCCCCC(=O)[O-]
REMARK SMILES IDX 8 1 9 2 10 3 11 4 12 5 13 6 14 7 15 8 16 9 7 10 6 11 5 12
REMARK SMILES IDX 4 13 3 14 2 15 1 16
REMARK H PARENT
REMARK Flexibility Score: inf
ROOT
ATOM      1  C   UNL     1      18.358  32.974  67.205  1.00  0.00     0.000 C 
ENDROOT
BRANCH   1   2
ATOM      2  C   UNL     1      19.073  33.316  65.890  1.00  0.00     0.000 C 
BRANCH   2   3
ATOM      3  C   UNL     1      18.346  34.403  65.079  1.00  0.00     0.000 C 
BRANCH   3   4
ATOM      4  C   UNL     1      17.986  35.678  65.868  1.00  0.00     0.000 C 
BRANCH   4   5
ATOM      5  C   UNL     1      16.485  36.011  65.922  1.00  0.00     0.006 C 
BRANCH   5   6
ATOM      6  C   UNL     1      15.925  36.013  67.350  1.00  0.00     0.053 C 
BRANCH   6   7
ATOM      7  C   UNL     1      14.461  36.314  67.336  1.00  0.00     0.041 C 
ATOM      8  O   UNL     1      14.038  37.381  66.818  1.00  0.00    -0.550 OA
ATOM      9  O   UNL     1      13.566  35.441  67.943  1.00  0.00    -0.550 OA
ENDBRANCH   6   7
ENDBRANCH   5   6
ENDBRANCH   4   5
ENDBRANCH   3   4
ENDBRANCH   2   3
ENDBRANCH   1   2
BRANCH   1  10
ATOM     10  C   UNL     1      17.276  31.910  66.980  1.00  0.00     0.000 C 
BRANCH  10  11
ATOM     11  C   UNL     1      15.874  32.499  67.186  1.00  0.00    -0.000 C 
BRANCH  11  12
ATOM     12  C   UNL     1      15.352  32.191  68.598  1.00  0.00    -0.000 C 
BRANCH  12  13
ATOM     13  C   UNL     1      15.987  30.927  69.203  1.00  0.00    -0.000 C 
BRANCH  13  14
ATOM     14  C   UNL     1      15.838  30.866  70.733  1.00  0.00    -0.000 C 
BRANCH  14  15
ATOM     15  C   UNL     1      17.193  30.903  71.458  1.00  0.00    -0.003 C 
ATOM     16  C   UNL     1      18.378  30.993  70.496  1.00  0.00     0.004 C 
ENDBRANCH  14  15
ENDBRANCH  13  14
ENDBRANCH  12  13
ENDBRANCH  11  12
ENDBRANCH  10  11
ENDBRANCH   1  10
TORSDOF 12
ENDMDL
MODEL 4
REMARK VINA RESULT:    -3.778      1.008      1.674
REMARK INTER + INTRA:          -8.343
REMARK INTER:                  -6.756
REMARK INTRA:                  -1.587
REMARK UNBOUND:                -1.915
REMARK SMILES CCCCCCCCCCCCCC(=O)[O-]
REMARK SMILES IDX 8 1 9 2 10 3 11 4 12 5 13 6 14 7 15 8 16 9 7 10 6 11 5 12
REMARK SMILES IDX 4 13 3 14 2 15 1 16
REMARK H PARENT
REMARK Flexibility Score: inf
ROOT
ATOM      1  C   UNL     1      14.731  30.632  70.284  1.00  0.00     0.000 C 
ENDROOT
BRANCH   1   2
ATOM      2  C   UNL     1      14.585  30.102  68.850  1.00  0.00     0.000 C 
BRANCH   2   3
ATOM      3  C   UNL     1      15.346  30.952  67.817  1.00  0.00     0.000 C 
BRANCH   3   4
ATOM      4  C   UNL     1      15.642  32.401  68.254  1.00  0.00     0.000 C 
BRANCH   4   5
ATOM      5  C   UNL     1      15.491  33.460  67.149  1.00  0.00     0.006 C 
BRANCH   5   6
ATOM      6  C   UNL     1      14.180  34.248  67.252  1.00  0.00     0.053 C 
BRANCH   6   7
ATOM      7  C   UNL     1      14.413  35.694  66.953  1.00  0.00     0.041 C 
ATOM      8  O   UNL     1      13.911  36.583  67.690  1.00  0.00    -0.550 OA
ATOM      9  O   UNL     1      15.144  36.063  65.831  1.00  0.00    -0.550 OA
ENDBRANCH   6   7
ENDBRANCH   5   6
ENDBRANCH   4   5
ENDBRANCH   3   4
ENDBRANCH   2   3
ENDBRANCH   1   2
BRANCH   1  10
ATOM     10  C   UNL     1      15.273  29.543  71.218  1.00  0.00     0.000 C 
BRANCH  10  11
ATOM     11  C   UNL     1      16.800  29.441  71.116  1.00  0.00    -0.000 C 
BRANCH  11  12
ATOM     12  C   UNL     1      17.449  30.832  71.183  1.00  0.00    -0.000 C 
BRANCH  12  13
ATOM     13  C   UNL     1      18.878  30.849  70.614  1.00  0.00    -0.000 C 
BRANCH  13  14
ATOM     14  C   UNL     1      18.913  30.587  69.098  1.00  0.00    -0.000 C 
BRANCH  14  15
ATOM     15  C   UNL     1      19.410  31.805  68.303  1.00  0.00    -0.003 C 
ATOM     16  C   UNL     1      19.056  31.729  66.818  1.00  0.00     0.004 C 
ENDBRANCH  14  15
ENDBRANCH  13  14
ENDBRANCH  12  13
ENDBRANCH  11  12
ENDBRANCH  10  11
ENDBRANCH   1  10
TORSDOF 12
ENDMDL
MODEL 5
REMARK VINA RESULT:    -3.737      2.301      4.787
REMARK INTER + INTRA:          -8.274
REMARK INTER:                  -6.959
REMARK INTRA:                  -1.315
REMARK UNBOUND:                -1.915
REMARK SMILES CCCCCCCCCCCCCC(=O)[O-]
REMARK SMILES IDX 8 1 9 2 10 3 11 4 12 5 13 6 14 7 15 8 16 9 7 10 6 11 5 12
REMARK SMILES IDX 4 13 3 14 2 15 1 16
REMARK H PARENT
REMARK Flexibility Score: inf
ROOT
ATOM      1  C   UNL     1      15.462  30.561  70.756  1.00  0.00     0.000 C 
ENDROOT
BRANCH   1   2
ATOM      2  C   UNL     1      16.738  30.046  71.438  1.00  0.00     0.000 C 
BRANCH   2   3
ATOM      3  C   UNL     1      17.976  30.899  71.112  1.00  0.00     0.000 C 
BRANCH   3   4
ATOM      4  C   UNL     1      18.868  30.353  69.980  1.00  0.00     0.000 C 
BRANCH   4   5
ATOM      5  C   UNL     1      19.478  31.421  69.056  1.00  0.00     0.006 C 
BRANCH   5   6
ATOM      6  C   UNL     1      19.035  31.270  67.595  1.00  0.00     0.053 C 
BRANCH   6   7
ATOM      7  C   UNL     1      18.907  32.611  66.946  1.00  0.00     0.041 C 
ATOM      8  O   UNL     1      19.728  33.527  67.216  1.00  0.00    -0.550 OA
ATOM      9  O   UNL     1      17.851  32.866  66.081  1.00  0.00    -0.550 OA
ENDBRANCH   6   7
ENDBRANCH   5   6
ENDBRANCH   4   5
ENDBRANCH   3   4
ENDBRANCH   2   3
ENDBRANCH   1   2
BRANCH   1  10
ATOM     10  C   UNL     1      15.180  29.787  69.462  1.00  0.00     0.000 C 
BRANCH  10  11
ATOM     11  C   UNL     1      15.496  30.643  68.229  1.00  0.00    -0.000 C 
BRANCH  11  12
ATOM     12  C   UNL     1      15.462  32.139  68.577  1.00  0.00    -0.000 C 
BRANCH  12  13
ATOM     13  C   UNL     1      14.334  32.892  67.853  1.00  0.00    -0.000 C 
BRANCH  13  14
ATOM     14  C   UNL     1      14.779  34.273  67.340  1.00  0.00    -0.000 C 
BRANCH  14  15
ATOM     15  C   UNL     1      13.824  35.396  67.772  1.00  0.00    -0.003 C 
ATOM     16  C   UNL     1      14.272  36.775  67.288  1.00  0.00     0.004 C 
ENDBRANCH  14  15
ENDBRANCH  13  14
ENDBRANCH  12  13
ENDBRANCH  11  12
ENDBRANCH  10  11
ENDBRANCH   1  10
TORSDOF 12
ENDMDL
MODEL 6
REMARK VINA RESULT:    -3.692      1.629      3.706
REMARK INTER + INTRA:          -8.198
REMARK INTER:                  -6.612
REMARK INTRA:                  -1.586
REMARK UNBOUND:                -1.915
REMARK SMILES CCCCCCCCCCCCCC(=O)[O-]
REMARK SMILES IDX 8 1 9 2 10 3 11 4 12 5 13 6 14 7 15 8 16 9 7 10 6 11 5 12
REMARK SMILES IDX 4 13 3 14 2 15 1 16
REMARK H PARENT
REMARK Flexibility Score: inf
ROOT
ATOM      1  C   UNL     1      18.273  32.150  67.394  1.00  0.00     0.000 C 
ENDROOT
BRANCH   1   2
ATOM      2  C   UNL     1      17.225  31.080  67.058  1.00  0.00     0.000 C 
BRANCH   2   3
ATOM      3  C   UNL     1      15.864  31.678  66.660  1.00  0.00     0.000 C 
BRANCH   3   4
ATOM      4  C   UNL     1      15.316  32.753  67.620  1.00  0.00     0.000 C 
BRANCH   4   5
ATOM      5  C   UNL     1      14.266  33.697  67.011  1.00  0.00     0.006 C 
BRANCH   5   6
ATOM      6  C   UNL     1      14.504  35.168  67.375  1.00  0.00     0.053 C 
BRANCH   6   7
ATOM      7  C   UNL     1      15.373  35.826  66.351  1.00  0.00     0.041 C 
ATOM      8  O   UNL     1      14.857  36.478  65.406  1.00  0.00    -0.550 OA
ATOM      9  O   UNL     1      16.753  35.676  66.411  1.00  0.00    -0.550 OA
ENDBRANCH   6   7
ENDBRANCH   5   6
ENDBRANCH   4   5
ENDBRANCH   3   4
ENDBRANCH   2   3
ENDBRANCH   1   2
BRANCH   1  10
ATOM     10  C   UNL     1      19.230  31.659  68.487  1.00  0.00     0.000 C 
BRANCH  10  11
ATOM     11  C   UNL     1      18.596  30.527  69.305  1.00  0.00    -0.000 C 
BRANCH  11  12
ATOM     12  C   UNL     1      18.552  30.888  70.798  1.00  0.00    -0.000 C 
BRANCH  12  13
ATOM     13  C   UNL     1      17.201  30.552  71.451  1.00  0.00    -0.000 C 
BRANCH  13  14
ATOM     14  C   UNL     1      16.005  31.076  70.637  1.00  0.00    -0.000 C 
BRANCH  14  15
ATOM     15  C   UNL     1      14.875  30.040  70.520  1.00  0.00    -0.003 C 
ATOM     16  C   UNL     1      15.134  29.001  69.429  1.00  0.00     0.004 C 
ENDBRANCH  14  15
ENDBRANCH  13  14
ENDBRANCH  12  13
ENDBRANCH  11  12
ENDBRANCH  10  11
ENDBRANCH   1  10
TORSDOF 12
ENDMDL
MODEL 7
REMARK VINA RESULT:    -3.643      2.741      5.426
REMARK INTER + INTRA:          -8.113
REMARK INTER:                  -6.917
REMARK INTRA:                  -1.197
REMARK UNBOUND:                -1.915
REMARK SMILES CCCCCCCCCCCCCC(=O)[O-]
REMARK SMILES IDX 8 1 9 2 10 3 11 4 12 5 13 6 14 7 15 8 16 9 7 10 6 11 5 12
REMARK SMILES IDX 4 13 3 14 2 15 1 16
REMARK H PARENT
REMARK Flexibility Score: inf
ROOT
ATOM      1  C   UNL     1      13.764  35.558  67.757  1.00  0.00     0.000 C 
ENDROOT
BRANCH   1   2
ATOM      2  C   UNL     1      13.888  34.166  67.120  1.00  0.00     0.000 C 
BRANCH   2   3
ATOM      3  C   UNL     1      14.615  33.156  68.026  1.00  0.00     0.000 C 
BRANCH   3   4
ATOM      4  C   UNL     1      15.321  32.003  67.285  1.00  0.00     0.000 C 
BRANCH   4   5
ATOM      5  C   UNL     1      15.857  30.879  68.188  1.00  0.00     0.006 C 
BRANCH   5   6
ATOM      6  C   UNL     1      15.706  31.191  69.682  1.00  0.00     0.053 C 
BRANCH   6   7
ATOM      7  C   UNL     1      16.749  30.471  70.475  1.00  0.00     0.041 C 
ATOM      8  O   UNL     1      17.187  30.968  71.546  1.00  0.00    -0.550 OA
ATOM      9  O   UNL     1      17.277  29.274  70.006  1.00  0.00    -0.550 OA
ENDBRANCH   6   7
ENDBRANCH   5   6
ENDBRANCH   4   5
ENDBRANCH   3   4
ENDBRANCH   2   3
ENDBRANCH   1   2
BRANCH   1  10
ATOM     10  C   UNL     1      14.933  36.459  67.341  1.00  0.00     0.000 C 
BRANCH  10  11
ATOM     11  C   UNL     1      15.423  36.109  65.930  1.00  0.00    -0.000 C 
BRANCH  11  12
ATOM     12  C   UNL     1      16.958  36.061  65.878  1.00  0.00    -0.000 C 
BRANCH  12  13
ATOM     13  C   UNL     1      17.523  34.692  66.290  1.00  0.00    -0.000 C 
BRANCH  13  14
ATOM     14  C   UNL     1      18.766  34.296  65.473  1.00  0.00    -0.000 C 
BRANCH  14  15
ATOM     15  C   UNL     1      19.807  33.541  66.314  1.00  0.00    -0.003 C 
ATOM     16  C   UNL     1      19.190  32.430  67.164  1.00  0.00     0.004 C 
ENDBRANCH  14  15
ENDBRANCH  13  14
ENDBRANCH  12  13
ENDBRANCH  11  12
ENDBRANCH  10  11
ENDBRANCH   1  10
TORSDOF 12
ENDMDL
MODEL 8
REMARK VINA RESULT:    -3.632     13.231     15.051
REMARK INTER + INTRA:          -8.096
REMARK INTER:                  -6.401
REMARK INTRA:                  -1.695
REMARK UNBOUND:                -1.915
REMARK SMILES CCCCCCCCCCCCCC(=O)[O-]
REMARK SMILES IDX 8 1 9 2 10 3 11 4 12 5 13 6 14 7 15 8 16 9 7 10 6 11 5 12
REMARK SMILES IDX 4 13 3 14 2 15 1 16
REMARK H PARENT
REMARK Flexibility Score: inf
ROOT
ATOM      1  C   UNL     1      15.028  44.763  59.875  1.00  0.00     0.000 C 
ENDROOT
BRANCH   1   2
ATOM      2  C   UNL     1      15.879  43.485  59.886  1.00  0.00     0.000 C 
BRANCH   2   3
ATOM      3  C   UNL     1      17.388  43.771  59.982  1.00  0.00     0.000 C 
BRANCH   3   4
ATOM      4  C   UNL     1      18.159  42.887  60.983  1.00  0.00     0.000 C 
BRANCH   4   5
ATOM      5  C   UNL     1      19.681  43.109  61.011  1.00  0.00     0.006 C 
BRANCH   5   6
ATOM      6  C   UNL     1      20.469  41.809  61.216  1.00  0.00     0.053 C 
BRANCH   6   7
ATOM      7  C   UNL     1      21.121  41.800  62.561  1.00  0.00     0.041 C 
ATOM      8  O   UNL     1      21.238  40.722  63.202  1.00  0.00    -0.550 OA
ATOM      9  O   UNL     1      21.555  42.990  63.132  1.00  0.00    -0.550 OA
ENDBRANCH   6   7
ENDBRANCH   5   6
ENDBRANCH   4   5
ENDBRANCH   3   4
ENDBRANCH   2   3
ENDBRANCH   1   2
BRANCH   1  10
ATOM     10  C   UNL     1      13.753  44.581  60.708  1.00  0.00     0.000 C 
BRANCH  10  11
ATOM     11  C   UNL     1      13.940  43.489  61.769  1.00  0.00    -0.000 C 
BRANCH  11  12
ATOM     12  C   UNL     1      14.124  44.106  63.164  1.00  0.00    -0.000 C 
BRANCH  12  13
ATOM     13  C   UNL     1      15.604  44.275  63.548  1.00  0.00    -0.000 C 
BRANCH  13  14
ATOM     14  C   UNL     1      16.114  45.709  63.319  1.00  0.00    -0.000 C 
BRANCH  14  15
ATOM     15  C   UNL     1      17.647  45.782  63.241  1.00  0.00    -0.003 C 
ATOM     16  C   UNL     1      18.336  44.757  64.142  1.00  0.00     0.004 C 
ENDBRANCH  14  15
ENDBRANCH  13  14
ENDBRANCH  12  13
ENDBRANCH  11  12
ENDBRANCH  10  11
ENDBRANCH   1  10
TORSDOF 12
ENDMDL
MODEL 9
REMARK VINA RESULT:    -3.616      2.338      4.317
REMARK INTER + INTRA:          -8.068
REMARK INTER:                  -6.442
REMARK INTRA:                  -1.626
REMARK UNBOUND:                -1.915
REMARK SMILES CCCCCCCCCCCCCC(=O)[O-]
REMARK SMILES IDX 8 1 9 2 10 3 11 4 12 5 13 6 14 7 15 8 16 9 7 10 6 11 5 12
REMARK SMILES IDX 4 13 3 14 2 15 1 16
REMARK H PARENT
REMARK Flexibility Score: inf
ROOT
ATOM      1  C   UNL     1      18.482  31.269  69.406  1.00  0.00     0.000 C 
ENDROOT
BRANCH   1   2
ATOM      2  C   UNL     1      18.714  30.125  68.408  1.00  0.00     0.000 C 
BRANCH   2   3
ATOM      3  C   UNL     1      18.269  30.478  66.978  1.00  0.00     0.000 C 
BRANCH   3   4
ATOM      4  C   UNL     1      19.315  31.239  66.138  1.00  0.00     0.000 C 
BRANCH   4   5
ATOM      5  C   UNL     1      18.840  32.587  65.570  1.00  0.00     0.006 C 
BRANCH   5   6
ATOM      6  C   UNL     1      19.603  33.783  66.154  1.00  0.00     0.053 C 
BRANCH   6   7
ATOM      7  C   UNL     1      18.991  35.068  65.697  1.00  0.00     0.041 C 
ATOM      8  O   UNL     1      17.758  35.273  65.851  1.00  0.00    -0.550 OA
ATOM      9  O   UNL     1      19.772  36.020  65.054  1.00  0.00    -0.550 OA
ENDBRANCH   6   7
ENDBRANCH   5   6
ENDBRANCH   4   5
ENDBRANCH   3   4
ENDBRANCH   2   3
ENDBRANCH   1   2
BRANCH   1  10
ATOM     10  C   UNL     1      18.549  30.760  70.851  1.00  0.00     0.000 C 
BRANCH  10  11
ATOM     11  C   UNL     1      17.213  30.141  71.279  1.00  0.00    -0.000 C 
BRANCH  11  12
ATOM     12  C   UNL     1      16.032  30.991  70.786  1.00  0.00    -0.000 C 
BRANCH  12  13
ATOM     13  C   UNL     1      15.023  30.181  69.955  1.00  0.00    -0.000 C 
BRANCH  13  14
ATOM     14  C   UNL     1      14.778  30.791  68.563  1.00  0.00    -0.000 C 
BRANCH  14  15
ATOM     15  C   UNL     1      14.731  32.327  68.595  1.00  0.00    -0.003 C 
ATOM     16  C   UNL     1      15.644  32.970  67.551  1.00  0.00     0.004 C 
ENDBRANCH  14  15
ENDBRANCH  13  14
ENDBRANCH  12  13
ENDBRANCH  11  12
ENDBRANCH  10  11
ENDBRANCH   1  10
TORSDOF 12
ENDMDL
