MODEL 1
REMARK VINA RESULT:    -4.826      0.000      0.000
REMARK INTER + INTRA:          -8.241
REMARK INTER:                  -7.648
REMARK INTRA:                  -0.593
REMARK UNBOUND:                -0.593
REMARK SMILES CCCCCCCCCCCC(=O)[O-]
REMARK SMILES IDX 7 1 8 2 9 3 10 4 11 5 12 6 13 7 14 8 6 9 5 10 4 11 3 12 2 13
REMARK SMILES IDX 1 14
REMARK H PARENT
REMARK Flexibility Score: inf
ROOT
ATOM      1  C   UNL     1     -17.962  36.524  84.038  1.00  0.00     0.000 C 
ENDROOT
BRANCH   1   2
ATOM      2  C   UNL     1     -19.226  37.391  84.172  1.00  0.00     0.000 C 
BRANCH   2   3
ATOM      3  C   UNL     1     -19.174  38.329  85.388  1.00  0.00     0.000 C 
BRANCH   3   4
ATOM      4  C   UNL     1     -20.545  38.507  86.056  1.00  0.00     0.006 C 
BRANCH   4   5
ATOM      5  C   UNL     1     -20.465  38.216  87.558  1.00  0.00     0.053 C 
BRANCH   5   6
ATOM      6  C   UNL     1     -20.196  39.474  88.321  1.00  0.00     0.041 C 
ATOM      7  O   UNL     1     -19.027  39.748  88.699  1.00  0.00    -0.550 OA
ATOM      8  O   UNL     1     -21.229  40.368  88.574  1.00  0.00    -0.550 OA
ENDBRANCH   5   6
ENDBRANCH   4   5
ENDBRANCH   3   4
ENDBRANCH   2   3
ENDBRANCH   1   2
BRANCH   1   9
ATOM      9  C   UNL     1     -16.918  37.144  83.094  1.00  0.00     0.000 C 
BRANCH   9  10
ATOM     10  C   UNL     1     -16.453  36.166  82.004  1.00  0.00    -0.000 C 
BRANCH  10  11
ATOM     11  C   UNL     1     -17.583  35.201  81.616  1.00  0.00    -0.000 C 
BRANCH  11  12
ATOM     12  C   UNL     1     -18.113  35.439  80.191  1.00  0.00    -0.000 C 
BRANCH  12  13
ATOM     13  C   UNL     1     -18.706  36.838  79.947  1.00  0.00    -0.003 C 
ATOM     14  C   UNL     1     -18.603  37.285  78.489  1.00  0.00     0.004 C 
ENDBRANCH  12  13
ENDBRANCH  11  12
ENDBRANCH  10  11
ENDBRANCH   9  10
ENDBRANCH   1   9
TORSDOF 10
ENDMDL
MODEL 2
REMARK VINA RESULT:    -4.805      5.977      7.902
REMARK INTER + INTRA:          -8.207
REMARK INTER:                  -7.078
REMARK INTRA:                  -1.128
REMARK UNBOUND:                -0.593
REMARK SMILES CCCCCCCCCCCC(=O)[O-]
REMARK SMILES IDX 7 1 8 2 9 3 10 4 11 5 12 6 13 7 14 8 6 9 5 10 4 11 3 12 2 13
REMARK SMILES IDX 1 14
REMARK H PARENT
REMARK Flexibility Score: inf
ROOT
ATOM      1  C   UNL     1     -20.967  45.285  86.221  1.00  0.00     0.000 C 
ENDROOT
BRANCH   1   2
ATOM      2  C   UNL     1     -20.424  44.035  86.935  1.00  0.00     0.000 C 
BRANCH   2   3
ATOM      3  C   UNL     1     -19.842  43.002  85.958  1.00  0.00     0.000 C 
BRANCH   3   4
ATOM      4  C   UNL     1     -19.681  41.613  86.594  1.00  0.00     0.006 C 
BRANCH   4   5
ATOM      5  C   UNL     1     -20.911  41.248  87.432  1.00  0.00     0.053 C 
BRANCH   5   6
ATOM      6  C   UNL     1     -20.499  40.567  88.698  1.00  0.00     0.041 C 
ATOM      7  O   UNL     1     -20.956  39.428  88.982  1.00  0.00    -0.550 OA
ATOM      8  O   UNL     1     -19.571  41.166  89.541  1.00  0.00    -0.550 OA
ENDBRANCH   5   6
ENDBRANCH   4   5
ENDBRANCH   3   4
ENDBRANCH   2   3
ENDBRANCH   1   2
BRANCH   1   9
ATOM      9  C   UNL     1     -21.038  45.109  84.695  1.00  0.00     0.000 C 
BRANCH   9  10
ATOM     10  C   UNL     1     -20.936  46.444  83.941  1.00  0.00    -0.000 C 
BRANCH  10  11
ATOM     11  C   UNL     1     -19.777  46.416  82.934  1.00  0.00    -0.000 C 
BRANCH  11  12
ATOM     12  C   UNL     1     -18.607  45.525  83.390  1.00  0.00    -0.000 C 
BRANCH  12  13
ATOM     13  C   UNL     1     -17.621  46.197  84.361  1.00  0.00    -0.003 C 
ATOM     14  C   UNL     1     -17.011  45.221  85.365  1.00  0.00     0.004 C 
ENDBRANCH  12  13
ENDBRANCH  11  12
ENDBRANCH  10  11
ENDBRANCH   9  10
ENDBRANCH   1   9
TORSDOF 10
ENDMDL
MODEL 3
REMARK VINA RESULT:    -4.649      5.996      8.169
REMARK INTER + INTRA:          -7.960
REMARK INTER:                  -7.112
REMARK INTRA:                  -0.849
REMARK UNBOUND:                -0.593
REMARK SMILES CCCCCCCCCCCC(=O)[O-]
REMARK SMILES IDX 7 1 8 2 9 3 10 4 11 5 12 6 13 7 14 8 6 9 5 10 4 11 3 12 2 13
REMARK SMILES IDX 1 14
REMARK H PARENT
REMARK Flexibility Score: inf
ROOT
ATOM      1  C   UNL     1     -21.416  45.051  86.032  1.00  0.00     0.000 C 
ENDROOT
BRANCH   1   2
ATOM      2  C   UNL     1     -20.207  44.299  86.616  1.00  0.00     0.000 C 
BRANCH   2   3
ATOM      3  C   UNL     1     -20.079  42.869  86.067  1.00  0.00     0.000 C 
BRANCH   3   4
ATOM      4  C   UNL     1     -20.349  41.800  87.137  1.00  0.00     0.006 C 
BRANCH   4   5
ATOM      5  C   UNL     1     -19.448  40.578  86.929  1.00  0.00     0.053 C 
BRANCH   5   6
ATOM      6  C   UNL     1     -20.274  39.342  86.759  1.00  0.00     0.041 C 
ATOM      7  O   UNL     1     -21.376  39.230  87.358  1.00  0.00    -0.550 OA
ATOM      8  O   UNL     1     -19.850  38.335  85.902  1.00  0.00    -0.550 OA
ENDBRANCH   5   6
ENDBRANCH   4   5
ENDBRANCH   3   4
ENDBRANCH   2   3
ENDBRANCH   1   2
BRANCH   1   9
ATOM      9  C   UNL     1     -21.005  46.286  85.215  1.00  0.00     0.000 C 
BRANCH   9  10
ATOM     10  C   UNL     1     -20.973  46.012  83.704  1.00  0.00    -0.000 C 
BRANCH  10  11
ATOM     11  C   UNL     1     -19.531  45.828  83.210  1.00  0.00    -0.000 C 
BRANCH  11  12
ATOM     12  C   UNL     1     -18.685  47.108  83.343  1.00  0.00    -0.000 C 
BRANCH  12  13
ATOM     13  C   UNL     1     -17.555  47.031  84.385  1.00  0.00    -0.003 C 
ATOM     14  C   UNL     1     -17.244  45.601  84.826  1.00  0.00     0.004 C 
ENDBRANCH  12  13
ENDBRANCH  11  12
ENDBRANCH  10  11
ENDBRANCH   9  10
ENDBRANCH   1   9
TORSDOF 10
ENDMDL
MODEL 4
REMARK VINA RESULT:    -4.637      4.937      7.539
REMARK INTER + INTRA:          -7.941
REMARK INTER:                  -6.789
REMARK INTRA:                  -1.152
REMARK UNBOUND:                -0.593
REMARK SMILES CCCCCCCCCCCC(=O)[O-]
REMARK SMILES IDX 7 1 8 2 9 3 10 4 11 5 12 6 13 7 14 8 6 9 5 10 4 11 3 12 2 13
REMARK SMILES IDX 1 14
REMARK H PARENT
REMARK Flexibility Score: inf
ROOT
ATOM      1  C   UNL     1     -22.235  43.418  87.995  1.00  0.00     0.000 C 
ENDROOT
BRANCH   1   2
ATOM      2  C   UNL     1     -21.773  41.950  88.004  1.00  0.00     0.000 C 
BRANCH   2   3
ATOM      3  C   UNL     1     -20.447  41.753  88.755  1.00  0.00     0.000 C 
BRANCH   3   4
ATOM      4  C   UNL     1     -19.579  40.644  88.140  1.00  0.00     0.006 C 
BRANCH   4   5
ATOM      5  C   UNL     1     -20.062  40.290  86.730  1.00  0.00     0.053 C 
BRANCH   5   6
ATOM      6  C   UNL     1     -20.304  38.818  86.614  1.00  0.00     0.041 C 
ATOM      7  O   UNL     1     -19.915  38.190  85.594  1.00  0.00    -0.550 OA
ATOM      8  O   UNL     1     -20.915  38.129  87.655  1.00  0.00    -0.550 OA
ENDBRANCH   5   6
ENDBRANCH   4   5
ENDBRANCH   3   4
ENDBRANCH   2   3
ENDBRANCH   1   2
BRANCH   1   9
ATOM      9  C   UNL     1     -21.112  44.389  87.596  1.00  0.00     0.000 C 
BRANCH   9  10
ATOM     10  C   UNL     1     -21.371  45.068  86.243  1.00  0.00    -0.000 C 
BRANCH  10  11
ATOM     11  C   UNL     1     -20.561  44.392  85.127  1.00  0.00    -0.000 C 
BRANCH  11  12
ATOM     12  C   UNL     1     -19.227  43.806  85.625  1.00  0.00    -0.000 C 
BRANCH  12  13
ATOM     13  C   UNL     1     -18.005  44.721  85.427  1.00  0.00    -0.003 C 
ATOM     14  C   UNL     1     -18.051  45.505  84.117  1.00  0.00     0.004 C 
ENDBRANCH  12  13
ENDBRANCH  11  12
ENDBRANCH  10  11
ENDBRANCH   9  10
ENDBRANCH   1   9
TORSDOF 10
ENDMDL
MODEL 5
REMARK VINA RESULT:    -4.633      5.598      7.527
REMARK INTER + INTRA:          -7.934
REMARK INTER:                  -7.348
REMARK INTRA:                  -0.587
REMARK UNBOUND:                -0.593
REMARK SMILES CCCCCCCCCCCC(=O)[O-]
REMARK SMILES IDX 7 1 8 2 9 3 10 4 11 5 12 6 13 7 14 8 6 9 5 10 4 11 3 12 2 13
REMARK SMILES IDX 1 14
REMARK H PARENT
REMARK Flexibility Score: inf
ROOT
ATOM      1  C   UNL     1     -19.542  43.244  85.742  1.00  0.00     0.000 C 
ENDROOT
BRANCH   1   2
ATOM      2  C   UNL     1     -20.836  43.022  86.546  1.00  0.00     0.000 C 
BRANCH   2   3
ATOM      3  C   UNL     1     -20.578  42.355  87.906  1.00  0.00     0.000 C 
BRANCH   3   4
ATOM      4  C   UNL     1     -20.036  40.924  87.769  1.00  0.00     0.006 C 
BRANCH   4   5
ATOM      5  C   UNL     1     -21.038  40.028  87.033  1.00  0.00     0.053 C 
BRANCH   5   6
ATOM      6  C   UNL     1     -20.515  38.630  86.936  1.00  0.00     0.041 C 
ATOM      7  O   UNL     1     -20.623  37.843  87.913  1.00  0.00    -0.550 OA
ATOM      8  O   UNL     1     -19.951  38.179  85.749  1.00  0.00    -0.550 OA
ENDBRANCH   5   6
ENDBRANCH   4   5
ENDBRANCH   3   4
ENDBRANCH   2   3
ENDBRANCH   1   2
BRANCH   1   9
ATOM      9  C   UNL     1     -19.080  44.710  85.757  1.00  0.00     0.000 C 
BRANCH   9  10
ATOM     10  C   UNL     1     -17.728  44.912  85.057  1.00  0.00    -0.000 C 
BRANCH  10  11
ATOM     11  C   UNL     1     -17.579  46.357  84.560  1.00  0.00    -0.000 C 
BRANCH  11  12
ATOM     12  C   UNL     1     -18.913  46.978  84.109  1.00  0.00    -0.000 C 
BRANCH  12  13
ATOM     13  C   UNL     1     -19.378  46.560  82.703  1.00  0.00    -0.003 C 
ATOM     14  C   UNL     1     -20.831  46.090  82.667  1.00  0.00     0.004 C 
ENDBRANCH  12  13
ENDBRANCH  11  12
ENDBRANCH  10  11
ENDBRANCH   9  10
ENDBRANCH   1   9
TORSDOF 10
ENDMDL
MODEL 6
REMARK VINA RESULT:    -4.564      8.049     10.604
REMARK INTER + INTRA:          -7.826
REMARK INTER:                  -7.168
REMARK INTRA:                  -0.658
REMARK UNBOUND:                -0.593
REMARK SMILES CCCCCCCCCCCC(=O)[O-]
REMARK SMILES IDX 7 1 8 2 9 3 10 4 11 5 12 6 13 7 14 8 6 9 5 10 4 11 3 12 2 13
REMARK SMILES IDX 1 14
REMARK H PARENT
REMARK Flexibility Score: inf
ROOT
ATOM      1  C   UNL     1     -24.790  45.540  87.624  1.00  0.00     0.000 C 
ENDROOT
BRANCH   1   2
ATOM      2  C   UNL     1     -26.150  45.581  88.345  1.00  0.00     0.000 C 
BRANCH   2   3
ATOM      3  C   UNL     1     -26.014  45.898  89.843  1.00  0.00     0.000 C 
BRANCH   3   4
ATOM      4  C   UNL     1     -27.045  45.147  90.700  1.00  0.00     0.006 C 
BRANCH   4   5
ATOM      5  C   UNL     1     -26.815  43.634  90.632  1.00  0.00     0.053 C 
BRANCH   5   6
ATOM      6  C   UNL     1     -28.092  42.925  90.309  1.00  0.00     0.041 C 
ATOM      7  O   UNL     1     -28.991  42.809  91.184  1.00  0.00    -0.550 OA
ATOM      8  O   UNL     1     -28.311  42.435  89.028  1.00  0.00    -0.550 OA
ENDBRANCH   5   6
ENDBRANCH   4   5
ENDBRANCH   3   4
ENDBRANCH   2   3
ENDBRANCH   1   2
BRANCH   1   9
ATOM      9  C   UNL     1     -23.863  44.444  88.172  1.00  0.00     0.000 C 
BRANCH   9  10
ATOM     10  C   UNL     1     -22.501  44.413  87.464  1.00  0.00    -0.000 C 
BRANCH  10  11
ATOM     11  C   UNL     1     -22.293  45.679  86.620  1.00  0.00    -0.000 C 
BRANCH  11  12
ATOM     12  C   UNL     1     -21.126  45.552  85.624  1.00  0.00    -0.000 C 
BRANCH  12  13
ATOM     13  C   UNL     1     -20.583  44.123  85.443  1.00  0.00    -0.003 C 
ATOM     14  C   UNL     1     -19.063  44.041  85.566  1.00  0.00     0.004 C 
ENDBRANCH  12  13
ENDBRANCH  11  12
ENDBRANCH  10  11
ENDBRANCH   9  10
ENDBRANCH   1   9
TORSDOF 10
ENDMDL
MODEL 7
REMARK VINA RESULT:    -4.559      5.788      7.733
REMARK INTER + INTRA:          -7.817
REMARK INTER:                  -6.928
REMARK INTRA:                  -0.889
REMARK UNBOUND:                -0.593
REMARK SMILES CCCCCCCCCCCC(=O)[O-]
REMARK SMILES IDX 7 1 8 2 9 3 10 4 11 5 12 6 13 7 14 8 6 9 5 10 4 11 3 12 2 13
REMARK SMILES IDX 1 14
REMARK H PARENT
REMARK Flexibility Score: inf
ROOT
ATOM      1  C   UNL     1     -20.326  41.626  88.255  1.00  0.00     0.000 C 
ENDROOT
BRANCH   1   2
ATOM      2  C   UNL     1     -21.245  42.403  87.296  1.00  0.00     0.000 C 
BRANCH   2   3
ATOM      3  C   UNL     1     -20.800  43.861  87.104  1.00  0.00     0.000 C 
BRANCH   3   4
ATOM      4  C   UNL     1     -20.374  44.163  85.659  1.00  0.00     0.006 C 
BRANCH   4   5
ATOM      5  C   UNL     1     -18.919  43.746  85.419  1.00  0.00     0.053 C 
BRANCH   5   6
ATOM      6  C   UNL     1     -18.141  44.880  84.829  1.00  0.00     0.041 C 
ATOM      7  O   UNL     1     -18.597  45.516  83.842  1.00  0.00    -0.550 OA
ATOM      8  O   UNL     1     -16.934  45.267  85.399  1.00  0.00    -0.550 OA
ENDBRANCH   5   6
ENDBRANCH   4   5
ENDBRANCH   3   4
ENDBRANCH   2   3
ENDBRANCH   1   2
BRANCH   1   9
ATOM      9  C   UNL     1     -19.360  40.686  87.517  1.00  0.00     0.000 C 
BRANCH   9  10
ATOM     10  C   UNL     1     -20.075  39.484  86.880  1.00  0.00    -0.000 C 
BRANCH  10  11
ATOM     11  C   UNL     1     -20.702  38.587  87.957  1.00  0.00    -0.000 C 
BRANCH  11  12
ATOM     12  C   UNL     1     -19.679  37.656  88.632  1.00  0.00    -0.000 C 
BRANCH  12  13
ATOM     13  C   UNL     1     -19.388  37.976  90.109  1.00  0.00    -0.003 C 
ATOM     14  C   UNL     1     -20.486  38.810  90.768  1.00  0.00     0.004 C 
ENDBRANCH  12  13
ENDBRANCH  11  12
ENDBRANCH  10  11
ENDBRANCH   9  10
ENDBRANCH   1   9
TORSDOF 10
ENDMDL
MODEL 8
REMARK VINA RESULT:    -4.536      9.420     11.601
REMARK INTER + INTRA:          -7.781
REMARK INTER:                  -6.471
REMARK INTRA:                  -1.310
REMARK UNBOUND:                -0.593
REMARK SMILES CCCCCCCCCCCC(=O)[O-]
REMARK SMILES IDX 7 1 8 2 9 3 10 4 11 5 12 6 13 7 14 8 6 9 5 10 4 11 3 12 2 13
REMARK SMILES IDX 1 14
REMARK H PARENT
REMARK Flexibility Score: inf
ROOT
ATOM      1  C   UNL     1     -25.861  45.917  87.266  1.00  0.00     0.000 C 
ENDROOT
BRANCH   1   2
ATOM      2  C   UNL     1     -26.395  46.346  88.644  1.00  0.00     0.000 C 
BRANCH   2   3
ATOM      3  C   UNL     1     -25.520  45.839  89.801  1.00  0.00     0.000 C 
BRANCH   3   4
ATOM      4  C   UNL     1     -26.048  44.531  90.410  1.00  0.00     0.006 C 
BRANCH   4   5
ATOM      5  C   UNL     1     -27.554  44.619  90.673  1.00  0.00     0.053 C 
BRANCH   5   6
ATOM      6  C   UNL     1     -28.206  43.295  90.429  1.00  0.00     0.041 C 
ATOM      7  O   UNL     1     -27.988  42.670  89.357  1.00  0.00    -0.550 OA
ATOM      8  O   UNL     1     -29.015  42.726  91.405  1.00  0.00    -0.550 OA
ENDBRANCH   5   6
ENDBRANCH   4   5
ENDBRANCH   3   4
ENDBRANCH   2   3
ENDBRANCH   1   2
BRANCH   1   9
ATOM      9  C   UNL     1     -25.100  47.045  86.550  1.00  0.00     0.000 C 
BRANCH   9  10
ATOM     10  C   UNL     1     -23.631  46.688  86.280  1.00  0.00    -0.000 C 
BRANCH  10  11
ATOM     11  C   UNL     1     -22.758  47.000  87.504  1.00  0.00    -0.000 C 
BRANCH  11  12
ATOM     12  C   UNL     1     -22.179  45.736  88.165  1.00  0.00    -0.000 C 
BRANCH  12  13
ATOM     13  C   UNL     1     -22.386  44.436  87.368  1.00  0.00    -0.003 C 
ATOM     14  C   UNL     1     -23.247  43.412  88.106  1.00  0.00     0.004 C 
ENDBRANCH  12  13
ENDBRANCH  11  12
ENDBRANCH  10  11
ENDBRANCH   9  10
ENDBRANCH   1   9
TORSDOF 10
ENDMDL
MODEL 9
REMARK VINA RESULT:    -4.453      5.536      7.883
REMARK INTER + INTRA:          -7.649
REMARK INTER:                  -6.399
REMARK INTRA:                  -1.250
REMARK UNBOUND:                -0.593
REMARK SMILES CCCCCCCCCCCC(=O)[O-]
REMARK SMILES IDX 7 1 8 2 9 3 10 4 11 5 12 6 13 7 14 8 6 9 5 10 4 11 3 12 2 13
REMARK SMILES IDX 1 14
REMARK H PARENT
REMARK Flexibility Score: inf
ROOT
ATOM      1  C   UNL     1     -19.919  37.710  87.976  1.00  0.00     0.000 C 
ENDROOT
BRANCH   1   2
ATOM      2  C   UNL     1     -20.223  39.057  87.298  1.00  0.00     0.000 C 
BRANCH   2   3
ATOM      3  C   UNL     1     -20.900  40.057  88.249  1.00  0.00     0.000 C 
BRANCH   3   4
ATOM      4  C   UNL     1     -20.299  41.467  88.148  1.00  0.00     0.006 C 
BRANCH   4   5
ATOM      5  C   UNL     1     -19.640  41.685  86.782  1.00  0.00     0.053 C 
BRANCH   5   6
ATOM      6  C   UNL     1     -19.985  43.037  86.244  1.00  0.00     0.041 C 
ATOM      7  O   UNL     1     -19.246  43.584  85.383  1.00  0.00    -0.550 OA
ATOM      8  O   UNL     1     -21.148  43.674  86.657  1.00  0.00    -0.550 OA
ENDBRANCH   5   6
ENDBRANCH   4   5
ENDBRANCH   3   4
ENDBRANCH   2   3
ENDBRANCH   1   2
BRANCH   1   9
ATOM      9  C   UNL     1     -19.832  37.825  89.507  1.00  0.00     0.000 C 
BRANCH   9  10
ATOM     10  C   UNL     1     -18.382  37.848  90.016  1.00  0.00    -0.000 C 
BRANCH  10  11
ATOM     11  C   UNL     1     -18.151  39.040  90.955  1.00  0.00    -0.000 C 
BRANCH  11  12
ATOM     12  C   UNL     1     -19.315  39.264  91.938  1.00  0.00    -0.000 C 
BRANCH  12  13
ATOM     13  C   UNL     1     -19.945  40.667  91.884  1.00  0.00    -0.003 C 
ATOM     14  C   UNL     1     -21.469  40.642  91.987  1.00  0.00     0.004 C 
ENDBRANCH  12  13
ENDBRANCH  11  12
ENDBRANCH  10  11
ENDBRANCH   9  10
ENDBRANCH   1   9
TORSDOF 10
ENDMDL
