MODEL 1
REMARK VINA RESULT:    -7.257      0.000      0.000
REMARK INTER + INTRA:          -9.195
REMARK INTER:                  -8.954
REMARK INTRA:                  -0.241
REMARK UNBOUND:                -0.241
REMARK SMILES Oc1cc(O)c2cc(O)c(-c3cc(O)c(O)c(O)c3)[o+]c2c1
REMARK SMILES IDX 10 1 20 2 21 3 22 4 2 5 3 6 4 7 6 8 7 9 8 10 11 11 12 12
REMARK SMILES IDX 13 13 19 14 15 15 17 16 14 17 16 19 18 21 9 23 1 25 5 27
REMARK H PARENT 14 18 16 20 18 22 9 24 1 26 5 28
REMARK Flexibility Score: inf
ROOT
ATOM      1  C   UNL     1     -42.004  11.054   8.775  1.00  0.00     0.402 A 
ATOM      2  O   UNL     1     -42.752  11.246   7.692  1.00  0.00    -0.202 OA
ATOM      3  C   UNL     1     -42.588  10.568   6.561  1.00  0.00     0.368 A 
ATOM      4  C   UNL     1     -43.426  10.838   5.477  1.00  0.00     0.162 A 
ATOM      5  C   UNL     1     -43.279  10.139   4.278  1.00  0.00     0.128 A 
ATOM      6  C   UNL     1     -42.286   9.159   4.161  1.00  0.00     0.093 A 
ATOM      7  C   UNL     1     -41.433   8.869   5.234  1.00  0.00     0.136 A 
ATOM      8  C   UNL     1     -41.579   9.580   6.452  1.00  0.00     0.125 A 
ATOM      9  C   UNL     1     -40.762   9.365   7.575  1.00  0.00     0.078 A 
ATOM     10  C   UNL     1     -40.962  10.109   8.741  1.00  0.00     0.223 A 
ENDROOT
BRANCH   1  11
ATOM     11  C   UNL     1     -42.292  11.867   9.978  1.00  0.00     0.091 A 
ATOM     12  C   UNL     1     -42.071  13.254   9.993  1.00  0.00     0.068 A 
ATOM     13  C   UNL     1     -42.328  14.004  11.149  1.00  0.00     0.162 A 
ATOM     14  C   UNL     1     -42.741  11.235  11.148  1.00  0.00     0.068 A 
ATOM     15  C   UNL     1     -42.800  13.367  12.309  1.00  0.00     0.200 A 
ATOM     16  C   UNL     1     -43.002  11.976  12.305  1.00  0.00     0.162 A 
BRANCH  13  17
ATOM     17  O   UNL     1     -42.111  15.382  11.150  1.00  0.00    -0.504 OA
ATOM     18  H   UNL     1     -41.962  15.897  12.010  1.00  0.00     0.293 HD
ENDBRANCH  13  17
BRANCH  15  19
ATOM     19  O   UNL     1     -43.065  14.098  13.467  1.00  0.00    -0.502 OA
ATOM     20  H   UNL     1     -43.016  15.110  13.490  1.00  0.00     0.293 HD
ENDBRANCH  15  19
BRANCH  16  21
ATOM     21  O   UNL     1     -43.462  11.311  13.442  1.00  0.00    -0.504 OA
ATOM     22  H   UNL     1     -44.425  11.374  13.750  1.00  0.00     0.293 HD
ENDBRANCH  16  21
ENDBRANCH   1  11
BRANCH  10  23
ATOM     23  O   UNL     1     -40.119   9.931   9.838  1.00  0.00    -0.500 OA
ATOM     24  H   UNL     1     -40.470   9.610  10.733  1.00  0.00     0.294 HD
ENDBRANCH  10  23
BRANCH   5  25
ATOM     25  O   UNL     1     -44.124  10.424   3.209  1.00  0.00    -0.507 OA
ATOM     26  H   UNL     1     -44.939  11.017   3.321  1.00  0.00     0.293 HD
ENDBRANCH   5  25
BRANCH   7  27
ATOM     27  O   UNL     1     -40.470   7.875   5.038  1.00  0.00    -0.507 OA
ATOM     28  H   UNL     1     -40.399   7.304   4.209  1.00  0.00     0.293 HD
ENDBRANCH   7  27
TORSDOF 7
ENDMDL
MODEL 2
REMARK VINA RESULT:    -7.216     11.780     14.257
REMARK INTER + INTRA:          -9.144
REMARK INTER:                  -8.985
REMARK INTRA:                  -0.159
REMARK UNBOUND:                -0.241
REMARK SMILES Oc1cc(O)c2cc(O)c(-c3cc(O)c(O)c(O)c3)[o+]c2c1
REMARK SMILES IDX 10 1 20 2 21 3 22 4 2 5 3 6 4 7 6 8 7 9 8 10 11 11 12 12
REMARK SMILES IDX 13 13 19 14 15 15 17 16 14 17 16 19 18 21 9 23 1 25 5 27
REMARK H PARENT 14 18 16 20 18 22 9 24 1 26 5 28
REMARK Flexibility Score: inf
ROOT
ATOM      1  C   UNL     1     -32.376  13.072   0.228  1.00  0.00     0.402 A 
ATOM      2  O   UNL     1     -31.235  12.421   0.014  1.00  0.00    -0.202 OA
ATOM      3  C   UNL     1     -30.108  13.023  -0.350  1.00  0.00     0.368 A 
ATOM      4  C   UNL     1     -28.958  12.253  -0.547  1.00  0.00     0.162 A 
ATOM      5  C   UNL     1     -27.760  12.859  -0.927  1.00  0.00     0.128 A 
ATOM      6  C   UNL     1     -27.708  14.246  -1.109  1.00  0.00     0.093 A 
ATOM      7  C   UNL     1     -28.846  15.039  -0.918  1.00  0.00     0.136 A 
ATOM      8  C   UNL     1     -30.067  14.426  -0.535  1.00  0.00     0.125 A 
ATOM      9  C   UNL     1     -31.259  15.140  -0.332  1.00  0.00     0.078 A 
ATOM     10  C   UNL     1     -32.426  14.466   0.040  1.00  0.00     0.223 A 
ENDROOT
BRANCH   1  11
ATOM     11  C   UNL     1     -33.563  12.289   0.639  1.00  0.00     0.091 A 
ATOM     12  C   UNL     1     -34.273  12.599   1.811  1.00  0.00     0.068 A 
ATOM     13  C   UNL     1     -35.381  11.832   2.197  1.00  0.00     0.162 A 
ATOM     14  C   UNL     1     -33.955  11.178  -0.123  1.00  0.00     0.068 A 
ATOM     15  C   UNL     1     -35.782  10.735   1.415  1.00  0.00     0.200 A 
ATOM     16  C   UNL     1     -35.061  10.408   0.253  1.00  0.00     0.162 A 
BRANCH  13  17
ATOM     17  O   UNL     1     -36.083  12.153   3.358  1.00  0.00    -0.504 OA
ATOM     18  H   UNL     1     -37.086  12.028   3.425  1.00  0.00     0.293 HD
ENDBRANCH  13  17
BRANCH  15  19
ATOM     19  O   UNL     1     -36.885   9.963   1.781  1.00  0.00    -0.502 OA
ATOM     20  H   UNL     1     -37.788  10.374   1.983  1.00  0.00     0.293 HD
ENDBRANCH  15  19
BRANCH  16  21
ATOM     21  O   UNL     1     -35.427   9.320  -0.540  1.00  0.00    -0.504 OA
ATOM     22  H   UNL     1     -35.337   8.364  -0.217  1.00  0.00     0.293 HD
ENDBRANCH  16  21
ENDBRANCH   1  11
BRANCH  10  23
ATOM     23  O   UNL     1     -33.622  15.167   0.192  1.00  0.00    -0.500 OA
ATOM     24  H   UNL     1     -33.683  15.998   0.770  1.00  0.00     0.294 HD
ENDBRANCH  10  23
BRANCH   5  25
ATOM     25  O   UNL     1     -26.625  12.074  -1.119  1.00  0.00    -0.507 OA
ATOM     26  H   UNL     1     -25.953  12.284  -1.847  1.00  0.00     0.293 HD
ENDBRANCH   5  25
BRANCH   7  27
ATOM     27  O   UNL     1     -28.711  16.416  -1.117  1.00  0.00    -0.507 OA
ATOM     28  H   UNL     1     -28.088  17.010  -0.590  1.00  0.00     0.293 HD
ENDBRANCH   7  27
TORSDOF 7
ENDMDL
MODEL 3
REMARK VINA RESULT:    -7.015     11.622     14.161
REMARK INTER + INTRA:          -8.897
REMARK INTER:                  -8.788
REMARK INTRA:                  -0.108
REMARK UNBOUND:                -0.241
REMARK SMILES Oc1cc(O)c2cc(O)c(-c3cc(O)c(O)c(O)c3)[o+]c2c1
REMARK SMILES IDX 10 1 20 2 21 3 22 4 2 5 3 6 4 7 6 8 7 9 8 10 11 11 12 12
REMARK SMILES IDX 13 13 19 14 15 15 17 16 14 17 16 19 18 21 9 23 1 25 5 27
REMARK H PARENT 14 18 16 20 18 22 9 24 1 26 5 28
REMARK Flexibility Score: inf
ROOT
ATOM      1  C   UNL     1     -32.475  12.834   0.232  1.00  0.00     0.402 A 
ATOM      2  O   UNL     1     -31.315  12.219   0.017  1.00  0.00    -0.202 OA
ATOM      3  C   UNL     1     -30.208  12.856  -0.350  1.00  0.00     0.368 A 
ATOM      4  C   UNL     1     -29.035  12.123  -0.548  1.00  0.00     0.162 A 
ATOM      5  C   UNL     1     -27.857  12.766  -0.931  1.00  0.00     0.128 A 
ATOM      6  C   UNL     1     -27.850  14.153  -1.116  1.00  0.00     0.093 A 
ATOM      7  C   UNL     1     -29.012  14.910  -0.923  1.00  0.00     0.136 A 
ATOM      8  C   UNL     1     -30.212  14.259  -0.537  1.00  0.00     0.125 A 
ATOM      9  C   UNL     1     -31.426  14.936  -0.332  1.00  0.00     0.078 A 
ATOM     10  C   UNL     1     -32.569  14.225   0.043  1.00  0.00     0.223 A 
ENDROOT
BRANCH   1  11
ATOM     11  C   UNL     1     -33.636  12.014   0.648  1.00  0.00     0.091 A 
ATOM     12  C   UNL     1     -34.075  10.925  -0.123  1.00  0.00     0.068 A 
ATOM     13  C   UNL     1     -35.191  10.175   0.274  1.00  0.00     0.162 A 
ATOM     14  C   UNL     1     -34.349  12.363   1.805  1.00  0.00     0.068 A 
ATOM     15  C   UNL     1     -35.885  10.517   1.447  1.00  0.00     0.200 A 
ATOM     16  C   UNL     1     -35.462  11.619   2.210  1.00  0.00     0.162 A 
BRANCH  13  17
ATOM     17  O   UNL     1     -35.614   9.092  -0.496  1.00  0.00    -0.504 OA
ATOM     18  H   UNL     1     -36.490   8.617  -0.311  1.00  0.00     0.293 HD
ENDBRANCH  13  17
BRANCH  15  19
ATOM     19  O   UNL     1     -36.994   9.778   1.860  1.00  0.00    -0.502 OA
ATOM     20  H   UNL     1     -37.442   9.932   2.755  1.00  0.00     0.293 HD
ENDBRANCH  15  19
BRANCH  16  21
ATOM     21  O   UNL     1     -36.134  11.990   3.375  1.00  0.00    -0.504 OA
ATOM     22  H   UNL     1     -36.939  12.605   3.358  1.00  0.00     0.293 HD
ENDBRANCH  16  21
ENDBRANCH   1  11
BRANCH  10  23
ATOM     23  O   UNL     1     -33.787  14.889   0.197  1.00  0.00    -0.500 OA
ATOM     24  H   UNL     1     -34.537  14.503   0.758  1.00  0.00     0.294 HD
ENDBRANCH  10  23
BRANCH   5  25
ATOM     25  O   UNL     1     -26.699  12.017  -1.125  1.00  0.00    -0.507 OA
ATOM     26  H   UNL     1     -26.586  11.098  -0.712  1.00  0.00     0.293 HD
ENDBRANCH   5  25
BRANCH   7  27
ATOM     27  O   UNL     1     -28.921  16.291  -1.124  1.00  0.00    -0.507 OA
ATOM     28  H   UNL     1     -29.642  16.952  -0.877  1.00  0.00     0.293 HD
ENDBRANCH   7  27
TORSDOF 7
ENDMDL
MODEL 4
REMARK VINA RESULT:    -6.984      1.897      7.162
REMARK INTER + INTRA:          -8.858
REMARK INTER:                  -8.478
REMARK INTRA:                  -0.380
REMARK UNBOUND:                -0.241
REMARK SMILES Oc1cc(O)c2cc(O)c(-c3cc(O)c(O)c(O)c3)[o+]c2c1
REMARK SMILES IDX 10 1 20 2 21 3 22 4 2 5 3 6 4 7 6 8 7 9 8 10 11 11 12 12
REMARK SMILES IDX 13 13 19 14 15 15 17 16 14 17 16 19 18 21 9 23 1 25 5 27
REMARK H PARENT 14 18 16 20 18 22 9 24 1 26 5 28
REMARK Flexibility Score: inf
ROOT
ATOM      1  C   UNL     1     -41.173  10.469   7.339  1.00  0.00     0.402 A 
ATOM      2  O   UNL     1     -41.887  11.573   7.541  1.00  0.00    -0.202 OA
ATOM      3  C   UNL     1     -42.244  12.002   8.747  1.00  0.00     0.368 A 
ATOM      4  C   UNL     1     -42.991  13.177   8.858  1.00  0.00     0.162 A 
ATOM      5  C   UNL     1     -43.377  13.652  10.112  1.00  0.00     0.128 A 
ATOM      6  C   UNL     1     -43.013  12.948  11.266  1.00  0.00     0.093 A 
ATOM      7  C   UNL     1     -42.264  11.768  11.181  1.00  0.00     0.136 A 
ATOM      8  C   UNL     1     -41.872  11.281   9.907  1.00  0.00     0.125 A 
ATOM      9  C   UNL     1     -41.131  10.101   9.726  1.00  0.00     0.078 A 
ATOM     10  C   UNL     1     -40.786   9.681   8.438  1.00  0.00     0.223 A 
ENDROOT
BRANCH   1  11
ATOM     11  C   UNL     1     -40.830  10.102   5.946  1.00  0.00     0.091 A 
ATOM     12  C   UNL     1     -41.684   9.301   5.169  1.00  0.00     0.068 A 
ATOM     13  C   UNL     1     -41.331   8.945   3.860  1.00  0.00     0.162 A 
ATOM     14  C   UNL     1     -39.602  10.513   5.406  1.00  0.00     0.068 A 
ATOM     15  C   UNL     1     -40.110   9.380   3.319  1.00  0.00     0.200 A 
ATOM     16  C   UNL     1     -39.243  10.164   4.100  1.00  0.00     0.162 A 
BRANCH  13  17
ATOM     17  O   UNL     1     -42.190   8.155   3.096  1.00  0.00    -0.504 OA
ATOM     18  H   UNL     1     -42.614   8.502   2.243  1.00  0.00     0.293 HD
ENDBRANCH  13  17
BRANCH  15  19
ATOM     19  O   UNL     1     -39.745   9.039   2.016  1.00  0.00    -0.502 OA
ATOM     20  H   UNL     1     -38.787   8.833   1.761  1.00  0.00     0.293 HD
ENDBRANCH  15  19
BRANCH  16  21
ATOM     21  O   UNL     1     -38.019  10.605   3.596  1.00  0.00    -0.504 OA
ATOM     22  H   UNL     1     -37.181  10.037   3.644  1.00  0.00     0.293 HD
ENDBRANCH  16  21
ENDBRANCH   1  11
BRANCH  10  23
ATOM     23  O   UNL     1     -40.094   8.483   8.255  1.00  0.00    -0.500 OA
ATOM     24  H   UNL     1     -39.082   8.453   8.214  1.00  0.00     0.294 HD
ENDBRANCH  10  23
BRANCH   5  25
ATOM     25  O   UNL     1     -44.122  14.825  10.202  1.00  0.00    -0.507 OA
ATOM     26  H   UNL     1     -44.560  15.239   9.387  1.00  0.00     0.293 HD
ENDBRANCH   5  25
BRANCH   7  27
ATOM     27  O   UNL     1     -41.937  11.126  12.379  1.00  0.00    -0.507 OA
ATOM     28  H   UNL     1     -41.008  10.823  12.629  1.00  0.00     0.293 HD
ENDBRANCH   7  27
TORSDOF 7
ENDMDL
MODEL 5
REMARK VINA RESULT:    -6.972      1.896      7.014
REMARK INTER + INTRA:          -8.843
REMARK INTER:                  -8.458
REMARK INTRA:                  -0.385
REMARK UNBOUND:                -0.241
REMARK SMILES Oc1cc(O)c2cc(O)c(-c3cc(O)c(O)c(O)c3)[o+]c2c1
REMARK SMILES IDX 10 1 20 2 21 3 22 4 2 5 3 6 4 7 6 8 7 9 8 10 11 11 12 12
REMARK SMILES IDX 13 13 19 14 15 15 17 16 14 17 16 19 18 21 9 23 1 25 5 27
REMARK H PARENT 14 18 16 20 18 22 9 24 1 26 5 28
REMARK Flexibility Score: inf
ROOT
ATOM      1  C   UNL     1     -41.117  10.454   7.376  1.00  0.00     0.402 A 
ATOM      2  O   UNL     1     -41.834  11.561   7.557  1.00  0.00    -0.202 OA
ATOM      3  C   UNL     1     -42.214  11.997   8.753  1.00  0.00     0.368 A 
ATOM      4  C   UNL     1     -42.962  13.174   8.842  1.00  0.00     0.162 A 
ATOM      5  C   UNL     1     -43.373  13.657  10.084  1.00  0.00     0.128 A 
ATOM      6  C   UNL     1     -43.032  12.961  11.250  1.00  0.00     0.093 A 
ATOM      7  C   UNL     1     -42.283  11.779  11.187  1.00  0.00     0.136 A 
ATOM      8  C   UNL     1     -41.867  11.284   9.925  1.00  0.00     0.125 A 
ATOM      9  C   UNL     1     -41.124  10.102   9.766  1.00  0.00     0.078 A 
ATOM     10  C   UNL     1     -40.753   9.673   8.489  1.00  0.00     0.223 A 
ENDROOT
BRANCH   1  11
ATOM     11  C   UNL     1     -40.747  10.078   5.993  1.00  0.00     0.091 A 
ATOM     12  C   UNL     1     -39.540  10.508   5.416  1.00  0.00     0.068 A 
ATOM     13  C   UNL     1     -39.217  10.161   4.097  1.00  0.00     0.162 A 
ATOM     14  C   UNL     1     -41.642   9.323   5.220  1.00  0.00     0.068 A 
ATOM     15  C   UNL     1     -40.109   9.385   3.337  1.00  0.00     0.200 A 
ATOM     16  C   UNL     1     -41.327   8.970   3.903  1.00  0.00     0.162 A 
BRANCH  13  17
ATOM     17  O   UNL     1     -38.013  10.588   3.537  1.00  0.00    -0.504 OA
ATOM     18  H   UNL     1     -37.120  10.251   3.876  1.00  0.00     0.293 HD
ENDBRANCH  13  17
BRANCH  15  19
ATOM     19  O   UNL     1     -39.802   9.026   2.024  1.00  0.00    -0.502 OA
ATOM     20  H   UNL     1     -39.221   8.225   1.806  1.00  0.00     0.293 HD
ENDBRANCH  15  19
BRANCH  16  21
ATOM     21  O   UNL     1     -42.238   8.206   3.173  1.00  0.00    -0.504 OA
ATOM     22  H   UNL     1     -42.307   8.270   2.164  1.00  0.00     0.293 HD
ENDBRANCH  16  21
ENDBRANCH   1  11
BRANCH  10  23
ATOM     23  O   UNL     1     -40.059   8.474   8.327  1.00  0.00    -0.500 OA
ATOM     24  H   UNL     1     -40.521   7.576   8.413  1.00  0.00     0.294 HD
ENDBRANCH  10  23
BRANCH   5  25
ATOM     25  O   UNL     1     -44.118  14.832  10.151  1.00  0.00    -0.507 OA
ATOM     26  H   UNL     1     -44.975  14.886  10.690  1.00  0.00     0.293 HD
ENDBRANCH   5  25
BRANCH   7  27
ATOM     27  O   UNL     1     -41.981  11.145  12.396  1.00  0.00    -0.507 OA
ATOM     28  H   UNL     1     -42.186  10.178  12.599  1.00  0.00     0.293 HD
ENDBRANCH   7  27
TORSDOF 7
ENDMDL
MODEL 6
REMARK VINA RESULT:    -6.785     11.978     13.990
REMARK INTER + INTRA:          -8.613
REMARK INTER:                  -8.435
REMARK INTRA:                  -0.178
REMARK UNBOUND:                -0.241
REMARK SMILES Oc1cc(O)c2cc(O)c(-c3cc(O)c(O)c(O)c3)[o+]c2c1
REMARK SMILES IDX 10 1 20 2 21 3 22 4 2 5 3 6 4 7 6 8 7 9 8 10 11 11 12 12
REMARK SMILES IDX 13 13 19 14 15 15 17 16 14 17 16 19 18 21 9 23 1 25 5 27
REMARK H PARENT 14 18 16 20 18 22 9 24 1 26 5 28
REMARK Flexibility Score: inf
ROOT
ATOM      1  C   UNL     1     -31.442  13.135   0.674  1.00  0.00     0.402 A 
ATOM      2  O   UNL     1     -32.520  13.311   1.433  1.00  0.00    -0.202 OA
ATOM      3  C   UNL     1     -33.589  12.523   1.377  1.00  0.00     0.368 A 
ATOM      4  C   UNL     1     -34.673  12.786   2.219  1.00  0.00     0.162 A 
ATOM      5  C   UNL     1     -35.807  11.974   2.184  1.00  0.00     0.128 A 
ATOM      6  C   UNL     1     -35.858  10.888   1.302  1.00  0.00     0.093 A 
ATOM      7  C   UNL     1     -34.785  10.603   0.450  1.00  0.00     0.136 A 
ATOM      8  C   UNL     1     -33.632  11.428   0.480  1.00  0.00     0.125 A 
ATOM      9  C   UNL     1     -32.514  11.226  -0.346  1.00  0.00     0.078 A 
ATOM     10  C   UNL     1     -31.415  12.085  -0.263  1.00  0.00     0.223 A 
ENDROOT
BRANCH   1  11
ATOM     11  C   UNL     1     -30.310  14.076   0.836  1.00  0.00     0.091 A 
ATOM     12  C   UNL     1     -29.868  14.878  -0.229  1.00  0.00     0.068 A 
ATOM     13  C   UNL     1     -28.780  15.746  -0.063  1.00  0.00     0.162 A 
ATOM     14  C   UNL     1     -29.626  14.128   2.060  1.00  0.00     0.068 A 
ATOM     15  C   UNL     1     -28.115  15.810   1.174  1.00  0.00     0.200 A 
ATOM     16  C   UNL     1     -28.541  14.993   2.236  1.00  0.00     0.162 A 
BRANCH  13  17
ATOM     17  O   UNL     1     -28.354  16.543  -1.125  1.00  0.00    -0.504 OA
ATOM     18  H   UNL     1     -28.978  17.197  -1.583  1.00  0.00     0.293 HD
ENDBRANCH  13  17
BRANCH  15  19
ATOM     19  O   UNL     1     -27.033  16.672   1.358  1.00  0.00    -0.502 OA
ATOM     20  H   UNL     1     -26.602  16.810   2.264  1.00  0.00     0.293 HD
ENDBRANCH  15  19
BRANCH  16  21
ATOM     21  O   UNL     1     -27.897  15.026   3.473  1.00  0.00    -0.504 OA
ATOM     22  H   UNL     1     -27.415  15.852   3.807  1.00  0.00     0.293 HD
ENDBRANCH  16  21
ENDBRANCH   1  11
BRANCH  10  23
ATOM     23  O   UNL     1     -30.326  11.914  -1.118  1.00  0.00    -0.500 OA
ATOM     24  H   UNL     1     -30.246  11.105  -1.722  1.00  0.00     0.294 HD
ENDBRANCH  10  23
BRANCH   5  25
ATOM     25  O   UNL     1     -36.877  12.253   3.030  1.00  0.00    -0.507 OA
ATOM     26  H   UNL     1     -37.210  13.201   3.168  1.00  0.00     0.293 HD
ENDBRANCH   5  25
BRANCH   7  27
ATOM     27  O   UNL     1     -34.913   9.499  -0.398  1.00  0.00    -0.507 OA
ATOM     28  H   UNL     1     -35.578   8.751  -0.266  1.00  0.00     0.293 HD
ENDBRANCH   7  27
TORSDOF 7
ENDMDL
MODEL 7
REMARK VINA RESULT:    -6.625     11.989     14.009
REMARK INTER + INTRA:          -8.416
REMARK INTER:                  -8.418
REMARK INTRA:                   0.003
REMARK UNBOUND:                -0.241
REMARK SMILES Oc1cc(O)c2cc(O)c(-c3cc(O)c(O)c(O)c3)[o+]c2c1
REMARK SMILES IDX 10 1 20 2 21 3 22 4 2 5 3 6 4 7 6 8 7 9 8 10 11 11 12 12
REMARK SMILES IDX 13 13 19 14 15 15 17 16 14 17 16 19 18 21 9 23 1 25 5 27
REMARK H PARENT 14 18 16 20 18 22 9 24 1 26 5 28
REMARK Flexibility Score: inf
ROOT
ATOM      1  C   UNL     1     -32.110  13.690   0.352  1.00  0.00     0.402 A 
ATOM      2  O   UNL     1     -31.460  12.554   0.113  1.00  0.00    -0.202 OA
ATOM      3  C   UNL     1     -30.191  12.507  -0.278  1.00  0.00     0.368 A 
ATOM      4  C   UNL     1     -29.592  11.265  -0.499  1.00  0.00     0.162 A 
ATOM      5  C   UNL     1     -28.261  11.185  -0.908  1.00  0.00     0.128 A 
ATOM      6  C   UNL     1     -27.519  12.357  -1.096  1.00  0.00     0.093 A 
ATOM      7  C   UNL     1     -28.096  13.615  -0.880  1.00  0.00     0.136 A 
ATOM      8  C   UNL     1     -29.450  13.699  -0.467  1.00  0.00     0.125 A 
ATOM      9  C   UNL     1     -30.114  14.916  -0.239  1.00  0.00     0.078 A 
ATOM     10  C   UNL     1     -31.453  14.920   0.162  1.00  0.00     0.223 A 
ENDROOT
BRANCH   1  11
ATOM     11  C   UNL     1     -33.522  13.610   0.793  1.00  0.00     0.091 A 
ATOM     12  C   UNL     1     -34.515  14.420   0.217  1.00  0.00     0.068 A 
ATOM     13  C   UNL     1     -35.841  14.346   0.664  1.00  0.00     0.162 A 
ATOM     14  C   UNL     1     -33.868  12.750   1.845  1.00  0.00     0.068 A 
ATOM     15  C   UNL     1     -36.184  13.465   1.703  1.00  0.00     0.200 A 
ATOM     16  C   UNL     1     -35.190  12.668   2.296  1.00  0.00     0.162 A 
BRANCH  13  17
ATOM     17  O   UNL     1     -36.820  15.151   0.081  1.00  0.00    -0.504 OA
ATOM     18  H   UNL     1     -37.806  14.929   0.157  1.00  0.00     0.293 HD
ENDBRANCH  13  17
BRANCH  15  19
ATOM     19  O   UNL     1     -37.501  13.375   2.157  1.00  0.00    -0.502 OA
ATOM     20  H   UNL     1     -37.775  12.736   2.893  1.00  0.00     0.293 HD
ENDBRANCH  15  19
BRANCH  16  21
ATOM     21  O   UNL     1     -35.495  11.789   3.336  1.00  0.00    -0.504 OA
ATOM     22  H   UNL     1     -35.680  12.113   4.278  1.00  0.00     0.293 HD
ENDBRANCH  16  21
ENDBRANCH   1  11
BRANCH  10  23
ATOM     23  O   UNL     1     -32.128  16.128   0.339  1.00  0.00    -0.500 OA
ATOM     24  H   UNL     1     -32.086  16.638   1.214  1.00  0.00     0.294 HD
ENDBRANCH  10  23
BRANCH   5  25
ATOM     25  O   UNL     1     -27.683   9.937  -1.124  1.00  0.00    -0.507 OA
ATOM     26  H   UNL     1     -27.014   9.784  -1.870  1.00  0.00     0.293 HD
ENDBRANCH   5  25
BRANCH   7  27
ATOM     27  O   UNL     1     -27.288  14.737  -1.086  1.00  0.00    -0.507 OA
ATOM     28  H   UNL     1     -26.874  15.285  -0.347  1.00  0.00     0.293 HD
ENDBRANCH   7  27
TORSDOF 7
ENDMDL
MODEL 8
REMARK VINA RESULT:    -6.486     11.255     13.432
REMARK INTER + INTRA:          -8.244
REMARK INTER:                  -7.909
REMARK INTRA:                  -0.335
REMARK UNBOUND:                -0.241
REMARK SMILES Oc1cc(O)c2cc(O)c(-c3cc(O)c(O)c(O)c3)[o+]c2c1
REMARK SMILES IDX 10 1 20 2 21 3 22 4 2 5 3 6 4 7 6 8 7 9 8 10 11 11 12 12
REMARK SMILES IDX 13 13 19 14 15 15 17 16 14 17 16 19 18 21 9 23 1 25 5 27
REMARK H PARENT 14 18 16 20 18 22 9 24 1 26 5 28
REMARK Flexibility Score: inf
ROOT
ATOM      1  C   UNL     1     -32.511  12.386   0.699  1.00  0.00     0.402 A 
ATOM      2  O   UNL     1     -31.565  13.079   1.328  1.00  0.00    -0.202 OA
ATOM      3  C   UNL     1     -30.269  12.945   1.070  1.00  0.00     0.368 A 
ATOM      4  C   UNL     1     -29.350  13.721   1.781  1.00  0.00     0.162 A 
ATOM      5  C   UNL     1     -27.982  13.604   1.529  1.00  0.00     0.128 A 
ATOM      6  C   UNL     1     -27.528  12.705   0.557  1.00  0.00     0.093 A 
ATOM      7  C   UNL     1     -28.429  11.916  -0.170  1.00  0.00     0.136 A 
ATOM      8  C   UNL     1     -29.820  12.031   0.087  1.00  0.00     0.125 A 
ATOM      9  C   UNL     1     -30.794  11.273  -0.584  1.00  0.00     0.078 A 
ATOM     10  C   UNL     1     -32.147  11.438  -0.274  1.00  0.00     0.223 A 
ENDROOT
BRANCH   1  11
ATOM     11  C   UNL     1     -33.924  12.633   1.070  1.00  0.00     0.091 A 
ATOM     12  C   UNL     1     -34.608  13.775   0.624  1.00  0.00     0.068 A 
ATOM     13  C   UNL     1     -35.938  14.003   1.005  1.00  0.00     0.162 A 
ATOM     14  C   UNL     1     -34.577  11.738   1.930  1.00  0.00     0.068 A 
ATOM     15  C   UNL     1     -36.593  13.090   1.848  1.00  0.00     0.200 A 
ATOM     16  C   UNL     1     -35.905  11.956   2.314  1.00  0.00     0.162 A 
BRANCH  13  17
ATOM     17  O   UNL     1     -36.609  15.138   0.550  1.00  0.00    -0.504 OA
ATOM     18  H   UNL     1     -36.832  15.908   1.170  1.00  0.00     0.293 HD
ENDBRANCH  13  17
BRANCH  15  19
ATOM     19  O   UNL     1     -37.918  13.299   2.233  1.00  0.00    -0.502 OA
ATOM     20  H   UNL     1     -38.686  13.236   1.577  1.00  0.00     0.293 HD
ENDBRANCH  15  19
BRANCH  16  21
ATOM     21  O   UNL     1     -36.523  11.034   3.159  1.00  0.00    -0.504 OA
ATOM     22  H   UNL     1     -36.878  10.147   2.821  1.00  0.00     0.293 HD
ENDBRANCH  16  21
ENDBRANCH   1  11
BRANCH  10  23
ATOM     23  O   UNL     1     -33.110  10.649  -0.903  1.00  0.00    -0.500 OA
ATOM     24  H   UNL     1     -33.223  10.648  -1.910  1.00  0.00     0.294 HD
ENDBRANCH  10  23
BRANCH   5  25
ATOM     25  O   UNL     1     -27.082  14.386   2.249  1.00  0.00    -0.507 OA
ATOM     26  H   UNL     1     -26.864  14.186   3.218  1.00  0.00     0.293 HD
ENDBRANCH   5  25
BRANCH   7  27
ATOM     27  O   UNL     1     -27.897  11.046  -1.125  1.00  0.00    -0.507 OA
ATOM     28  H   UNL     1     -27.600  11.324  -2.048  1.00  0.00     0.293 HD
ENDBRANCH   7  27
TORSDOF 7
ENDMDL
