MODEL 1
REMARK VINA RESULT:    24.639      0.000      0.000
REMARK INTER + INTRA:          34.622
REMARK INTER:                  34.001
REMARK INTRA:                   0.620
REMARK UNBOUND:                 0.620
REMARK SMILES CC[C@H](CC[C@@H](C)[C@H]1CC[C@@H]2[C@H]3CC=C4C[C@@H](O)CC[C@@]4(C)[C@H]3CC[C@@]21C)C(C)C
REMARK SMILES IDX 5 1 4 2 3 3 2 4 1 5 28 6 29 7 30 8 6 9 7 10 8 11 9 12 26 13
REMARK SMILES IDX 10 14 11 15 25 16 27 17 12 18 24 19 23 20 13 21 21 22 14 23
REMARK SMILES IDX 15 24 20 25 22 26 16 27 19 28 17 29 18 30
REMARK H PARENT 18 31
REMARK Flexibility Score: inf
ROOT
ATOM      1  C   UNL     1       5.350  77.924   6.019  1.00  0.00     0.004 C 
ENDROOT
BRANCH   1   2
ATOM      2  C   UNL     1       4.782  77.665   7.440  1.00  0.00     0.004 C 
BRANCH   2   3
ATOM      3  C   UNL     1       3.512  78.493   7.790  1.00  0.00    -0.009 C 
BRANCH   3   4
ATOM      4  C   UNL     1       2.236  77.653   7.463  1.00  0.00     0.000 C 
ATOM      5  C   UNL     1       1.656  77.921   6.068  1.00  0.00     0.004 C 
ENDBRANCH   3   4
BRANCH   3   6
ATOM      6  C   UNL     1       3.513  79.059   9.256  1.00  0.00    -0.014 C 
ATOM      7  C   UNL     1       2.162  79.696   9.628  1.00  0.00     0.007 C 
ATOM      8  C   UNL     1       3.846  77.970  10.289  1.00  0.00     0.007 C 
ENDBRANCH   3   6
ENDBRANCH   2   3
ENDBRANCH   1   2
BRANCH   1   9
ATOM      9  C   UNL     1       6.836  78.391   6.022  1.00  0.00    -0.011 C 
ATOM     10  C   UNL     1       7.689  77.405   6.867  1.00  0.00     0.008 C 
BRANCH   9  11
ATOM     11  C   UNL     1       7.430  78.538   4.572  1.00  0.00    -0.002 C 
ATOM     12  C   UNL     1       7.169  79.918   3.946  1.00  0.00     0.005 C 
ATOM     13  C   UNL     1       8.991  78.279   4.369  1.00  0.00    -0.026 C 
ATOM     14  C   UNL     1       8.261  80.114   2.923  1.00  0.00     0.005 C 
ATOM     15  C   UNL     1       9.493  79.550   3.610  1.00  0.00    -0.001 C 
ATOM     16  C   UNL     1       9.187  76.990   3.513  1.00  0.00     0.007 C 
ATOM     17  C   UNL     1       9.771  78.129   5.704  1.00  0.00     0.012 C 
ATOM     18  C   UNL     1      10.702  79.412   2.628  1.00  0.00     0.000 C 
ATOM     19  C   UNL     1      10.537  76.898   2.791  1.00  0.00     0.005 C 
ATOM     20  C   UNL     1      10.710  78.090   1.824  1.00  0.00     0.003 C 
ATOM     21  C   UNL     1      12.039  79.627   3.357  1.00  0.00     0.031 C 
ATOM     22  C   UNL     1      11.944  78.018   0.820  1.00  0.00    -0.008 C 
ATOM     23  C   UNL     1      13.216  79.475   2.450  1.00  0.00    -0.027 C 
ATOM     24  C   UNL     1      13.224  78.652   1.384  1.00  0.00    -0.065 C 
ATOM     25  C   UNL     1      12.280  76.545   0.421  1.00  0.00     0.014 C 
ATOM     26  C   UNL     1      11.541  78.803  -0.460  1.00  0.00     0.016 C 
ATOM     27  C   UNL     1      14.514  78.497   0.597  1.00  0.00     0.063 C 
ATOM     28  C   UNL     1      13.531  76.410  -0.464  1.00  0.00     0.033 C 
ATOM     29  C   UNL     1      14.765  77.034   0.207  1.00  0.00     0.118 C 
BRANCH  29  30
ATOM     30  O   UNL     1      15.122  76.301   1.352  1.00  0.00    -0.393 OA
ATOM     31  H   UNL     1      16.078  76.056   1.249  1.00  0.00     0.210 HD
ENDBRANCH  29  30
ENDBRANCH   9  11
ENDBRANCH   1   9
TORSDOF 7
ENDMDL
MODEL 2
REMARK VINA RESULT:    26.894      3.101     10.133
REMARK INTER + INTRA:          37.734
REMARK INTER:                  36.107
REMARK INTRA:                   1.627
REMARK UNBOUND:                 0.620
REMARK SMILES CC[C@H](CC[C@@H](C)[C@H]1CC[C@@H]2[C@H]3CC=C4C[C@@H](O)CC[C@@]4(C)[C@H]3CC[C@@]21C)C(C)C
REMARK SMILES IDX 5 1 4 2 3 3 2 4 1 5 28 6 29 7 30 8 6 9 7 10 8 11 9 12 26 13
REMARK SMILES IDX 10 14 11 15 25 16 27 17 12 18 24 19 23 20 13 21 21 22 14 23
REMARK SMILES IDX 15 24 20 25 22 26 16 27 19 28 17 29 18 30
REMARK H PARENT 18 31
REMARK Flexibility Score: inf
ROOT
ATOM      1  C   UNL     1      10.768  78.027   2.551  1.00  0.00     0.004 C 
ENDROOT
BRANCH   1   2
ATOM      2  C   UNL     1      11.867  78.884   1.868  1.00  0.00     0.004 C 
BRANCH   2   3
ATOM      3  C   UNL     1      13.149  78.095   1.470  1.00  0.00    -0.009 C 
BRANCH   3   4
ATOM      4  C   UNL     1      12.779  76.996   0.423  1.00  0.00     0.000 C 
ATOM      5  C   UNL     1      13.633  77.040  -0.852  1.00  0.00     0.004 C 
ENDBRANCH   3   4
BRANCH   3   6
ATOM      6  C   UNL     1      14.334  79.014   1.000  1.00  0.00    -0.014 C 
ATOM      7  C   UNL     1      14.037  79.688  -0.352  1.00  0.00     0.007 C 
ATOM      8  C   UNL     1      14.657  80.105   2.034  1.00  0.00     0.007 C 
ENDBRANCH   3   6
ENDBRANCH   2   3
ENDBRANCH   1   2
BRANCH   1   9
ATOM      9  C   UNL     1       9.943  78.812   3.613  1.00  0.00    -0.011 C 
ATOM     10  C   UNL     1       9.222  80.007   2.932  1.00  0.00     0.008 C 
BRANCH   9  11
ATOM     11  C   UNL     1       8.911  77.901   4.376  1.00  0.00    -0.002 C 
ATOM     12  C   UNL     1       9.515  77.188   5.597  1.00  0.00     0.005 C 
ATOM     13  C   UNL     1       7.567  78.572   4.911  1.00  0.00    -0.026 C 
ATOM     14  C   UNL     1       8.355  76.903   6.518  1.00  0.00     0.005 C 
ATOM     15  C   UNL     1       7.507  78.160   6.418  1.00  0.00    -0.001 C 
ATOM     16  C   UNL     1       6.356  77.996   4.115  1.00  0.00     0.007 C 
ATOM     17  C   UNL     1       7.562  80.122   4.797  1.00  0.00     0.012 C 
ATOM     18  C   UNL     1       6.110  77.982   7.094  1.00  0.00     0.000 C 
ATOM     19  C   UNL     1       5.004  78.111   4.829  1.00  0.00     0.005 C 
ATOM     20  C   UNL     1       5.040  77.350   6.172  1.00  0.00     0.003 C 
ATOM     21  C   UNL     1       5.610  79.305   7.698  1.00  0.00     0.031 C 
ATOM     22  C   UNL     1       3.649  77.165   6.922  1.00  0.00    -0.008 C 
ATOM     23  C   UNL     1       4.263  79.175   8.330  1.00  0.00    -0.027 C 
ATOM     24  C   UNL     1       3.329  78.305   7.900  1.00  0.00    -0.065 C 
ATOM     25  C   UNL     1       2.458  77.055   5.915  1.00  0.00     0.014 C 
ATOM     26  C   UNL     1       3.738  75.843   7.736  1.00  0.00     0.016 C 
ATOM     27  C   UNL     1       1.955  78.336   8.550  1.00  0.00     0.063 C 
ATOM     28  C   UNL     1       1.077  76.982   6.590  1.00  0.00     0.033 C 
ATOM     29  C   UNL     1       0.836  78.188   7.511  1.00  0.00     0.118 C 
BRANCH  29  30
ATOM     30  O   UNL     1       0.742  79.369   6.754  1.00  0.00    -0.393 OA
ATOM     31  H   UNL     1       1.196  79.191   5.890  1.00  0.00     0.210 HD
ENDBRANCH  29  30
ENDBRANCH   9  11
ENDBRANCH   1   9
TORSDOF 7
ENDMDL
