MODEL 1
REMARK VINA RESULT:    -3.389      0.000      0.000
REMARK INTER + INTRA:          -6.770
REMARK INTER:                  -5.766
REMARK INTRA:                  -1.004
REMARK UNBOUND:                -1.004
REMARK SMILES CCCCCCCCCCCCCC(=O)[O-]
REMARK SMILES IDX 8 1 9 2 10 3 11 4 12 5 13 6 14 7 15 8 16 9 7 10 6 11 5 12
REMARK SMILES IDX 4 13 3 14 2 15 1 16
REMARK H PARENT
REMARK Flexibility Score: inf
ROOT
ATOM      1  C   UNL     1     -53.420 121.374  -8.389  1.00  0.00     0.000 C 
ENDROOT
BRANCH   1   2
ATOM      2  C   UNL     1     -52.746 120.205  -9.127  1.00  0.00     0.000 C 
BRANCH   2   3
ATOM      3  C   UNL     1     -53.692 119.498 -10.109  1.00  0.00     0.000 C 
BRANCH   3   4
ATOM      4  C   UNL     1     -53.639 120.158 -11.492  1.00  0.00     0.000 C 
BRANCH   4   5
ATOM      5  C   UNL     1     -55.036 120.231 -12.122  1.00  0.00     0.006 C 
BRANCH   5   6
ATOM      6  C   UNL     1     -56.124 120.255 -11.044  1.00  0.00     0.053 C 
BRANCH   6   7
ATOM      7  C   UNL     1     -56.412 121.661 -10.622  1.00  0.00     0.041 C 
ATOM      8  O   UNL     1     -56.235 122.613 -11.426  1.00  0.00    -0.550 OA
ATOM      9  O   UNL     1     -56.830 121.926  -9.324  1.00  0.00    -0.550 OA
ENDBRANCH   6   7
ENDBRANCH   5   6
ENDBRANCH   4   5
ENDBRANCH   3   4
ENDBRANCH   2   3
ENDBRANCH   1   2
BRANCH   1  10
ATOM     10  C   UNL     1     -52.903 122.745  -8.858  1.00  0.00     0.000 C 
BRANCH  10  11
ATOM     11  C   UNL     1     -51.619 122.636  -9.696  1.00  0.00    -0.000 C 
BRANCH  11  12
ATOM     12  C   UNL     1     -50.440 123.403  -9.080  1.00  0.00    -0.000 C 
BRANCH  12  13
ATOM     13  C   UNL     1     -49.107 122.728  -9.421  1.00  0.00    -0.000 C 
BRANCH  13  14
ATOM     14  C   UNL     1     -49.335 121.410 -10.178  1.00  0.00    -0.000 C 
BRANCH  14  15
ATOM     15  C   UNL     1     -49.320 121.596 -11.704  1.00  0.00    -0.003 C 
ATOM     16  C   UNL     1     -48.939 123.015 -12.123  1.00  0.00     0.004 C 
ENDBRANCH  14  15
ENDBRANCH  13  14
ENDBRANCH  12  13
ENDBRANCH  11  12
ENDBRANCH  10  11
ENDBRANCH   1  10
TORSDOF 12
ENDMDL
MODEL 2
REMARK VINA RESULT:    -3.354      1.006      1.784
REMARK INTER + INTRA:          -6.711
REMARK INTER:                  -5.946
REMARK INTRA:                  -0.764
REMARK UNBOUND:                -1.004
REMARK SMILES CCCCCCCCCCCCCC(=O)[O-]
REMARK SMILES IDX 8 1 9 2 10 3 11 4 12 5 13 6 14 7 15 8 16 9 7 10 6 11 5 12
REMARK SMILES IDX 4 13 3 14 2 15 1 16
REMARK H PARENT
REMARK Flexibility Score: inf
ROOT
ATOM      1  C   UNL     1     -53.025 121.628  -8.946  1.00  0.00     0.000 C 
ENDROOT
BRANCH   1   2
ATOM      2  C   UNL     1     -52.847 120.201  -9.489  1.00  0.00     0.000 C 
BRANCH   2   3
ATOM      3  C   UNL     1     -54.174 119.560  -9.923  1.00  0.00     0.000 C 
BRANCH   3   4
ATOM      4  C   UNL     1     -54.467 119.853 -11.399  1.00  0.00     0.000 C 
BRANCH   4   5
ATOM      5  C   UNL     1     -55.978 119.909 -11.660  1.00  0.00     0.006 C 
BRANCH   5   6
ATOM      6  C   UNL     1     -56.743 120.255 -10.379  1.00  0.00     0.053 C 
BRANCH   6   7
ATOM      7  C   UNL     1     -56.532 121.690 -10.013  1.00  0.00     0.041 C 
ATOM      8  O   UNL     1     -56.564 122.048  -8.808  1.00  0.00    -0.550 OA
ATOM      9  O   UNL     1     -56.348 122.641 -11.009  1.00  0.00    -0.550 OA
ENDBRANCH   6   7
ENDBRANCH   5   6
ENDBRANCH   4   5
ENDBRANCH   3   4
ENDBRANCH   2   3
ENDBRANCH   1   2
BRANCH   1  10
ATOM     10  C   UNL     1     -52.517 122.700  -9.924  1.00  0.00     0.000 C 
BRANCH  10  11
ATOM     11  C   UNL     1     -52.155 122.120 -11.301  1.00  0.00    -0.000 C 
BRANCH  11  12
ATOM     12  C   UNL     1     -50.654 122.215 -11.610  1.00  0.00    -0.000 C 
BRANCH  12  13
ATOM     13  C   UNL     1     -49.837 121.359 -10.636  1.00  0.00    -0.000 C 
BRANCH  13  14
ATOM     14  C   UNL     1     -48.876 122.229  -9.811  1.00  0.00    -0.000 C 
BRANCH  14  15
ATOM     15  C   UNL     1     -48.886 123.701 -10.252  1.00  0.00    -0.003 C 
ATOM     16  C   UNL     1     -49.085 124.667  -9.085  1.00  0.00     0.004 C 
ENDBRANCH  14  15
ENDBRANCH  13  14
ENDBRANCH  12  13
ENDBRANCH  11  12
ENDBRANCH  10  11
ENDBRANCH   1  10
TORSDOF 12
ENDMDL
MODEL 3
REMARK VINA RESULT:    -3.101      1.739      2.634
REMARK INTER + INTRA:          -6.280
REMARK INTER:                  -5.339
REMARK INTRA:                  -0.941
REMARK UNBOUND:                -1.004
REMARK SMILES CCCCCCCCCCCCCC(=O)[O-]
REMARK SMILES IDX 8 1 9 2 10 3 11 4 12 5 13 6 14 7 15 8 16 9 7 10 6 11 5 12
REMARK SMILES IDX 4 13 3 14 2 15 1 16
REMARK H PARENT
REMARK Flexibility Score: inf
ROOT
ATOM      1  C   UNL     1     -53.245 120.604  -9.766  1.00  0.00     0.000 C 
ENDROOT
BRANCH   1   2
ATOM      2  C   UNL     1     -54.110 121.746  -9.207  1.00  0.00     0.000 C 
BRANCH   2   3
ATOM      3  C   UNL     1     -54.269 122.910 -10.196  1.00  0.00     0.000 C 
BRANCH   3   4
ATOM      4  C   UNL     1     -54.365 122.395 -11.637  1.00  0.00     0.000 C 
BRANCH   4   5
ATOM      5  C   UNL     1     -55.808 122.013 -11.991  1.00  0.00     0.006 C 
BRANCH   5   6
ATOM      6  C   UNL     1     -55.957 120.495 -12.125  1.00  0.00     0.053 C 
BRANCH   6   7
ATOM      7  C   UNL     1     -56.919 119.972 -11.105  1.00  0.00     0.041 C 
ATOM      8  O   UNL     1     -57.894 120.675 -10.734  1.00  0.00    -0.550 OA
ATOM      9  O   UNL     1     -56.711 118.725 -10.529  1.00  0.00    -0.550 OA
ENDBRANCH   6   7
ENDBRANCH   5   6
ENDBRANCH   4   5
ENDBRANCH   3   4
ENDBRANCH   2   3
ENDBRANCH   1   2
BRANCH   1  10
ATOM     10  C   UNL     1     -51.772 121.010  -9.939  1.00  0.00     0.000 C 
BRANCH  10  11
ATOM     11  C   UNL     1     -51.328 121.011 -11.411  1.00  0.00    -0.000 C 
BRANCH  11  12
ATOM     12  C   UNL     1     -50.316 122.123 -11.726  1.00  0.00    -0.000 C 
BRANCH  12  13
ATOM     13  C   UNL     1     -49.456 122.446 -10.498  1.00  0.00    -0.000 C 
BRANCH  13  14
ATOM     14  C   UNL     1     -48.875 123.866 -10.591  1.00  0.00    -0.000 C 
BRANCH  14  15
ATOM     15  C   UNL     1     -48.893 124.600  -9.241  1.00  0.00    -0.003 C 
ATOM     16  C   UNL     1     -50.179 124.358  -8.453  1.00  0.00     0.004 C 
ENDBRANCH  14  15
ENDBRANCH  13  14
ENDBRANCH  12  13
ENDBRANCH  11  12
ENDBRANCH  10  11
ENDBRANCH   1  10
TORSDOF 12
ENDMDL
MODEL 4
REMARK VINA RESULT:    -3.045      1.833      3.329
REMARK INTER + INTRA:          -6.185
REMARK INTER:                  -4.971
REMARK INTRA:                  -1.214
REMARK UNBOUND:                -1.004
REMARK SMILES CCCCCCCCCCCCCC(=O)[O-]
REMARK SMILES IDX 8 1 9 2 10 3 11 4 12 5 13 6 14 7 15 8 16 9 7 10 6 11 5 12
REMARK SMILES IDX 4 13 3 14 2 15 1 16
REMARK H PARENT
REMARK Flexibility Score: inf
ROOT
ATOM      1  C   UNL     1     -54.085 120.015 -11.485  1.00  0.00     0.000 C 
ENDROOT
BRANCH   1   2
ATOM      2  C   UNL     1     -55.191 120.933 -12.033  1.00  0.00     0.000 C 
BRANCH   2   3
ATOM      3  C   UNL     1     -56.208 121.344 -10.957  1.00  0.00     0.000 C 
BRANCH   3   4
ATOM      4  C   UNL     1     -55.973 120.568  -9.656  1.00  0.00     0.000 C 
BRANCH   4   5
ATOM      5  C   UNL     1     -55.410 121.483  -8.562  1.00  0.00     0.006 C 
BRANCH   5   6
ATOM      6  C   UNL     1     -53.878 121.486  -8.583  1.00  0.00     0.053 C 
BRANCH   6   7
ATOM      7  C   UNL     1     -53.362 122.856  -8.893  1.00  0.00     0.041 C 
ATOM      8  O   UNL     1     -52.346 123.300  -8.298  1.00  0.00    -0.550 OA
ATOM      9  O   UNL     1     -54.032 123.662  -9.805  1.00  0.00    -0.550 OA
ENDBRANCH   6   7
ENDBRANCH   5   6
ENDBRANCH   4   5
ENDBRANCH   3   4
ENDBRANCH   2   3
ENDBRANCH   1   2
BRANCH   1  10
ATOM     10  C   UNL     1     -52.713 120.301 -12.119  1.00  0.00     0.000 C 
BRANCH  10  11
ATOM     11  C   UNL     1     -52.366 121.799 -12.125  1.00  0.00    -0.000 C 
BRANCH  11  12
ATOM     12  C   UNL     1     -50.899 122.070 -11.760  1.00  0.00    -0.000 C 
BRANCH  12  13
ATOM     13  C   UNL     1     -50.481 121.262 -10.526  1.00  0.00    -0.000 C 
BRANCH  13  14
ATOM     14  C   UNL     1     -49.293 121.923  -9.811  1.00  0.00    -0.000 C 
BRANCH  14  15
ATOM     15  C   UNL     1     -49.002 123.339 -10.335  1.00  0.00    -0.003 C 
ATOM     16  C   UNL     1     -48.893 124.373  -9.216  1.00  0.00     0.004 C 
ENDBRANCH  14  15
ENDBRANCH  13  14
ENDBRANCH  12  13
ENDBRANCH  11  12
ENDBRANCH  10  11
ENDBRANCH   1  10
TORSDOF 12
ENDMDL
MODEL 5
REMARK VINA RESULT:    -3.014      3.011      5.856
REMARK INTER + INTRA:          -6.133
REMARK INTER:                  -5.499
REMARK INTRA:                  -0.634
REMARK UNBOUND:                -1.004
REMARK SMILES CCCCCCCCCCCCCC(=O)[O-]
REMARK SMILES IDX 8 1 9 2 10 3 11 4 12 5 13 6 14 7 15 8 16 9 7 10 6 11 5 12
REMARK SMILES IDX 4 13 3 14 2 15 1 16
REMARK H PARENT
REMARK Flexibility Score: inf
ROOT
ATOM      1  C   UNL     1     -53.868 119.869 -11.173  1.00  0.00     0.000 C 
ENDROOT
BRANCH   1   2
ATOM      2  C   UNL     1     -52.701 120.195 -12.120  1.00  0.00     0.000 C 
BRANCH   2   3
ATOM      3  C   UNL     1     -52.183 121.631 -11.953  1.00  0.00     0.000 C 
BRANCH   3   4
ATOM      4  C   UNL     1     -50.663 121.644 -11.749  1.00  0.00     0.000 C 
BRANCH   4   5
ATOM      5  C   UNL     1     -50.302 121.393 -10.280  1.00  0.00     0.006 C 
BRANCH   5   6
ATOM      6  C   UNL     1     -48.903 121.928  -9.959  1.00  0.00     0.053 C 
BRANCH   6   7
ATOM      7  C   UNL     1     -48.923 123.421  -9.865  1.00  0.00     0.041 C 
ATOM      8  O   UNL     1     -49.028 123.984  -8.744  1.00  0.00    -0.550 OA
ATOM      9  O   UNL     1     -48.875 124.191 -11.020  1.00  0.00    -0.550 OA
ENDBRANCH   6   7
ENDBRANCH   5   6
ENDBRANCH   4   5
ENDBRANCH   3   4
ENDBRANCH   2   3
ENDBRANCH   1   2
BRANCH   1  10
ATOM     10  C   UNL     1     -55.239 120.011 -11.856  1.00  0.00     0.000 C 
BRANCH  10  11
ATOM     11  C   UNL     1     -56.400 120.033 -10.849  1.00  0.00    -0.000 C 
BRANCH  11  12
ATOM     12  C   UNL     1     -56.578 121.403 -10.177  1.00  0.00    -0.000 C 
BRANCH  12  13
ATOM     13  C   UNL     1     -56.012 121.392  -8.752  1.00  0.00    -0.000 C 
BRANCH  13  14
ATOM     14  C   UNL     1     -54.480 121.506  -8.767  1.00  0.00    -0.000 C 
BRANCH  14  15
ATOM     15  C   UNL     1     -53.997 122.946  -8.999  1.00  0.00    -0.003 C 
ATOM     16  C   UNL     1     -52.629 123.219  -8.376  1.00  0.00     0.004 C 
ENDBRANCH  14  15
ENDBRANCH  13  14
ENDBRANCH  12  13
ENDBRANCH  11  12
ENDBRANCH  10  11
ENDBRANCH   1  10
TORSDOF 12
ENDMDL
MODEL 6
REMARK VINA RESULT:    -2.989      1.633      3.005
REMARK INTER + INTRA:          -6.090
REMARK INTER:                  -4.804
REMARK INTRA:                  -1.286
REMARK UNBOUND:                -1.004
REMARK SMILES CCCCCCCCCCCCCC(=O)[O-]
REMARK SMILES IDX 8 1 9 2 10 3 11 4 12 5 13 6 14 7 15 8 16 9 7 10 6 11 5 12
REMARK SMILES IDX 4 13 3 14 2 15 1 16
REMARK H PARENT
REMARK Flexibility Score: inf
ROOT
ATOM      1  C   UNL     1     -52.645 122.154 -11.746  1.00  0.00     0.000 C 
ENDROOT
BRANCH   1   2
ATOM      2  C   UNL     1     -53.127 120.744 -12.125  1.00  0.00     0.000 C 
BRANCH   2   3
ATOM      3  C   UNL     1     -53.507 119.897 -10.901  1.00  0.00     0.000 C 
BRANCH   3   4
ATOM      4  C   UNL     1     -53.803 120.789  -9.689  1.00  0.00     0.000 C 
BRANCH   4   5
ATOM      5  C   UNL     1     -55.306 120.827  -9.385  1.00  0.00     0.006 C 
BRANCH   5   6
ATOM      6  C   UNL     1     -56.107 121.223 -10.629  1.00  0.00     0.053 C 
BRANCH   6   7
ATOM      7  C   UNL     1     -57.102 120.160 -10.971  1.00  0.00     0.041 C 
ATOM      8  O   UNL     1     -58.241 120.473 -11.406  1.00  0.00    -0.550 OA
ATOM      9  O   UNL     1     -56.790 118.822 -10.762  1.00  0.00    -0.550 OA
ENDBRANCH   6   7
ENDBRANCH   5   6
ENDBRANCH   4   5
ENDBRANCH   3   4
ENDBRANCH   2   3
ENDBRANCH   1   2
BRANCH   1  10
ATOM     10  C   UNL     1     -51.173 122.396 -12.124  1.00  0.00     0.000 C 
BRANCH  10  11
ATOM     11  C   UNL     1     -50.217 121.412 -11.432  1.00  0.00    -0.000 C 
BRANCH  11  12
ATOM     12  C   UNL     1     -50.143 121.624  -9.913  1.00  0.00    -0.000 C 
BRANCH  12  13
ATOM     13  C   UNL     1     -49.575 123.009  -9.579  1.00  0.00    -0.000 C 
BRANCH  13  14
ATOM     14  C   UNL     1     -50.627 123.878  -8.872  1.00  0.00    -0.000 C 
BRANCH  14  15
ATOM     15  C   UNL     1     -51.802 123.054  -8.323  1.00  0.00    -0.003 C 
ATOM     16  C   UNL     1     -53.132 123.805  -8.385  1.00  0.00     0.004 C 
ENDBRANCH  14  15
ENDBRANCH  13  14
ENDBRANCH  12  13
ENDBRANCH  11  12
ENDBRANCH  10  11
ENDBRANCH   1  10
TORSDOF 12
ENDMDL
MODEL 7
REMARK VINA RESULT:    -2.682      2.992      5.814
REMARK INTER + INTRA:          -5.567
REMARK INTER:                  -4.339
REMARK INTRA:                  -1.228
REMARK UNBOUND:                -1.004
REMARK SMILES CCCCCCCCCCCCCC(=O)[O-]
REMARK SMILES IDX 8 1 9 2 10 3 11 4 12 5 13 6 14 7 15 8 16 9 7 10 6 11 5 12
REMARK SMILES IDX 4 13 3 14 2 15 1 16
REMARK H PARENT
REMARK Flexibility Score: inf
ROOT
ATOM      1  C   UNL     1     -53.575 121.354  -8.719  1.00  0.00     0.000 C 
ENDROOT
BRANCH   1   2
ATOM      2  C   UNL     1     -52.986 120.274  -9.642  1.00  0.00     0.000 C 
BRANCH   2   3
ATOM      3  C   UNL     1     -51.473 120.434  -9.854  1.00  0.00     0.000 C 
BRANCH   3   4
ATOM      4  C   UNL     1     -51.174 121.030 -11.235  1.00  0.00     0.000 C 
BRANCH   4   5
ATOM      5  C   UNL     1     -49.767 121.639 -11.280  1.00  0.00     0.006 C 
BRANCH   5   6
ATOM      6  C   UNL     1     -49.336 122.127  -9.894  1.00  0.00     0.053 C 
BRANCH   6   7
ATOM      7  C   UNL     1     -49.137 123.610  -9.899  1.00  0.00     0.041 C 
ATOM      8  O   UNL     1     -48.876 124.210 -10.973  1.00  0.00    -0.550 OA
ATOM      9  O   UNL     1     -49.190 124.322  -8.707  1.00  0.00    -0.550 OA
ENDBRANCH   6   7
ENDBRANCH   5   6
ENDBRANCH   4   5
ENDBRANCH   3   4
ENDBRANCH   2   3
ENDBRANCH   1   2
BRANCH   1  10
ATOM     10  C   UNL     1     -53.380 122.775  -9.274  1.00  0.00     0.000 C 
BRANCH  10  11
ATOM     11  C   UNL     1     -54.490 123.182 -10.257  1.00  0.00    -0.000 C 
BRANCH  11  12
ATOM     12  C   UNL     1     -54.185 122.764 -11.703  1.00  0.00    -0.000 C 
BRANCH  12  13
ATOM     13  C   UNL     1     -55.054 121.574 -12.125  1.00  0.00    -0.000 C 
BRANCH  13  14
ATOM     14  C   UNL     1     -56.478 121.704 -11.561  1.00  0.00    -0.000 C 
BRANCH  14  15
ATOM     15  C   UNL     1     -57.236 120.367 -11.558  1.00  0.00    -0.003 C 
ATOM     16  C   UNL     1     -56.694 119.382 -10.523  1.00  0.00     0.004 C 
ENDBRANCH  14  15
ENDBRANCH  13  14
ENDBRANCH  12  13
ENDBRANCH  11  12
ENDBRANCH  10  11
ENDBRANCH   1  10
TORSDOF 12
ENDMDL
MODEL 8
REMARK VINA RESULT:    -2.609      3.019      6.378
REMARK INTER + INTRA:          -5.442
REMARK INTER:                  -4.821
REMARK INTRA:                  -0.621
REMARK UNBOUND:                -1.004
REMARK SMILES CCCCCCCCCCCCCC(=O)[O-]
REMARK SMILES IDX 8 1 9 2 10 3 11 4 12 5 13 6 14 7 15 8 16 9 7 10 6 11 5 12
REMARK SMILES IDX 4 13 3 14 2 15 1 16
REMARK H PARENT
REMARK Flexibility Score: inf
ROOT
ATOM      1  C   UNL     1     -53.523 120.030  -9.997  1.00  0.00     0.000 C 
ENDROOT
BRANCH   1   2
ATOM      2  C   UNL     1     -52.055 120.250  -9.596  1.00  0.00     0.000 C 
BRANCH   2   3
ATOM      3  C   UNL     1     -51.601 121.707  -9.779  1.00  0.00     0.000 C 
BRANCH   3   4
ATOM      4  C   UNL     1     -50.861 121.887 -11.110  1.00  0.00     0.000 C 
BRANCH   4   5
ATOM      5  C   UNL     1     -49.348 122.007 -10.887  1.00  0.00     0.006 C 
BRANCH   5   6
ATOM      6  C   UNL     1     -49.041 122.566  -9.495  1.00  0.00     0.053 C 
BRANCH   6   7
ATOM      7  C   UNL     1     -49.052 124.062  -9.518  1.00  0.00     0.041 C 
ATOM      8  O   UNL     1     -49.265 124.711  -8.461  1.00  0.00    -0.550 OA
ATOM      9  O   UNL     1     -48.875 124.740 -10.717  1.00  0.00    -0.550 OA
ENDBRANCH   6   7
ENDBRANCH   5   6
ENDBRANCH   4   5
ENDBRANCH   3   4
ENDBRANCH   2   3
ENDBRANCH   1   2
BRANCH   1  10
ATOM     10  C   UNL     1     -53.713 119.954 -11.522  1.00  0.00     0.000 C 
BRANCH  10  11
ATOM     11  C   UNL     1     -54.229 121.273 -12.119  1.00  0.00    -0.000 C 
BRANCH  11  12
ATOM     12  C   UNL     1     -55.762 121.371 -12.108  1.00  0.00    -0.000 C 
BRANCH  12  13
ATOM     13  C   UNL     1     -56.398 119.996 -11.872  1.00  0.00    -0.000 C 
BRANCH  13  14
ATOM     14  C   UNL     1     -57.022 119.912 -10.470  1.00  0.00    -0.000 C 
BRANCH  14  15
ATOM     15  C   UNL     1     -57.149 121.288  -9.797  1.00  0.00    -0.003 C 
ATOM     16  C   UNL     1     -56.308 121.404  -8.526  1.00  0.00     0.004 C 
ENDBRANCH  14  15
ENDBRANCH  13  14
ENDBRANCH  12  13
ENDBRANCH  11  12
ENDBRANCH  10  11
ENDBRANCH   1  10
TORSDOF 12
ENDMDL
MODEL 9
REMARK VINA RESULT:    -1.584      1.794      2.849
REMARK INTER + INTRA:          -3.698
REMARK INTER:                  -2.979
REMARK INTRA:                  -0.719
REMARK UNBOUND:                -1.004
REMARK SMILES CCCCCCCCCCCCCC(=O)[O-]
REMARK SMILES IDX 8 1 9 2 10 3 11 4 12 5 13 6 14 7 15 8 16 9 7 10 6 11 5 12
REMARK SMILES IDX 4 13 3 14 2 15 1 16
REMARK H PARENT
REMARK Flexibility Score: inf
ROOT
ATOM      1  C   UNL     1     -53.371 123.001 -11.268  1.00  0.00     0.000 C 
ENDROOT
BRANCH   1   2
ATOM      2  C   UNL     1     -53.154 122.893  -9.749  1.00  0.00     0.000 C 
BRANCH   2   3
ATOM      3  C   UNL     1     -54.196 121.998  -9.062  1.00  0.00     0.000 C 
BRANCH   3   4
ATOM      4  C   UNL     1     -53.792 120.521  -9.150  1.00  0.00     0.000 C 
BRANCH   4   5
ATOM      5  C   UNL     1     -54.329 119.879 -10.436  1.00  0.00     0.006 C 
BRANCH   5   6
ATOM      6  C   UNL     1     -55.498 120.687 -11.006  1.00  0.00     0.053 C 
BRANCH   6   7
ATOM      7  C   UNL     1     -56.782 119.938 -10.840  1.00  0.00     0.041 C 
ATOM      8  O   UNL     1     -56.770 118.724 -10.510  1.00  0.00    -0.550 OA
ATOM      9  O   UNL     1     -57.993 120.569 -11.098  1.00  0.00    -0.550 OA
ENDBRANCH   6   7
ENDBRANCH   5   6
ENDBRANCH   4   5
ENDBRANCH   3   4
ENDBRANCH   2   3
ENDBRANCH   1   2
BRANCH   1  10
ATOM     10  C   UNL     1     -52.071 122.803 -12.066  1.00  0.00     0.000 C 
BRANCH  10  11
ATOM     11  C   UNL     1     -51.459 121.408 -11.861  1.00  0.00    -0.000 C 
BRANCH  11  12
ATOM     12  C   UNL     1     -50.140 121.447 -11.076  1.00  0.00    -0.000 C 
BRANCH  12  13
ATOM     13  C   UNL     1     -49.566 122.869 -11.037  1.00  0.00    -0.000 C 
BRANCH  13  14
ATOM     14  C   UNL     1     -48.988 123.192  -9.650  1.00  0.00    -0.000 C 
BRANCH  14  15
ATOM     15  C   UNL     1     -48.875 124.704  -9.396  1.00  0.00    -0.003 C 
ATOM     16  C   UNL     1     -49.417 125.116  -8.029  1.00  0.00     0.004 C 
ENDBRANCH  14  15
ENDBRANCH  13  14
ENDBRANCH  12  13
ENDBRANCH  11  12
ENDBRANCH  10  11
ENDBRANCH   1  10
TORSDOF 12
ENDMDL
