MODEL 1
REMARK VINA RESULT:    -4.928      0.000      0.000
REMARK INTER + INTRA:         -10.207
REMARK INTER:                  -8.385
REMARK INTRA:                  -1.821
REMARK UNBOUND:                -1.821
REMARK SMILES CCCCCCCCCCCCCC(=O)[O-]
REMARK SMILES IDX 8 1 9 2 10 3 11 4 12 5 13 6 14 7 15 8 16 9 7 10 6 11 5 12
REMARK SMILES IDX 4 13 3 14 2 15 1 16
REMARK H PARENT
REMARK Flexibility Score: inf
ROOT
ATOM      1  C   UNL     1     105.375  24.342 194.899  1.00  0.00     0.000 C 
ENDROOT
BRANCH   1   2
ATOM      2  C   UNL     1     104.838  25.609 195.588  1.00  0.00     0.000 C 
BRANCH   2   3
ATOM      3  C   UNL     1     104.436  25.368 197.054  1.00  0.00     0.000 C 
BRANCH   3   4
ATOM      4  C   UNL     1     102.913  25.316 197.247  1.00  0.00     0.000 C 
BRANCH   4   5
ATOM      5  C   UNL     1     102.396  23.886 197.483  1.00  0.00     0.006 C 
BRANCH   5   6
ATOM      6  C   UNL     1     102.411  23.502 198.968  1.00  0.00     0.053 C 
BRANCH   6   7
ATOM      7  C   UNL     1     101.035  23.517 199.557  1.00  0.00     0.041 C 
ATOM      8  O   UNL     1     100.866  23.829 200.766  1.00  0.00    -0.550 OA
ATOM      9  O   UNL     1      99.941  23.153 198.782  1.00  0.00    -0.550 OA
ENDBRANCH   6   7
ENDBRANCH   5   6
ENDBRANCH   4   5
ENDBRANCH   3   4
ENDBRANCH   2   3
ENDBRANCH   1   2
BRANCH   1  10
ATOM     10  C   UNL     1     104.303  23.458 194.235  1.00  0.00     0.000 C 
BRANCH  10  11
ATOM     11  C   UNL     1     104.141  22.093 194.926  1.00  0.00    -0.000 C 
BRANCH  11  12
ATOM     12  C   UNL     1     105.443  21.610 195.588  1.00  0.00    -0.000 C 
BRANCH  12  13
ATOM     13  C   UNL     1     105.325  21.518 197.119  1.00  0.00    -0.000 C 
BRANCH  13  14
ATOM     14  C   UNL     1     106.373  22.378 197.843  1.00  0.00    -0.000 C 
BRANCH  14  15
ATOM     15  C   UNL     1     106.371  22.162 199.363  1.00  0.00    -0.003 C 
ATOM     16  C   UNL     1     105.795  23.374 200.090  1.00  0.00     0.004 C 
ENDBRANCH  14  15
ENDBRANCH  13  14
ENDBRANCH  12  13
ENDBRANCH  11  12
ENDBRANCH  10  11
ENDBRANCH   1  10
TORSDOF 12
ENDMDL
MODEL 2
REMARK VINA RESULT:    -4.917      2.116      3.543
REMARK INTER + INTRA:         -10.187
REMARK INTER:                  -8.589
REMARK INTRA:                  -1.598
REMARK UNBOUND:                -1.821
REMARK SMILES CCCCCCCCCCCCCC(=O)[O-]
REMARK SMILES IDX 8 1 9 2 10 3 11 4 12 5 13 6 14 7 15 8 16 9 7 10 6 11 5 12
REMARK SMILES IDX 4 13 3 14 2 15 1 16
REMARK H PARENT
REMARK Flexibility Score: inf
ROOT
ATOM      1  C   UNL     1     104.879  24.855 194.782  1.00  0.00     0.000 C 
ENDROOT
BRANCH   1   2
ATOM      2  C   UNL     1     105.262  25.808 195.928  1.00  0.00     0.000 C 
BRANCH   2   3
ATOM      3  C   UNL     1     104.525  25.491 197.241  1.00  0.00     0.000 C 
BRANCH   3   4
ATOM      4  C   UNL     1     103.047  25.136 197.017  1.00  0.00     0.000 C 
BRANCH   4   5
ATOM      5  C   UNL     1     102.464  24.289 198.161  1.00  0.00     0.006 C 
BRANCH   5   6
ATOM      6  C   UNL     1     103.361  23.095 198.513  1.00  0.00     0.053 C 
BRANCH   6   7
ATOM      7  C   UNL     1     103.837  23.158 199.930  1.00  0.00     0.041 C 
ATOM      8  O   UNL     1     105.068  23.243 200.183  1.00  0.00    -0.550 OA
ATOM      9  O   UNL     1     102.924  23.089 200.975  1.00  0.00    -0.550 OA
ENDBRANCH   6   7
ENDBRANCH   5   6
ENDBRANCH   4   5
ENDBRANCH   3   4
ENDBRANCH   2   3
ENDBRANCH   1   2
BRANCH   1  10
ATOM     10  C   UNL     1     105.360  23.402 194.955  1.00  0.00     0.000 C 
BRANCH  10  11
ATOM     11  C   UNL     1     104.237  22.371 194.745  1.00  0.00    -0.000 C 
BRANCH  11  12
ATOM     12  C   UNL     1     103.402  22.658 193.485  1.00  0.00    -0.000 C 
BRANCH  12  13
ATOM     13  C   UNL     1     101.893  22.490 193.728  1.00  0.00    -0.000 C 
BRANCH  13  14
ATOM     14  C   UNL     1     101.560  22.219 195.205  1.00  0.00    -0.000 C 
BRANCH  14  15
ATOM     15  C   UNL     1     101.124  20.769 195.458  1.00  0.00    -0.003 C 
ATOM     16  C   UNL     1     100.417  20.636 196.805  1.00  0.00     0.004 C 
ENDBRANCH  14  15
ENDBRANCH  13  14
ENDBRANCH  12  13
ENDBRANCH  11  12
ENDBRANCH  10  11
ENDBRANCH   1  10
TORSDOF 12
ENDMDL
MODEL 3
REMARK VINA RESULT:    -4.912      1.375      2.426
REMARK INTER + INTRA:         -10.179
REMARK INTER:                  -8.181
REMARK INTRA:                  -1.998
REMARK UNBOUND:                -1.821
REMARK SMILES CCCCCCCCCCCCCC(=O)[O-]
REMARK SMILES IDX 8 1 9 2 10 3 11 4 12 5 13 6 14 7 15 8 16 9 7 10 6 11 5 12
REMARK SMILES IDX 4 13 3 14 2 15 1 16
REMARK H PARENT
REMARK Flexibility Score: inf
ROOT
ATOM      1  C   UNL     1     102.848  22.438 193.593  1.00  0.00     0.000 C 
ENDROOT
BRANCH   1   2
ATOM      2  C   UNL     1     101.891  22.482 194.797  1.00  0.00     0.000 C 
BRANCH   2   3
ATOM      3  C   UNL     1     102.194  21.393 195.842  1.00  0.00     0.000 C 
BRANCH   3   4
ATOM      4  C   UNL     1     102.115  21.919 197.283  1.00  0.00     0.000 C 
BRANCH   4   5
ATOM      5  C   UNL     1     101.422  23.290 197.373  1.00  0.00     0.006 C 
BRANCH   5   6
ATOM      6  C   UNL     1     101.938  24.123 198.553  1.00  0.00     0.053 C 
BRANCH   6   7
ATOM      7  C   UNL     1     101.316  23.699 199.847  1.00  0.00     0.041 C 
ATOM      8  O   UNL     1     100.161  24.095 200.155  1.00  0.00    -0.550 OA
ATOM      9  O   UNL     1     102.024  22.893 200.729  1.00  0.00    -0.550 OA
ENDBRANCH   6   7
ENDBRANCH   5   6
ENDBRANCH   4   5
ENDBRANCH   3   4
ENDBRANCH   2   3
ENDBRANCH   1   2
BRANCH   1  10
ATOM     10  C   UNL     1     104.315  22.780 193.914  1.00  0.00     0.000 C 
BRANCH  10  11
ATOM     11  C   UNL     1     104.474  24.155 194.588  1.00  0.00    -0.000 C 
BRANCH  11  12
ATOM     12  C   UNL     1     105.179  24.063 195.952  1.00  0.00    -0.000 C 
BRANCH  12  13
ATOM     13  C   UNL     1     105.686  22.643 196.258  1.00  0.00    -0.000 C 
BRANCH  13  14
ATOM     14  C   UNL     1     105.741  22.350 197.766  1.00  0.00    -0.000 C 
BRANCH  14  15
ATOM     15  C   UNL     1     105.352  23.564 198.622  1.00  0.00    -0.003 C 
ATOM     16  C   UNL     1     105.514  23.263 200.109  1.00  0.00     0.004 C 
ENDBRANCH  14  15
ENDBRANCH  13  14
ENDBRANCH  12  13
ENDBRANCH  11  12
ENDBRANCH  10  11
ENDBRANCH   1  10
TORSDOF 12
ENDMDL
MODEL 4
REMARK VINA RESULT:    -4.854      2.484      3.829
REMARK INTER + INTRA:         -10.081
REMARK INTER:                  -8.515
REMARK INTRA:                  -1.566
REMARK UNBOUND:                -1.821
REMARK SMILES CCCCCCCCCCCCCC(=O)[O-]
REMARK SMILES IDX 8 1 9 2 10 3 11 4 12 5 13 6 14 7 15 8 16 9 7 10 6 11 5 12
REMARK SMILES IDX 4 13 3 14 2 15 1 16
REMARK H PARENT
REMARK Flexibility Score: inf
ROOT
ATOM      1  C   UNL     1     105.373  24.013 195.085  1.00  0.00     0.000 C 
ENDROOT
BRANCH   1   2
ATOM      2  C   UNL     1     104.289  23.476 194.135  1.00  0.00     0.000 C 
BRANCH   2   3
ATOM      3  C   UNL     1     103.480  22.317 194.746  1.00  0.00     0.000 C 
BRANCH   3   4
ATOM      4  C   UNL     1     102.006  22.335 194.313  1.00  0.00     0.000 C 
BRANCH   4   5
ATOM      5  C   UNL     1     101.230  21.103 194.810  1.00  0.00     0.006 C 
BRANCH   5   6
ATOM      6  C   UNL     1     101.268  20.972 196.339  1.00  0.00     0.053 C 
BRANCH   6   7
ATOM      7  C   UNL     1     101.799  19.640 196.768  1.00  0.00     0.041 C 
ATOM      8  O   UNL     1     101.010  18.729 197.131  1.00  0.00    -0.550 OA
ATOM      9  O   UNL     1     103.170  19.416 196.801  1.00  0.00    -0.550 OA
ENDBRANCH   6   7
ENDBRANCH   5   6
ENDBRANCH   4   5
ENDBRANCH   3   4
ENDBRANCH   2   3
ENDBRANCH   1   2
BRANCH   1  10
ATOM     10  C   UNL     1     105.121  25.434 195.624  1.00  0.00     0.000 C 
BRANCH  10  11
ATOM     11  C   UNL     1     104.638  25.442 197.085  1.00  0.00    -0.000 C 
BRANCH  11  12
ATOM     12  C   UNL     1     103.109  25.319 197.200  1.00  0.00    -0.000 C 
BRANCH  12  13
ATOM     13  C   UNL     1     102.675  24.040 197.937  1.00  0.00    -0.000 C 
BRANCH  13  14
ATOM     14  C   UNL     1     103.867  23.157 198.336  1.00  0.00    -0.000 C 
BRANCH  14  15
ATOM     15  C   UNL     1     104.181  23.226 199.838  1.00  0.00    -0.003 C 
ATOM     16  C   UNL     1     105.685  23.323 200.081  1.00  0.00     0.004 C 
ENDBRANCH  14  15
ENDBRANCH  13  14
ENDBRANCH  12  13
ENDBRANCH  11  12
ENDBRANCH  10  11
ENDBRANCH   1  10
TORSDOF 12
ENDMDL
MODEL 5
REMARK VINA RESULT:    -4.812      2.185      4.003
REMARK INTER + INTRA:         -10.009
REMARK INTER:                  -8.356
REMARK INTRA:                  -1.654
REMARK UNBOUND:                -1.821
REMARK SMILES CCCCCCCCCCCCCC(=O)[O-]
REMARK SMILES IDX 8 1 9 2 10 3 11 4 12 5 13 6 14 7 15 8 16 9 7 10 6 11 5 12
REMARK SMILES IDX 4 13 3 14 2 15 1 16
REMARK H PARENT
REMARK Flexibility Score: inf
ROOT
ATOM      1  C   UNL     1     104.638  25.344 197.179  1.00  0.00     0.000 C 
ENDROOT
BRANCH   1   2
ATOM      2  C   UNL     1     103.108  25.500 197.149  1.00  0.00     0.000 C 
BRANCH   2   3
ATOM      3  C   UNL     1     102.366  24.185 197.447  1.00  0.00     0.000 C 
BRANCH   3   4
ATOM      4  C   UNL     1     103.263  23.144 198.133  1.00  0.00     0.000 C 
BRANCH   4   5
ATOM      5  C   UNL     1     103.340  21.822 197.351  1.00  0.00     0.006 C 
BRANCH   5   6
ATOM      6  C   UNL     1     102.203  21.687 196.329  1.00  0.00     0.053 C 
BRANCH   6   7
ATOM      7  C   UNL     1     101.095  20.821 196.844  1.00  0.00     0.041 C 
ATOM      8  O   UNL     1     100.026  21.340 197.259  1.00  0.00    -0.550 OA
ATOM      9  O   UNL     1     101.257  19.443 196.898  1.00  0.00    -0.550 OA
ENDBRANCH   6   7
ENDBRANCH   5   6
ENDBRANCH   4   5
ENDBRANCH   3   4
ENDBRANCH   2   3
ENDBRANCH   1   2
BRANCH   1  10
ATOM     10  C   UNL     1     105.326  25.403 195.802  1.00  0.00     0.000 C 
BRANCH  10  11
ATOM     11  C   UNL     1     105.375  24.035 195.099  1.00  0.00    -0.000 C 
BRANCH  11  12
ATOM     12  C   UNL     1     104.230  23.851 194.088  1.00  0.00    -0.000 C 
BRANCH  12  13
ATOM     13  C   UNL     1     104.271  22.477 193.397  1.00  0.00    -0.000 C 
BRANCH  13  14
ATOM     14  C   UNL     1     105.483  21.636 193.829  1.00  0.00    -0.000 C 
BRANCH  14  15
ATOM     15  C   UNL     1     106.163  20.925 192.650  1.00  0.00    -0.003 C 
ATOM     16  C   UNL     1     107.682  21.048 192.737  1.00  0.00     0.004 C 
ENDBRANCH  14  15
ENDBRANCH  13  14
ENDBRANCH  12  13
ENDBRANCH  11  12
ENDBRANCH  10  11
ENDBRANCH   1  10
TORSDOF 12
ENDMDL
MODEL 6
REMARK VINA RESULT:    -4.771      2.993      4.857
REMARK INTER + INTRA:          -9.939
REMARK INTER:                  -8.055
REMARK INTRA:                  -1.884
REMARK UNBOUND:                -1.821
REMARK SMILES CCCCCCCCCCCCCC(=O)[O-]
REMARK SMILES IDX 8 1 9 2 10 3 11 4 12 5 13 6 14 7 15 8 16 9 7 10 6 11 5 12
REMARK SMILES IDX 4 13 3 14 2 15 1 16
REMARK H PARENT
REMARK Flexibility Score: inf
ROOT
ATOM      1  C   UNL     1     104.082  22.868 193.649  1.00  0.00     0.000 C 
ENDROOT
BRANCH   1   2
ATOM      2  C   UNL     1     105.001  21.789 193.051  1.00  0.00     0.000 C 
BRANCH   2   3
ATOM      3  C   UNL     1     106.104  21.336 194.025  1.00  0.00     0.000 C 
BRANCH   3   4
ATOM      4  C   UNL     1     105.964  21.978 195.414  1.00  0.00     0.000 C 
BRANCH   4   5
ATOM      5  C   UNL     1     105.477  20.981 196.479  1.00  0.00     0.006 C 
BRANCH   5   6
ATOM      6  C   UNL     1     105.660  21.520 197.904  1.00  0.00     0.053 C 
BRANCH   6   7
ATOM      7  C   UNL     1     106.962  21.081 198.499  1.00  0.00     0.041 C 
ATOM      8  O   UNL     1     106.992  20.141 199.336  1.00  0.00    -0.550 OA
ATOM      9  O   UNL     1     108.139  21.735 198.157  1.00  0.00    -0.550 OA
ENDBRANCH   6   7
ENDBRANCH   5   6
ENDBRANCH   4   5
ENDBRANCH   3   4
ENDBRANCH   2   3
ENDBRANCH   1   2
BRANCH   1  10
ATOM     10  C   UNL     1     102.597  22.473 193.756  1.00  0.00     0.000 C 
BRANCH  10  11
ATOM     11  C   UNL     1     102.188  22.067 195.182  1.00  0.00    -0.000 C 
BRANCH  11  12
ATOM     12  C   UNL     1     101.707  23.264 196.020  1.00  0.00    -0.000 C 
BRANCH  12  13
ATOM     13  C   UNL     1     102.685  23.619 197.154  1.00  0.00    -0.000 C 
BRANCH  13  14
ATOM     14  C   UNL     1     103.183  25.070 197.070  1.00  0.00    -0.000 C 
BRANCH  14  15
ATOM     15  C   UNL     1     104.703  25.166 196.876  1.00  0.00    -0.003 C 
ATOM     16  C   UNL     1     105.047  25.794 195.529  1.00  0.00     0.004 C 
ENDBRANCH  14  15
ENDBRANCH  13  14
ENDBRANCH  12  13
ENDBRANCH  11  12
ENDBRANCH  10  11
ENDBRANCH   1  10
TORSDOF 12
ENDMDL
MODEL 7
REMARK VINA RESULT:    -4.759      2.644      4.616
REMARK INTER + INTRA:          -9.919
REMARK INTER:                  -7.949
REMARK INTRA:                  -1.970
REMARK UNBOUND:                -1.821
REMARK SMILES CCCCCCCCCCCCCC(=O)[O-]
REMARK SMILES IDX 8 1 9 2 10 3 11 4 12 5 13 6 14 7 15 8 16 9 7 10 6 11 5 12
REMARK SMILES IDX 4 13 3 14 2 15 1 16
REMARK H PARENT
REMARK Flexibility Score: inf
ROOT
ATOM      1  C   UNL     1     103.809  23.222 200.160  1.00  0.00     0.000 C 
ENDROOT
BRANCH   1   2
ATOM      2  C   UNL     1     102.402  23.446 199.579  1.00  0.00     0.000 C 
BRANCH   2   3
ATOM      3  C   UNL     1     102.427  23.866 198.098  1.00  0.00     0.000 C 
BRANCH   3   4
ATOM      4  C   UNL     1     101.858  22.783 197.169  1.00  0.00     0.000 C 
BRANCH   4   5
ATOM      5  C   UNL     1     101.981  21.370 197.765  1.00  0.00     0.006 C 
BRANCH   5   6
ATOM      6  C   UNL     1     102.256  20.310 196.690  1.00  0.00     0.053 C 
BRANCH   6   7
ATOM      7  C   UNL     1     102.676  19.005 197.294  1.00  0.00     0.041 C 
ATOM      8  O   UNL     1     101.821  18.113 197.534  1.00  0.00    -0.550 OA
ATOM      9  O   UNL     1     104.008  18.788 197.624  1.00  0.00    -0.550 OA
ENDBRANCH   6   7
ENDBRANCH   5   6
ENDBRANCH   4   5
ENDBRANCH   3   4
ENDBRANCH   2   3
ENDBRANCH   1   2
BRANCH   1  10
ATOM     10  C   UNL     1     104.969  23.548 199.201  1.00  0.00     0.000 C 
BRANCH  10  11
ATOM     11  C   UNL     1     105.720  22.293 198.722  1.00  0.00    -0.000 C 
BRANCH  11  12
ATOM     12  C   UNL     1     105.688  22.136 197.192  1.00  0.00    -0.000 C 
BRANCH  12  13
ATOM     13  C   UNL     1     105.910  23.471 196.459  1.00  0.00    -0.000 C 
BRANCH  13  14
ATOM     14  C   UNL     1     104.930  23.672 195.292  1.00  0.00    -0.000 C 
BRANCH  14  15
ATOM     15  C   UNL     1     104.595  22.362 194.565  1.00  0.00    -0.003 C 
ATOM     16  C   UNL     1     103.837  22.631 193.268  1.00  0.00     0.004 C 
ENDBRANCH  14  15
ENDBRANCH  13  14
ENDBRANCH  12  13
ENDBRANCH  11  12
ENDBRANCH  10  11
ENDBRANCH   1  10
TORSDOF 12
ENDMDL
MODEL 8
REMARK VINA RESULT:    -4.744      3.370      5.522
REMARK INTER + INTRA:          -9.893
REMARK INTER:                  -7.815
REMARK INTRA:                  -2.077
REMARK UNBOUND:                -1.821
REMARK SMILES CCCCCCCCCCCCCC(=O)[O-]
REMARK SMILES IDX 8 1 9 2 10 3 11 4 12 5 13 6 14 7 15 8 16 9 7 10 6 11 5 12
REMARK SMILES IDX 4 13 3 14 2 15 1 16
REMARK H PARENT
REMARK Flexibility Score: inf
ROOT
ATOM      1  C   UNL     1     102.297  23.992 197.493  1.00  0.00     0.000 C 
ENDROOT
BRANCH   1   2
ATOM      2  C   UNL     1     102.990  22.808 198.191  1.00  0.00     0.000 C 
BRANCH   2   3
ATOM      3  C   UNL     1     102.585  21.445 197.601  1.00  0.00     0.000 C 
BRANCH   3   4
ATOM      4  C   UNL     1     103.786  20.657 197.059  1.00  0.00     0.000 C 
BRANCH   4   5
ATOM      5  C   UNL     1     105.128  21.181 197.597  1.00  0.00     0.006 C 
BRANCH   5   6
ATOM      6  C   UNL     1     106.274  20.187 197.364  1.00  0.00     0.053 C 
BRANCH   6   7
ATOM      7  C   UNL     1     107.440  20.835 196.686  1.00  0.00     0.041 C 
ATOM      8  O   UNL     1     107.651  20.639 195.460  1.00  0.00    -0.550 OA
ATOM      9  O   UNL     1     108.316  21.630 197.415  1.00  0.00    -0.550 OA
ENDBRANCH   6   7
ENDBRANCH   5   6
ENDBRANCH   4   5
ENDBRANCH   3   4
ENDBRANCH   2   3
ENDBRANCH   1   2
BRANCH   1  10
ATOM     10  C   UNL     1     103.240  25.119 197.032  1.00  0.00     0.000 C 
BRANCH  10  11
ATOM     11  C   UNL     1     104.702  24.885 197.453  1.00  0.00    -0.000 C 
BRANCH  11  12
ATOM     12  C   UNL     1     105.622  24.601 196.253  1.00  0.00    -0.000 C 
BRANCH  12  13
ATOM     13  C   UNL     1     104.835  24.351 194.955  1.00  0.00    -0.000 C 
BRANCH  13  14
ATOM     14  C   UNL     1     105.034  22.927 194.411  1.00  0.00    -0.000 C 
BRANCH  14  15
ATOM     15  C   UNL     1     104.002  22.552 193.338  1.00  0.00    -0.003 C 
ATOM     16  C   UNL     1     102.602  22.442 193.936  1.00  0.00     0.004 C 
ENDBRANCH  14  15
ENDBRANCH  13  14
ENDBRANCH  12  13
ENDBRANCH  11  12
ENDBRANCH  10  11
ENDBRANCH   1  10
TORSDOF 12
ENDMDL
MODEL 9
REMARK VINA RESULT:    -4.723      1.052      3.451
REMARK INTER + INTRA:          -9.857
REMARK INTER:                  -8.050
REMARK INTRA:                  -1.807
REMARK UNBOUND:                -1.821
REMARK SMILES CCCCCCCCCCCCCC(=O)[O-]
REMARK SMILES IDX 8 1 9 2 10 3 11 4 12 5 13 6 14 7 15 8 16 9 7 10 6 11 5 12
REMARK SMILES IDX 4 13 3 14 2 15 1 16
REMARK H PARENT
REMARK Flexibility Score: inf
ROOT
ATOM      1  C   UNL     1     107.412  21.811 197.903  1.00  0.00     0.000 C 
ENDROOT
BRANCH   1   2
ATOM      2  C   UNL     1     106.872  21.492 199.309  1.00  0.00     0.000 C 
BRANCH   2   3
ATOM      3  C   UNL     1     106.437  22.751 200.081  1.00  0.00     0.000 C 
BRANCH   3   4
ATOM      4  C   UNL     1     105.318  23.523 199.366  1.00  0.00     0.000 C 
BRANCH   4   5
ATOM      5  C   UNL     1     103.922  23.190 199.922  1.00  0.00     0.006 C 
BRANCH   5   6
ATOM      6  C   UNL     1     102.806  23.534 198.928  1.00  0.00     0.053 C 
BRANCH   6   7
ATOM      7  C   UNL     1     101.449  23.358 199.535  1.00  0.00     0.041 C 
ATOM      8  O   UNL     1     100.470  23.024 198.817  1.00  0.00    -0.550 OA
ATOM      9  O   UNL     1     101.257  23.596 200.890  1.00  0.00    -0.550 OA
ENDBRANCH   6   7
ENDBRANCH   5   6
ENDBRANCH   4   5
ENDBRANCH   3   4
ENDBRANCH   2   3
ENDBRANCH   1   2
BRANCH   1  10
ATOM     10  C   UNL     1     106.742  21.030 196.756  1.00  0.00     0.000 C 
BRANCH  10  11
ATOM     11  C   UNL     1     105.244  20.779 196.999  1.00  0.00    -0.000 C 
BRANCH  11  12
ATOM     12  C   UNL     1     104.348  21.735 196.192  1.00  0.00    -0.000 C 
BRANCH  12  13
ATOM     13  C   UNL     1     105.107  22.422 195.044  1.00  0.00    -0.000 C 
BRANCH  13  14
ATOM     14  C   UNL     1     104.839  23.935 194.983  1.00  0.00    -0.000 C 
BRANCH  14  15
ATOM     15  C   UNL     1     105.826  24.747 195.835  1.00  0.00    -0.003 C 
ATOM     16  C   UNL     1     105.095  25.778 196.689  1.00  0.00     0.004 C 
ENDBRANCH  14  15
ENDBRANCH  13  14
ENDBRANCH  12  13
ENDBRANCH  11  12
ENDBRANCH  10  11
ENDBRANCH   1  10
TORSDOF 12
ENDMDL
