MODEL 1
REMARK VINA RESULT:    -3.954      0.000      0.000
REMARK INTER + INTRA:          -9.498
REMARK INTER:                  -7.190
REMARK INTRA:                  -2.308
REMARK UNBOUND:                -2.308
REMARK SMILES CCCCCCCCCCCCCCCC(=O)[O-]
REMARK SMILES IDX 9 1 10 2 11 3 12 4 13 5 14 6 15 7 16 8 17 9 18 10 8 11 7 12
REMARK SMILES IDX 6 13 5 14 4 15 3 16 2 17 1 18
REMARK H PARENT
REMARK Flexibility Score: inf
ROOT
ATOM      1  C   UNL     1      -0.681  12.948 -10.051  1.00  0.00     0.000 C 
ENDROOT
BRANCH   1   2
ATOM      2  C   UNL     1       0.125  13.449 -11.262  1.00  0.00     0.000 C 
BRANCH   2   3
ATOM      3  C   UNL     1      -0.774  13.870 -12.437  1.00  0.00     0.000 C 
BRANCH   3   4
ATOM      4  C   UNL     1      -1.930  12.885 -12.677  1.00  0.00     0.000 C 
BRANCH   4   5
ATOM      5  C   UNL     1      -1.457  11.547 -13.272  1.00  0.00     0.000 C 
BRANCH   5   6
ATOM      6  C   UNL     1      -2.551  10.846 -14.092  1.00  0.00     0.006 C 
BRANCH   6   7
ATOM      7  C   UNL     1      -1.999  10.163 -15.350  1.00  0.00     0.053 C 
BRANCH   7   8
ATOM      8  C   UNL     1      -2.878  10.448 -16.527  1.00  0.00     0.041 C 
ATOM      9  O   UNL     1      -3.317  11.612 -16.722  1.00  0.00    -0.550 OA
ATOM     10  O   UNL     1      -3.170   9.440 -17.437  1.00  0.00    -0.550 OA
ENDBRANCH   7   8
ENDBRANCH   6   7
ENDBRANCH   5   6
ENDBRANCH   4   5
ENDBRANCH   3   4
ENDBRANCH   2   3
ENDBRANCH   1   2
BRANCH   1  11
ATOM     11  C   UNL     1      -0.283  11.524  -9.625  1.00  0.00     0.000 C 
BRANCH  11  12
ATOM     12  C   UNL     1      -1.466  10.729  -9.049  1.00  0.00    -0.000 C 
BRANCH  12  13
ATOM     13  C   UNL     1      -2.049   9.722 -10.052  1.00  0.00    -0.000 C 
BRANCH  13  14
ATOM     14  C   UNL     1      -3.462  10.131 -10.484  1.00  0.00    -0.000 C 
BRANCH  14  15
ATOM     15  C   UNL     1      -4.053  11.172  -9.520  1.00  0.00    -0.000 C 
BRANCH  15  16
ATOM     16  C   UNL     1      -4.685  12.366 -10.251  1.00  0.00    -0.000 C 
BRANCH  16  17
ATOM     17  C   UNL     1      -4.236  13.718  -9.675  1.00  0.00    -0.003 C 
ATOM     18  C   UNL     1      -3.940  13.607  -8.182  1.00  0.00     0.004 C 
ENDBRANCH  16  17
ENDBRANCH  15  16
ENDBRANCH  14  15
ENDBRANCH  13  14
ENDBRANCH  12  13
ENDBRANCH  11  12
ENDBRANCH   1  11
TORSDOF 14
ENDMDL
MODEL 2
REMARK VINA RESULT:    -3.925     15.455     17.777
REMARK INTER + INTRA:          -9.446
REMARK INTER:                  -7.520
REMARK INTRA:                  -1.925
REMARK UNBOUND:                -2.308
REMARK SMILES CCCCCCCCCCCCCCCC(=O)[O-]
REMARK SMILES IDX 9 1 10 2 11 3 12 4 13 5 14 6 15 7 16 8 17 9 18 10 8 11 7 12
REMARK SMILES IDX 6 13 5 14 4 15 3 16 2 17 1 18
REMARK H PARENT
REMARK Flexibility Score: inf
ROOT
ATOM      1  C   UNL     1     -19.505  17.188 -17.988  1.00  0.00     0.000 C 
ENDROOT
BRANCH   1   2
ATOM      2  C   UNL     1     -19.049  18.392 -17.146  1.00  0.00     0.000 C 
BRANCH   2   3
ATOM      3  C   UNL     1     -18.021  18.004 -16.068  1.00  0.00     0.000 C 
BRANCH   3   4
ATOM      4  C   UNL     1     -16.602  17.844 -16.638  1.00  0.00     0.000 C 
BRANCH   4   5
ATOM      5  C   UNL     1     -15.701  19.055 -16.337  1.00  0.00     0.000 C 
BRANCH   5   6
ATOM      6  C   UNL     1     -15.295  19.818 -17.607  1.00  0.00     0.006 C 
BRANCH   6   7
ATOM      7  C   UNL     1     -15.344  21.340 -17.422  1.00  0.00     0.053 C 
BRANCH   7   8
ATOM      8  C   UNL     1     -13.981  21.874 -17.114  1.00  0.00     0.041 C 
ATOM      9  O   UNL     1     -12.964  21.151 -17.287  1.00  0.00    -0.550 OA
ATOM     10  O   UNL     1     -13.829  23.185 -16.683  1.00  0.00    -0.550 OA
ENDBRANCH   7   8
ENDBRANCH   6   7
ENDBRANCH   5   6
ENDBRANCH   4   5
ENDBRANCH   3   4
ENDBRANCH   2   3
ENDBRANCH   1   2
BRANCH   1  11
ATOM     11  C   UNL     1     -19.418  17.458 -19.500  1.00  0.00     0.000 C 
BRANCH  11  12
ATOM     12  C   UNL     1     -18.783  18.819 -19.821  1.00  0.00    -0.000 C 
BRANCH  12  13
ATOM     13  C   UNL     1     -17.376  18.690 -20.426  1.00  0.00    -0.000 C 
BRANCH  13  14
ATOM     14  C   UNL     1     -16.978  17.217 -20.580  1.00  0.00    -0.000 C 
BRANCH  14  15
ATOM     15  C   UNL     1     -15.609  16.946 -19.936  1.00  0.00    -0.000 C 
BRANCH  15  16
ATOM     16  C   UNL     1     -14.713  16.048 -20.802  1.00  0.00    -0.000 C 
BRANCH  16  17
ATOM     17  C   UNL     1     -13.224  16.403 -20.680  1.00  0.00    -0.003 C 
ATOM     18  C   UNL     1     -12.970  17.294 -19.468  1.00  0.00     0.004 C 
ENDBRANCH  16  17
ENDBRANCH  15  16
ENDBRANCH  14  15
ENDBRANCH  13  14
ENDBRANCH  12  13
ENDBRANCH  11  12
ENDBRANCH   1  11
TORSDOF 14
ENDMDL
MODEL 3
REMARK VINA RESULT:    -3.922      2.815      4.492
REMARK INTER + INTRA:          -9.439
REMARK INTER:                  -7.602
REMARK INTRA:                  -1.837
REMARK UNBOUND:                -2.308
REMARK SMILES CCCCCCCCCCCCCCCC(=O)[O-]
REMARK SMILES IDX 9 1 10 2 11 3 12 4 13 5 14 6 15 7 16 8 17 9 18 10 8 11 7 12
REMARK SMILES IDX 6 13 5 14 4 15 3 16 2 17 1 18
REMARK H PARENT
REMARK Flexibility Score: inf
ROOT
ATOM      1  C   UNL     1      -3.466   8.527  -9.124  1.00  0.00     0.000 C 
ENDROOT
BRANCH   1   2
ATOM      2  C   UNL     1      -2.206   9.254  -9.624  1.00  0.00     0.000 C 
BRANCH   2   3
ATOM      3  C   UNL     1      -1.300   9.725  -8.473  1.00  0.00     0.000 C 
BRANCH   3   4
ATOM      4  C   UNL     1      -0.351  10.858  -8.897  1.00  0.00     0.000 C 
BRANCH   4   5
ATOM      5  C   UNL     1      -0.373  11.116 -10.414  1.00  0.00     0.000 C 
BRANCH   5   6
ATOM      6  C   UNL     1      -0.715  12.573 -10.760  1.00  0.00     0.006 C 
BRANCH   6   7
ATOM      7  C   UNL     1      -0.596  12.866 -12.261  1.00  0.00     0.053 C 
BRANCH   7   8
ATOM      8  C   UNL     1      -0.960  14.289 -12.546  1.00  0.00     0.041 C 
ATOM      9  O   UNL     1      -0.181  15.221 -12.212  1.00  0.00    -0.550 OA
ATOM     10  O   UNL     1      -2.135  14.583 -13.225  1.00  0.00    -0.550 OA
ENDBRANCH   7   8
ENDBRANCH   6   7
ENDBRANCH   5   6
ENDBRANCH   4   5
ENDBRANCH   3   4
ENDBRANCH   2   3
ENDBRANCH   1   2
BRANCH   1  11
ATOM     11  C   UNL     1      -4.732   8.939  -9.897  1.00  0.00     0.000 C 
BRANCH  11  12
ATOM     12  C   UNL     1      -4.536  10.232 -10.703  1.00  0.00    -0.000 C 
BRANCH  12  13
ATOM     13  C   UNL     1      -5.299  11.425 -10.106  1.00  0.00    -0.000 C 
BRANCH  13  14
ATOM     14  C   UNL     1      -4.363  12.620  -9.884  1.00  0.00    -0.000 C 
BRANCH  14  15
ATOM     15  C   UNL     1      -3.702  12.552  -8.498  1.00  0.00    -0.000 C 
BRANCH  15  16
ATOM     16  C   UNL     1      -3.826  13.869  -7.717  1.00  0.00    -0.000 C 
BRANCH  16  17
ATOM     17  C   UNL     1      -5.287  14.261  -7.444  1.00  0.00    -0.003 C 
ATOM     18  C   UNL     1      -5.588  14.248  -5.948  1.00  0.00     0.004 C 
ENDBRANCH  16  17
ENDBRANCH  15  16
ENDBRANCH  14  15
ENDBRANCH  13  14
ENDBRANCH  12  13
ENDBRANCH  11  12
ENDBRANCH   1  11
TORSDOF 14
ENDMDL
MODEL 4
REMARK VINA RESULT:    -3.902     16.035     18.005
REMARK INTER + INTRA:          -9.403
REMARK INTER:                  -7.209
REMARK INTRA:                  -2.193
REMARK UNBOUND:                -2.308
REMARK SMILES CCCCCCCCCCCCCCCC(=O)[O-]
REMARK SMILES IDX 9 1 10 2 11 3 12 4 13 5 14 6 15 7 16 8 17 9 18 10 8 11 7 12
REMARK SMILES IDX 6 13 5 14 4 15 3 16 2 17 1 18
REMARK H PARENT
REMARK Flexibility Score: inf
ROOT
ATOM      1  C   UNL     1     -16.376  16.739 -19.859  1.00  0.00     0.000 C 
ENDROOT
BRANCH   1   2
ATOM      2  C   UNL     1     -14.896  17.105 -19.655  1.00  0.00     0.000 C 
BRANCH   2   3
ATOM      3  C   UNL     1     -14.671  17.994 -18.420  1.00  0.00     0.000 C 
BRANCH   3   4
ATOM      4  C   UNL     1     -15.887  18.014 -17.478  1.00  0.00     0.000 C 
BRANCH   4   5
ATOM      5  C   UNL     1     -16.277  19.437 -17.042  1.00  0.00     0.000 C 
BRANCH   5   6
ATOM      6  C   UNL     1     -15.924  20.495 -18.098  1.00  0.00     0.006 C 
BRANCH   6   7
ATOM      7  C   UNL     1     -15.472  21.823 -17.475  1.00  0.00     0.053 C 
BRANCH   7   8
ATOM      8  C   UNL     1     -13.994  21.816 -17.247  1.00  0.00     0.041 C 
ATOM      9  O   UNL     1     -13.229  21.248 -18.070  1.00  0.00    -0.550 OA
ATOM     10  O   UNL     1     -13.456  22.480 -16.152  1.00  0.00    -0.550 OA
ENDBRANCH   7   8
ENDBRANCH   6   7
ENDBRANCH   5   6
ENDBRANCH   4   5
ENDBRANCH   3   4
ENDBRANCH   2   3
ENDBRANCH   1   2
BRANCH   1  11
ATOM     11  C   UNL     1     -16.986  17.412 -21.102  1.00  0.00     0.000 C 
BRANCH  11  12
ATOM     12  C   UNL     1     -18.486  17.702 -20.938  1.00  0.00    -0.000 C 
BRANCH  12  13
ATOM     13  C   UNL     1     -18.762  18.912 -20.031  1.00  0.00    -0.000 C 
BRANCH  13  14
ATOM     14  C   UNL     1     -20.054  18.714 -19.230  1.00  0.00    -0.000 C 
BRANCH  14  15
ATOM     15  C   UNL     1     -19.748  18.462 -17.745  1.00  0.00    -0.000 C 
BRANCH  15  16
ATOM     16  C   UNL     1     -19.445  16.986 -17.444  1.00  0.00    -0.000 C 
BRANCH  16  17
ATOM     17  C   UNL     1     -19.741  16.607 -15.985  1.00  0.00    -0.003 C 
ATOM     18  C   UNL     1     -18.994  17.521 -15.018  1.00  0.00     0.004 C 
ENDBRANCH  16  17
ENDBRANCH  15  16
ENDBRANCH  14  15
ENDBRANCH  13  14
ENDBRANCH  12  13
ENDBRANCH  11  12
ENDBRANCH   1  11
TORSDOF 14
ENDMDL
MODEL 5
REMARK VINA RESULT:    -3.901     15.813     17.644
REMARK INTER + INTRA:          -9.401
REMARK INTER:                  -7.588
REMARK INTRA:                  -1.813
REMARK UNBOUND:                -2.308
REMARK SMILES CCCCCCCCCCCCCCCC(=O)[O-]
REMARK SMILES IDX 9 1 10 2 11 3 12 4 13 5 14 6 15 7 16 8 17 9 18 10 8 11 7 12
REMARK SMILES IDX 6 13 5 14 4 15 3 16 2 17 1 18
REMARK H PARENT
REMARK Flexibility Score: inf
ROOT
ATOM      1  C   UNL     1     -19.339  18.396 -17.325  1.00  0.00     0.000 C 
ENDROOT
BRANCH   1   2
ATOM      2  C   UNL     1     -20.051  17.470 -18.325  1.00  0.00     0.000 C 
BRANCH   2   3
ATOM      3  C   UNL     1     -19.524  17.632 -19.761  1.00  0.00     0.000 C 
BRANCH   3   4
ATOM      4  C   UNL     1     -18.749  18.946 -19.959  1.00  0.00     0.000 C 
BRANCH   4   5
ATOM      5  C   UNL     1     -17.288  18.715 -20.384  1.00  0.00     0.000 C 
BRANCH   5   6
ATOM      6  C   UNL     1     -17.051  17.301 -20.937  1.00  0.00     0.006 C 
BRANCH   6   7
ATOM      7  C   UNL     1     -16.025  16.511 -20.115  1.00  0.00     0.053 C 
BRANCH   7   8
ATOM      8  C   UNL     1     -14.819  16.198 -20.945  1.00  0.00     0.041 C 
ATOM      9  O   UNL     1     -13.665  16.333 -20.460  1.00  0.00    -0.550 OA
ATOM     10  O   UNL     1     -14.972  15.711 -22.236  1.00  0.00    -0.550 OA
ENDBRANCH   7   8
ENDBRANCH   6   7
ENDBRANCH   5   6
ENDBRANCH   4   5
ENDBRANCH   3   4
ENDBRANCH   2   3
ENDBRANCH   1   2
BRANCH   1  11
ATOM     11  C   UNL     1     -19.586  17.988 -15.861  1.00  0.00     0.000 C 
BRANCH  11  12
ATOM     12  C   UNL     1     -18.345  17.360 -15.207  1.00  0.00    -0.000 C 
BRANCH  12  13
ATOM     13  C   UNL     1     -18.197  15.865 -15.531  1.00  0.00    -0.000 C 
BRANCH  13  14
ATOM     14  C   UNL     1     -17.064  15.631 -16.537  1.00  0.00    -0.000 C 
BRANCH  14  15
ATOM     15  C   UNL     1     -17.445  14.542 -17.552  1.00  0.00    -0.000 C 
BRANCH  15  16
ATOM     16  C   UNL     1     -18.908  14.092 -17.418  1.00  0.00    -0.000 C 
BRANCH  16  17
ATOM     17  C   UNL     1     -19.047  12.571 -17.255  1.00  0.00    -0.003 C 
ATOM     18  C   UNL     1     -17.794  11.970 -16.624  1.00  0.00     0.004 C 
ENDBRANCH  16  17
ENDBRANCH  15  16
ENDBRANCH  14  15
ENDBRANCH  13  14
ENDBRANCH  12  13
ENDBRANCH  11  12
ENDBRANCH   1  11
TORSDOF 14
ENDMDL
MODEL 6
REMARK VINA RESULT:    -3.900      3.535      4.795
REMARK INTER + INTRA:          -9.399
REMARK INTER:                  -6.782
REMARK INTRA:                  -2.618
REMARK UNBOUND:                -2.308
REMARK SMILES CCCCCCCCCCCCCCCC(=O)[O-]
REMARK SMILES IDX 9 1 10 2 11 3 12 4 13 5 14 6 15 7 16 8 17 9 18 10 8 11 7 12
REMARK SMILES IDX 6 13 5 14 4 15 3 16 2 17 1 18
REMARK H PARENT
REMARK Flexibility Score: inf
ROOT
ATOM      1  C   UNL     1      -1.299   9.506  -9.296  1.00  0.00     0.000 C 
ENDROOT
BRANCH   1   2
ATOM      2  C   UNL     1      -2.286  10.235  -8.368  1.00  0.00     0.000 C 
BRANCH   2   3
ATOM      3  C   UNL     1      -3.729  10.206  -8.899  1.00  0.00     0.000 C 
BRANCH   3   4
ATOM      4  C   UNL     1      -3.837   9.535 -10.278  1.00  0.00     0.000 C 
BRANCH   4   5
ATOM      5  C   UNL     1      -4.224  10.524 -11.392  1.00  0.00     0.000 C 
BRANCH   5   6
ATOM      6  C   UNL     1      -5.695  10.388 -11.816  1.00  0.00     0.006 C 
BRANCH   6   7
ATOM      7  C   UNL     1      -6.578  11.508 -11.248  1.00  0.00     0.053 C 
BRANCH   7   8
ATOM      8  C   UNL     1      -7.396  10.999 -10.104  1.00  0.00     0.041 C 
ATOM      9  O   UNL     1      -7.779  11.787  -9.200  1.00  0.00    -0.550 OA
ATOM     10  O   UNL     1      -7.777   9.664 -10.061  1.00  0.00    -0.550 OA
ENDBRANCH   7   8
ENDBRANCH   6   7
ENDBRANCH   5   6
ENDBRANCH   4   5
ENDBRANCH   3   4
ENDBRANCH   2   3
ENDBRANCH   1   2
BRANCH   1  11
ATOM     11  C   UNL     1      -0.063  10.358  -9.633  1.00  0.00     0.000 C 
BRANCH  11  12
ATOM     12  C   UNL     1      -0.402  11.849  -9.795  1.00  0.00    -0.000 C 
BRANCH  12  13
ATOM     13  C   UNL     1      -0.850  12.204 -11.221  1.00  0.00    -0.000 C 
BRANCH  13  14
ATOM     14  C   UNL     1      -1.755  13.442 -11.221  1.00  0.00    -0.000 C 
BRANCH  14  15
ATOM     15  C   UNL     1      -2.564  13.532  -9.917  1.00  0.00    -0.000 C 
BRANCH  15  16
ATOM     16  C   UNL     1      -4.032  13.918 -10.156  1.00  0.00    -0.000 C 
BRANCH  16  17
ATOM     17  C   UNL     1      -4.842  14.001  -8.853  1.00  0.00    -0.003 C 
ATOM     18  C   UNL     1      -3.958  13.728  -7.640  1.00  0.00     0.004 C 
ENDBRANCH  16  17
ENDBRANCH  15  16
ENDBRANCH  14  15
ENDBRANCH  13  14
ENDBRANCH  12  13
ENDBRANCH  11  12
ENDBRANCH   1  11
TORSDOF 14
ENDMDL
MODEL 7
REMARK VINA RESULT:    -3.872     15.918     17.868
REMARK INTER + INTRA:          -9.349
REMARK INTER:                  -7.218
REMARK INTRA:                  -2.131
REMARK UNBOUND:                -2.308
REMARK SMILES CCCCCCCCCCCCCCCC(=O)[O-]
REMARK SMILES IDX 9 1 10 2 11 3 12 4 13 5 14 6 15 7 16 8 17 9 18 10 8 11 7 12
REMARK SMILES IDX 6 13 5 14 4 15 3 16 2 17 1 18
REMARK H PARENT
REMARK Flexibility Score: inf
ROOT
ATOM      1  C   UNL     1     -17.677  18.738 -20.383  1.00  0.00     0.000 C 
ENDROOT
BRANCH   1   2
ATOM      2  C   UNL     1     -17.462  17.215 -20.352  1.00  0.00     0.000 C 
BRANCH   2   3
ATOM      3  C   UNL     1     -16.308  16.799 -19.423  1.00  0.00     0.000 C 
BRANCH   3   4
ATOM      4  C   UNL     1     -15.637  18.003 -18.741  1.00  0.00     0.000 C 
BRANCH   4   5
ATOM      5  C   UNL     1     -15.571  17.858 -17.210  1.00  0.00     0.000 C 
BRANCH   5   6
ATOM      6  C   UNL     1     -15.368  19.204 -16.498  1.00  0.00     0.006 C 
BRANCH   6   7
ATOM      7  C   UNL     1     -15.825  20.396 -17.350  1.00  0.00     0.053 C 
BRANCH   7   8
ATOM      8  C   UNL     1     -14.775  21.462 -17.361  1.00  0.00     0.041 C 
ATOM      9  O   UNL     1     -14.882  22.447 -18.139  1.00  0.00    -0.550 OA
ATOM     10  O   UNL     1     -13.706  21.394 -16.478  1.00  0.00    -0.550 OA
ENDBRANCH   7   8
ENDBRANCH   6   7
ENDBRANCH   5   6
ENDBRANCH   4   5
ENDBRANCH   3   4
ENDBRANCH   2   3
ENDBRANCH   1   2
BRANCH   1  11
ATOM     11  C   UNL     1     -19.115  19.140 -20.009  1.00  0.00     0.000 C 
BRANCH  11  12
ATOM     12  C   UNL     1     -19.713  18.240 -18.917  1.00  0.00    -0.000 C 
BRANCH  12  13
ATOM     13  C   UNL     1     -19.408  18.746 -17.498  1.00  0.00    -0.000 C 
BRANCH  13  14
ATOM     14  C   UNL     1     -19.155  17.575 -16.540  1.00  0.00    -0.000 C 
BRANCH  14  15
ATOM     15  C   UNL     1     -20.078  17.657 -15.314  1.00  0.00    -0.000 C 
BRANCH  15  16
ATOM     16  C   UNL     1     -19.318  17.497 -13.988  1.00  0.00    -0.000 C 
BRANCH  16  17
ATOM     17  C   UNL     1     -17.793  17.511 -14.174  1.00  0.00    -0.003 C 
ATOM     18  C   UNL     1     -17.108  16.600 -13.160  1.00  0.00     0.004 C 
ENDBRANCH  16  17
ENDBRANCH  15  16
ENDBRANCH  14  15
ENDBRANCH  13  14
ENDBRANCH  12  13
ENDBRANCH  11  12
ENDBRANCH   1  11
TORSDOF 14
ENDMDL
MODEL 8
REMARK VINA RESULT:    -3.793      2.776      3.325
REMARK INTER + INTRA:          -9.205
REMARK INTER:                  -6.801
REMARK INTRA:                  -2.404
REMARK UNBOUND:                -2.308
REMARK SMILES CCCCCCCCCCCCCCCC(=O)[O-]
REMARK SMILES IDX 9 1 10 2 11 3 12 4 13 5 14 6 15 7 16 8 17 9 18 10 8 11 7 12
REMARK SMILES IDX 6 13 5 14 4 15 3 16 2 17 1 18
REMARK H PARENT
REMARK Flexibility Score: inf
ROOT
ATOM      1  C   UNL     1      -0.272  11.484 -10.595  1.00  0.00     0.000 C 
ENDROOT
BRANCH   1   2
ATOM      2  C   UNL     1      -0.195  12.997 -10.857  1.00  0.00     0.000 C 
BRANCH   2   3
ATOM      3  C   UNL     1      -0.906  13.409 -12.158  1.00  0.00     0.000 C 
BRANCH   3   4
ATOM      4  C   UNL     1      -1.571  12.218 -12.869  1.00  0.00     0.000 C 
BRANCH   4   5
ATOM      5  C   UNL     1      -2.866  12.612 -13.601  1.00  0.00     0.000 C 
BRANCH   5   6
ATOM      6  C   UNL     1      -3.368  14.008 -13.202  1.00  0.00     0.006 C 
BRANCH   6   7
ATOM      7  C   UNL     1      -3.666  14.896 -14.418  1.00  0.00     0.053 C 
BRANCH   7   8
ATOM      8  C   UNL     1      -3.237  16.305 -14.154  1.00  0.00     0.041 C 
ATOM      9  O   UNL     1      -2.613  16.589 -13.098  1.00  0.00    -0.550 OA
ATOM     10  O   UNL     1      -3.483  17.295 -15.097  1.00  0.00    -0.550 OA
ENDBRANCH   7   8
ENDBRANCH   6   7
ENDBRANCH   5   6
ENDBRANCH   4   5
ENDBRANCH   3   4
ENDBRANCH   2   3
ENDBRANCH   1   2
BRANCH   1  11
ATOM     11  C   UNL     1       0.044  11.120  -9.133  1.00  0.00     0.000 C 
BRANCH  11  12
ATOM     12  C   UNL     1      -1.022  10.204  -8.510  1.00  0.00    -0.000 C 
BRANCH  12  13
ATOM     13  C   UNL     1      -1.529   9.133  -9.488  1.00  0.00    -0.000 C 
BRANCH  13  14
ATOM     14  C   UNL     1      -3.062   9.111  -9.532  1.00  0.00    -0.000 C 
BRANCH  14  15
ATOM     15  C   UNL     1      -3.645  10.462  -9.091  1.00  0.00    -0.000 C 
BRANCH  15  16
ATOM     16  C   UNL     1      -4.122  11.318 -10.275  1.00  0.00    -0.000 C 
BRANCH  16  17
ATOM     17  C   UNL     1      -4.248  12.806  -9.916  1.00  0.00    -0.003 C 
ATOM     18  C   UNL     1      -3.276  13.187  -8.803  1.00  0.00     0.004 C 
ENDBRANCH  16  17
ENDBRANCH  15  16
ENDBRANCH  14  15
ENDBRANCH  13  14
ENDBRANCH  12  13
ENDBRANCH  11  12
ENDBRANCH   1  11
TORSDOF 14
ENDMDL
MODEL 9
REMARK VINA RESULT:    -3.784      3.291      5.367
REMARK INTER + INTRA:          -9.189
REMARK INTER:                  -6.545
REMARK INTRA:                  -2.644
REMARK UNBOUND:                -2.308
REMARK SMILES CCCCCCCCCCCCCCCC(=O)[O-]
REMARK SMILES IDX 9 1 10 2 11 3 12 4 13 5 14 6 15 7 16 8 17 9 18 10 8 11 7 12
REMARK SMILES IDX 6 13 5 14 4 15 3 16 2 17 1 18
REMARK H PARENT
REMARK Flexibility Score: inf
ROOT
ATOM      1  C   UNL     1      -2.229  13.746 -11.377  1.00  0.00     0.000 C 
ENDROOT
BRANCH   1   2
ATOM      2  C   UNL     1      -3.570  13.868 -10.633  1.00  0.00     0.000 C 
BRANCH   2   3
ATOM      3  C   UNL     1      -3.981  12.560  -9.935  1.00  0.00     0.000 C 
BRANCH   3   4
ATOM      4  C   UNL     1      -4.800  11.636 -10.852  1.00  0.00     0.000 C 
BRANCH   4   5
ATOM      5  C   UNL     1      -4.553  10.144 -10.565  1.00  0.00     0.000 C 
BRANCH   5   6
ATOM      6  C   UNL     1      -3.726   9.918  -9.290  1.00  0.00     0.006 C 
BRANCH   6   7
ATOM      7  C   UNL     1      -2.564   8.940  -9.506  1.00  0.00     0.053 C 
BRANCH   7   8
ATOM      8  C   UNL     1      -1.311   9.471  -8.883  1.00  0.00     0.041 C 
ATOM      9  O   UNL     1      -0.192   8.997  -9.210  1.00  0.00    -0.550 OA
ATOM     10  O   UNL     1      -1.377  10.523  -7.979  1.00  0.00    -0.550 OA
ENDBRANCH   7   8
ENDBRANCH   6   7
ENDBRANCH   5   6
ENDBRANCH   4   5
ENDBRANCH   3   4
ENDBRANCH   2   3
ENDBRANCH   1   2
BRANCH   1  11
ATOM     11  C   UNL     1      -1.284  12.718 -10.728  1.00  0.00     0.000 C 
BRANCH  11  12
ATOM     12  C   UNL     1      -0.860  11.610 -11.704  1.00  0.00    -0.000 C 
BRANCH  12  13
ATOM     13  C   UNL     1      -1.435  11.810 -13.115  1.00  0.00    -0.000 C 
BRANCH  13  14
ATOM     14  C   UNL     1      -2.330  10.630 -13.516  1.00  0.00    -0.000 C 
BRANCH  14  15
ATOM     15  C   UNL     1      -3.208  10.991 -14.724  1.00  0.00    -0.000 C 
BRANCH  15  16
ATOM     16  C   UNL     1      -4.165  12.157 -14.435  1.00  0.00    -0.000 C 
BRANCH  16  17
ATOM     17  C   UNL     1      -4.001  13.318 -15.427  1.00  0.00    -0.003 C 
ATOM     18  C   UNL     1      -3.637  14.611 -14.702  1.00  0.00     0.004 C 
ENDBRANCH  16  17
ENDBRANCH  15  16
ENDBRANCH  14  15
ENDBRANCH  13  14
ENDBRANCH  12  13
ENDBRANCH  11  12
ENDBRANCH   1  11
TORSDOF 14
ENDMDL
