MODEL 1
REMARK VINA RESULT:    -0.606      0.000      0.000
REMARK INTER + INTRA:          -0.726
REMARK INTER:                  -1.103
REMARK INTRA:                   0.376
REMARK UNBOUND:                 0.376
REMARK SMILES CCCCCCCCCCCCCCCC(=O)[O-]
REMARK SMILES IDX 9 1 10 2 11 3 12 4 13 5 14 6 15 7 16 8 17 9 18 10 8 11 7 12
REMARK SMILES IDX 6 13 5 14 4 15 3 16 2 17 1 18
REMARK H PARENT
REMARK Flexibility Score: inf
ROOT
ATOM      1  C   UNL     1      -2.274  37.054  20.075  1.00  0.00     0.000 C 
ENDROOT
BRANCH   1   2
ATOM      2  C   UNL     1      -3.527  37.593  19.360  1.00  0.00     0.000 C 
BRANCH   2   3
ATOM      3  C   UNL     1      -4.801  36.819  19.734  1.00  0.00     0.000 C 
BRANCH   3   4
ATOM      4  C   UNL     1      -5.092  36.855  21.244  1.00  0.00     0.000 C 
BRANCH   4   5
ATOM      5  C   UNL     1      -4.588  35.598  21.972  1.00  0.00     0.000 C 
BRANCH   5   6
ATOM      6  C   UNL     1      -5.114  35.498  23.414  1.00  0.00     0.006 C 
BRANCH   6   7
ATOM      7  C   UNL     1      -5.089  36.852  24.135  1.00  0.00     0.053 C 
BRANCH   7   8
ATOM      8  C   UNL     1      -4.855  36.698  25.607  1.00  0.00     0.041 C 
ATOM      9  O   UNL     1      -4.932  35.562  26.145  1.00  0.00    -0.550 OA
ATOM     10  O   UNL     1      -4.582  37.813  26.389  1.00  0.00    -0.550 OA
ENDBRANCH   7   8
ENDBRANCH   6   7
ENDBRANCH   5   6
ENDBRANCH   4   5
ENDBRANCH   3   4
ENDBRANCH   2   3
ENDBRANCH   1   2
BRANCH   1  11
ATOM     11  C   UNL     1      -0.967  37.580  19.459  1.00  0.00     0.000 C 
BRANCH  11  12
ATOM     12  C   UNL     1      -1.214  38.598  18.333  1.00  0.00    -0.000 C 
BRANCH  12  13
ATOM     13  C   UNL     1      -1.946  37.988  17.124  1.00  0.00    -0.000 C 
BRANCH  13  14
ATOM     14  C   UNL     1      -1.659  36.494  16.871  1.00  0.00    -0.000 C 
BRANCH  14  15
ATOM     15  C   UNL     1      -2.450  35.866  15.705  1.00  0.00    -0.000 C 
BRANCH  15  16
ATOM     16  C   UNL     1      -2.584  36.757  14.455  1.00  0.00    -0.000 C 
BRANCH  16  17
ATOM     17  C   UNL     1      -4.023  37.182  14.115  1.00  0.00    -0.003 C 
ATOM     18  C   UNL     1      -4.246  38.689  14.241  1.00  0.00     0.004 C 
ENDBRANCH  16  17
ENDBRANCH  15  16
ENDBRANCH  14  15
ENDBRANCH  13  14
ENDBRANCH  12  13
ENDBRANCH  11  12
ENDBRANCH   1  11
TORSDOF 14
ENDMDL
MODEL 2
REMARK VINA RESULT:    -0.051      3.211      4.642
REMARK INTER + INTRA:           0.283
REMARK INTER:                  -0.056
REMARK INTRA:                   0.339
REMARK UNBOUND:                 0.376
REMARK SMILES CCCCCCCCCCCCCCCC(=O)[O-]
REMARK SMILES IDX 9 1 10 2 11 3 12 4 13 5 14 6 15 7 16 8 17 9 18 10 8 11 7 12
REMARK SMILES IDX 6 13 5 14 4 15 3 16 2 17 1 18
REMARK H PARENT
REMARK Flexibility Score: inf
ROOT
ATOM      1  C   UNL     1      -3.763  35.473  21.901  1.00  0.00     0.000 C 
ENDROOT
BRANCH   1   2
ATOM      2  C   UNL     1      -5.109  36.188  22.116  1.00  0.00     0.000 C 
BRANCH   2   3
ATOM      3  C   UNL     1      -4.941  37.635  22.605  1.00  0.00     0.000 C 
BRANCH   3   4
ATOM      4  C   UNL     1      -4.693  38.622  21.451  1.00  0.00     0.000 C 
BRANCH   4   5
ATOM      5  C   UNL     1      -5.121  38.055  20.087  1.00  0.00     0.000 C 
BRANCH   5   6
ATOM      6  C   UNL     1      -3.928  37.808  19.148  1.00  0.00     0.006 C 
BRANCH   6   7
ATOM      7  C   UNL     1      -2.592  37.789  19.902  1.00  0.00     0.053 C 
BRANCH   7   8
ATOM      8  C   UNL     1      -1.421  37.828  18.967  1.00  0.00     0.041 C 
ATOM      9  O   UNL     1      -1.602  38.011  17.734  1.00  0.00    -0.550 OA
ATOM     10  O   UNL     1      -0.135  37.631  19.452  1.00  0.00    -0.550 OA
ENDBRANCH   7   8
ENDBRANCH   6   7
ENDBRANCH   5   6
ENDBRANCH   4   5
ENDBRANCH   3   4
ENDBRANCH   2   3
ENDBRANCH   1   2
BRANCH   1  11
ATOM     11  C   UNL     1      -3.778  34.530  20.687  1.00  0.00     0.000 C 
BRANCH  11  12
ATOM     12  C   UNL     1      -4.933  34.835  19.717  1.00  0.00    -0.000 C 
BRANCH  12  13
ATOM     13  C   UNL     1      -4.632  34.400  18.272  1.00  0.00    -0.000 C 
BRANCH  13  14
ATOM     14  C   UNL     1      -4.217  35.539  17.318  1.00  0.00    -0.000 C 
BRANCH  14  15
ATOM     15  C   UNL     1      -2.948  35.265  16.487  1.00  0.00    -0.000 C 
BRANCH  15  16
ATOM     16  C   UNL     1      -2.423  36.471  15.683  1.00  0.00    -0.000 C 
BRANCH  16  17
ATOM     17  C   UNL     1      -3.052  36.643  14.290  1.00  0.00    -0.003 C 
ATOM     18  C   UNL     1      -4.082  37.771  14.234  1.00  0.00     0.004 C 
ENDBRANCH  16  17
ENDBRANCH  15  16
ENDBRANCH  14  15
ENDBRANCH  13  14
ENDBRANCH  12  13
ENDBRANCH  11  12
ENDBRANCH   1  11
TORSDOF 14
ENDMDL
MODEL 3
REMARK VINA RESULT:     0.597      4.131      7.177
REMARK INTER + INTRA:           1.462
REMARK INTER:                   2.632
REMARK INTRA:                  -1.171
REMARK UNBOUND:                 0.376
REMARK SMILES CCCCCCCCCCCCCCCC(=O)[O-]
REMARK SMILES IDX 9 1 10 2 11 3 12 4 13 5 14 6 15 7 16 8 17 9 18 10 8 11 7 12
REMARK SMILES IDX 6 13 5 14 4 15 3 16 2 17 1 18
REMARK H PARENT
REMARK Flexibility Score: inf
ROOT
ATOM      1  C   UNL     1      -1.789  38.179  19.234  1.00  0.00     0.000 C 
ENDROOT
BRANCH   1   2
ATOM      2  C   UNL     1      -0.901  37.392  18.254  1.00  0.00     0.000 C 
BRANCH   2   3
ATOM      3  C   UNL     1      -1.446  37.407  16.817  1.00  0.00     0.000 C 
BRANCH   3   4
ATOM      4  C   UNL     1      -1.532  35.998  16.205  1.00  0.00     0.000 C 
BRANCH   4   5
ATOM      5  C   UNL     1      -2.253  35.988  14.847  1.00  0.00     0.000 C 
BRANCH   5   6
ATOM      6  C   UNL     1      -3.684  36.546  14.931  1.00  0.00     0.006 C 
BRANCH   6   7
ATOM      7  C   UNL     1      -3.945  37.628  13.875  1.00  0.00     0.053 C 
BRANCH   7   8
ATOM      8  C   UNL     1      -4.312  38.940  14.499  1.00  0.00     0.041 C 
ATOM      9  O   UNL     1      -5.113  39.716  13.915  1.00  0.00    -0.550 OA
ATOM     10  O   UNL     1      -3.745  39.319  15.709  1.00  0.00    -0.550 OA
ENDBRANCH   7   8
ENDBRANCH   6   7
ENDBRANCH   5   6
ENDBRANCH   4   5
ENDBRANCH   3   4
ENDBRANCH   2   3
ENDBRANCH   1   2
BRANCH   1  11
ATOM     11  C   UNL     1      -3.287  37.901  19.032  1.00  0.00     0.000 C 
BRANCH  11  12
ATOM     12  C   UNL     1      -4.148  38.430  20.193  1.00  0.00    -0.000 C 
BRANCH  12  13
ATOM     13  C   UNL     1      -5.106  37.368  20.760  1.00  0.00    -0.000 C 
BRANCH  13  14
ATOM     14  C   UNL     1      -4.482  36.405  21.790  1.00  0.00    -0.000 C 
BRANCH  14  15
ATOM     15  C   UNL     1      -4.325  34.948  21.311  1.00  0.00    -0.000 C 
BRANCH  15  16
ATOM     16  C   UNL     1      -5.125  34.590  20.043  1.00  0.00    -0.000 C 
BRANCH  16  17
ATOM     17  C   UNL     1      -4.268  34.234  18.816  1.00  0.00    -0.003 C 
ATOM     18  C   UNL     1      -4.519  35.157  17.624  1.00  0.00     0.004 C 
ENDBRANCH  16  17
ENDBRANCH  15  16
ENDBRANCH  14  15
ENDBRANCH  13  14
ENDBRANCH  12  13
ENDBRANCH  11  12
ENDBRANCH   1  11
TORSDOF 14
ENDMDL
MODEL 4
REMARK VINA RESULT:     0.693      4.130      8.301
REMARK INTER + INTRA:           1.636
REMARK INTER:                   2.054
REMARK INTRA:                  -0.417
REMARK UNBOUND:                 0.376
REMARK SMILES CCCCCCCCCCCCCCCC(=O)[O-]
REMARK SMILES IDX 9 1 10 2 11 3 12 4 13 5 14 6 15 7 16 8 17 9 18 10 8 11 7 12
REMARK SMILES IDX 6 13 5 14 4 15 3 16 2 17 1 18
REMARK H PARENT
REMARK Flexibility Score: inf
ROOT
ATOM      1  C   UNL     1      -3.710  35.187  21.880  1.00  0.00     0.000 C 
ENDROOT
BRANCH   1   2
ATOM      2  C   UNL     1      -3.600  35.243  20.346  1.00  0.00     0.000 C 
BRANCH   2   3
ATOM      3  C   UNL     1      -4.616  36.206  19.712  1.00  0.00     0.000 C 
BRANCH   3   4
ATOM      4  C   UNL     1      -3.976  37.538  19.281  1.00  0.00     0.000 C 
BRANCH   4   5
ATOM      5  C   UNL     1      -3.568  37.544  17.799  1.00  0.00     0.000 C 
BRANCH   5   6
ATOM      6  C   UNL     1      -2.086  37.187  17.591  1.00  0.00     0.006 C 
BRANCH   6   7
ATOM      7  C   UNL     1      -1.733  37.021  16.107  1.00  0.00     0.053 C 
BRANCH   7   8
ATOM      8  C   UNL     1      -2.958  36.891  15.253  1.00  0.00     0.041 C 
ATOM      9  O   UNL     1      -3.377  35.753  14.916  1.00  0.00    -0.550 OA
ATOM     10  O   UNL     1      -3.616  38.029  14.803  1.00  0.00    -0.550 OA
ENDBRANCH   7   8
ENDBRANCH   6   7
ENDBRANCH   5   6
ENDBRANCH   4   5
ENDBRANCH   3   4
ENDBRANCH   2   3
ENDBRANCH   1   2
BRANCH   1  11
ATOM     11  C   UNL     1      -5.115  34.792  22.361  1.00  0.00     0.000 C 
BRANCH  11  12
ATOM     12  C   UNL     1      -5.098  34.116  23.742  1.00  0.00    -0.000 C 
BRANCH  12  13
ATOM     13  C   UNL     1      -4.610  35.054  24.861  1.00  0.00    -0.000 C 
BRANCH  13  14
ATOM     14  C   UNL     1      -5.123  36.506  24.769  1.00  0.00    -0.000 C 
BRANCH  14  15
ATOM     15  C   UNL     1      -4.758  37.404  25.967  1.00  0.00    -0.000 C 
BRANCH  15  16
ATOM     16  C   UNL     1      -4.361  38.848  25.601  1.00  0.00    -0.000 C 
BRANCH  16  17
ATOM     17  C   UNL     1      -4.745  39.283  24.176  1.00  0.00    -0.003 C 
ATOM     18  C   UNL     1      -5.123  40.761  24.084  1.00  0.00     0.004 C 
ENDBRANCH  16  17
ENDBRANCH  15  16
ENDBRANCH  14  15
ENDBRANCH  13  14
ENDBRANCH  12  13
ENDBRANCH  11  12
ENDBRANCH   1  11
TORSDOF 14
ENDMDL
MODEL 5
REMARK VINA RESULT:     1.107      1.708      2.704
REMARK INTER + INTRA:           2.389
REMARK INTER:                   3.199
REMARK INTRA:                  -0.810
REMARK UNBOUND:                 0.376
REMARK SMILES CCCCCCCCCCCCCCCC(=O)[O-]
REMARK SMILES IDX 9 1 10 2 11 3 12 4 13 5 14 6 15 7 16 8 17 9 18 10 8 11 7 12
REMARK SMILES IDX 6 13 5 14 4 15 3 16 2 17 1 18
REMARK H PARENT
REMARK Flexibility Score: inf
ROOT
ATOM      1  C   UNL     1      -3.511  35.989  21.412  1.00  0.00     0.000 C 
ENDROOT
BRANCH   1   2
ATOM      2  C   UNL     1      -3.973  34.574  21.801  1.00  0.00     0.000 C 
BRANCH   2   3
ATOM      3  C   UNL     1      -4.889  34.566  23.036  1.00  0.00     0.000 C 
BRANCH   3   4
ATOM      4  C   UNL     1      -5.124  35.977  23.603  1.00  0.00     0.000 C 
BRANCH   4   5
ATOM      5  C   UNL     1      -5.060  36.014  25.139  1.00  0.00     0.000 C 
BRANCH   5   6
ATOM      6  C   UNL     1      -5.125  37.445  25.701  1.00  0.00     0.006 C 
BRANCH   6   7
ATOM      7  C   UNL     1      -3.922  38.292  25.265  1.00  0.00     0.053 C 
BRANCH   7   8
ATOM      8  C   UNL     1      -4.347  39.557  24.583  1.00  0.00     0.041 C 
ATOM      9  O   UNL     1      -5.124  40.359  25.165  1.00  0.00    -0.550 OA
ATOM     10  O   UNL     1      -3.909  39.835  23.295  1.00  0.00    -0.550 OA
ENDBRANCH   7   8
ENDBRANCH   6   7
ENDBRANCH   5   6
ENDBRANCH   4   5
ENDBRANCH   3   4
ENDBRANCH   2   3
ENDBRANCH   1   2
BRANCH   1  11
ATOM     11  C   UNL     1      -3.528  36.223  19.893  1.00  0.00     0.000 C 
BRANCH  11  12
ATOM     12  C   UNL     1      -2.748  37.484  19.482  1.00  0.00    -0.000 C 
BRANCH  12  13
ATOM     13  C   UNL     1      -2.766  37.730  17.963  1.00  0.00    -0.000 C 
BRANCH  13  14
ATOM     14  C   UNL     1      -2.914  36.463  17.095  1.00  0.00    -0.000 C 
BRANCH  14  15
ATOM     15  C   UNL     1      -1.909  36.346  15.932  1.00  0.00    -0.000 C 
BRANCH  15  16
ATOM     16  C   UNL     1      -2.544  36.258  14.530  1.00  0.00    -0.000 C 
BRANCH  16  17
ATOM     17  C   UNL     1      -3.982  36.796  14.436  1.00  0.00    -0.003 C 
ATOM     18  C   UNL     1      -4.041  38.304  14.193  1.00  0.00     0.004 C 
ENDBRANCH  16  17
ENDBRANCH  15  16
ENDBRANCH  14  15
ENDBRANCH  13  14
ENDBRANCH  12  13
ENDBRANCH  11  12
ENDBRANCH   1  11
TORSDOF 14
ENDMDL
MODEL 6
REMARK VINA RESULT:     1.107      4.040      8.556
REMARK INTER + INTRA:           2.389
REMARK INTER:                   2.294
REMARK INTRA:                   0.095
REMARK UNBOUND:                 0.376
REMARK SMILES CCCCCCCCCCCCCCCC(=O)[O-]
REMARK SMILES IDX 9 1 10 2 11 3 12 4 13 5 14 6 15 7 16 8 17 9 18 10 8 11 7 12
REMARK SMILES IDX 6 13 5 14 4 15 3 16 2 17 1 18
REMARK H PARENT
REMARK Flexibility Score: inf
ROOT
ATOM      1  C   UNL     1      -3.756  35.242  21.444  1.00  0.00     0.000 C 
ENDROOT
BRANCH   1   2
ATOM      2  C   UNL     1      -4.959  35.770  20.642  1.00  0.00     0.000 C 
BRANCH   2   3
ATOM      3  C   UNL     1      -5.003  37.305  20.577  1.00  0.00     0.000 C 
BRANCH   3   4
ATOM      4  C   UNL     1      -4.738  37.842  19.160  1.00  0.00     0.000 C 
BRANCH   4   5
ATOM      5  C   UNL     1      -3.599  37.094  18.448  1.00  0.00     0.000 C 
BRANCH   5   6
ATOM      6  C   UNL     1      -4.100  35.896  17.625  1.00  0.00     0.006 C 
BRANCH   6   7
ATOM      7  C   UNL     1      -3.342  35.747  16.299  1.00  0.00     0.053 C 
BRANCH   7   8
ATOM      8  C   UNL     1      -2.803  37.058  15.813  1.00  0.00     0.041 C 
ATOM      9  O   UNL     1      -3.551  37.861  15.196  1.00  0.00    -0.550 OA
ATOM     10  O   UNL     1      -1.466  37.379  16.014  1.00  0.00    -0.550 OA
ENDBRANCH   7   8
ENDBRANCH   6   7
ENDBRANCH   5   6
ENDBRANCH   4   5
ENDBRANCH   3   4
ENDBRANCH   2   3
ENDBRANCH   1   2
BRANCH   1  11
ATOM     11  C   UNL     1      -4.123  34.061  22.357  1.00  0.00     0.000 C 
BRANCH  11  12
ATOM     12  C   UNL     1      -5.125  34.454  23.456  1.00  0.00    -0.000 C 
BRANCH  12  13
ATOM     13  C   UNL     1      -5.095  35.957  23.783  1.00  0.00    -0.000 C 
BRANCH  13  14
ATOM     14  C   UNL     1      -5.088  36.301  25.287  1.00  0.00    -0.000 C 
BRANCH  14  15
ATOM     15  C   UNL     1      -4.503  37.684  25.638  1.00  0.00    -0.000 C 
BRANCH  15  16
ATOM     16  C   UNL     1      -3.813  37.768  27.014  1.00  0.00    -0.000 C 
BRANCH  16  17
ATOM     17  C   UNL     1      -2.342  37.314  27.029  1.00  0.00    -0.003 C 
ATOM     18  C   UNL     1      -1.358  38.479  26.930  1.00  0.00     0.004 C 
ENDBRANCH  16  17
ENDBRANCH  15  16
ENDBRANCH  14  15
ENDBRANCH  13  14
ENDBRANCH  12  13
ENDBRANCH  11  12
ENDBRANCH   1  11
TORSDOF 14
ENDMDL
MODEL 7
REMARK VINA RESULT:     1.440      1.665      3.019
REMARK INTER + INTRA:           2.994
REMARK INTER:                   3.322
REMARK INTRA:                  -0.328
REMARK UNBOUND:                 0.376
REMARK SMILES CCCCCCCCCCCCCCCC(=O)[O-]
REMARK SMILES IDX 9 1 10 2 11 3 12 4 13 5 14 6 15 7 16 8 17 9 18 10 8 11 7 12
REMARK SMILES IDX 6 13 5 14 4 15 3 16 2 17 1 18
REMARK H PARENT
REMARK Flexibility Score: inf
ROOT
ATOM      1  C   UNL     1      -3.506  35.484  21.783  1.00  0.00     0.000 C 
ENDROOT
BRANCH   1   2
ATOM      2  C   UNL     1      -4.709  34.591  22.134  1.00  0.00     0.000 C 
BRANCH   2   3
ATOM      3  C   UNL     1      -5.071  34.643  23.627  1.00  0.00     0.000 C 
BRANCH   3   4
ATOM      4  C   UNL     1      -5.121  36.081  24.172  1.00  0.00     0.000 C 
BRANCH   4   5
ATOM      5  C   UNL     1      -5.125  36.130  25.709  1.00  0.00     0.000 C 
BRANCH   5   6
ATOM      6  C   UNL     1      -4.696  37.500  26.260  1.00  0.00     0.006 C 
BRANCH   6   7
ATOM      7  C   UNL     1      -3.242  37.838  25.903  1.00  0.00     0.053 C 
BRANCH   7   8
ATOM      8  C   UNL     1      -2.294  37.447  26.996  1.00  0.00     0.041 C 
ATOM      9  O   UNL     1      -1.411  38.256  27.385  1.00  0.00    -0.550 OA
ATOM     10  O   UNL     1      -2.365  36.180  27.560  1.00  0.00    -0.550 OA
ENDBRANCH   7   8
ENDBRANCH   6   7
ENDBRANCH   5   6
ENDBRANCH   4   5
ENDBRANCH   3   4
ENDBRANCH   2   3
ENDBRANCH   1   2
BRANCH   1  11
ATOM     11  C   UNL     1      -3.489  35.903  20.304  1.00  0.00     0.000 C 
BRANCH  11  12
ATOM     12  C   UNL     1      -3.356  37.425  20.123  1.00  0.00    -0.000 C 
BRANCH  12  13
ATOM     13  C   UNL     1      -2.356  37.811  19.019  1.00  0.00    -0.000 C 
BRANCH  13  14
ATOM     14  C   UNL     1      -2.909  37.746  17.581  1.00  0.00    -0.000 C 
BRANCH  14  15
ATOM     15  C   UNL     1      -3.618  36.427  17.213  1.00  0.00    -0.000 C 
BRANCH  15  16
ATOM     16  C   UNL     1      -3.355  35.924  15.780  1.00  0.00    -0.000 C 
BRANCH  16  17
ATOM     17  C   UNL     1      -2.995  37.023  14.765  1.00  0.00    -0.003 C 
ATOM     18  C   UNL     1      -4.209  37.546  13.997  1.00  0.00     0.004 C 
ENDBRANCH  16  17
ENDBRANCH  15  16
ENDBRANCH  14  15
ENDBRANCH  13  14
ENDBRANCH  12  13
ENDBRANCH  11  12
ENDBRANCH   1  11
TORSDOF 14
ENDMDL
MODEL 8
REMARK VINA RESULT:     1.601      3.971      8.080
REMARK INTER + INTRA:           3.287
REMARK INTER:                   2.554
REMARK INTRA:                   0.733
REMARK UNBOUND:                 0.376
REMARK SMILES CCCCCCCCCCCCCCCC(=O)[O-]
REMARK SMILES IDX 9 1 10 2 11 3 12 4 13 5 14 6 15 7 16 8 17 9 18 10 8 11 7 12
REMARK SMILES IDX 6 13 5 14 4 15 3 16 2 17 1 18
REMARK H PARENT
REMARK Flexibility Score: inf
ROOT
ATOM      1  C   UNL     1      -1.053  37.602  19.806  1.00  0.00     0.000 C 
ENDROOT
BRANCH   1   2
ATOM      2  C   UNL     1      -0.908  37.825  18.290  1.00  0.00     0.000 C 
BRANCH   2   3
ATOM      3  C   UNL     1      -1.466  36.656  17.463  1.00  0.00     0.000 C 
BRANCH   3   4
ATOM      4  C   UNL     1      -1.822  37.069  16.024  1.00  0.00     0.000 C 
BRANCH   4   5
ATOM      5  C   UNL     1      -2.939  36.202  15.420  1.00  0.00     0.000 C 
BRANCH   5   6
ATOM      6  C   UNL     1      -3.271  36.589  13.969  1.00  0.00     0.006 C 
BRANCH   6   7
ATOM      7  C   UNL     1      -4.536  37.452  13.875  1.00  0.00     0.053 C 
BRANCH   7   8
ATOM      8  C   UNL     1      -4.345  38.796  14.511  1.00  0.00     0.041 C 
ATOM      9  O   UNL     1      -4.867  39.819  13.997  1.00  0.00    -0.550 OA
ATOM     10  O   UNL     1      -3.563  38.921  15.653  1.00  0.00    -0.550 OA
ENDBRANCH   7   8
ENDBRANCH   6   7
ENDBRANCH   5   6
ENDBRANCH   4   5
ENDBRANCH   3   4
ENDBRANCH   2   3
ENDBRANCH   1   2
BRANCH   1  11
ATOM     11  C   UNL     1      -2.303  36.785  20.169  1.00  0.00     0.000 C 
BRANCH  11  12
ATOM     12  C   UNL     1      -3.600  37.602  20.040  1.00  0.00    -0.000 C 
BRANCH  12  13
ATOM     13  C   UNL     1      -4.858  36.788  20.392  1.00  0.00    -0.000 C 
BRANCH  13  14
ATOM     14  C   UNL     1      -4.590  35.411  21.034  1.00  0.00    -0.000 C 
BRANCH  14  15
ATOM     15  C   UNL     1      -5.124  35.245  22.470  1.00  0.00    -0.000 C 
BRANCH  15  16
ATOM     16  C   UNL     1      -4.789  36.405  23.428  1.00  0.00    -0.000 C 
BRANCH  16  17
ATOM     17  C   UNL     1      -5.104  36.132  24.909  1.00  0.00    -0.003 C 
ATOM     18  C   UNL     1      -4.732  37.300  25.823  1.00  0.00     0.004 C 
ENDBRANCH  16  17
ENDBRANCH  15  16
ENDBRANCH  14  15
ENDBRANCH  13  14
ENDBRANCH  12  13
ENDBRANCH  11  12
ENDBRANCH   1  11
TORSDOF 14
ENDMDL
