MODEL 1
REMARK VINA RESULT:    -3.291      0.000      0.000
REMARK INTER + INTRA:          -3.878
REMARK INTER:                  -3.868
REMARK INTRA:                  -0.011
REMARK UNBOUND:                -0.011
REMARK SMILES O=c1c(O)c(-c2ccc(O)cc2)oc2cc(O)cc(O)c12
REMARK SMILES IDX 5 1 3 2 2 3 1 4 21 5 19 6 18 7 16 8 15 9 14 10 13 11 6 12
REMARK SMILES IDX 7 13 8 14 9 15 12 16 11 17 10 18 4 20 20 22 17 24
REMARK H PARENT 10 19 4 21 20 23 17 25
REMARK Flexibility Score: inf
ROOT
ATOM      1  C   UNL     1      10.061  79.257   1.114  1.00  0.00     0.180 A 
ATOM      2  C   UNL     1      10.856  79.680   2.198  1.00  0.00     0.208 A 
ATOM      3  C   UNL     1      12.253  79.620   2.080  1.00  0.00     0.238 A 
ATOM      4  O   UNL     1      12.974  80.006   3.039  1.00  0.00    -0.285 OA
ATOM      5  C   UNL     1      12.831  79.120   0.895  1.00  0.00     0.111 A 
ATOM      6  C   UNL     1      14.230  79.021   0.697  1.00  0.00     0.134 A 
ATOM      7  C   UNL     1      14.727  78.504  -0.509  1.00  0.00     0.093 A 
ATOM      8  C   UNL     1      13.853  78.084  -1.518  1.00  0.00     0.123 A 
ATOM      9  C   UNL     1      12.474  78.179  -1.328  1.00  0.00     0.094 A 
ATOM     10  C   UNL     1      11.958  78.693  -0.134  1.00  0.00     0.146 A 
ATOM     11  O   UNL     1      10.642  78.778   0.018  1.00  0.00    -0.452 OA
ENDROOT
BRANCH   1  12
ATOM     12  C   UNL     1       8.583  79.310   1.155  1.00  0.00     0.021 A 
ATOM     13  C   UNL     1       7.889  80.030   0.168  1.00  0.00     0.016 A 
ATOM     14  C   UNL     1       6.494  80.113   0.200  1.00  0.00     0.047 A 
ATOM     15  C   UNL     1       5.775  79.488   1.224  1.00  0.00     0.115 A 
ATOM     16  C   UNL     1       7.855  78.701   2.194  1.00  0.00     0.016 A 
ATOM     17  C   UNL     1       6.460  78.785   2.223  1.00  0.00     0.047 A 
BRANCH  15  18
ATOM     18  O   UNL     1       4.385  79.578   1.242  1.00  0.00    -0.508 OA
ATOM     19  H   UNL     1       3.802  78.750   1.254  1.00  0.00     0.293 HD
ENDBRANCH  15  18
ENDBRANCH   1  12
BRANCH   2  20
ATOM     20  O   UNL     1      10.258  80.125   3.380  1.00  0.00    -0.502 OA
ATOM     21  H   UNL     1       9.489  80.784   3.384  1.00  0.00     0.293 HD
ENDBRANCH   2  20
BRANCH   6  22
ATOM     22  O   UNL     1      15.125  79.431   1.685  1.00  0.00    -0.507 OA
ATOM     23  H   UNL     1      14.884  80.151   2.357  1.00  0.00     0.293 HD
ENDBRANCH   6  22
BRANCH   8  24
ATOM     24  O   UNL     1      14.346  77.569  -2.715  1.00  0.00    -0.508 OA
ATOM     25  H   UNL     1      14.591  76.590  -2.811  1.00  0.00     0.293 HD
ENDBRANCH   8  24
TORSDOF 5
ENDMDL
MODEL 2
REMARK VINA RESULT:    -2.635      1.781      6.912
REMARK INTER + INTRA:          -3.107
REMARK INTER:                  -2.811
REMARK INTRA:                  -0.297
REMARK UNBOUND:                -0.011
REMARK SMILES O=c1c(O)c(-c2ccc(O)cc2)oc2cc(O)cc(O)c12
REMARK SMILES IDX 5 1 3 2 2 3 1 4 21 5 19 6 18 7 16 8 15 9 14 10 13 11 6 12
REMARK SMILES IDX 7 13 8 14 9 15 12 16 11 17 10 18 4 20 20 22 17 24
REMARK H PARENT 10 19 4 21 20 23 17 25
REMARK Flexibility Score: inf
ROOT
ATOM      1  C   UNL     1      10.117  79.110   0.496  1.00  0.00     0.180 A 
ATOM      2  C   UNL     1       8.936  79.500  -0.165  1.00  0.00     0.208 A 
ATOM      3  C   UNL     1       7.746  79.595   0.572  1.00  0.00     0.238 A 
ATOM      4  O   UNL     1       6.684  79.953  -0.006  1.00  0.00    -0.285 OA
ATOM      5  C   UNL     1       7.750  79.280   1.947  1.00  0.00     0.111 A 
ATOM      6  C   UNL     1       6.593  79.345   2.760  1.00  0.00     0.134 A 
ATOM      7  C   UNL     1       6.678  79.007   4.119  1.00  0.00     0.093 A 
ATOM      8  C   UNL     1       7.896  78.605   4.679  1.00  0.00     0.123 A 
ATOM      9  C   UNL     1       9.039  78.538   3.881  1.00  0.00     0.094 A 
ATOM     10  C   UNL     1       8.976  78.873   2.525  1.00  0.00     0.146 A 
ATOM     11  O   UNL     1      10.080  78.807   1.791  1.00  0.00    -0.452 OA
ENDROOT
BRANCH   1  12
ATOM     12  C   UNL     1      11.415  79.007  -0.208  1.00  0.00     0.021 A 
ATOM     13  C   UNL     1      11.831  77.762  -0.712  1.00  0.00     0.016 A 
ATOM     14  C   UNL     1      13.063  77.636  -1.360  1.00  0.00     0.047 A 
ATOM     15  C   UNL     1      13.901  78.747  -1.502  1.00  0.00     0.115 A 
ATOM     16  C   UNL     1      12.271  80.116  -0.335  1.00  0.00     0.016 A 
ATOM     17  C   UNL     1      13.503  79.987  -0.985  1.00  0.00     0.047 A 
BRANCH  15  18
ATOM     18  O   UNL     1      15.125  78.607  -2.151  1.00  0.00    -0.508 OA
ATOM     19  H   UNL     1      15.311  79.065  -3.035  1.00  0.00     0.293 HD
ENDBRANCH  15  18
ENDBRANCH   1  12
BRANCH   2  20
ATOM     20  O   UNL     1       8.948  79.758  -1.538  1.00  0.00    -0.502 OA
ATOM     21  H   UNL     1       8.468  80.552  -1.945  1.00  0.00     0.293 HD
ENDBRANCH   2  20
BRANCH   6  22
ATOM     22  O   UNL     1       5.365  79.742   2.231  1.00  0.00    -0.507 OA
ATOM     23  H   UNL     1       5.223  80.672   1.853  1.00  0.00     0.293 HD
ENDBRANCH   6  22
BRANCH   8  24
ATOM     24  O   UNL     1       7.980  78.268   6.028  1.00  0.00    -0.508 OA
ATOM     25  H   UNL     1       8.498  77.454   6.340  1.00  0.00     0.293 HD
ENDBRANCH   8  24
TORSDOF 5
ENDMDL
MODEL 3
REMARK VINA RESULT:    -1.161      1.147      6.384
REMARK INTER + INTRA:          -1.376
REMARK INTER:                  -1.472
REMARK INTRA:                   0.096
REMARK UNBOUND:                -0.011
REMARK SMILES O=c1c(O)c(-c2ccc(O)cc2)oc2cc(O)cc(O)c12
REMARK SMILES IDX 5 1 3 2 2 3 1 4 21 5 19 6 18 7 16 8 15 9 14 10 13 11 6 12
REMARK SMILES IDX 7 13 8 14 9 15 12 16 11 17 10 18 4 20 20 22 17 24
REMARK H PARENT 10 19 4 21 20 23 17 25
REMARK Flexibility Score: inf
ROOT
ATOM      1  C   UNL     1      11.202  78.954   0.476  1.00  0.00     0.180 A 
ATOM      2  C   UNL     1      11.542  79.260   1.809  1.00  0.00     0.208 A 
ATOM      3  C   UNL     1      10.516  79.548   2.722  1.00  0.00     0.238 A 
ATOM      4  O   UNL     1      10.808  79.812   3.920  1.00  0.00    -0.285 OA
ATOM      5  C   UNL     1       9.175  79.547   2.286  1.00  0.00     0.111 A 
ATOM      6  C   UNL     1       8.082  79.832   3.141  1.00  0.00     0.134 A 
ATOM      7  C   UNL     1       6.776  79.819   2.629  1.00  0.00     0.093 A 
ATOM      8  C   UNL     1       6.543  79.529   1.280  1.00  0.00     0.123 A 
ATOM      9  C   UNL     1       7.616  79.249   0.433  1.00  0.00     0.094 A 
ATOM     10  C   UNL     1       8.925  79.254   0.924  1.00  0.00     0.146 A 
ATOM     11  O   UNL     1       9.926  78.978   0.098  1.00  0.00    -0.452 OA
ENDROOT
BRANCH   1  12
ATOM     12  C   UNL     1      12.224  78.620  -0.540  1.00  0.00     0.021 A 
ATOM     13  C   UNL     1      12.049  77.486  -1.351  1.00  0.00     0.016 A 
ATOM     14  C   UNL     1      13.013  77.138  -2.301  1.00  0.00     0.047 A 
ATOM     15  C   UNL     1      14.170  77.910  -2.446  1.00  0.00     0.115 A 
ATOM     16  C   UNL     1      13.400  79.381  -0.676  1.00  0.00     0.016 A 
ATOM     17  C   UNL     1      14.363  79.031  -1.628  1.00  0.00     0.047 A 
BRANCH  15  18
ATOM     18  O   UNL     1      15.122  77.552  -3.398  1.00  0.00    -0.508 OA
ATOM     19  H   UNL     1      15.978  78.081  -3.515  1.00  0.00     0.293 HD
ENDBRANCH  15  18
ENDBRANCH   1  12
BRANCH   2  20
ATOM     20  O   UNL     1      12.882  79.303   2.203  1.00  0.00    -0.502 OA
ATOM     21  H   UNL     1      13.196  79.846   2.997  1.00  0.00     0.293 HD
ENDBRANCH   2  20
BRANCH   6  22
ATOM     22  O   UNL     1       8.284  80.125   4.490  1.00  0.00    -0.507 OA
ATOM     23  H   UNL     1       7.617  80.673   5.022  1.00  0.00     0.293 HD
ENDBRANCH   6  22
BRANCH   8  24
ATOM     24  O   UNL     1       5.246  79.518   0.771  1.00  0.00    -0.508 OA
ATOM     25  H   UNL     1       4.512  78.967   1.201  1.00  0.00     0.293 HD
ENDBRANCH   8  24
TORSDOF 5
ENDMDL
