MODEL 1
REMARK VINA RESULT:    -7.244      0.000      0.000
REMARK INTER + INTRA:          -9.043
REMARK INTER:                  -8.726
REMARK INTRA:                  -0.316
REMARK UNBOUND:                -0.316
REMARK SMILES O=c1c(O)c(-c2ccc(O)c(O)c2)oc2cc(O)cc(O)c12
REMARK SMILES IDX 5 1 3 2 2 3 1 4 22 5 20 6 19 7 17 8 16 9 15 10 14 11 6 12
REMARK SMILES IDX 7 13 8 14 9 15 13 16 11 17 10 18 12 20 4 22 21 24 18 26
REMARK H PARENT 10 19 12 21 4 23 21 25 18 27
REMARK Flexibility Score: inf
ROOT
ATOM      1  C   UNL     1     -20.413 -12.432 -41.523  1.00  0.00     0.180 A 
ATOM      2  C   UNL     1     -19.586 -12.129 -42.618  1.00  0.00     0.208 A 
ATOM      3  C   UNL     1     -20.081 -12.314 -43.919  1.00  0.00     0.238 A 
ATOM      4  O   UNL     1     -19.363 -11.970 -44.893  1.00  0.00    -0.285 OA
ATOM      5  C   UNL     1     -21.376 -12.855 -44.109  1.00  0.00     0.111 A 
ATOM      6  C   UNL     1     -21.963 -13.128 -45.382  1.00  0.00     0.134 A 
ATOM      7  C   UNL     1     -23.293 -13.563 -45.451  1.00  0.00     0.093 A 
ATOM      8  C   UNL     1     -24.035 -13.796 -44.294  1.00  0.00     0.123 A 
ATOM      9  C   UNL     1     -23.454 -13.585 -43.044  1.00  0.00     0.094 A 
ATOM     10  C   UNL     1     -22.142 -13.114 -42.943  1.00  0.00     0.146 A 
ATOM     11  O   UNL     1     -21.635 -12.907 -41.733  1.00  0.00    -0.452 OA
ENDROOT
BRANCH   1  12
ATOM     12  C   UNL     1     -19.968 -12.249 -40.124  1.00  0.00     0.025 A 
ATOM     13  C   UNL     1     -20.084 -10.985 -39.523  1.00  0.00     0.016 A 
ATOM     14  C   UNL     1     -19.650 -10.783 -38.211  1.00  0.00     0.051 A 
ATOM     15  C   UNL     1     -19.080 -11.836 -37.485  1.00  0.00     0.157 A 
ATOM     16  C   UNL     1     -19.376 -13.298 -39.399  1.00  0.00     0.062 A 
ATOM     17  C   UNL     1     -18.938 -13.099 -38.084  1.00  0.00     0.158 A 
BRANCH  15  18
ATOM     18  O   UNL     1     -18.650 -11.633 -36.174  1.00  0.00    -0.504 OA
ATOM     19  H   UNL     1     -18.150 -10.794 -35.903  1.00  0.00     0.293 HD
ENDBRANCH  15  18
BRANCH  17  20
ATOM     20  O   UNL     1     -18.362 -14.164 -37.394  1.00  0.00    -0.504 OA
ATOM     21  H   UNL     1     -17.420 -14.484 -37.587  1.00  0.00     0.293 HD
ENDBRANCH  17  20
ENDBRANCH   1  12
BRANCH   2  22
ATOM     22  O   UNL     1     -18.283 -11.668 -42.409  1.00  0.00    -0.502 OA
ATOM     23  H   UNL     1     -17.468 -12.178 -42.729  1.00  0.00     0.293 HD
ENDBRANCH   2  22
BRANCH   6  24
ATOM     24  O   UNL     1     -21.284 -13.014 -46.599  1.00  0.00    -0.507 OA
ATOM     25  H   UNL     1     -20.330 -13.300 -46.757  1.00  0.00     0.293 HD
ENDBRANCH   6  24
BRANCH   8  26
ATOM     26  O   UNL     1     -25.349 -14.246 -44.401  1.00  0.00    -0.508 OA
ATOM     27  H   UNL     1     -25.923 -14.019 -45.205  1.00  0.00     0.293 HD
ENDBRANCH   8  26
TORSDOF 6
ENDMDL
MODEL 2
REMARK VINA RESULT:    -7.219      2.026      2.520
REMARK INTER + INTRA:          -9.012
REMARK INTER:                  -8.746
REMARK INTRA:                  -0.266
REMARK UNBOUND:                -0.316
REMARK SMILES O=c1c(O)c(-c2ccc(O)c(O)c2)oc2cc(O)cc(O)c12
REMARK SMILES IDX 5 1 3 2 2 3 1 4 22 5 20 6 19 7 17 8 16 9 15 10 14 11 6 12
REMARK SMILES IDX 7 13 8 14 9 15 13 16 11 17 10 18 12 20 4 22 21 24 18 26
REMARK H PARENT 10 19 12 21 4 23 21 25 18 27
REMARK Flexibility Score: inf
ROOT
ATOM      1  C   UNL     1     -20.206 -12.452 -40.931  1.00  0.00     0.180 A 
ATOM      2  C   UNL     1     -20.815 -11.463 -41.723  1.00  0.00     0.208 A 
ATOM      3  C   UNL     1     -21.100 -11.747 -43.067  1.00  0.00     0.238 A 
ATOM      4  O   UNL     1     -21.712 -10.886 -43.750  1.00  0.00    -0.285 OA
ATOM      5  C   UNL     1     -20.721 -12.996 -43.620  1.00  0.00     0.111 A 
ATOM      6  C   UNL     1     -20.919 -13.374 -44.983  1.00  0.00     0.134 A 
ATOM      7  C   UNL     1     -20.601 -14.676 -45.391  1.00  0.00     0.093 A 
ATOM      8  C   UNL     1     -20.033 -15.590 -44.505  1.00  0.00     0.123 A 
ATOM      9  C   UNL     1     -19.784 -15.214 -43.185  1.00  0.00     0.094 A 
ATOM     10  C   UNL     1     -20.127 -13.935 -42.737  1.00  0.00     0.146 A 
ATOM     11  O   UNL     1     -19.892 -13.625 -41.468  1.00  0.00    -0.452 OA
ENDROOT
BRANCH   1  12
ATOM     12  C   UNL     1     -19.888 -12.232 -39.502  1.00  0.00     0.025 A 
ATOM     13  C   UNL     1     -18.771 -11.455 -39.155  1.00  0.00     0.016 A 
ATOM     14  C   UNL     1     -18.440 -11.252 -37.813  1.00  0.00     0.051 A 
ATOM     15  C   UNL     1     -19.210 -11.835 -36.799  1.00  0.00     0.157 A 
ATOM     16  C   UNL     1     -20.647 -12.833 -38.481  1.00  0.00     0.062 A 
ATOM     17  C   UNL     1     -20.316 -12.633 -37.135  1.00  0.00     0.158 A 
BRANCH  15  18
ATOM     18  O   UNL     1     -18.879 -11.628 -35.460  1.00  0.00    -0.504 OA
ATOM     19  H   UNL     1     -18.164 -12.179 -34.999  1.00  0.00     0.293 HD
ENDBRANCH  15  18
BRANCH  17  20
ATOM     20  O   UNL     1     -21.094 -13.239 -36.150  1.00  0.00    -0.504 OA
ATOM     21  H   UNL     1     -20.865 -13.170 -35.165  1.00  0.00     0.293 HD
ENDBRANCH  17  20
ENDBRANCH   1  12
BRANCH   2  22
ATOM     22  O   UNL     1     -21.111 -10.210 -41.179  1.00  0.00    -0.502 OA
ATOM     23  H   UNL     1     -21.114  -9.363 -41.735  1.00  0.00     0.293 HD
ENDBRANCH   2  22
BRANCH   6  24
ATOM     24  O   UNL     1     -21.398 -12.513 -45.974  1.00  0.00    -0.507 OA
ATOM     25  H   UNL     1     -21.414 -11.506 -45.906  1.00  0.00     0.293 HD
ENDBRANCH   6  24
BRANCH   8  26
ATOM     26  O   UNL     1     -19.713 -16.870 -44.951  1.00  0.00    -0.508 OA
ATOM     27  H   UNL     1     -20.317 -17.663 -44.765  1.00  0.00     0.293 HD
ENDBRANCH   8  26
TORSDOF 6
ENDMDL
MODEL 3
REMARK VINA RESULT:    -7.044      5.775      9.346
REMARK INTER + INTRA:          -8.801
REMARK INTER:                  -8.487
REMARK INTRA:                  -0.314
REMARK UNBOUND:                -0.316
REMARK SMILES O=c1c(O)c(-c2ccc(O)c(O)c2)oc2cc(O)cc(O)c12
REMARK SMILES IDX 5 1 3 2 2 3 1 4 22 5 20 6 19 7 17 8 16 9 15 10 14 11 6 12
REMARK SMILES IDX 7 13 8 14 9 15 13 16 11 17 10 18 12 20 4 22 21 24 18 26
REMARK H PARENT 10 19 12 21 4 23 21 25 18 27
REMARK Flexibility Score: inf
ROOT
ATOM      1  C   UNL     1     -19.388 -19.003 -41.032  1.00  0.00     0.180 A 
ATOM      2  C   UNL     1     -18.719 -19.995 -40.294  1.00  0.00     0.208 A 
ATOM      3  C   UNL     1     -18.304 -19.708 -38.985  1.00  0.00     0.238 A 
ATOM      4  O   UNL     1     -17.773 -20.624 -38.305  1.00  0.00    -0.285 OA
ATOM      5  C   UNL     1     -18.510 -18.413 -38.448  1.00  0.00     0.111 A 
ATOM      6  C   UNL     1     -18.089 -17.996 -37.149  1.00  0.00     0.134 A 
ATOM      7  C   UNL     1     -18.443 -16.724 -36.683  1.00  0.00     0.093 A 
ATOM      8  C   UNL     1     -19.144 -15.830 -37.492  1.00  0.00     0.123 A 
ATOM      9  C   UNL     1     -19.512 -16.206 -38.783  1.00  0.00     0.094 A 
ATOM     10  C   UNL     1     -19.208 -17.484 -39.262  1.00  0.00     0.146 A 
ATOM     11  O   UNL     1     -19.596 -17.809 -40.490  1.00  0.00    -0.452 OA
ENDROOT
BRANCH   1  12
ATOM     12  C   UNL     1     -19.869 -19.235 -42.411  1.00  0.00     0.025 A 
ATOM     13  C   UNL     1     -21.109 -19.864 -42.613  1.00  0.00     0.016 A 
ATOM     14  C   UNL     1     -21.574 -20.113 -43.906  1.00  0.00     0.051 A 
ATOM     15  C   UNL     1     -20.801 -19.753 -45.017  1.00  0.00     0.157 A 
ATOM     16  C   UNL     1     -19.087 -18.895 -43.529  1.00  0.00     0.062 A 
ATOM     17  C   UNL     1     -19.549 -19.145 -44.827  1.00  0.00     0.158 A 
BRANCH  15  18
ATOM     18  O   UNL     1     -21.269 -20.001 -46.307  1.00  0.00    -0.504 OA
ATOM     19  H   UNL     1     -21.469 -19.246 -46.953  1.00  0.00     0.293 HD
ENDBRANCH  15  18
BRANCH  17  20
ATOM     20  O   UNL     1     -18.748 -18.788 -45.911  1.00  0.00    -0.504 OA
ATOM     21  H   UNL     1     -17.996 -19.380 -46.242  1.00  0.00     0.293 HD
ENDBRANCH  17  20
ENDBRANCH   1  12
BRANCH   2  22
ATOM     22  O   UNL     1     -18.457 -21.242 -40.870  1.00  0.00    -0.502 OA
ATOM     23  H   UNL     1     -17.881 -21.350 -41.696  1.00  0.00     0.293 HD
ENDBRANCH   2  22
BRANCH   6  24
ATOM     24  O   UNL     1     -17.308 -18.776 -36.290  1.00  0.00    -0.507 OA
ATOM     25  H   UNL     1     -17.670 -19.366 -35.556  1.00  0.00     0.293 HD
ENDBRANCH   6  24
BRANCH   8  26
ATOM     26  O   UNL     1     -19.462 -14.565 -37.002  1.00  0.00    -0.508 OA
ATOM     27  H   UNL     1     -20.407 -14.328 -36.721  1.00  0.00     0.293 HD
ENDBRANCH   8  26
TORSDOF 6
ENDMDL
MODEL 4
REMARK VINA RESULT:    -6.918      4.351      5.725
REMARK INTER + INTRA:          -8.650
REMARK INTER:                  -8.328
REMARK INTRA:                  -0.322
REMARK UNBOUND:                -0.316
REMARK SMILES O=c1c(O)c(-c2ccc(O)c(O)c2)oc2cc(O)cc(O)c12
REMARK SMILES IDX 5 1 3 2 2 3 1 4 22 5 20 6 19 7 17 8 16 9 15 10 14 11 6 12
REMARK SMILES IDX 7 13 8 14 9 15 13 16 11 17 10 18 12 20 4 22 21 24 18 26
REMARK H PARENT 10 19 12 21 4 23 21 25 18 27
REMARK Flexibility Score: inf
ROOT
ATOM      1  C   UNL     1     -19.904 -15.147 -43.235  1.00  0.00     0.180 A 
ATOM      2  C   UNL     1     -20.379 -15.583 -44.484  1.00  0.00     0.208 A 
ATOM      3  C   UNL     1     -20.438 -16.961 -44.748  1.00  0.00     0.238 A 
ATOM      4  O   UNL     1     -20.933 -17.347 -45.838  1.00  0.00    -0.285 OA
ATOM      5  C   UNL     1     -19.968 -17.884 -43.781  1.00  0.00     0.111 A 
ATOM      6  C   UNL     1     -19.937 -19.301 -43.958  1.00  0.00     0.134 A 
ATOM      7  C   UNL     1     -19.551 -20.122 -42.892  1.00  0.00     0.093 A 
ATOM      8  C   UNL     1     -19.132 -19.578 -41.679  1.00  0.00     0.123 A 
ATOM      9  C   UNL     1     -19.105 -18.194 -41.512  1.00  0.00     0.094 A 
ATOM     10  C   UNL     1     -19.522 -17.348 -42.544  1.00  0.00     0.146 A 
ATOM     11  O   UNL     1     -19.501 -16.037 -42.337  1.00  0.00    -0.452 OA
ENDROOT
BRANCH   1  12
ATOM     12  C   UNL     1     -19.827 -13.713 -42.879  1.00  0.00     0.025 A 
ATOM     13  C   UNL     1     -20.924 -13.096 -42.256  1.00  0.00     0.016 A 
ATOM     14  C   UNL     1     -20.882 -11.738 -41.930  1.00  0.00     0.051 A 
ATOM     15  C   UNL     1     -19.749 -10.973 -42.235  1.00  0.00     0.157 A 
ATOM     16  C   UNL     1     -18.700 -12.936 -43.202  1.00  0.00     0.062 A 
ATOM     17  C   UNL     1     -18.655 -11.574 -42.879  1.00  0.00     0.158 A 
BRANCH  15  18
ATOM     18  O   UNL     1     -19.709  -9.619 -41.906  1.00  0.00    -0.504 OA
ATOM     19  H   UNL     1     -20.285  -9.235 -41.165  1.00  0.00     0.293 HD
ENDBRANCH  15  18
BRANCH  17  20
ATOM     20  O   UNL     1     -17.519 -10.838 -43.209  1.00  0.00    -0.504 OA
ATOM     21  H   UNL     1     -17.351 -10.498 -44.149  1.00  0.00     0.293 HD
ENDBRANCH  17  20
ENDBRANCH   1  12
BRANCH   2  22
ATOM     22  O   UNL     1     -20.766 -14.654 -45.454  1.00  0.00    -0.502 OA
ATOM     23  H   UNL     1     -20.097 -14.153 -46.026  1.00  0.00     0.293 HD
ENDBRANCH   2  22
BRANCH   6  24
ATOM     24  O   UNL     1     -20.250 -19.947 -45.158  1.00  0.00    -0.507 OA
ATOM     25  H   UNL     1     -20.479 -20.926 -45.244  1.00  0.00     0.293 HD
ENDBRANCH   6  24
BRANCH   8  26
ATOM     26  O   UNL     1     -18.737 -20.426 -40.646  1.00  0.00    -0.508 OA
ATOM     27  H   UNL     1     -18.189 -20.087 -39.864  1.00  0.00     0.293 HD
ENDBRANCH   8  26
TORSDOF 6
ENDMDL
MODEL 5
REMARK VINA RESULT:    -6.699      2.054      2.700
REMARK INTER + INTRA:          -8.386
REMARK INTER:                  -8.345
REMARK INTRA:                  -0.041
REMARK UNBOUND:                -0.316
REMARK SMILES O=c1c(O)c(-c2ccc(O)c(O)c2)oc2cc(O)cc(O)c12
REMARK SMILES IDX 5 1 3 2 2 3 1 4 22 5 20 6 19 7 17 8 16 9 15 10 14 11 6 12
REMARK SMILES IDX 7 13 8 14 9 15 13 16 11 17 10 18 12 20 4 22 21 24 18 26
REMARK H PARENT 10 19 12 21 4 23 21 25 18 27
REMARK Flexibility Score: inf
ROOT
ATOM      1  C   UNL     1     -20.199 -12.053 -40.994  1.00  0.00     0.180 A 
ATOM      2  C   UNL     1     -20.104 -13.265 -41.700  1.00  0.00     0.208 A 
ATOM      3  C   UNL     1     -20.385 -13.278 -43.075  1.00  0.00     0.238 A 
ATOM      4  O   UNL     1     -20.226 -14.349 -43.714  1.00  0.00    -0.285 OA
ATOM      5  C   UNL     1     -20.811 -12.089 -43.718  1.00  0.00     0.111 A 
ATOM      6  C   UNL     1     -21.166 -11.995 -45.098  1.00  0.00     0.134 A 
ATOM      7  C   UNL     1     -21.471 -10.744 -45.649  1.00  0.00     0.093 A 
ATOM      8  C   UNL     1     -21.497  -9.596 -44.858  1.00  0.00     0.123 A 
ATOM      9  C   UNL     1     -21.206  -9.685 -43.497  1.00  0.00     0.094 A 
ATOM     10  C   UNL     1     -20.860 -10.912 -42.926  1.00  0.00     0.146 A 
ATOM     11  O   UNL     1     -20.570 -10.949 -41.631  1.00  0.00    -0.452 OA
ENDROOT
BRANCH   1  12
ATOM     12  C   UNL     1     -19.904 -11.958 -39.547  1.00  0.00     0.025 A 
ATOM     13  C   UNL     1     -18.921 -11.061 -39.100  1.00  0.00     0.016 A 
ATOM     14  C   UNL     1     -18.611 -10.970 -37.741  1.00  0.00     0.051 A 
ATOM     15  C   UNL     1     -19.268 -11.785 -36.810  1.00  0.00     0.157 A 
ATOM     16  C   UNL     1     -20.547 -12.790 -38.612  1.00  0.00     0.062 A 
ATOM     17  C   UNL     1     -20.237 -12.703 -37.249  1.00  0.00     0.158 A 
BRANCH  15  18
ATOM     18  O   UNL     1     -18.959 -11.690 -35.454  1.00  0.00    -0.504 OA
ATOM     19  H   UNL     1     -18.586 -10.837 -35.053  1.00  0.00     0.293 HD
ENDBRANCH  15  18
BRANCH  17  20
ATOM     20  O   UNL     1     -20.898 -13.538 -36.350  1.00  0.00    -0.504 OA
ATOM     21  H   UNL     1     -21.593 -13.187 -35.701  1.00  0.00     0.293 HD
ENDBRANCH  17  20
ENDBRANCH   1  12
BRANCH   2  22
ATOM     22  O   UNL     1     -19.756 -14.443 -41.032  1.00  0.00    -0.502 OA
ATOM     23  H   UNL     1     -20.408 -15.206 -40.897  1.00  0.00     0.293 HD
ENDBRANCH   2  22
BRANCH   6  24
ATOM     24  O   UNL     1     -21.258 -13.092 -45.960  1.00  0.00    -0.507 OA
ATOM     25  H   UNL     1     -21.880 -13.153 -46.752  1.00  0.00     0.293 HD
ENDBRANCH   6  24
BRANCH   8  26
ATOM     26  O   UNL     1     -21.823  -8.371 -45.437  1.00  0.00    -0.508 OA
ATOM     27  H   UNL     1     -21.960  -8.278 -46.437  1.00  0.00     0.293 HD
ENDBRANCH   8  26
TORSDOF 6
ENDMDL
MODEL 6
REMARK VINA RESULT:    -6.600      3.811      6.441
REMARK INTER + INTRA:          -8.266
REMARK INTER:                  -8.015
REMARK INTRA:                  -0.252
REMARK UNBOUND:                -0.316
REMARK SMILES O=c1c(O)c(-c2ccc(O)c(O)c2)oc2cc(O)cc(O)c12
REMARK SMILES IDX 5 1 3 2 2 3 1 4 22 5 20 6 19 7 17 8 16 9 15 10 14 11 6 12
REMARK SMILES IDX 7 13 8 14 9 15 13 16 11 17 10 18 12 20 4 22 21 24 18 26
REMARK H PARENT 10 19 12 21 4 23 21 25 18 27
REMARK Flexibility Score: inf
ROOT
ATOM      1  C   UNL     1     -20.260 -14.953 -43.579  1.00  0.00     0.180 A 
ATOM      2  C   UNL     1     -20.734 -14.028 -44.526  1.00  0.00     0.208 A 
ATOM      3  C   UNL     1     -20.864 -12.681 -44.156  1.00  0.00     0.238 A 
ATOM      4  O   UNL     1     -21.218 -11.847 -45.030  1.00  0.00    -0.285 OA
ATOM      5  C   UNL     1     -20.573 -12.282 -42.828  1.00  0.00     0.111 A 
ATOM      6  C   UNL     1     -20.713 -10.951 -42.330  1.00  0.00     0.134 A 
ATOM      7  C   UNL     1     -20.294 -10.653 -41.028  1.00  0.00     0.093 A 
ATOM      8  C   UNL     1     -19.800 -11.648 -40.185  1.00  0.00     0.123 A 
ATOM      9  C   UNL     1     -19.711 -12.963 -40.642  1.00  0.00     0.094 A 
ATOM     10  C   UNL     1     -20.085 -13.284 -41.950  1.00  0.00     0.146 A 
ATOM     11  O   UNL     1     -19.964 -14.544 -42.351  1.00  0.00    -0.452 OA
ENDROOT
BRANCH   1  12
ATOM     12  C   UNL     1     -20.081 -16.387 -43.898  1.00  0.00     0.025 A 
ATOM     13  C   UNL     1     -20.928 -17.337 -43.305  1.00  0.00     0.016 A 
ATOM     14  C   UNL     1     -20.765 -18.697 -43.575  1.00  0.00     0.051 A 
ATOM     15  C   UNL     1     -19.743 -19.131 -44.429  1.00  0.00     0.157 A 
ATOM     16  C   UNL     1     -19.043 -16.828 -44.739  1.00  0.00     0.062 A 
ATOM     17  C   UNL     1     -18.875 -18.191 -45.009  1.00  0.00     0.158 A 
BRANCH  15  18
ATOM     18  O   UNL     1     -19.584 -20.489 -44.699  1.00  0.00    -0.504 OA
ATOM     19  H   UNL     1     -19.396 -21.159 -43.961  1.00  0.00     0.293 HD
ENDBRANCH  15  18
BRANCH  17  20
ATOM     20  O   UNL     1     -17.839 -18.591 -45.852  1.00  0.00    -0.504 OA
ATOM     21  H   UNL     1     -16.889 -18.707 -45.519  1.00  0.00     0.293 HD
ENDBRANCH  17  20
ENDBRANCH   1  12
BRANCH   2  22
ATOM     22  O   UNL     1     -21.089 -14.455 -45.809  1.00  0.00    -0.502 OA
ATOM     23  H   UNL     1     -21.564 -15.333 -45.978  1.00  0.00     0.293 HD
ENDBRANCH   2  22
BRANCH   6  24
ATOM     24  O   UNL     1     -21.276  -9.898 -43.057  1.00  0.00    -0.507 OA
ATOM     25  H   UNL     1     -21.860  -9.174 -42.667  1.00  0.00     0.293 HD
ENDBRANCH   6  24
BRANCH   8  26
ATOM     26  O   UNL     1     -19.410 -11.318 -38.889  1.00  0.00    -0.508 OA
ATOM     27  H   UNL     1     -18.805 -10.526 -38.704  1.00  0.00     0.293 HD
ENDBRANCH   8  26
TORSDOF 6
ENDMDL
MODEL 7
REMARK VINA RESULT:    -6.430      5.567      6.097
REMARK INTER + INTRA:          -8.061
REMARK INTER:                  -7.739
REMARK INTRA:                  -0.322
REMARK UNBOUND:                -0.316
REMARK SMILES O=c1c(O)c(-c2ccc(O)c(O)c2)oc2cc(O)cc(O)c12
REMARK SMILES IDX 5 1 3 2 2 3 1 4 22 5 20 6 19 7 17 8 16 9 15 10 14 11 6 12
REMARK SMILES IDX 7 13 8 14 9 15 13 16 11 17 10 18 12 20 4 22 21 24 18 26
REMARK H PARENT 10 19 12 21 4 23 21 25 18 27
REMARK Flexibility Score: inf
ROOT
ATOM      1  C   UNL     1     -19.568 -18.481 -41.617  1.00  0.00     0.180 A 
ATOM      2  C   UNL     1     -18.744 -18.074 -42.680  1.00  0.00     0.208 A 
ATOM      3  C   UNL     1     -19.209 -18.216 -43.996  1.00  0.00     0.238 A 
ATOM      4  O   UNL     1     -18.498 -17.781 -44.939  1.00  0.00    -0.285 OA
ATOM      5  C   UNL     1     -20.470 -18.817 -44.237  1.00  0.00     0.111 A 
ATOM      6  C   UNL     1     -21.022 -19.054 -45.533  1.00  0.00     0.134 A 
ATOM      7  C   UNL     1     -22.324 -19.557 -45.647  1.00  0.00     0.093 A 
ATOM      8  C   UNL     1     -23.068 -19.892 -44.517  1.00  0.00     0.123 A 
ATOM      9  C   UNL     1     -22.518 -19.717 -43.247  1.00  0.00     0.094 A 
ATOM     10  C   UNL     1     -21.236 -19.180 -43.100  1.00  0.00     0.146 A 
ATOM     11  O   UNL     1     -20.759 -19.010 -41.872  1.00  0.00    -0.452 OA
ENDROOT
BRANCH   1  12
ATOM     12  C   UNL     1     -19.153 -18.348 -40.202  1.00  0.00     0.025 A 
ATOM     13  C   UNL     1     -18.646 -19.468 -39.524  1.00  0.00     0.016 A 
ATOM     14  C   UNL     1     -18.268 -19.372 -38.183  1.00  0.00     0.051 A 
ATOM     15  C   UNL     1     -18.406 -18.160 -37.494  1.00  0.00     0.157 A 
ATOM     16  C   UNL     1     -19.310 -17.139 -39.502  1.00  0.00     0.062 A 
ATOM     17  C   UNL     1     -18.935 -17.040 -38.157  1.00  0.00     0.158 A 
BRANCH  15  18
ATOM     18  O   UNL     1     -18.026 -18.066 -36.157  1.00  0.00    -0.504 OA
ATOM     19  H   UNL     1     -18.560 -18.513 -35.420  1.00  0.00     0.293 HD
ENDBRANCH  15  18
BRANCH  17  20
ATOM     20  O   UNL     1     -19.099 -15.823 -37.497  1.00  0.00    -0.504 OA
ATOM     21  H   UNL     1     -18.989 -15.736 -36.493  1.00  0.00     0.293 HD
ENDBRANCH  17  20
ENDBRANCH   1  12
BRANCH   2  22
ATOM     22  O   UNL     1     -17.472 -17.554 -42.425  1.00  0.00    -0.502 OA
ATOM     23  H   UNL     1     -16.703 -18.130 -42.104  1.00  0.00     0.293 HD
ENDBRANCH   2  22
BRANCH   6  24
ATOM     24  O   UNL     1     -20.334 -18.837 -46.730  1.00  0.00    -0.507 OA
ATOM     25  H   UNL     1     -20.560 -18.123 -47.406  1.00  0.00     0.293 HD
ENDBRANCH   6  24
BRANCH   8  26
ATOM     26  O   UNL     1     -24.354 -20.408 -44.669  1.00  0.00    -0.508 OA
ATOM     27  H   UNL     1     -24.511 -21.394 -44.844  1.00  0.00     0.293 HD
ENDBRANCH   8  26
TORSDOF 6
ENDMDL
MODEL 8
REMARK VINA RESULT:    -6.281      4.293      5.842
REMARK INTER + INTRA:          -7.882
REMARK INTER:                  -8.294
REMARK INTRA:                   0.412
REMARK UNBOUND:                -0.316
REMARK SMILES O=c1c(O)c(-c2ccc(O)c(O)c2)oc2cc(O)cc(O)c12
REMARK SMILES IDX 5 1 3 2 2 3 1 4 22 5 20 6 19 7 17 8 16 9 15 10 14 11 6 12
REMARK SMILES IDX 7 13 8 14 9 15 13 16 11 17 10 18 12 20 4 22 21 24 18 26
REMARK H PARENT 10 19 12 21 4 23 21 25 18 27
REMARK Flexibility Score: inf
ROOT
ATOM      1  C   UNL     1     -19.853 -15.739 -43.424  1.00  0.00     0.180 A 
ATOM      2  C   UNL     1     -19.752 -15.355 -44.773  1.00  0.00     0.208 A 
ATOM      3  C   UNL     1     -19.948 -14.008 -45.115  1.00  0.00     0.238 A 
ATOM      4  O   UNL     1     -19.783 -13.658 -46.312  1.00  0.00    -0.285 OA
ATOM      5  C   UNL     1     -20.298 -13.070 -44.112  1.00  0.00     0.111 A 
ATOM      6  C   UNL     1     -20.564 -11.687 -44.351  1.00  0.00     0.134 A 
ATOM      7  C   UNL     1     -20.796 -10.831 -43.267  1.00  0.00     0.093 A 
ATOM      8  C   UNL     1     -20.836 -11.317 -41.961  1.00  0.00     0.123 A 
ATOM      9  C   UNL     1     -20.632 -12.676 -41.721  1.00  0.00     0.094 A 
ATOM     10  C   UNL     1     -20.359 -13.548 -42.778  1.00  0.00     0.146 A 
ATOM     11  O   UNL     1     -20.150 -14.830 -42.502  1.00  0.00    -0.452 OA
ENDROOT
BRANCH   1  12
ATOM     12  C   UNL     1     -19.646 -17.136 -42.985  1.00  0.00     0.025 A 
ATOM     13  C   UNL     1     -19.363 -17.401 -41.635  1.00  0.00     0.016 A 
ATOM     14  C   UNL     1     -19.143 -18.710 -41.201  1.00  0.00     0.051 A 
ATOM     15  C   UNL     1     -19.185 -19.773 -42.112  1.00  0.00     0.157 A 
ATOM     16  C   UNL     1     -19.667 -18.204 -43.900  1.00  0.00     0.062 A 
ATOM     17  C   UNL     1     -19.444 -19.517 -43.469  1.00  0.00     0.158 A 
BRANCH  15  18
ATOM     18  O   UNL     1     -18.967 -21.079 -41.676  1.00  0.00    -0.504 OA
ATOM     19  H   UNL     1     -19.315 -21.405 -40.782  1.00  0.00     0.293 HD
ENDBRANCH  15  18
BRANCH  17  20
ATOM     20  O   UNL     1     -19.479 -20.551 -44.404  1.00  0.00    -0.504 OA
ATOM     21  H   UNL     1     -18.694 -21.176 -44.545  1.00  0.00     0.293 HD
ENDBRANCH  17  20
ENDBRANCH   1  12
BRANCH   2  22
ATOM     22  O   UNL     1     -19.482 -16.309 -45.757  1.00  0.00    -0.502 OA
ATOM     23  H   UNL     1     -19.896 -16.271 -46.681  1.00  0.00     0.293 HD
ENDBRANCH   2  22
BRANCH   6  24
ATOM     24  O   UNL     1     -20.636 -11.111 -45.623  1.00  0.00    -0.507 OA
ATOM     25  H   UNL     1     -21.470 -10.720 -46.034  1.00  0.00     0.293 HD
ENDBRANCH   6  24
BRANCH   8  26
ATOM     26  O   UNL     1     -21.088 -10.439 -40.909  1.00  0.00    -0.508 OA
ATOM     27  H   UNL     1     -21.076 -10.751 -39.945  1.00  0.00     0.293 HD
ENDBRANCH   8  26
TORSDOF 6
ENDMDL
MODEL 9
REMARK VINA RESULT:    -6.280      3.490      6.519
REMARK INTER + INTRA:          -7.881
REMARK INTER:                  -7.565
REMARK INTRA:                  -0.316
REMARK UNBOUND:                -0.316
REMARK SMILES O=c1c(O)c(-c2ccc(O)c(O)c2)oc2cc(O)cc(O)c12
REMARK SMILES IDX 5 1 3 2 2 3 1 4 22 5 20 6 19 7 17 8 16 9 15 10 14 11 6 12
REMARK SMILES IDX 7 13 8 14 9 15 13 16 11 17 10 18 12 20 4 22 21 24 18 26
REMARK H PARENT 10 19 12 21 4 23 21 25 18 27
REMARK Flexibility Score: inf
ROOT
ATOM      1  C   UNL     1     -20.542 -14.403 -44.117  1.00  0.00     0.180 A 
ATOM      2  C   UNL     1     -20.104 -14.184 -42.799  1.00  0.00     0.208 A 
ATOM      3  C   UNL     1     -20.075 -12.873 -42.300  1.00  0.00     0.238 A 
ATOM      4  O   UNL     1     -19.754 -12.691 -41.097  1.00  0.00    -0.285 OA
ATOM      5  C   UNL     1     -20.431 -11.790 -43.142  1.00  0.00     0.111 A 
ATOM      6  C   UNL     1     -20.395 -10.415 -42.756  1.00  0.00     0.134 A 
ATOM      7  C   UNL     1     -20.871  -9.437 -43.638  1.00  0.00     0.093 A 
ATOM      8  C   UNL     1     -21.321  -9.776 -44.914  1.00  0.00     0.123 A 
ATOM      9  C   UNL     1     -21.308 -11.110 -45.322  1.00  0.00     0.094 A 
ATOM     10  C   UNL     1     -20.876 -12.113 -44.450  1.00  0.00     0.146 A 
ATOM     11  O   UNL     1     -20.900 -13.372 -44.872  1.00  0.00    -0.452 OA
ENDROOT
BRANCH   1  12
ATOM     12  C   UNL     1     -20.614 -15.758 -44.708  1.00  0.00     0.025 A 
ATOM     13  C   UNL     1     -21.815 -16.482 -44.631  1.00  0.00     0.016 A 
ATOM     14  C   UNL     1     -21.900 -17.771 -45.163  1.00  0.00     0.051 A 
ATOM     15  C   UNL     1     -20.783 -18.362 -45.766  1.00  0.00     0.157 A 
ATOM     16  C   UNL     1     -19.489 -16.363 -45.296  1.00  0.00     0.062 A 
ATOM     17  C   UNL     1     -19.570 -17.655 -45.828  1.00  0.00     0.158 A 
BRANCH  15  18
ATOM     18  O   UNL     1     -20.871 -19.647 -46.299  1.00  0.00    -0.504 OA
ATOM     19  H   UNL     1     -21.621 -20.278 -46.040  1.00  0.00     0.293 HD
ENDBRANCH  15  18
BRANCH  17  20
ATOM     20  O   UNL     1     -18.436 -18.220 -46.409  1.00  0.00    -0.504 OA
ATOM     21  H   UNL     1     -17.501 -17.899 -46.187  1.00  0.00     0.293 HD
ENDBRANCH  17  20
ENDBRANCH   1  12
BRANCH   2  22
ATOM     22  O   UNL     1     -19.685 -15.258 -42.009  1.00  0.00    -0.502 OA
ATOM     23  H   UNL     1     -19.082 -15.139 -41.204  1.00  0.00     0.293 HD
ENDBRANCH   2  22
BRANCH   6  24
ATOM     24  O   UNL     1     -19.884  -9.956 -41.538  1.00  0.00    -0.507 OA
ATOM     25  H   UNL     1     -18.904  -9.855 -41.325  1.00  0.00     0.293 HD
ENDBRANCH   6  24
BRANCH   8  26
ATOM     26  O   UNL     1     -21.770  -8.774 -45.772  1.00  0.00    -0.508 OA
ATOM     27  H   UNL     1     -21.492  -7.807 -45.648  1.00  0.00     0.293 HD
ENDBRANCH   8  26
TORSDOF 6
ENDMDL
