MODEL 1
REMARK VINA RESULT:    -2.522      0.000      0.000
REMARK INTER + INTRA:          -7.340
REMARK INTER:                  -5.471
REMARK INTRA:                  -1.869
REMARK UNBOUND:                -1.869
REMARK SMILES CCCCCCCCCCCCCCCCCCCCCC(=O)[O-]
REMARK SMILES IDX 12 1 11 2 10 3 9 4 8 5 7 6 6 7 5 8 4 9 3 10 2 11 1 12 13 13
REMARK SMILES IDX 14 14 15 15 16 16 17 17 18 18 19 19 20 20 21 21 22 22 23 23
REMARK SMILES IDX 24 24
REMARK H PARENT
REMARK Flexibility Score: inf
ROOT
ATOM      1  C   UNL     1      31.120  13.356  19.101  1.00  0.00     0.000 C 
ENDROOT
BRANCH   1   2
ATOM      2  C   UNL     1      31.296  12.651  20.461  1.00  0.00     0.000 C 
BRANCH   2   3
ATOM      3  C   UNL     1      30.968  13.545  21.675  1.00  0.00     0.000 C 
BRANCH   3   4
ATOM      4  C   UNL     1      32.140  13.648  22.666  1.00  0.00    -0.000 C 
BRANCH   4   5
ATOM      5  C   UNL     1      33.245  14.605  22.169  1.00  0.00    -0.000 C 
BRANCH   5   6
ATOM      6  C   UNL     1      33.084  16.051  22.677  1.00  0.00    -0.000 C 
BRANCH   6   7
ATOM      7  C   UNL     1      32.102  16.913  21.863  1.00  0.00    -0.000 C 
BRANCH   7   8
ATOM      8  C   UNL     1      32.499  17.125  20.390  1.00  0.00    -0.000 C 
BRANCH   8   9
ATOM      9  C   UNL     1      31.432  16.635  19.387  1.00  0.00    -0.000 C 
BRANCH   9  10
ATOM     10  C   UNL     1      31.925  16.711  17.932  1.00  0.00    -0.000 C 
BRANCH  10  11
ATOM     11  C   UNL     1      30.784  16.539  16.917  1.00  0.00    -0.003 C 
ATOM     12  C   UNL     1      31.222  15.776  15.668  1.00  0.00     0.004 C 
ENDBRANCH  10  11
ENDBRANCH   9  10
ENDBRANCH   8   9
ENDBRANCH   7   8
ENDBRANCH   6   7
ENDBRANCH   5   6
ENDBRANCH   4   5
ENDBRANCH   3   4
ENDBRANCH   2   3
ENDBRANCH   1   2
BRANCH   1  13
ATOM     13  C   UNL     1      29.670  13.429  18.586  1.00  0.00     0.000 C 
BRANCH  13  14
ATOM     14  C   UNL     1      28.613  13.745  19.662  1.00  0.00     0.000 C 
BRANCH  14  15
ATOM     15  C   UNL     1      27.859  15.074  19.464  1.00  0.00     0.000 C 
BRANCH  15  16
ATOM     16  C   UNL     1      28.057  16.081  20.618  1.00  0.00     0.000 C 
BRANCH  16  17
ATOM     17  C   UNL     1      27.701  15.483  21.988  1.00  0.00     0.000 C 
BRANCH  17  18
ATOM     18  C   UNL     1      26.958  14.148  21.828  1.00  0.00     0.000 C 
BRANCH  18  19
ATOM     19  C   UNL     1      26.930  13.324  23.125  1.00  0.00     0.000 C 
BRANCH  19  20
ATOM     20  C   UNL     1      26.928  11.809  22.866  1.00  0.00     0.006 C 
BRANCH  20  21
ATOM     21  C   UNL     1      27.872  11.412  21.723  1.00  0.00     0.053 C 
BRANCH  21  22
ATOM     22  C   UNL     1      28.518  10.080  21.961  1.00  0.00     0.041 C 
ATOM     23  O   UNL     1      27.838   9.022  21.888  1.00  0.00    -0.550 OA
ATOM     24  O   UNL     1      29.874  10.008  22.254  1.00  0.00    -0.550 OA
ENDBRANCH  21  22
ENDBRANCH  20  21
ENDBRANCH  19  20
ENDBRANCH  18  19
ENDBRANCH  17  18
ENDBRANCH  16  17
ENDBRANCH  15  16
ENDBRANCH  14  15
ENDBRANCH  13  14
ENDBRANCH   1  13
TORSDOF 20
ENDMDL
MODEL 2
REMARK VINA RESULT:    -2.185      2.742      5.427
REMARK INTER + INTRA:          -6.609
REMARK INTER:                  -5.034
REMARK INTRA:                  -1.575
REMARK UNBOUND:                -1.869
REMARK SMILES CCCCCCCCCCCCCCCCCCCCCC(=O)[O-]
REMARK SMILES IDX 12 1 11 2 10 3 9 4 8 5 7 6 6 7 5 8 4 9 3 10 2 11 1 12 13 13
REMARK SMILES IDX 14 14 15 15 16 16 17 17 18 18 19 19 20 20 21 21 22 22 23 23
REMARK SMILES IDX 24 24
REMARK H PARENT
REMARK Flexibility Score: inf
ROOT
ATOM      1  C   UNL     1      28.666  13.000  19.579  1.00  0.00     0.000 C 
ENDROOT
BRANCH   1   2
ATOM      2  C   UNL     1      29.307  14.399  19.488  1.00  0.00     0.000 C 
BRANCH   2   3
ATOM      3  C   UNL     1      28.469  15.514  20.148  1.00  0.00     0.000 C 
BRANCH   3   4
ATOM      4  C   UNL     1      28.206  16.696  19.199  1.00  0.00    -0.000 C 
BRANCH   4   5
ATOM      5  C   UNL     1      26.880  16.541  18.425  1.00  0.00    -0.000 C 
BRANCH   5   6
ATOM      6  C   UNL     1      27.028  16.726  16.903  1.00  0.00    -0.000 C 
BRANCH   6   7
ATOM      7  C   UNL     1      28.443  17.113  16.436  1.00  0.00    -0.000 C 
BRANCH   7   8
ATOM      8  C   UNL     1      29.211  15.993  15.710  1.00  0.00    -0.000 C 
BRANCH   8   9
ATOM      9  C   UNL     1      30.721  16.277  15.560  1.00  0.00    -0.000 C 
BRANCH   9  10
ATOM     10  C   UNL     1      31.483  15.073  14.979  1.00  0.00    -0.000 C 
BRANCH  10  11
ATOM     11  C   UNL     1      31.234  14.892  13.474  1.00  0.00    -0.003 C 
ATOM     12  C   UNL     1      31.266  16.217  12.713  1.00  0.00     0.004 C 
ENDBRANCH  10  11
ENDBRANCH   9  10
ENDBRANCH   8   9
ENDBRANCH   7   8
ENDBRANCH   6   7
ENDBRANCH   5   6
ENDBRANCH   4   5
ENDBRANCH   3   4
ENDBRANCH   2   3
ENDBRANCH   1   2
BRANCH   1  13
ATOM     13  C   UNL     1      27.558  12.858  20.640  1.00  0.00     0.000 C 
BRANCH  13  14
ATOM     14  C   UNL     1      27.746  11.687  21.625  1.00  0.00     0.000 C 
BRANCH  14  15
ATOM     15  C   UNL     1      28.858  10.690  21.246  1.00  0.00     0.000 C 
BRANCH  15  16
ATOM     16  C   UNL     1      29.607  10.100  22.461  1.00  0.00     0.000 C 
BRANCH  16  17
ATOM     17  C   UNL     1      30.616  11.087  23.066  1.00  0.00     0.000 C 
BRANCH  17  18
ATOM     18  C   UNL     1      30.030  12.506  23.125  1.00  0.00     0.000 C 
BRANCH  18  19
ATOM     19  C   UNL     1      30.932  13.550  22.450  1.00  0.00     0.000 C 
BRANCH  19  20
ATOM     20  C   UNL     1      30.501  14.994  22.756  1.00  0.00     0.006 C 
BRANCH  20  21
ATOM     21  C   UNL     1      31.699  15.918  23.013  1.00  0.00     0.053 C 
BRANCH  21  22
ATOM     22  C   UNL     1      32.351  16.364  21.739  1.00  0.00     0.041 C 
ATOM     23  O   UNL     1      31.649  16.657  20.734  1.00  0.00    -0.550 OA
ATOM     24  O   UNL     1      33.734  16.465  21.664  1.00  0.00    -0.550 OA
ENDBRANCH  21  22
ENDBRANCH  20  21
ENDBRANCH  19  20
ENDBRANCH  18  19
ENDBRANCH  17  18
ENDBRANCH  16  17
ENDBRANCH  15  16
ENDBRANCH  14  15
ENDBRANCH  13  14
ENDBRANCH   1  13
TORSDOF 20
ENDMDL
MODEL 3
REMARK VINA RESULT:    -2.090      2.205      5.904
REMARK INTER + INTRA:          -6.402
REMARK INTER:                  -4.932
REMARK INTRA:                  -1.469
REMARK UNBOUND:                -1.869
REMARK SMILES CCCCCCCCCCCCCCCCCCCCCC(=O)[O-]
REMARK SMILES IDX 12 1 11 2 10 3 9 4 8 5 7 6 6 7 5 8 4 9 3 10 2 11 1 12 13 13
REMARK SMILES IDX 14 14 15 15 16 16 17 17 18 18 19 19 20 20 21 21 22 22 23 23
REMARK SMILES IDX 24 24
REMARK H PARENT
REMARK Flexibility Score: inf
ROOT
ATOM      1  C   UNL     1      32.203  17.124  16.638  1.00  0.00     0.000 C 
ENDROOT
BRANCH   1   2
ATOM      2  C   UNL     1      32.668  17.118  18.108  1.00  0.00     0.000 C 
BRANCH   2   3
ATOM      3  C   UNL     1      31.510  17.081  19.128  1.00  0.00     0.000 C 
BRANCH   3   4
ATOM      4  C   UNL     1      31.963  16.598  20.517  1.00  0.00    -0.000 C 
BRANCH   4   5
ATOM      5  C   UNL     1      32.190  15.071  20.560  1.00  0.00    -0.000 C 
BRANCH   5   6
ATOM      6  C   UNL     1      32.500  14.533  21.970  1.00  0.00    -0.000 C 
BRANCH   6   7
ATOM      7  C   UNL     1      31.369  13.702  22.604  1.00  0.00    -0.000 C 
BRANCH   7   8
ATOM      8  C   UNL     1      31.713  12.219  22.838  1.00  0.00    -0.000 C 
BRANCH   8   9
ATOM      9  C   UNL     1      30.487  11.283  22.766  1.00  0.00    -0.000 C 
BRANCH   9  10
ATOM     10  C   UNL     1      29.652  11.515  21.495  1.00  0.00    -0.000 C 
BRANCH  10  11
ATOM     11  C   UNL     1      28.168  11.171  21.698  1.00  0.00    -0.003 C 
ATOM     12  C   UNL     1      27.953   9.705  22.071  1.00  0.00     0.004 C 
ENDBRANCH  10  11
ENDBRANCH   9  10
ENDBRANCH   8   9
ENDBRANCH   7   8
ENDBRANCH   6   7
ENDBRANCH   5   6
ENDBRANCH   4   5
ENDBRANCH   3   4
ENDBRANCH   2   3
ENDBRANCH   1   2
BRANCH   1  13
ATOM     13  C   UNL     1      30.676  17.082  16.436  1.00  0.00     0.000 C 
BRANCH  13  14
ATOM     14  C   UNL     1      30.214  17.077  14.966  1.00  0.00     0.000 C 
BRANCH  14  15
ATOM     15  C   UNL     1      31.203  16.436  13.974  1.00  0.00     0.000 C 
BRANCH  15  16
ATOM     16  C   UNL     1      31.060  14.904  13.854  1.00  0.00     0.000 C 
BRANCH  16  17
ATOM     17  C   UNL     1      31.470  14.171  15.140  1.00  0.00     0.000 C 
BRANCH  17  18
ATOM     18  C   UNL     1      30.323  14.172  16.162  1.00  0.00     0.000 C 
BRANCH  18  19
ATOM     19  C   UNL     1      30.725  13.548  17.507  1.00  0.00     0.000 C 
BRANCH  19  20
ATOM     20  C   UNL     1      29.594  13.598  18.547  1.00  0.00     0.006 C 
BRANCH  20  21
ATOM     21  C   UNL     1      28.829  14.928  18.512  1.00  0.00     0.053 C 
BRANCH  21  22
ATOM     22  C   UNL     1      28.116  15.202  19.802  1.00  0.00     0.041 C 
ATOM     23  O   UNL     1      28.178  16.342  20.333  1.00  0.00    -0.550 OA
ATOM     24  O   UNL     1      27.374  14.198  20.413  1.00  0.00    -0.550 OA
ENDBRANCH  21  22
ENDBRANCH  20  21
ENDBRANCH  19  20
ENDBRANCH  18  19
ENDBRANCH  17  18
ENDBRANCH  16  17
ENDBRANCH  15  16
ENDBRANCH  14  15
ENDBRANCH  13  14
ENDBRANCH   1  13
TORSDOF 20
ENDMDL
MODEL 4
REMARK VINA RESULT:    -1.957      2.165      5.291
REMARK INTER + INTRA:          -6.113
REMARK INTER:                  -4.992
REMARK INTRA:                  -1.121
REMARK UNBOUND:                -1.869
REMARK SMILES CCCCCCCCCCCCCCCCCCCCCC(=O)[O-]
REMARK SMILES IDX 12 1 11 2 10 3 9 4 8 5 7 6 6 7 5 8 4 9 3 10 2 11 1 12 13 13
REMARK SMILES IDX 14 14 15 15 16 16 17 17 18 18 19 19 20 20 21 21 22 22 23 23
REMARK SMILES IDX 24 24
REMARK H PARENT
REMARK Flexibility Score: inf
ROOT
ATOM      1  C   UNL     1      32.413  17.089  16.890  1.00  0.00     0.000 C 
ENDROOT
BRANCH   1   2
ATOM      2  C   UNL     1      32.426  17.122  18.431  1.00  0.00     0.000 C 
BRANCH   2   3
ATOM      3  C   UNL     1      31.431  16.139  19.084  1.00  0.00     0.000 C 
BRANCH   3   4
ATOM      4  C   UNL     1      31.761  15.858  20.561  1.00  0.00    -0.000 C 
BRANCH   4   5
ATOM      5  C   UNL     1      32.721  14.660  20.727  1.00  0.00    -0.000 C 
BRANCH   5   6
ATOM      6  C   UNL     1      32.671  14.019  22.127  1.00  0.00    -0.000 C 
BRANCH   6   7
ATOM      7  C   UNL     1      31.308  13.411  22.508  1.00  0.00    -0.000 C 
BRANCH   7   8
ATOM      8  C   UNL     1      30.942  12.123  21.746  1.00  0.00    -0.000 C 
BRANCH   8   9
ATOM      9  C   UNL     1      30.197  11.084  22.612  1.00  0.00    -0.000 C 
BRANCH   9  10
ATOM     10  C   UNL     1      29.031  10.427  21.855  1.00  0.00    -0.000 C 
BRANCH  10  11
ATOM     11  C   UNL     1      27.890  11.415  21.564  1.00  0.00    -0.003 C 
ATOM     12  C   UNL     1      27.953  11.980  20.146  1.00  0.00     0.004 C 
ENDBRANCH  10  11
ENDBRANCH   9  10
ENDBRANCH   8   9
ENDBRANCH   7   8
ENDBRANCH   6   7
ENDBRANCH   5   6
ENDBRANCH   4   5
ENDBRANCH   3   4
ENDBRANCH   2   3
ENDBRANCH   1   2
BRANCH   1  13
ATOM     13  C   UNL     1      31.013  17.125  16.248  1.00  0.00     0.000 C 
BRANCH  13  14
ATOM     14  C   UNL     1      30.582  15.818  15.554  1.00  0.00     0.000 C 
BRANCH  14  15
ATOM     15  C   UNL     1      30.772  14.540  16.395  1.00  0.00     0.000 C 
BRANCH  15  16
ATOM     16  C   UNL     1      29.464  14.002  17.014  1.00  0.00     0.000 C 
BRANCH  16  17
ATOM     17  C   UNL     1      28.846  14.978  18.026  1.00  0.00     0.000 C 
BRANCH  17  18
ATOM     18  C   UNL     1      27.985  16.033  17.315  1.00  0.00     0.000 C 
BRANCH  18  19
ATOM     19  C   UNL     1      27.016  16.749  18.268  1.00  0.00     0.000 C 
BRANCH  19  20
ATOM     20  C   UNL     1      27.662  17.100  19.619  1.00  0.00     0.006 C 
BRANCH  20  21
ATOM     21  C   UNL     1      27.031  16.326  20.785  1.00  0.00     0.053 C 
BRANCH  21  22
ATOM     22  C   UNL     1      28.050  15.914  21.804  1.00  0.00     0.041 C 
ATOM     23  O   UNL     1      29.017  16.673  22.080  1.00  0.00    -0.550 OA
ATOM     24  O   UNL     1      27.926  14.694  22.457  1.00  0.00    -0.550 OA
ENDBRANCH  21  22
ENDBRANCH  20  21
ENDBRANCH  19  20
ENDBRANCH  18  19
ENDBRANCH  17  18
ENDBRANCH  16  17
ENDBRANCH  15  16
ENDBRANCH  14  15
ENDBRANCH  13  14
ENDBRANCH   1  13
TORSDOF 20
ENDMDL
MODEL 5
REMARK VINA RESULT:    -1.369      1.389      2.477
REMARK INTER + INTRA:          -4.839
REMARK INTER:                  -4.001
REMARK INTRA:                  -0.837
REMARK UNBOUND:                -1.869
REMARK SMILES CCCCCCCCCCCCCCCCCCCCCC(=O)[O-]
REMARK SMILES IDX 12 1 11 2 10 3 9 4 8 5 7 6 6 7 5 8 4 9 3 10 2 11 1 12 13 13
REMARK SMILES IDX 14 14 15 15 16 16 17 17 18 18 19 19 20 20 21 21 22 22 23 23
REMARK SMILES IDX 24 24
REMARK H PARENT
REMARK Flexibility Score: inf
ROOT
ATOM      1  C   UNL     1      30.952  13.738  18.735  1.00  0.00     0.000 C 
ENDROOT
BRANCH   1   2
ATOM      2  C   UNL     1      31.143  13.428  20.233  1.00  0.00     0.000 C 
BRANCH   2   3
ATOM      3  C   UNL     1      30.987  14.660  21.150  1.00  0.00     0.000 C 
BRANCH   3   4
ATOM      4  C   UNL     1      32.185  15.622  21.054  1.00  0.00    -0.000 C 
BRANCH   4   5
ATOM      5  C   UNL     1      32.585  15.913  19.592  1.00  0.00    -0.000 C 
BRANCH   5   6
ATOM      6  C   UNL     1      31.853  17.123  18.981  1.00  0.00    -0.000 C 
BRANCH   6   7
ATOM      7  C   UNL     1      30.640  16.766  18.103  1.00  0.00    -0.000 C 
BRANCH   7   8
ATOM      8  C   UNL     1      30.818  17.073  16.604  1.00  0.00    -0.000 C 
BRANCH   8   9
ATOM      9  C   UNL     1      30.393  15.910  15.681  1.00  0.00    -0.000 C 
BRANCH   9  10
ATOM     10  C   UNL     1      31.395  15.682  14.537  1.00  0.00    -0.000 C 
BRANCH  10  11
ATOM     11  C   UNL     1      30.872  16.203  13.189  1.00  0.00    -0.003 C 
ATOM     12  C   UNL     1      31.623  15.606  12.000  1.00  0.00     0.004 C 
ENDBRANCH  10  11
ENDBRANCH   9  10
ENDBRANCH   8   9
ENDBRANCH   7   8
ENDBRANCH   6   7
ENDBRANCH   5   6
ENDBRANCH   4   5
ENDBRANCH   3   4
ENDBRANCH   2   3
ENDBRANCH   1   2
BRANCH   1  13
ATOM     13  C   UNL     1      29.489  13.738  18.249  1.00  0.00     0.000 C 
BRANCH  13  14
ATOM     14  C   UNL     1      28.439  13.991  19.348  1.00  0.00     0.000 C 
BRANCH  14  15
ATOM     15  C   UNL     1      27.429  15.113  19.038  1.00  0.00     0.000 C 
BRANCH  15  16
ATOM     16  C   UNL     1      27.685  16.417  19.823  1.00  0.00     0.000 C 
BRANCH  16  17
ATOM     17  C   UNL     1      28.230  16.157  21.235  1.00  0.00     0.000 C 
BRANCH  17  18
ATOM     18  C   UNL     1      27.177  15.460  22.111  1.00  0.00     0.000 C 
BRANCH  18  19
ATOM     19  C   UNL     1      27.795  14.467  23.106  1.00  0.00     0.000 C 
BRANCH  19  20
ATOM     20  C   UNL     1      27.234  13.044  22.951  1.00  0.00     0.006 C 
BRANCH  20  21
ATOM     21  C   UNL     1      28.324  12.024  22.595  1.00  0.00     0.053 C 
BRANCH  21  22
ATOM     22  C   UNL     1      27.842  11.005  21.606  1.00  0.00     0.041 C 
ATOM     23  O   UNL     1      27.890   9.777  21.884  1.00  0.00    -0.550 OA
ATOM     24  O   UNL     1      27.329  11.414  20.381  1.00  0.00    -0.550 OA
ENDBRANCH  21  22
ENDBRANCH  20  21
ENDBRANCH  19  20
ENDBRANCH  18  19
ENDBRANCH  17  18
ENDBRANCH  16  17
ENDBRANCH  15  16
ENDBRANCH  14  15
ENDBRANCH  13  14
ENDBRANCH   1  13
TORSDOF 20
ENDMDL
MODEL 6
REMARK VINA RESULT:    -0.019      1.920      3.928
REMARK INTER + INTRA:          -1.910
REMARK INTER:                  -3.077
REMARK INTRA:                   1.168
REMARK UNBOUND:                -1.869
REMARK SMILES CCCCCCCCCCCCCCCCCCCCCC(=O)[O-]
REMARK SMILES IDX 12 1 11 2 10 3 9 4 8 5 7 6 6 7 5 8 4 9 3 10 2 11 1 12 13 13
REMARK SMILES IDX 14 14 15 15 16 16 17 17 18 18 19 19 20 20 21 21 22 22 23 23
REMARK SMILES IDX 24 24
REMARK H PARENT
REMARK Flexibility Score: inf
ROOT
ATOM      1  C   UNL     1      31.143  14.035  18.223  1.00  0.00     0.000 C 
ENDROOT
BRANCH   1   2
ATOM      2  C   UNL     1      31.884  14.716  19.391  1.00  0.00     0.000 C 
BRANCH   2   3
ATOM      3  C   UNL     1      31.184  15.987  19.917  1.00  0.00     0.000 C 
BRANCH   3   4
ATOM      4  C   UNL     1      31.133  17.111  18.867  1.00  0.00    -0.000 C 
BRANCH   4   5
ATOM      5  C   UNL     1      31.921  16.752  17.588  1.00  0.00    -0.000 C 
BRANCH   5   6
ATOM      6  C   UNL     1      31.187  17.124  16.286  1.00  0.00    -0.000 C 
BRANCH   6   7
ATOM      7  C   UNL     1      29.699  16.730  16.251  1.00  0.00    -0.000 C 
BRANCH   7   8
ATOM      8  C   UNL     1      29.148  16.419  14.846  1.00  0.00    -0.000 C 
BRANCH   8   9
ATOM      9  C   UNL     1      30.229  15.945  13.850  1.00  0.00    -0.000 C 
BRANCH   9  10
ATOM     10  C   UNL     1      30.633  17.052  12.862  1.00  0.00    -0.000 C 
BRANCH  10  11
ATOM     11  C   UNL     1      31.933  16.722  12.112  1.00  0.00    -0.003 C 
ATOM     12  C   UNL     1      31.987  15.266  11.649  1.00  0.00     0.004 C 
ENDBRANCH  10  11
ENDBRANCH   9  10
ENDBRANCH   8   9
ENDBRANCH   7   8
ENDBRANCH   6   7
ENDBRANCH   5   6
ENDBRANCH   4   5
ENDBRANCH   3   4
ENDBRANCH   2   3
ENDBRANCH   1   2
BRANCH   1  13
ATOM     13  C   UNL     1      29.681  13.644  18.516  1.00  0.00     0.000 C 
BRANCH  13  14
ATOM     14  C   UNL     1      29.253  13.789  19.989  1.00  0.00     0.000 C 
BRANCH  14  15
ATOM     15  C   UNL     1      27.866  14.424  20.205  1.00  0.00     0.000 C 
BRANCH  15  16
ATOM     16  C   UNL     1      27.377  14.372  21.668  1.00  0.00     0.000 C 
BRANCH  16  17
ATOM     17  C   UNL     1      27.860  13.114  22.406  1.00  0.00     0.000 C 
BRANCH  17  18
ATOM     18  C   UNL     1      27.071  11.876  21.955  1.00  0.00     0.000 C 
BRANCH  18  19
ATOM     19  C   UNL     1      27.956  10.628  21.808  1.00  0.00     0.000 C 
BRANCH  19  20
ATOM     20  C   UNL     1      28.959  10.473  22.963  1.00  0.00     0.006 C 
BRANCH  20  21
ATOM     21  C   UNL     1      29.860  11.705  23.122  1.00  0.00     0.053 C 
BRANCH  21  22
ATOM     22  C   UNL     1      30.853  11.825  22.006  1.00  0.00     0.041 C 
ATOM     23  O   UNL     1      30.723  11.132  20.961  1.00  0.00    -0.550 OA
ATOM     24  O   UNL     1      31.918  12.711  22.115  1.00  0.00    -0.550 OA
ENDBRANCH  21  22
ENDBRANCH  20  21
ENDBRANCH  19  20
ENDBRANCH  18  19
ENDBRANCH  17  18
ENDBRANCH  16  17
ENDBRANCH  15  16
ENDBRANCH  14  15
ENDBRANCH  13  14
ENDBRANCH   1  13
TORSDOF 20
ENDMDL
