MODEL 1
REMARK VINA RESULT:    -4.160      0.000      0.000
REMARK INTER + INTRA:         -10.563
REMARK INTER:                  -7.807
REMARK INTRA:                  -2.755
REMARK UNBOUND:                -2.755
REMARK SMILES CCCCCCCCC=CCCCCCCCC(=O)[O-]
REMARK SMILES IDX 10 1 9 2 11 3 12 4 13 5 14 6 15 7 16 8 17 9 18 10 19 11
REMARK SMILES IDX 20 12 8 13 7 14 6 15 5 16 4 17 3 18 2 19 1 20
REMARK H PARENT
REMARK Flexibility Score: inf
ROOT
ATOM      1  C   UNL     1       3.570  18.374   2.215  1.00  0.00    -0.031 C 
ATOM      2  C   UNL     1       3.859  17.858   1.011  1.00  0.00    -0.031 C 
ENDROOT
BRANCH   1   3
ATOM      3  C   UNL     1       4.271  19.598   2.739  1.00  0.00     0.027 C 
BRANCH   3   4
ATOM      4  C   UNL     1       5.248  19.247   3.868  1.00  0.00     0.004 C 
BRANCH   4   5
ATOM      5  C   UNL     1       4.522  18.816   5.150  1.00  0.00     0.000 C 
BRANCH   5   6
ATOM      6  C   UNL     1       5.124  17.524   5.716  1.00  0.00     0.000 C 
BRANCH   6   7
ATOM      7  C   UNL     1       6.507  17.249   5.106  1.00  0.00     0.000 C 
BRANCH   7   8
ATOM      8  C   UNL     1       7.094  15.896   5.544  1.00  0.00     0.006 C 
BRANCH   8   9
ATOM      9  C   UNL     1       8.227  16.002   6.577  1.00  0.00     0.053 C 
BRANCH   9  10
ATOM     10  C   UNL     1       7.707  16.040   7.981  1.00  0.00     0.041 C 
ATOM     11  O   UNL     1       7.192  15.013   8.495  1.00  0.00    -0.550 OA
ATOM     12  O   UNL     1       7.824  17.202   8.734  1.00  0.00    -0.550 OA
ENDBRANCH   9  10
ENDBRANCH   8   9
ENDBRANCH   7   8
ENDBRANCH   6   7
ENDBRANCH   5   6
ENDBRANCH   4   5
ENDBRANCH   3   4
ENDBRANCH   1   3
BRANCH   2  13
ATOM     13  C   UNL     1       3.168  16.627   0.490  1.00  0.00     0.027 C 
BRANCH  13  14
ATOM     14  C   UNL     1       4.164  15.487   0.230  1.00  0.00     0.004 C 
BRANCH  14  15
ATOM     15  C   UNL     1       5.567  15.726   0.824  1.00  0.00     0.000 C 
BRANCH  15  16
ATOM     16  C   UNL     1       5.811  15.087   2.207  1.00  0.00     0.000 C 
BRANCH  16  17
ATOM     17  C   UNL     1       4.759  14.053   2.646  1.00  0.00    -0.000 C 
BRANCH  17  18
ATOM     18  C   UNL     1       4.025  14.457   3.934  1.00  0.00    -0.000 C 
BRANCH  18  19
ATOM     19  C   UNL     1       2.538  14.767   3.694  1.00  0.00    -0.003 C 
ATOM     20  C   UNL     1       2.075  16.036   4.408  1.00  0.00     0.004 C 
ENDBRANCH  18  19
ENDBRANCH  17  18
ENDBRANCH  16  17
ENDBRANCH  15  16
ENDBRANCH  14  15
ENDBRANCH  13  14
ENDBRANCH   2  13
TORSDOF 15
ENDMDL
MODEL 2
REMARK VINA RESULT:    -4.148      2.458      4.291
REMARK INTER + INTRA:         -10.540
REMARK INTER:                  -7.362
REMARK INTRA:                  -3.178
REMARK UNBOUND:                -2.755
REMARK SMILES CCCCCCCCC=CCCCCCCCC(=O)[O-]
REMARK SMILES IDX 10 1 9 2 11 3 12 4 13 5 14 6 15 7 16 8 17 9 18 10 19 11
REMARK SMILES IDX 20 12 8 13 7 14 6 15 5 16 4 17 3 18 2 19 1 20
REMARK H PARENT
REMARK Flexibility Score: inf
ROOT
ATOM      1  C   UNL     1       3.967  16.695   0.416  1.00  0.00    -0.031 C 
ATOM      2  C   UNL     1       3.947  17.691   1.315  1.00  0.00    -0.031 C 
ENDROOT
BRANCH   1   3
ATOM      3  C   UNL     1       4.851  15.490   0.592  1.00  0.00     0.027 C 
BRANCH   3   4
ATOM      4  C   UNL     1       4.153  14.395   1.408  1.00  0.00     0.004 C 
BRANCH   4   5
ATOM      5  C   UNL     1       4.730  14.272   2.826  1.00  0.00     0.000 C 
BRANCH   5   6
ATOM      6  C   UNL     1       6.109  14.936   2.920  1.00  0.00     0.000 C 
BRANCH   6   7
ATOM      7  C   UNL     1       6.354  15.500   4.327  1.00  0.00     0.000 C 
BRANCH   7   8
ATOM      8  C   UNL     1       5.312  16.557   4.736  1.00  0.00     0.006 C 
BRANCH   8   9
ATOM      9  C   UNL     1       5.708  18.002   4.392  1.00  0.00     0.053 C 
BRANCH   9  10
ATOM     10  C   UNL     1       4.698  18.993   4.883  1.00  0.00     0.041 C 
ATOM     11  O   UNL     1       4.091  18.796   5.968  1.00  0.00    -0.550 OA
ATOM     12  O   UNL     1       4.453  20.153   4.158  1.00  0.00    -0.550 OA
ENDBRANCH   9  10
ENDBRANCH   8   9
ENDBRANCH   7   8
ENDBRANCH   6   7
ENDBRANCH   5   6
ENDBRANCH   4   5
ENDBRANCH   3   4
ENDBRANCH   1   3
BRANCH   2  13
ATOM     13  C   UNL     1       3.073  18.902   1.136  1.00  0.00     0.027 C 
BRANCH  13  14
ATOM     14  C   UNL     1       2.197  18.787  -0.121  1.00  0.00     0.004 C 
BRANCH  14  15
ATOM     15  C   UNL     1       0.703  18.537   0.171  1.00  0.00     0.000 C 
BRANCH  15  16
ATOM     16  C   UNL     1       0.172  17.156  -0.265  1.00  0.00     0.000 C 
BRANCH  16  17
ATOM     17  C   UNL     1       0.449  16.006   0.721  1.00  0.00    -0.000 C 
BRANCH  17  18
ATOM     18  C   UNL     1       0.218  16.407   2.187  1.00  0.00    -0.000 C 
BRANCH  18  19
ATOM     19  C   UNL     1       1.287  15.831   3.131  1.00  0.00    -0.003 C 
ATOM     20  C   UNL     1       1.690  16.808   4.235  1.00  0.00     0.004 C 
ENDBRANCH  18  19
ENDBRANCH  17  18
ENDBRANCH  16  17
ENDBRANCH  15  16
ENDBRANCH  14  15
ENDBRANCH  13  14
ENDBRANCH   2  13
TORSDOF 15
ENDMDL
MODEL 3
REMARK VINA RESULT:    -4.139      2.178      5.111
REMARK INTER + INTRA:         -10.524
REMARK INTER:                  -7.909
REMARK INTRA:                  -2.615
REMARK UNBOUND:                -2.755
REMARK SMILES CCCCCCCCC=CCCCCCCCC(=O)[O-]
REMARK SMILES IDX 10 1 9 2 11 3 12 4 13 5 14 6 15 7 16 8 17 9 18 10 19 11
REMARK SMILES IDX 20 12 8 13 7 14 6 15 5 16 4 17 3 18 2 19 1 20
REMARK H PARENT
REMARK Flexibility Score: inf
ROOT
ATOM      1  C   UNL     1       4.084  17.569   0.879  1.00  0.00    -0.031 C 
ATOM      2  C   UNL     1       3.529  18.328   1.836  1.00  0.00    -0.031 C 
ENDROOT
BRANCH   1   3
ATOM      3  C   UNL     1       3.462  16.270   0.443  1.00  0.00     0.027 C 
BRANCH   3   4
ATOM      4  C   UNL     1       4.462  15.110   0.534  1.00  0.00     0.004 C 
BRANCH   4   5
ATOM      5  C   UNL     1       5.766  15.521   1.234  1.00  0.00     0.000 C 
BRANCH   5   6
ATOM      6  C   UNL     1       5.929  14.785   2.569  1.00  0.00     0.000 C 
BRANCH   6   7
ATOM      7  C   UNL     1       4.665  13.982   2.912  1.00  0.00     0.000 C 
BRANCH   7   8
ATOM      8  C   UNL     1       3.890  14.569   4.105  1.00  0.00     0.006 C 
BRANCH   8   9
ATOM      9  C   UNL     1       2.473  15.056   3.761  1.00  0.00     0.053 C 
BRANCH   9  10
ATOM     10  C   UNL     1       1.827  15.763   4.912  1.00  0.00     0.041 C 
ATOM     11  O   UNL     1       1.276  16.882   4.741  1.00  0.00    -0.550 OA
ATOM     12  O   UNL     1       1.802  15.169   6.168  1.00  0.00    -0.550 OA
ENDBRANCH   9  10
ENDBRANCH   8   9
ENDBRANCH   7   8
ENDBRANCH   6   7
ENDBRANCH   5   6
ENDBRANCH   4   5
ENDBRANCH   3   4
ENDBRANCH   1   3
BRANCH   2  13
ATOM     13  C   UNL     1       4.154  19.622   2.283  1.00  0.00     0.027 C 
BRANCH  13  14
ATOM     14  C   UNL     1       4.947  19.446   3.587  1.00  0.00     0.004 C 
BRANCH  14  15
ATOM     15  C   UNL     1       4.132  18.836   4.745  1.00  0.00     0.000 C 
BRANCH  15  16
ATOM     16  C   UNL     1       4.928  17.917   5.694  1.00  0.00     0.000 C 
BRANCH  16  17
ATOM     17  C   UNL     1       6.180  17.267   5.079  1.00  0.00    -0.000 C 
BRANCH  17  18
ATOM     18  C   UNL     1       6.780  16.166   5.970  1.00  0.00    -0.000 C 
BRANCH  18  19
ATOM     19  C   UNL     1       8.313  16.102   5.875  1.00  0.00    -0.003 C 
ATOM     20  C   UNL     1       8.805  14.933   5.022  1.00  0.00     0.004 C 
ENDBRANCH  18  19
ENDBRANCH  17  18
ENDBRANCH  16  17
ENDBRANCH  15  16
ENDBRANCH  14  15
ENDBRANCH  13  14
ENDBRANCH   2  13
TORSDOF 15
ENDMDL
MODEL 4
REMARK VINA RESULT:    -4.116      9.570     11.516
REMARK INTER + INTRA:         -10.480
REMARK INTER:                  -8.514
REMARK INTRA:                  -1.966
REMARK UNBOUND:                -2.755
REMARK SMILES CCCCCCCCC=CCCCCCCCC(=O)[O-]
REMARK SMILES IDX 10 1 9 2 11 3 12 4 13 5 14 6 15 7 16 8 17 9 18 10 19 11
REMARK SMILES IDX 20 12 8 13 7 14 6 15 5 16 4 17 3 18 2 19 1 20
REMARK H PARENT
REMARK Flexibility Score: inf
ROOT
ATOM      1  C   UNL     1      10.131  13.015  -4.126  1.00  0.00    -0.031 C 
ATOM      2  C   UNL     1      10.326  13.037  -2.798  1.00  0.00    -0.031 C 
ENDROOT
BRANCH   1   3
ATOM      3  C   UNL     1      10.169  14.274  -4.950  1.00  0.00     0.027 C 
BRANCH   3   4
ATOM      4  C   UNL     1      11.274  14.217  -6.012  1.00  0.00     0.004 C 
BRANCH   4   5
ATOM      5  C   UNL     1      12.173  12.982  -5.849  1.00  0.00     0.000 C 
BRANCH   5   6
ATOM      6  C   UNL     1      13.637  13.389  -5.646  1.00  0.00     0.000 C 
BRANCH   6   7
ATOM      7  C   UNL     1      14.193  12.804  -4.339  1.00  0.00     0.000 C 
BRANCH   7   8
ATOM      8  C   UNL     1      14.022  13.754  -3.140  1.00  0.00     0.006 C 
BRANCH   8   9
ATOM      9  C   UNL     1      14.398  13.135  -1.784  1.00  0.00     0.053 C 
BRANCH   9  10
ATOM     10  C   UNL     1      13.723  13.832  -0.642  1.00  0.00     0.041 C 
ATOM     11  O   UNL     1      13.511  15.071  -0.693  1.00  0.00    -0.550 OA
ATOM     12  O   UNL     1      13.297  13.105   0.462  1.00  0.00    -0.550 OA
ENDBRANCH   9  10
ENDBRANCH   8   9
ENDBRANCH   7   8
ENDBRANCH   6   7
ENDBRANCH   5   6
ENDBRANCH   4   5
ENDBRANCH   3   4
ENDBRANCH   1   3
BRANCH   2  13
ATOM     13  C   UNL     1      10.276  11.782  -1.970  1.00  0.00     0.027 C 
BRANCH  13  14
ATOM     14  C   UNL     1      11.580  10.979  -2.081  1.00  0.00     0.004 C 
BRANCH  14  15
ATOM     15  C   UNL     1      11.535   9.839  -3.119  1.00  0.00     0.000 C 
BRANCH  15  16
ATOM     16  C   UNL     1      10.133   9.255  -3.390  1.00  0.00     0.000 C 
BRANCH  16  17
ATOM     17  C   UNL     1       9.895   7.838  -2.836  1.00  0.00    -0.000 C 
BRANCH  17  18
ATOM     18  C   UNL     1       9.322   6.874  -3.888  1.00  0.00    -0.000 C 
BRANCH  18  19
ATOM     19  C   UNL     1       8.471   5.757  -3.262  1.00  0.00    -0.003 C 
ATOM     20  C   UNL     1       9.223   4.431  -3.154  1.00  0.00     0.004 C 
ENDBRANCH  18  19
ENDBRANCH  17  18
ENDBRANCH  16  17
ENDBRANCH  15  16
ENDBRANCH  14  15
ENDBRANCH  13  14
ENDBRANCH   2  13
TORSDOF 15
ENDMDL
MODEL 5
REMARK VINA RESULT:    -4.098      9.408     11.668
REMARK INTER + INTRA:         -10.446
REMARK INTER:                  -7.903
REMARK INTRA:                  -2.543
REMARK UNBOUND:                -2.755
REMARK SMILES CCCCCCCCC=CCCCCCCCC(=O)[O-]
REMARK SMILES IDX 10 1 9 2 11 3 12 4 13 5 14 6 15 7 16 8 17 9 18 10 19 11
REMARK SMILES IDX 20 12 8 13 7 14 6 15 5 16 4 17 3 18 2 19 1 20
REMARK H PARENT
REMARK Flexibility Score: inf
ROOT
ATOM      1  C   UNL     1      10.164  12.115  -4.702  1.00  0.00    -0.031 C 
ATOM      2  C   UNL     1       9.994  13.443  -4.610  1.00  0.00    -0.031 C 
ENDROOT
BRANCH   1   3
ATOM      3  C   UNL     1       9.358  11.157  -3.867  1.00  0.00     0.027 C 
BRANCH   3   4
ATOM      4  C   UNL     1      10.245  10.075  -3.239  1.00  0.00     0.004 C 
BRANCH   4   5
ATOM      5  C   UNL     1      11.469  10.669  -2.527  1.00  0.00     0.000 C 
BRANCH   5   6
ATOM      6  C   UNL     1      11.145  11.011  -1.068  1.00  0.00     0.000 C 
BRANCH   6   7
ATOM      7  C   UNL     1      11.104  12.532  -0.856  1.00  0.00     0.000 C 
BRANCH   7   8
ATOM      8  C   UNL     1      12.190  13.275  -1.654  1.00  0.00     0.006 C 
BRANCH   8   9
ATOM      9  C   UNL     1      13.281  13.923  -0.788  1.00  0.00     0.053 C 
BRANCH   9  10
ATOM     10  C   UNL     1      13.839  12.967   0.222  1.00  0.00     0.041 C 
ATOM     11  O   UNL     1      14.385  11.897  -0.153  1.00  0.00    -0.550 OA
ATOM     12  O   UNL     1      13.788  13.276   1.575  1.00  0.00    -0.550 OA
ENDBRANCH   9  10
ENDBRANCH   8   9
ENDBRANCH   7   8
ENDBRANCH   6   7
ENDBRANCH   5   6
ENDBRANCH   4   5
ENDBRANCH   3   4
ENDBRANCH   1   3
BRANCH   2  13
ATOM     13  C   UNL     1      10.807  14.404  -5.435  1.00  0.00     0.027 C 
BRANCH  13  14
ATOM     14  C   UNL     1      12.187  13.826  -5.781  1.00  0.00     0.004 C 
BRANCH  14  15
ATOM     15  C   UNL     1      13.363  14.784  -5.500  1.00  0.00     0.000 C 
BRANCH  15  16
ATOM     16  C   UNL     1      14.569  14.149  -4.779  1.00  0.00     0.000 C 
BRANCH  16  17
ATOM     17  C   UNL     1      14.351  12.708  -4.282  1.00  0.00    -0.000 C 
BRANCH  17  18
ATOM     18  C   UNL     1      15.534  12.176  -3.456  1.00  0.00    -0.000 C 
BRANCH  18  19
ATOM     19  C   UNL     1      16.405  13.304  -2.879  1.00  0.00    -0.003 C 
ATOM     20  C   UNL     1      17.869  12.896  -2.714  1.00  0.00     0.004 C 
ENDBRANCH  18  19
ENDBRANCH  17  18
ENDBRANCH  16  17
ENDBRANCH  15  16
ENDBRANCH  14  15
ENDBRANCH  13  14
ENDBRANCH   2  13
TORSDOF 15
ENDMDL
MODEL 6
REMARK VINA RESULT:    -4.094      9.886     12.500
REMARK INTER + INTRA:         -10.439
REMARK INTER:                  -8.393
REMARK INTRA:                  -2.046
REMARK UNBOUND:                -2.755
REMARK SMILES CCCCCCCCC=CCCCCCCCC(=O)[O-]
REMARK SMILES IDX 10 1 9 2 11 3 12 4 13 5 14 6 15 7 16 8 17 9 18 10 19 11
REMARK SMILES IDX 20 12 8 13 7 14 6 15 5 16 4 17 3 18 2 19 1 20
REMARK H PARENT
REMARK Flexibility Score: inf
ROOT
ATOM      1  C   UNL     1      11.938  13.363  -1.117  1.00  0.00    -0.031 C 
ATOM      2  C   UNL     1      13.239  13.136  -0.878  1.00  0.00    -0.031 C 
ENDROOT
BRANCH   1   3
ATOM      3  C   UNL     1      10.919  12.257  -1.050  1.00  0.00     0.027 C 
BRANCH   3   4
ATOM      4  C   UNL     1      11.575  10.879  -1.197  1.00  0.00     0.004 C 
BRANCH   4   5
ATOM      5  C   UNL     1      11.905  10.546  -2.659  1.00  0.00     0.000 C 
BRANCH   5   6
ATOM      6  C   UNL     1      10.679  10.742  -3.559  1.00  0.00     0.000 C 
BRANCH   6   7
ATOM      7  C   UNL     1       9.760   9.512  -3.511  1.00  0.00     0.000 C 
BRANCH   7   8
ATOM      8  C   UNL     1      10.509   8.222  -3.132  1.00  0.00     0.006 C 
BRANCH   8   9
ATOM      9  C   UNL     1       9.952   6.950  -3.791  1.00  0.00     0.053 C 
BRANCH   9  10
ATOM     10  C   UNL     1       8.871   6.318  -2.968  1.00  0.00     0.041 C 
ATOM     11  O   UNL     1       8.722   6.643  -1.761  1.00  0.00    -0.550 OA
ATOM     12  O   UNL     1       8.007   5.396  -3.545  1.00  0.00    -0.550 OA
ENDBRANCH   9  10
ENDBRANCH   8   9
ENDBRANCH   7   8
ENDBRANCH   6   7
ENDBRANCH   5   6
ENDBRANCH   4   5
ENDBRANCH   3   4
ENDBRANCH   1   3
BRANCH   2  13
ATOM     13  C   UNL     1      14.262  14.237  -0.955  1.00  0.00     0.027 C 
BRANCH  13  14
ATOM     14  C   UNL     1      15.307  13.962  -2.047  1.00  0.00     0.004 C 
BRANCH  14  15
ATOM     15  C   UNL     1      15.115  12.621  -2.782  1.00  0.00     0.000 C 
BRANCH  15  16
ATOM     16  C   UNL     1      14.550  12.733  -4.213  1.00  0.00     0.000 C 
BRANCH  16  17
ATOM     17  C   UNL     1      14.503  14.159  -4.790  1.00  0.00    -0.000 C 
BRANCH  17  18
ATOM     18  C   UNL     1      13.133  14.515  -5.392  1.00  0.00    -0.000 C 
BRANCH  18  19
ATOM     19  C   UNL     1      11.964  14.109  -4.479  1.00  0.00    -0.003 C 
ATOM     20  C   UNL     1      10.608  14.208  -5.175  1.00  0.00     0.004 C 
ENDBRANCH  18  19
ENDBRANCH  17  18
ENDBRANCH  16  17
ENDBRANCH  15  16
ENDBRANCH  14  15
ENDBRANCH  13  14
ENDBRANCH   2  13
TORSDOF 15
ENDMDL
MODEL 7
REMARK VINA RESULT:    -3.962      3.265      5.824
REMARK INTER + INTRA:         -10.192
REMARK INTER:                  -7.366
REMARK INTRA:                  -2.826
REMARK UNBOUND:                -2.755
REMARK SMILES CCCCCCCCC=CCCCCCCCC(=O)[O-]
REMARK SMILES IDX 10 1 9 2 11 3 12 4 13 5 14 6 15 7 16 8 17 9 18 10 19 11
REMARK SMILES IDX 20 12 8 13 7 14 6 15 5 16 4 17 3 18 2 19 1 20
REMARK H PARENT
REMARK Flexibility Score: inf
ROOT
ATOM      1  C   UNL     1       0.413  16.466   2.405  1.00  0.00    -0.031 C 
ATOM      2  C   UNL     1       1.261  15.778   3.184  1.00  0.00    -0.031 C 
ENDROOT
BRANCH   1   3
ATOM      3  C   UNL     1      -0.134  15.886   1.128  1.00  0.00     0.027 C 
BRANCH   3   4
ATOM      4  C   UNL     1       0.158  16.795  -0.073  1.00  0.00     0.004 C 
BRANCH   4   5
ATOM      5  C   UNL     1       0.539  18.219   0.357  1.00  0.00     0.000 C 
BRANCH   5   6
ATOM      6  C   UNL     1       1.949  18.581  -0.125  1.00  0.00     0.000 C 
BRANCH   6   7
ATOM      7  C   UNL     1       2.932  18.651   1.053  1.00  0.00     0.000 C 
BRANCH   7   8
ATOM      8  C   UNL     1       4.139  17.712   0.881  1.00  0.00     0.006 C 
BRANCH   8   9
ATOM      9  C   UNL     1       3.767  16.247   0.607  1.00  0.00     0.053 C 
BRANCH   9  10
ATOM     10  C   UNL     1       4.932  15.458   0.092  1.00  0.00     0.041 C 
ATOM     11  O   UNL     1       4.809  14.744  -0.938  1.00  0.00    -0.550 OA
ATOM     12  O   UNL     1       6.163  15.539   0.730  1.00  0.00    -0.550 OA
ENDBRANCH   9  10
ENDBRANCH   8   9
ENDBRANCH   7   8
ENDBRANCH   6   7
ENDBRANCH   5   6
ENDBRANCH   4   5
ENDBRANCH   3   4
ENDBRANCH   1   3
BRANCH   2  13
ATOM     13  C   UNL     1       1.819  16.360   4.454  1.00  0.00     0.027 C 
BRANCH  13  14
ATOM     14  C   UNL     1       2.610  15.314   5.255  1.00  0.00     0.004 C 
BRANCH  14  15
ATOM     15  C   UNL     1       3.352  14.280   4.385  1.00  0.00     0.000 C 
BRANCH  15  16
ATOM     16  C   UNL     1       4.745  14.719   3.889  1.00  0.00     0.000 C 
BRANCH  16  17
ATOM     17  C   UNL     1       5.469  15.738   4.786  1.00  0.00    -0.000 C 
BRANCH  17  18
ATOM     18  C   UNL     1       5.646  17.108   4.112  1.00  0.00    -0.000 C 
BRANCH  18  19
ATOM     19  C   UNL     1       4.937  18.238   4.877  1.00  0.00    -0.003 C 
ATOM     20  C   UNL     1       4.868  19.540   4.081  1.00  0.00     0.004 C 
ENDBRANCH  18  19
ENDBRANCH  17  18
ENDBRANCH  16  17
ENDBRANCH  15  16
ENDBRANCH  14  15
ENDBRANCH  13  14
ENDBRANCH   2  13
TORSDOF 15
ENDMDL
MODEL 8
REMARK VINA RESULT:    -3.962      1.431      3.355
REMARK INTER + INTRA:         -10.192
REMARK INTER:                  -7.169
REMARK INTRA:                  -3.023
REMARK UNBOUND:                -2.755
REMARK SMILES CCCCCCCCC=CCCCCCCCC(=O)[O-]
REMARK SMILES IDX 10 1 9 2 11 3 12 4 13 5 14 6 15 7 16 8 17 9 18 10 19 11
REMARK SMILES IDX 20 12 8 13 7 14 6 15 5 16 4 17 3 18 2 19 1 20
REMARK H PARENT
REMARK Flexibility Score: inf
ROOT
ATOM      1  C   UNL     1       3.950  14.376   2.092  1.00  0.00    -0.031 C 
ATOM      2  C   UNL     1       4.740  15.433   1.848  1.00  0.00    -0.031 C 
ENDROOT
BRANCH   1   3
ATOM      3  C   UNL     1       3.912  13.714   3.443  1.00  0.00     0.027 C 
BRANCH   3   4
ATOM      4  C   UNL     1       3.261  14.620   4.495  1.00  0.00     0.004 C 
BRANCH   4   5
ATOM      5  C   UNL     1       4.286  15.179   5.493  1.00  0.00     0.000 C 
BRANCH   5   6
ATOM      6  C   UNL     1       4.433  16.698   5.339  1.00  0.00     0.000 C 
BRANCH   6   7
ATOM      7  C   UNL     1       5.901  17.087   5.109  1.00  0.00     0.000 C 
BRANCH   7   8
ATOM      8  C   UNL     1       6.798  15.876   4.799  1.00  0.00     0.006 C 
BRANCH   8   9
ATOM      9  C   UNL     1       8.068  15.792   5.659  1.00  0.00     0.053 C 
BRANCH   9  10
ATOM     10  C   UNL     1       7.781  16.028   7.110  1.00  0.00     0.041 C 
ATOM     11  O   UNL     1       8.238  17.048   7.689  1.00  0.00    -0.550 OA
ATOM     12  O   UNL     1       6.977  15.140   7.814  1.00  0.00    -0.550 OA
ENDBRANCH   9  10
ENDBRANCH   8   9
ENDBRANCH   7   8
ENDBRANCH   6   7
ENDBRANCH   5   6
ENDBRANCH   4   5
ENDBRANCH   3   4
ENDBRANCH   1   3
BRANCH   2  13
ATOM     13  C   UNL     1       4.789  16.090   0.495  1.00  0.00     0.027 C 
BRANCH  13  14
ATOM     14  C   UNL     1       4.125  17.475   0.516  1.00  0.00     0.004 C 
BRANCH  14  15
ATOM     15  C   UNL     1       4.120  18.154   1.900  1.00  0.00     0.000 C 
BRANCH  15  16
ATOM     16  C   UNL     1       2.810  18.881   2.269  1.00  0.00     0.000 C 
BRANCH  16  17
ATOM     17  C   UNL     1       1.520  18.196   1.782  1.00  0.00    -0.000 C 
BRANCH  17  18
ATOM     18  C   UNL     1       1.233  16.874   2.514  1.00  0.00    -0.000 C 
BRANCH  18  19
ATOM     19  C   UNL     1       0.327  15.935   1.702  1.00  0.00    -0.003 C 
ATOM     20  C   UNL     1       0.961  15.495   0.383  1.00  0.00     0.004 C 
ENDBRANCH  18  19
ENDBRANCH  17  18
ENDBRANCH  16  17
ENDBRANCH  15  16
ENDBRANCH  14  15
ENDBRANCH  13  14
ENDBRANCH   2  13
TORSDOF 15
ENDMDL
MODEL 9
REMARK VINA RESULT:    -3.915      8.257     10.004
REMARK INTER + INTRA:         -10.103
REMARK INTER:                  -7.624
REMARK INTRA:                  -2.479
REMARK UNBOUND:                -2.755
REMARK SMILES CCCCCCCCC=CCCCCCCCC(=O)[O-]
REMARK SMILES IDX 10 1 9 2 11 3 12 4 13 5 14 6 15 7 16 8 17 9 18 10 19 11
REMARK SMILES IDX 20 12 8 13 7 14 6 15 5 16 4 17 3 18 2 19 1 20
REMARK H PARENT
REMARK Flexibility Score: inf
ROOT
ATOM      1  C   UNL     1      13.478  13.904  -3.463  1.00  0.00    -0.031 C 
ATOM      2  C   UNL     1      13.052  13.988  -4.732  1.00  0.00    -0.031 C 
ENDROOT
BRANCH   1   3
ATOM      3  C   UNL     1      14.928  14.087  -3.103  1.00  0.00     0.027 C 
BRANCH   3   4
ATOM      4  C   UNL     1      15.173  13.842  -1.609  1.00  0.00     0.004 C 
BRANCH   4   5
ATOM      5  C   UNL     1      14.219  14.657  -0.723  1.00  0.00     0.000 C 
BRANCH   5   6
ATOM      6  C   UNL     1      13.935  13.929   0.596  1.00  0.00     0.000 C 
BRANCH   6   7
ATOM      7  C   UNL     1      14.036  12.407   0.417  1.00  0.00     0.000 C 
BRANCH   7   8
ATOM      8  C   UNL     1      13.605  11.629   1.673  1.00  0.00     0.006 C 
BRANCH   8   9
ATOM      9  C   UNL     1      12.108  11.736   2.001  1.00  0.00     0.053 C 
BRANCH   9  10
ATOM     10  C   UNL     1      11.840  11.563   3.465  1.00  0.00     0.041 C 
ATOM     11  O   UNL     1      12.653  10.931   4.188  1.00  0.00    -0.550 OA
ATOM     12  O   UNL     1      10.709  12.133   4.037  1.00  0.00    -0.550 OA
ENDBRANCH   9  10
ENDBRANCH   8   9
ENDBRANCH   7   8
ENDBRANCH   6   7
ENDBRANCH   5   6
ENDBRANCH   4   5
ENDBRANCH   3   4
ENDBRANCH   1   3
BRANCH   2  13
ATOM     13  C   UNL     1      11.605  13.793  -5.096  1.00  0.00     0.027 C 
BRANCH  13  14
ATOM     14  C   UNL     1      11.311  12.336  -5.483  1.00  0.00     0.004 C 
BRANCH  14  15
ATOM     15  C   UNL     1      10.024  11.763  -4.856  1.00  0.00     0.000 C 
BRANCH  15  16
ATOM     16  C   UNL     1      10.241  10.622  -3.840  1.00  0.00     0.000 C 
BRANCH  16  17
ATOM     17  C   UNL     1      11.354  10.868  -2.807  1.00  0.00    -0.000 C 
BRANCH  17  18
ATOM     18  C   UNL     1      10.818  11.384  -1.461  1.00  0.00    -0.000 C 
BRANCH  18  19
ATOM     19  C   UNL     1      10.788  12.919  -1.389  1.00  0.00    -0.003 C 
ATOM     20  C   UNL     1       9.393  13.496  -1.626  1.00  0.00     0.004 C 
ENDBRANCH  18  19
ENDBRANCH  17  18
ENDBRANCH  16  17
ENDBRANCH  15  16
ENDBRANCH  14  15
ENDBRANCH  13  14
ENDBRANCH   2  13
TORSDOF 15
ENDMDL
