MODEL 1
REMARK VINA RESULT:    -4.191      0.000      0.000
REMARK INTER + INTRA:          -9.619
REMARK INTER:                  -8.112
REMARK INTRA:                  -1.507
REMARK UNBOUND:                -1.507
REMARK SMILES CCCCCCCCCCCCCCCCCC(=O)[O-]
REMARK SMILES IDX 10 1 11 2 12 3 13 4 14 5 15 6 16 7 17 8 18 9 19 10 20 11
REMARK SMILES IDX 9 12 8 13 7 14 6 15 5 16 4 17 3 18 2 19 1 20
REMARK H PARENT
REMARK Flexibility Score: inf
ROOT
ATOM      1  C   UNL     1     178.729 165.934 187.792  1.00  0.00     0.000 C 
ENDROOT
BRANCH   1   2
ATOM      2  C   UNL     1     177.928 165.632 186.513  1.00  0.00     0.000 C 
BRANCH   2   3
ATOM      3  C   UNL     1     176.417 165.524 186.776  1.00  0.00     0.000 C 
BRANCH   3   4
ATOM      4  C   UNL     1     176.038 165.892 188.223  1.00  0.00     0.000 C 
BRANCH   4   5
ATOM      5  C   UNL     1     175.459 164.702 189.005  1.00  0.00     0.000 C 
BRANCH   5   6
ATOM      6  C   UNL     1     176.473 164.089 189.985  1.00  0.00     0.000 C 
BRANCH   6   7
ATOM      7  C   UNL     1     177.106 162.787 189.457  1.00  0.00     0.006 C 
BRANCH   7   8
ATOM      8  C   UNL     1     176.152 161.927 188.610  1.00  0.00     0.053 C 
BRANCH   8   9
ATOM      9  C   UNL     1     176.685 161.650 187.239  1.00  0.00     0.041 C 
ATOM     10  O   UNL     1     177.714 162.246 186.825  1.00  0.00    -0.550 OA
ATOM     11  O   UNL     1     176.032 160.748 186.408  1.00  0.00    -0.550 OA
ENDBRANCH   8   9
ENDBRANCH   7   8
ENDBRANCH   6   7
ENDBRANCH   5   6
ENDBRANCH   4   5
ENDBRANCH   3   4
ENDBRANCH   2   3
ENDBRANCH   1   2
BRANCH   1  12
ATOM     12  C   UNL     1     179.991 166.766 187.513  1.00  0.00     0.000 C 
BRANCH  12  13
ATOM     13  C   UNL     1     179.669 168.162 186.951  1.00  0.00    -0.000 C 
BRANCH  13  14
ATOM     14  C   UNL     1     178.785 168.992 187.897  1.00  0.00    -0.000 C 
BRANCH  14  15
ATOM     15  C   UNL     1     179.576 170.081 188.640  1.00  0.00    -0.000 C 
BRANCH  15  16
ATOM     16  C   UNL     1     178.893 171.458 188.583  1.00  0.00    -0.000 C 
BRANCH  16  17
ATOM     17  C   UNL     1     179.884 172.642 188.607  1.00  0.00    -0.000 C 
BRANCH  17  18
ATOM     18  C   UNL     1     179.188 173.986 188.332  1.00  0.00    -0.000 C 
BRANCH  18  19
ATOM     19  C   UNL     1     177.702 173.974 188.719  1.00  0.00    -0.003 C 
ATOM     20  C   UNL     1     177.407 174.819 189.959  1.00  0.00     0.004 C 
ENDBRANCH  18  19
ENDBRANCH  17  18
ENDBRANCH  16  17
ENDBRANCH  15  16
ENDBRANCH  14  15
ENDBRANCH  13  14
ENDBRANCH  12  13
ENDBRANCH   1  12
TORSDOF 16
ENDMDL
MODEL 2
REMARK VINA RESULT:    -4.172     13.043     15.887
REMARK INTER + INTRA:          -9.581
REMARK INTER:                  -6.414
REMARK INTRA:                  -3.167
REMARK UNBOUND:                -1.507
REMARK SMILES CCCCCCCCCCCCCCCCCC(=O)[O-]
REMARK SMILES IDX 10 1 11 2 12 3 13 4 14 5 15 6 16 7 17 8 18 9 19 10 20 11
REMARK SMILES IDX 9 12 8 13 7 14 6 15 5 16 4 17 3 18 2 19 1 20
REMARK H PARENT
REMARK Flexibility Score: inf
ROOT
ATOM      1  C   UNL     1     164.867 163.951 187.468  1.00  0.00     0.000 C 
ENDROOT
BRANCH   1   2
ATOM      2  C   UNL     1     163.329 163.958 187.520  1.00  0.00     0.000 C 
BRANCH   2   3
ATOM      3  C   UNL     1     162.784 163.494 188.880  1.00  0.00     0.000 C 
BRANCH   3   4
ATOM      4  C   UNL     1     161.739 162.370 188.749  1.00  0.00     0.000 C 
BRANCH   4   5
ATOM      5  C   UNL     1     160.510 162.797 187.929  1.00  0.00     0.000 C 
BRANCH   5   6
ATOM      6  C   UNL     1     159.983 161.670 187.025  1.00  0.00     0.000 C 
BRANCH   6   7
ATOM      7  C   UNL     1     161.089 161.019 186.172  1.00  0.00     0.006 C 
BRANCH   7   8
ATOM      8  C   UNL     1     161.543 161.875 184.977  1.00  0.00     0.053 C 
BRANCH   8   9
ATOM      9  C   UNL     1     162.471 161.141 184.058  1.00  0.00     0.041 C 
ATOM     10  O   UNL     1     162.787 159.946 184.296  1.00  0.00    -0.550 OA
ATOM     11  O   UNL     1     163.005 161.786 182.949  1.00  0.00    -0.550 OA
ENDBRANCH   8   9
ENDBRANCH   7   8
ENDBRANCH   6   7
ENDBRANCH   5   6
ENDBRANCH   4   5
ENDBRANCH   3   4
ENDBRANCH   2   3
ENDBRANCH   1   2
BRANCH   1  12
ATOM     12  C   UNL     1     165.504 164.003 188.866  1.00  0.00     0.000 C 
BRANCH  12  13
ATOM     13  C   UNL     1     166.691 163.034 189.014  1.00  0.00    -0.000 C 
BRANCH  13  14
ATOM     14  C   UNL     1     166.413 161.905 190.020  1.00  0.00    -0.000 C 
BRANCH  14  15
ATOM     15  C   UNL     1     166.209 160.544 189.336  1.00  0.00    -0.000 C 
BRANCH  15  16
ATOM     16  C   UNL     1     164.750 160.305 188.907  1.00  0.00    -0.000 C 
BRANCH  16  17
ATOM     17  C   UNL     1     164.546 160.313 187.377  1.00  0.00    -0.000 C 
BRANCH  17  18
ATOM     18  C   UNL     1     165.881 160.234 186.615  1.00  0.00    -0.000 C 
BRANCH  18  19
ATOM     19  C   UNL     1     165.931 161.185 185.410  1.00  0.00    -0.003 C 
ATOM     20  C   UNL     1     167.238 161.975 185.335  1.00  0.00     0.004 C 
ENDBRANCH  18  19
ENDBRANCH  17  18
ENDBRANCH  16  17
ENDBRANCH  15  16
ENDBRANCH  14  15
ENDBRANCH  13  14
ENDBRANCH  12  13
ENDBRANCH   1  12
TORSDOF 16
ENDMDL
MODEL 3
REMARK VINA RESULT:    -4.105     12.767     16.063
REMARK INTER + INTRA:          -9.451
REMARK INTER:                  -6.600
REMARK INTRA:                  -2.851
REMARK UNBOUND:                -1.507
REMARK SMILES CCCCCCCCCCCCCCCCCC(=O)[O-]
REMARK SMILES IDX 10 1 11 2 12 3 13 4 14 5 15 6 16 7 17 8 18 9 19 10 20 11
REMARK SMILES IDX 9 12 8 13 7 14 6 15 5 16 4 17 3 18 2 19 1 20
REMARK H PARENT
REMARK Flexibility Score: inf
ROOT
ATOM      1  C   UNL     1     161.481 164.241 187.567  1.00  0.00     0.000 C 
ENDROOT
BRANCH   1   2
ATOM      2  C   UNL     1     161.969 163.432 188.782  1.00  0.00     0.000 C 
BRANCH   2   3
ATOM      3  C   UNL     1     163.222 162.597 188.470  1.00  0.00     0.000 C 
BRANCH   3   4
ATOM      4  C   UNL     1     162.940 161.083 188.469  1.00  0.00     0.000 C 
BRANCH   4   5
ATOM      5  C   UNL     1     164.204 160.245 188.723  1.00  0.00     0.000 C 
BRANCH   5   6
ATOM      6  C   UNL     1     165.450 160.834 188.042  1.00  0.00     0.000 C 
BRANCH   6   7
ATOM      7  C   UNL     1     166.723 160.698 188.899  1.00  0.00     0.006 C 
BRANCH   7   8
ATOM      8  C   UNL     1     166.637 161.407 190.263  1.00  0.00     0.053 C 
BRANCH   8   9
ATOM      9  C   UNL     1     166.761 162.896 190.150  1.00  0.00     0.041 C 
ATOM     10  O   UNL     1     165.869 163.645 190.626  1.00  0.00    -0.550 OA
ATOM     11  O   UNL     1     167.853 163.455 189.499  1.00  0.00    -0.550 OA
ENDBRANCH   8   9
ENDBRANCH   7   8
ENDBRANCH   6   7
ENDBRANCH   5   6
ENDBRANCH   4   5
ENDBRANCH   3   4
ENDBRANCH   2   3
ENDBRANCH   1   2
BRANCH   1  12
ATOM     12  C   UNL     1     162.629 164.954 186.835  1.00  0.00     0.000 C 
BRANCH  12  13
ATOM     13  C   UNL     1     162.381 165.079 185.321  1.00  0.00    -0.000 C 
BRANCH  13  14
ATOM     14  C   UNL     1     163.454 164.362 184.484  1.00  0.00    -0.000 C 
BRANCH  14  15
ATOM     15  C   UNL     1     164.188 163.269 185.278  1.00  0.00    -0.000 C 
BRANCH  15  16
ATOM     16  C   UNL     1     164.270 161.933 184.518  1.00  0.00    -0.000 C 
BRANCH  16  17
ATOM     17  C   UNL     1     162.923 161.483 183.911  1.00  0.00    -0.000 C 
BRANCH  17  18
ATOM     18  C   UNL     1     162.004 160.832 184.960  1.00  0.00    -0.000 C 
BRANCH  18  19
ATOM     19  C   UNL     1     160.700 161.616 185.172  1.00  0.00    -0.003 C 
ATOM     20  C   UNL     1     159.875 161.084 186.345  1.00  0.00     0.004 C 
ENDBRANCH  18  19
ENDBRANCH  17  18
ENDBRANCH  16  17
ENDBRANCH  15  16
ENDBRANCH  14  15
ENDBRANCH  13  14
ENDBRANCH  12  13
ENDBRANCH   1  12
TORSDOF 16
ENDMDL
MODEL 4
REMARK VINA RESULT:    -4.093     13.167     16.529
REMARK INTER + INTRA:          -9.428
REMARK INTER:                  -6.685
REMARK INTRA:                  -2.744
REMARK UNBOUND:                -1.507
REMARK SMILES CCCCCCCCCCCCCCCCCC(=O)[O-]
REMARK SMILES IDX 10 1 11 2 12 3 13 4 14 5 15 6 16 7 17 8 18 9 19 10 20 11
REMARK SMILES IDX 9 12 8 13 7 14 6 15 5 16 4 17 3 18 2 19 1 20
REMARK H PARENT
REMARK Flexibility Score: inf
ROOT
ATOM      1  C   UNL     1     163.023 162.173 188.165  1.00  0.00     0.000 C 
ENDROOT
BRANCH   1   2
ATOM      2  C   UNL     1     161.580 162.577 188.516  1.00  0.00     0.000 C 
BRANCH   2   3
ATOM      3  C   UNL     1     160.562 161.473 188.185  1.00  0.00     0.000 C 
BRANCH   3   4
ATOM      4  C   UNL     1     159.875 161.688 186.823  1.00  0.00     0.000 C 
BRANCH   4   5
ATOM      5  C   UNL     1     160.280 160.633 185.782  1.00  0.00     0.000 C 
BRANCH   5   6
ATOM      6  C   UNL     1     161.443 161.098 184.890  1.00  0.00     0.000 C 
BRANCH   6   7
ATOM      7  C   UNL     1     161.188 162.473 184.242  1.00  0.00     0.006 C 
BRANCH   7   8
ATOM      8  C   UNL     1     162.226 163.544 184.620  1.00  0.00     0.053 C 
BRANCH   8   9
ATOM      9  C   UNL     1     161.641 164.656 185.435  1.00  0.00     0.041 C 
ATOM     10  O   UNL     1     162.339 165.246 186.301  1.00  0.00    -0.550 OA
ATOM     11  O   UNL     1     160.314 165.026 185.254  1.00  0.00    -0.550 OA
ENDBRANCH   8   9
ENDBRANCH   7   8
ENDBRANCH   6   7
ENDBRANCH   5   6
ENDBRANCH   4   5
ENDBRANCH   3   4
ENDBRANCH   2   3
ENDBRANCH   1   2
BRANCH   1  12
ATOM     12  C   UNL     1     163.310 160.694 188.471  1.00  0.00     0.000 C 
BRANCH  12  13
ATOM     13  C   UNL     1     164.772 160.448 188.889  1.00  0.00    -0.000 C 
BRANCH  13  14
ATOM     14  C   UNL     1     165.514 161.748 189.243  1.00  0.00    -0.000 C 
BRANCH  14  15
ATOM     15  C   UNL     1     167.026 161.652 188.981  1.00  0.00    -0.000 C 
BRANCH  15  16
ATOM     16  C   UNL     1     167.463 160.251 188.519  1.00  0.00    -0.000 C 
BRANCH  16  17
ATOM     17  C   UNL     1     168.231 160.253 187.179  1.00  0.00    -0.000 C 
BRANCH  17  18
ATOM     18  C   UNL     1     167.469 161.009 186.076  1.00  0.00    -0.000 C 
BRANCH  18  19
ATOM     19  C   UNL     1     166.235 160.243 185.577  1.00  0.00    -0.003 C 
ATOM     20  C   UNL     1     165.090 161.169 185.168  1.00  0.00     0.004 C 
ENDBRANCH  18  19
ENDBRANCH  17  18
ENDBRANCH  16  17
ENDBRANCH  15  16
ENDBRANCH  14  15
ENDBRANCH  13  14
ENDBRANCH  12  13
ENDBRANCH   1  12
TORSDOF 16
ENDMDL
MODEL 5
REMARK VINA RESULT:    -4.091     12.706     16.165
REMARK INTER + INTRA:          -9.425
REMARK INTER:                  -6.625
REMARK INTRA:                  -2.800
REMARK UNBOUND:                -1.507
REMARK SMILES CCCCCCCCCCCCCCCCCC(=O)[O-]
REMARK SMILES IDX 10 1 11 2 12 3 13 4 14 5 15 6 16 7 17 8 18 9 19 10 20 11
REMARK SMILES IDX 9 12 8 13 7 14 6 15 5 16 4 17 3 18 2 19 1 20
REMARK H PARENT
REMARK Flexibility Score: inf
ROOT
ATOM      1  C   UNL     1     161.955 164.264 187.044  1.00  0.00     0.000 C 
ENDROOT
BRANCH   1   2
ATOM      2  C   UNL     1     162.161 163.571 188.403  1.00  0.00     0.000 C 
BRANCH   2   3
ATOM      3  C   UNL     1     163.377 162.631 188.407  1.00  0.00     0.000 C 
BRANCH   3   4
ATOM      4  C   UNL     1     162.977 161.144 188.399  1.00  0.00     0.000 C 
BRANCH   4   5
ATOM      5  C   UNL     1     164.189 160.203 188.305  1.00  0.00     0.000 C 
BRANCH   5   6
ATOM      6  C   UNL     1     165.498 160.956 188.012  1.00  0.00     0.000 C 
BRANCH   6   7
ATOM      7  C   UNL     1     166.624 160.610 189.005  1.00  0.00     0.006 C 
BRANCH   7   8
ATOM      8  C   UNL     1     166.583 161.429 190.308  1.00  0.00     0.053 C 
BRANCH   8   9
ATOM      9  C   UNL     1     166.828 162.889 190.082  1.00  0.00     0.041 C 
ATOM     10  O   UNL     1     166.004 163.744 190.499  1.00  0.00    -0.550 OA
ATOM     11  O   UNL     1     167.959 163.304 189.390  1.00  0.00    -0.550 OA
ENDBRANCH   8   9
ENDBRANCH   7   8
ENDBRANCH   6   7
ENDBRANCH   5   6
ENDBRANCH   4   5
ENDBRANCH   3   4
ENDBRANCH   2   3
ENDBRANCH   1   2
BRANCH   1  12
ATOM     12  C   UNL     1     160.475 164.328 186.635  1.00  0.00     0.000 C 
BRANCH  12  13
ATOM     13  C   UNL     1     159.875 162.937 186.362  1.00  0.00    -0.000 C 
BRANCH  13  14
ATOM     14  C   UNL     1     160.405 162.306 185.063  1.00  0.00    -0.000 C 
BRANCH  14  15
ATOM     15  C   UNL     1     161.051 160.931 185.296  1.00  0.00    -0.000 C 
BRANCH  15  16
ATOM     16  C   UNL     1     162.430 160.799 184.626  1.00  0.00    -0.000 C 
BRANCH  16  17
ATOM     17  C   UNL     1     162.608 161.709 183.392  1.00  0.00    -0.000 C 
BRANCH  17  18
ATOM     18  C   UNL     1     163.888 162.559 183.478  1.00  0.00    -0.000 C 
BRANCH  18  19
ATOM     19  C   UNL     1     164.485 162.589 184.892  1.00  0.00    -0.003 C 
ATOM     20  C   UNL     1     165.213 163.899 185.198  1.00  0.00     0.004 C 
ENDBRANCH  18  19
ENDBRANCH  17  18
ENDBRANCH  16  17
ENDBRANCH  15  16
ENDBRANCH  14  15
ENDBRANCH  13  14
ENDBRANCH  12  13
ENDBRANCH   1  12
TORSDOF 16
ENDMDL
MODEL 6
REMARK VINA RESULT:    -4.066      8.279     13.095
REMARK INTER + INTRA:          -9.376
REMARK INTER:                  -8.263
REMARK INTRA:                  -1.113
REMARK UNBOUND:                -1.507
REMARK SMILES CCCCCCCCCCCCCCCCCC(=O)[O-]
REMARK SMILES IDX 10 1 11 2 12 3 13 4 14 5 15 6 16 7 17 8 18 9 19 10 20 11
REMARK SMILES IDX 9 12 8 13 7 14 6 15 5 16 4 17 3 18 2 19 1 20
REMARK H PARENT
REMARK Flexibility Score: inf
ROOT
ATOM      1  C   UNL     1     173.521 180.055 188.733  1.00  0.00     0.000 C 
ENDROOT
BRANCH   1   2
ATOM      2  C   UNL     1     174.428 179.729 187.533  1.00  0.00     0.000 C 
BRANCH   2   3
ATOM      3  C   UNL     1     175.334 178.515 187.791  1.00  0.00     0.000 C 
BRANCH   3   4
ATOM      4  C   UNL     1     175.234 177.452 186.681  1.00  0.00     0.000 C 
BRANCH   4   5
ATOM      5  C   UNL     1     176.009 176.168 187.018  1.00  0.00     0.000 C 
BRANCH   5   6
ATOM      6  C   UNL     1     176.328 176.047 188.517  1.00  0.00     0.000 C 
BRANCH   6   7
ATOM      7  C   UNL     1     176.823 174.642 188.913  1.00  0.00     0.006 C 
BRANCH   7   8
ATOM      8  C   UNL     1     178.290 174.604 189.376  1.00  0.00     0.053 C 
BRANCH   8   9
ATOM      9  C   UNL     1     179.193 173.942 188.381  1.00  0.00     0.041 C 
ATOM     10  O   UNL     1     179.807 172.885 188.684  1.00  0.00    -0.550 OA
ATOM     11  O   UNL     1     179.374 174.505 187.124  1.00  0.00    -0.550 OA
ENDBRANCH   8   9
ENDBRANCH   7   8
ENDBRANCH   6   7
ENDBRANCH   5   6
ENDBRANCH   4   5
ENDBRANCH   3   4
ENDBRANCH   2   3
ENDBRANCH   1   2
BRANCH   1  12
ATOM     12  C   UNL     1     172.037 179.784 188.439  1.00  0.00     0.000 C 
BRANCH  12  13
ATOM     13  C   UNL     1     171.610 178.352 188.810  1.00  0.00    -0.000 C 
BRANCH  13  14
ATOM     14  C   UNL     1     170.096 178.126 188.658  1.00  0.00    -0.000 C 
BRANCH  14  15
ATOM     15  C   UNL     1     169.373 179.353 188.079  1.00  0.00    -0.000 C 
BRANCH  15  16
ATOM     16  C   UNL     1     168.151 179.773 188.913  1.00  0.00    -0.000 C 
BRANCH  16  17
ATOM     17  C   UNL     1     167.436 178.591 189.603  1.00  0.00    -0.000 C 
BRANCH  17  18
ATOM     18  C   UNL     1     166.030 178.347 189.027  1.00  0.00    -0.000 C 
BRANCH  18  19
ATOM     19  C   UNL     1     166.059 177.952 187.543  1.00  0.00    -0.003 C 
ATOM     20  C   UNL     1     166.118 176.438 187.336  1.00  0.00     0.004 C 
ENDBRANCH  18  19
ENDBRANCH  17  18
ENDBRANCH  16  17
ENDBRANCH  15  16
ENDBRANCH  14  15
ENDBRANCH  13  14
ENDBRANCH  12  13
ENDBRANCH   1  12
TORSDOF 16
ENDMDL
MODEL 7
REMARK VINA RESULT:    -4.051      1.295      3.066
REMARK INTER + INTRA:          -9.347
REMARK INTER:                  -7.815
REMARK INTRA:                  -1.532
REMARK UNBOUND:                -1.507
REMARK SMILES CCCCCCCCCCCCCCCCCC(=O)[O-]
REMARK SMILES IDX 10 1 11 2 12 3 13 4 14 5 15 6 16 7 17 8 18 9 19 10 20 11
REMARK SMILES IDX 9 12 8 13 7 14 6 15 5 16 4 17 3 18 2 19 1 20
REMARK H PARENT
REMARK Flexibility Score: inf
ROOT
ATOM      1  C   UNL     1     178.308 169.290 187.862  1.00  0.00     0.000 C 
ENDROOT
BRANCH   1   2
ATOM      2  C   UNL     1     179.199 169.294 186.607  1.00  0.00     0.000 C 
BRANCH   2   3
ATOM      3  C   UNL     1     179.871 167.934 186.357  1.00  0.00     0.000 C 
BRANCH   3   4
ATOM      4  C   UNL     1     179.545 166.901 187.452  1.00  0.00     0.000 C 
BRANCH   4   5
ATOM      5  C   UNL     1     178.508 165.861 186.996  1.00  0.00     0.000 C 
BRANCH   5   6
ATOM      6  C   UNL     1     177.385 165.656 188.026  1.00  0.00     0.000 C 
BRANCH   6   7
ATOM      7  C   UNL     1     177.466 164.291 188.737  1.00  0.00     0.006 C 
BRANCH   7   8
ATOM      8  C   UNL     1     176.253 163.379 188.480  1.00  0.00     0.053 C 
BRANCH   8   9
ATOM      9  C   UNL     1     176.617 162.128 187.741  1.00  0.00     0.041 C 
ATOM     10  O   UNL     1     175.990 161.058 187.956  1.00  0.00    -0.550 OA
ATOM     11  O   UNL     1     177.664 162.139 186.828  1.00  0.00    -0.550 OA
ENDBRANCH   8   9
ENDBRANCH   7   8
ENDBRANCH   6   7
ENDBRANCH   5   6
ENDBRANCH   4   5
ENDBRANCH   3   4
ENDBRANCH   2   3
ENDBRANCH   1   2
BRANCH   1  12
ATOM     12  C   UNL     1     178.719 170.368 188.878  1.00  0.00     0.000 C 
BRANCH  12  13
ATOM     13  C   UNL     1     180.054 171.045 188.517  1.00  0.00    -0.000 C 
BRANCH  13  14
ATOM     14  C   UNL     1     179.961 172.580 188.526  1.00  0.00    -0.000 C 
BRANCH  14  15
ATOM     15  C   UNL     1     179.162 173.129 187.333  1.00  0.00    -0.000 C 
BRANCH  15  16
ATOM     16  C   UNL     1     177.823 173.761 187.753  1.00  0.00    -0.000 C 
BRANCH  16  17
ATOM     17  C   UNL     1     177.931 174.672 188.994  1.00  0.00    -0.000 C 
BRANCH  17  18
ATOM     18  C   UNL     1     176.787 174.429 189.994  1.00  0.00    -0.000 C 
BRANCH  18  19
ATOM     19  C   UNL     1     176.216 173.006 189.905  1.00  0.00    -0.003 C 
ATOM     20  C   UNL     1     175.355 172.638 191.114  1.00  0.00     0.004 C 
ENDBRANCH  18  19
ENDBRANCH  17  18
ENDBRANCH  16  17
ENDBRANCH  15  16
ENDBRANCH  14  15
ENDBRANCH  13  14
ENDBRANCH  12  13
ENDBRANCH   1  12
TORSDOF 16
ENDMDL
MODEL 8
REMARK VINA RESULT:    -4.005     13.152     16.542
REMARK INTER + INTRA:          -9.258
REMARK INTER:                  -7.028
REMARK INTRA:                  -2.231
REMARK UNBOUND:                -1.507
REMARK SMILES CCCCCCCCCCCCCCCCCC(=O)[O-]
REMARK SMILES IDX 10 1 11 2 12 3 13 4 14 5 15 6 16 7 17 8 18 9 19 10 20 11
REMARK SMILES IDX 9 12 8 13 7 14 6 15 5 16 4 17 3 18 2 19 1 20
REMARK H PARENT
REMARK Flexibility Score: inf
ROOT
ATOM      1  C   UNL     1     162.388 164.523 187.252  1.00  0.00     0.000 C 
ENDROOT
BRANCH   1   2
ATOM      2  C   UNL     1     160.991 165.079 187.579  1.00  0.00     0.000 C 
BRANCH   2   3
ATOM      3  C   UNL     1     159.875 164.364 186.801  1.00  0.00     0.000 C 
BRANCH   3   4
ATOM      4  C   UNL     1     160.418 163.475 185.666  1.00  0.00     0.000 C 
BRANCH   4   5
ATOM      5  C   UNL     1     159.889 162.033 185.737  1.00  0.00     0.000 C 
BRANCH   5   6
ATOM      6  C   UNL     1     160.893 161.008 185.185  1.00  0.00     0.000 C 
BRANCH   6   7
ATOM      7  C   UNL     1     161.857 161.612 184.146  1.00  0.00     0.006 C 
BRANCH   7   8
ATOM      8  C   UNL     1     163.232 160.923 184.093  1.00  0.00     0.053 C 
BRANCH   8   9
ATOM      9  C   UNL     1     163.867 161.000 182.739  1.00  0.00     0.041 C 
ATOM     10  O   UNL     1     163.602 160.136 181.862  1.00  0.00    -0.550 OA
ATOM     11  O   UNL     1     164.769 162.017 182.451  1.00  0.00    -0.550 OA
ENDBRANCH   8   9
ENDBRANCH   7   8
ENDBRANCH   6   7
ENDBRANCH   5   6
ENDBRANCH   4   5
ENDBRANCH   3   4
ENDBRANCH   2   3
ENDBRANCH   1   2
BRANCH   1  12
ATOM     12  C   UNL     1     162.957 163.656 188.387  1.00  0.00     0.000 C 
BRANCH  12  13
ATOM     13  C   UNL     1     162.008 162.513 188.793  1.00  0.00    -0.000 C 
BRANCH  13  14
ATOM     14  C   UNL     1     162.599 161.122 188.508  1.00  0.00    -0.000 C 
BRANCH  14  15
ATOM     15  C   UNL     1     163.793 161.177 187.541  1.00  0.00    -0.000 C 
BRANCH  15  16
ATOM     16  C   UNL     1     164.948 160.254 187.967  1.00  0.00    -0.000 C 
BRANCH  16  17
ATOM     17  C   UNL     1     165.162 160.197 189.495  1.00  0.00    -0.000 C 
BRANCH  17  18
ATOM     18  C   UNL     1     166.576 160.651 189.899  1.00  0.00    -0.000 C 
BRANCH  18  19
ATOM     19  C   UNL     1     166.615 162.110 190.378  1.00  0.00    -0.003 C 
ATOM     20  C   UNL     1     167.367 163.028 189.414  1.00  0.00     0.004 C 
ENDBRANCH  18  19
ENDBRANCH  17  18
ENDBRANCH  16  17
ENDBRANCH  15  16
ENDBRANCH  14  15
ENDBRANCH  13  14
ENDBRANCH  12  13
ENDBRANCH   1  12
TORSDOF 16
ENDMDL
MODEL 9
REMARK VINA RESULT:    -3.952     12.934     15.690
REMARK INTER + INTRA:          -9.155
REMARK INTER:                  -6.873
REMARK INTRA:                  -2.282
REMARK UNBOUND:                -1.507
REMARK SMILES CCCCCCCCCCCCCCCCCC(=O)[O-]
REMARK SMILES IDX 10 1 11 2 12 3 13 4 14 5 15 6 16 7 17 8 18 9 19 10 20 11
REMARK SMILES IDX 9 12 8 13 7 14 6 15 5 16 4 17 3 18 2 19 1 20
REMARK H PARENT
REMARK Flexibility Score: inf
ROOT
ATOM      1  C   UNL     1     164.594 162.714 188.815  1.00  0.00     0.000 C 
ENDROOT
BRANCH   1   2
ATOM      2  C   UNL     1     166.009 162.410 189.339  1.00  0.00     0.000 C 
BRANCH   2   3
ATOM      3  C   UNL     1     166.206 160.923 189.674  1.00  0.00     0.000 C 
BRANCH   3   4
ATOM      4  C   UNL     1     167.319 160.268 188.835  1.00  0.00     0.000 C 
BRANCH   4   5
ATOM      5  C   UNL     1     167.666 161.078 187.575  1.00  0.00     0.000 C 
BRANCH   5   6
ATOM      6  C   UNL     1     167.083 160.458 186.295  1.00  0.00     0.000 C 
BRANCH   6   7
ATOM      7  C   UNL     1     166.939 161.476 185.147  1.00  0.00     0.006 C 
BRANCH   7   8
ATOM      8  C   UNL     1     165.480 161.789 184.769  1.00  0.00     0.053 C 
BRANCH   8   9
ATOM      9  C   UNL     1     164.734 160.583 184.289  1.00  0.00     0.041 C 
ATOM     10  O   UNL     1     165.196 159.881 183.352  1.00  0.00    -0.550 OA
ATOM     11  O   UNL     1     163.515 160.245 184.864  1.00  0.00    -0.550 OA
ENDBRANCH   8   9
ENDBRANCH   7   8
ENDBRANCH   6   7
ENDBRANCH   5   6
ENDBRANCH   4   5
ENDBRANCH   3   4
ENDBRANCH   2   3
ENDBRANCH   1   2
BRANCH   1  12
ATOM     12  C   UNL     1     163.993 161.539 188.028  1.00  0.00     0.000 C 
BRANCH  12  13
ATOM     13  C   UNL     1     162.654 161.055 188.615  1.00  0.00    -0.000 C 
BRANCH  13  14
ATOM     14  C   UNL     1     161.448 161.454 187.747  1.00  0.00    -0.000 C 
BRANCH  14  15
ATOM     15  C   UNL     1     160.191 161.744 188.583  1.00  0.00    -0.000 C 
BRANCH  15  16
ATOM     16  C   UNL     1     159.969 163.248 188.824  1.00  0.00    -0.000 C 
BRANCH  16  17
ATOM     17  C   UNL     1     160.138 164.110 187.554  1.00  0.00    -0.000 C 
BRANCH  17  18
ATOM     18  C   UNL     1     161.318 165.091 187.673  1.00  0.00    -0.000 C 
BRANCH  18  19
ATOM     19  C   UNL     1     161.953 165.420 186.314  1.00  0.00    -0.003 C 
ATOM     20  C   UNL     1     162.927 164.341 185.840  1.00  0.00     0.004 C 
ENDBRANCH  18  19
ENDBRANCH  17  18
ENDBRANCH  16  17
ENDBRANCH  15  16
ENDBRANCH  14  15
ENDBRANCH  13  14
ENDBRANCH  12  13
ENDBRANCH   1  12
TORSDOF 16
ENDMDL
