MODEL 1
REMARK VINA RESULT:    15.026      0.000      0.000
REMARK INTER + INTRA:          38.120
REMARK INTER:                  39.622
REMARK INTRA:                  -1.502
REMARK UNBOUND:                -1.502
REMARK SMILES CCCCCCCCCCCCCCCCCCCCCCCCCCCCCC(=O)[O-]
REMARK SMILES IDX 16 1 17 2 18 3 19 4 20 5 21 6 22 7 23 8 24 9 25 10 26 11
REMARK SMILES IDX 27 12 28 13 29 14 30 15 31 16 32 17 15 18 14 19 13 20 12 21
REMARK SMILES IDX 11 22 10 23 9 24 8 25 7 26 6 27 5 28 4 29 3 30 2 31 1 32
REMARK H PARENT
REMARK Flexibility Score: inf
ROOT
ATOM      1  C   UNL     1      34.409   9.092  40.125  1.00  0.00     0.000 C 
ENDROOT
BRANCH   1   2
ATOM      2  C   UNL     1      33.129   9.937  40.245  1.00  0.00     0.000 C 
BRANCH   2   3
ATOM      3  C   UNL     1      33.316  11.186  41.128  1.00  0.00     0.000 C 
BRANCH   3   4
ATOM      4  C   UNL     1      33.558  12.483  40.338  1.00  0.00     0.000 C 
BRANCH   4   5
ATOM      5  C   UNL     1      34.775  13.279  40.841  1.00  0.00     0.000 C 
BRANCH   5   6
ATOM      6  C   UNL     1      34.885  13.275  42.381  1.00  0.00     0.000 C 
BRANCH   6   7
ATOM      7  C   UNL     1      36.093  14.065  42.913  1.00  0.00     0.000 C 
BRANCH   7   8
ATOM      8  C   UNL     1      35.712  15.085  44.000  1.00  0.00     0.000 C 
BRANCH   8   9
ATOM      9  C   UNL     1      34.385  15.806  43.686  1.00  0.00     0.000 C 
BRANCH   9  10
ATOM     10  C   UNL     1      34.577  17.189  43.042  1.00  0.00     0.000 C 
BRANCH  10  11
ATOM     11  C   UNL     1      33.522  17.500  41.971  1.00  0.00     0.000 C 
BRANCH  11  12
ATOM     12  C   UNL     1      34.186  17.851  40.633  1.00  0.00     0.000 C 
BRANCH  12  13
ATOM     13  C   UNL     1      33.325  17.462  39.417  1.00  0.00     0.006 C 
BRANCH  13  14
ATOM     14  C   UNL     1      33.117  18.598  38.401  1.00  0.00     0.053 C 
BRANCH  14  15
ATOM     15  C   UNL     1      31.696  18.681  37.935  1.00  0.00     0.041 C 
ATOM     16  O   UNL     1      31.053  19.758  38.056  1.00  0.00    -0.550 OA
ATOM     17  O   UNL     1      31.069  17.562  37.406  1.00  0.00    -0.550 OA
ENDBRANCH  14  15
ENDBRANCH  13  14
ENDBRANCH  12  13
ENDBRANCH  11  12
ENDBRANCH  10  11
ENDBRANCH   9  10
ENDBRANCH   8   9
ENDBRANCH   7   8
ENDBRANCH   6   7
ENDBRANCH   5   6
ENDBRANCH   4   5
ENDBRANCH   3   4
ENDBRANCH   2   3
ENDBRANCH   1   2
BRANCH   1  18
ATOM     18  C   UNL     1      34.122   7.608  39.831  1.00  0.00     0.000 C 
BRANCH  18  19
ATOM     19  C   UNL     1      34.524   6.660  40.980  1.00  0.00     0.000 C 
BRANCH  19  20
ATOM     20  C   UNL     1      33.548   5.483  41.132  1.00  0.00     0.000 C 
BRANCH  20  21
ATOM     21  C   UNL     1      32.214   5.937  41.734  1.00  0.00     0.000 C 
BRANCH  21  22
ATOM     22  C   UNL     1      31.078   4.986  41.328  1.00  0.00     0.000 C 
BRANCH  22  23
ATOM     23  C   UNL     1      29.968   4.906  42.387  1.00  0.00     0.000 C 
BRANCH  23  24
ATOM     24  C   UNL     1      28.918   6.015  42.228  1.00  0.00    -0.000 C 
BRANCH  24  25
ATOM     25  C   UNL     1      29.449   7.149  41.339  1.00  0.00    -0.000 C 
BRANCH  25  26
ATOM     26  C   UNL     1      29.039   6.996  39.863  1.00  0.00    -0.000 C 
BRANCH  26  27
ATOM     27  C   UNL     1      29.424   8.208  38.987  1.00  0.00    -0.000 C 
BRANCH  27  28
ATOM     28  C   UNL     1      28.247   8.699  38.125  1.00  0.00    -0.000 C 
BRANCH  28  29
ATOM     29  C   UNL     1      28.452   8.417  36.628  1.00  0.00    -0.000 C 
BRANCH  29  30
ATOM     30  C   UNL     1      28.569   6.912  36.322  1.00  0.00    -0.000 C 
BRANCH  30  31
ATOM     31  C   UNL     1      27.317   6.128  36.744  1.00  0.00    -0.003 C 
ATOM     32  C   UNL     1      27.608   4.653  37.018  1.00  0.00     0.004 C 
ENDBRANCH  30  31
ENDBRANCH  29  30
ENDBRANCH  28  29
ENDBRANCH  27  28
ENDBRANCH  26  27
ENDBRANCH  25  26
ENDBRANCH  24  25
ENDBRANCH  23  24
ENDBRANCH  22  23
ENDBRANCH  21  22
ENDBRANCH  20  21
ENDBRANCH  19  20
ENDBRANCH  18  19
ENDBRANCH   1  18
TORSDOF 28
ENDMDL
MODEL 2
REMARK VINA RESULT:    15.216      0.839      2.371
REMARK INTER + INTRA:          38.621
REMARK INTER:                  41.081
REMARK INTRA:                  -2.460
REMARK UNBOUND:                -1.502
REMARK SMILES CCCCCCCCCCCCCCCCCCCCCCCCCCCCCC(=O)[O-]
REMARK SMILES IDX 16 1 17 2 18 3 19 4 20 5 21 6 22 7 23 8 24 9 25 10 26 11
REMARK SMILES IDX 27 12 28 13 29 14 30 15 31 16 32 17 15 18 14 19 13 20 12 21
REMARK SMILES IDX 11 22 10 23 9 24 8 25 7 26 6 27 5 28 4 29 3 30 2 31 1 32
REMARK H PARENT
REMARK Flexibility Score: inf
ROOT
ATOM      1  C   UNL     1      33.002  11.330  41.046  1.00  0.00     0.000 C 
ENDROOT
BRANCH   1   2
ATOM      2  C   UNL     1      33.183  12.462  40.019  1.00  0.00     0.000 C 
BRANCH   2   3
ATOM      3  C   UNL     1      34.371  13.387  40.349  1.00  0.00     0.000 C 
BRANCH   3   4
ATOM      4  C   UNL     1      35.382  12.782  41.337  1.00  0.00     0.000 C 
BRANCH   4   5
ATOM      5  C   UNL     1      35.239  13.336  42.765  1.00  0.00     0.000 C 
BRANCH   5   6
ATOM      6  C   UNL     1      36.582  13.837  43.338  1.00  0.00     0.000 C 
BRANCH   6   7
ATOM      7  C   UNL     1      36.454  15.131  44.161  1.00  0.00     0.000 C 
BRANCH   7   8
ATOM      8  C   UNL     1      35.000  15.616  44.295  1.00  0.00     0.000 C 
BRANCH   8   9
ATOM      9  C   UNL     1      34.785  17.003  43.654  1.00  0.00     0.000 C 
BRANCH   9  10
ATOM     10  C   UNL     1      33.690  17.014  42.575  1.00  0.00     0.000 C 
BRANCH  10  11
ATOM     11  C   UNL     1      34.018  17.950  41.402  1.00  0.00     0.000 C 
BRANCH  11  12
ATOM     12  C   UNL     1      33.988  17.189  40.069  1.00  0.00     0.000 C 
BRANCH  12  13
ATOM     13  C   UNL     1      33.568  18.076  38.883  1.00  0.00     0.006 C 
BRANCH  13  14
ATOM     14  C   UNL     1      32.240  18.822  39.092  1.00  0.00     0.053 C 
BRANCH  14  15
ATOM     15  C   UNL     1      31.393  18.818  37.856  1.00  0.00     0.041 C 
ATOM     16  O   UNL     1      30.962  19.902  37.381  1.00  0.00    -0.550 OA
ATOM     17  O   UNL     1      31.045  17.617  37.254  1.00  0.00    -0.550 OA
ENDBRANCH  14  15
ENDBRANCH  13  14
ENDBRANCH  12  13
ENDBRANCH  11  12
ENDBRANCH  10  11
ENDBRANCH   9  10
ENDBRANCH   8   9
ENDBRANCH   7   8
ENDBRANCH   6   7
ENDBRANCH   5   6
ENDBRANCH   4   5
ENDBRANCH   3   4
ENDBRANCH   2   3
ENDBRANCH   1   2
BRANCH   1  18
ATOM     18  C   UNL     1      32.842   9.946  40.390  1.00  0.00     0.000 C 
BRANCH  18  19
ATOM     19  C   UNL     1      34.177   9.316  39.940  1.00  0.00     0.000 C 
BRANCH  19  20
ATOM     20  C   UNL     1      34.143   7.781  39.991  1.00  0.00     0.000 C 
BRANCH  20  21
ATOM     21  C   UNL     1      34.985   7.242  41.153  1.00  0.00     0.000 C 
BRANCH  21  22
ATOM     22  C   UNL     1      34.679   5.758  41.408  1.00  0.00     0.000 C 
BRANCH  22  23
ATOM     23  C   UNL     1      33.282   5.351  40.913  1.00  0.00     0.000 C 
BRANCH  23  24
ATOM     24  C   UNL     1      32.231   5.369  42.033  1.00  0.00    -0.000 C 
BRANCH  24  25
ATOM     25  C   UNL     1      30.846   4.982  41.493  1.00  0.00    -0.000 C 
BRANCH  25  26
ATOM     26  C   UNL     1      29.693   5.612  42.293  1.00  0.00    -0.000 C 
BRANCH  26  27
ATOM     27  C   UNL     1      28.865   6.633  41.483  1.00  0.00    -0.000 C 
BRANCH  27  28
ATOM     28  C   UNL     1      29.543   7.005  40.152  1.00  0.00    -0.000 C 
BRANCH  28  29
ATOM     29  C   UNL     1      29.319   8.477  39.766  1.00  0.00    -0.000 C 
BRANCH  29  30
ATOM     30  C   UNL     1      29.488   8.722  38.255  1.00  0.00    -0.000 C 
BRANCH  30  31
ATOM     31  C   UNL     1      28.190   8.473  37.472  1.00  0.00    -0.003 C 
ATOM     32  C   UNL     1      28.286   7.269  36.536  1.00  0.00     0.004 C 
ENDBRANCH  30  31
ENDBRANCH  29  30
ENDBRANCH  28  29
ENDBRANCH  27  28
ENDBRANCH  26  27
ENDBRANCH  25  26
ENDBRANCH  24  25
ENDBRANCH  23  24
ENDBRANCH  22  23
ENDBRANCH  21  22
ENDBRANCH  20  21
ENDBRANCH  19  20
ENDBRANCH  18  19
ENDBRANCH   1  18
TORSDOF 28
ENDMDL
MODEL 3
REMARK VINA RESULT:    15.499      3.614     10.447
REMARK INTER + INTRA:          39.367
REMARK INTER:                  41.519
REMARK INTRA:                  -2.153
REMARK UNBOUND:                -1.502
REMARK SMILES CCCCCCCCCCCCCCCCCCCCCCCCCCCCCC(=O)[O-]
REMARK SMILES IDX 16 1 17 2 18 3 19 4 20 5 21 6 22 7 23 8 24 9 25 10 26 11
REMARK SMILES IDX 27 12 28 13 29 14 30 15 31 16 32 17 15 18 14 19 13 20 12 21
REMARK SMILES IDX 11 22 10 23 9 24 8 25 7 26 6 27 5 28 4 29 3 30 2 31 1 32
REMARK H PARENT
REMARK Flexibility Score: inf
ROOT
ATOM      1  C   UNL     1      33.122  10.200  39.774  1.00  0.00     0.000 C 
ENDROOT
BRANCH   1   2
ATOM      2  C   UNL     1      34.115   9.025  39.747  1.00  0.00     0.000 C 
BRANCH   2   3
ATOM      3  C   UNL     1      33.810   7.957  40.815  1.00  0.00     0.000 C 
BRANCH   3   4
ATOM      4  C   UNL     1      33.622   6.539  40.249  1.00  0.00     0.000 C 
BRANCH   4   5
ATOM      5  C   UNL     1      33.188   5.516  41.313  1.00  0.00     0.000 C 
BRANCH   5   6
ATOM      6  C   UNL     1      31.701   5.123  41.179  1.00  0.00     0.000 C 
BRANCH   6   7
ATOM      7  C   UNL     1      30.798   5.762  42.249  1.00  0.00     0.000 C 
BRANCH   7   8
ATOM      8  C   UNL     1      29.411   6.151  41.709  1.00  0.00     0.000 C 
BRANCH   8   9
ATOM      9  C   UNL     1      29.419   7.529  41.015  1.00  0.00     0.000 C 
BRANCH   9  10
ATOM     10  C   UNL     1      28.817   7.506  39.600  1.00  0.00     0.000 C 
BRANCH  10  11
ATOM     11  C   UNL     1      29.601   8.371  38.604  1.00  0.00     0.000 C 
BRANCH  11  12
ATOM     12  C   UNL     1      28.666   8.967  37.542  1.00  0.00     0.000 C 
BRANCH  12  13
ATOM     13  C   UNL     1      27.646   7.946  37.002  1.00  0.00     0.006 C 
BRANCH  13  14
ATOM     14  C   UNL     1      28.279   6.673  36.416  1.00  0.00     0.053 C 
BRANCH  14  15
ATOM     15  C   UNL     1      27.532   5.438  36.818  1.00  0.00     0.041 C 
ATOM     16  O   UNL     1      28.148   4.353  36.984  1.00  0.00    -0.550 OA
ATOM     17  O   UNL     1      26.153   5.476  36.967  1.00  0.00    -0.550 OA
ENDBRANCH  14  15
ENDBRANCH  13  14
ENDBRANCH  12  13
ENDBRANCH  11  12
ENDBRANCH  10  11
ENDBRANCH   9  10
ENDBRANCH   8   9
ENDBRANCH   7   8
ENDBRANCH   6   7
ENDBRANCH   5   6
ENDBRANCH   4   5
ENDBRANCH   3   4
ENDBRANCH   2   3
ENDBRANCH   1   2
BRANCH   1  18
ATOM     18  C   UNL     1      32.627  10.534  41.193  1.00  0.00     0.000 C 
BRANCH  18  19
ATOM     19  C   UNL     1      33.330  11.755  41.823  1.00  0.00     0.000 C 
BRANCH  19  20
ATOM     20  C   UNL     1      34.072  12.602  40.779  1.00  0.00     0.000 C 
BRANCH  20  21
ATOM     21  C   UNL     1      35.396  13.140  41.335  1.00  0.00     0.000 C 
BRANCH  21  22
ATOM     22  C   UNL     1      35.294  13.381  42.849  1.00  0.00     0.000 C 
BRANCH  22  23
ATOM     23  C   UNL     1      36.061  14.635  43.299  1.00  0.00     0.000 C 
BRANCH  23  24
ATOM     24  C   UNL     1      35.252  15.503  44.276  1.00  0.00    -0.000 C 
BRANCH  24  25
ATOM     25  C   UNL     1      34.846  16.831  43.622  1.00  0.00    -0.000 C 
BRANCH  25  26
ATOM     26  C   UNL     1      33.976  16.640  42.367  1.00  0.00    -0.000 C 
BRANCH  26  27
ATOM     27  C   UNL     1      34.126  17.778  41.333  1.00  0.00    -0.000 C 
BRANCH  27  28
ATOM     28  C   UNL     1      33.702  17.337  39.920  1.00  0.00    -0.000 C 
BRANCH  28  29
ATOM     29  C   UNL     1      33.222  18.514  39.053  1.00  0.00    -0.000 C 
BRANCH  29  30
ATOM     30  C   UNL     1      32.238  18.073  37.954  1.00  0.00    -0.000 C 
BRANCH  30  31
ATOM     31  C   UNL     1      30.997  18.977  37.881  1.00  0.00    -0.003 C 
ATOM     32  C   UNL     1      31.283  20.319  37.208  1.00  0.00     0.004 C 
ENDBRANCH  30  31
ENDBRANCH  29  30
ENDBRANCH  28  29
ENDBRANCH  27  28
ENDBRANCH  26  27
ENDBRANCH  25  26
ENDBRANCH  24  25
ENDBRANCH  23  24
ENDBRANCH  22  23
ENDBRANCH  21  22
ENDBRANCH  20  21
ENDBRANCH  19  20
ENDBRANCH  18  19
ENDBRANCH   1  18
TORSDOF 28
ENDMDL
MODEL 4
REMARK VINA RESULT:    15.519      2.978     10.123
REMARK INTER + INTRA:          39.418
REMARK INTER:                  41.303
REMARK INTRA:                  -1.884
REMARK UNBOUND:                -1.502
REMARK SMILES CCCCCCCCCCCCCCCCCCCCCCCCCCCCCC(=O)[O-]
REMARK SMILES IDX 16 1 17 2 18 3 19 4 20 5 21 6 22 7 23 8 24 9 25 10 26 11
REMARK SMILES IDX 27 12 28 13 29 14 30 15 31 16 32 17 15 18 14 19 13 20 12 21
REMARK SMILES IDX 11 22 10 23 9 24 8 25 7 26 6 27 5 28 4 29 3 30 2 31 1 32
REMARK H PARENT
REMARK Flexibility Score: inf
ROOT
ATOM      1  C   UNL     1      32.614  10.307  41.132  1.00  0.00     0.000 C 
ENDROOT
BRANCH   1   2
ATOM      2  C   UNL     1      33.084   9.896  39.726  1.00  0.00     0.000 C 
BRANCH   2   3
ATOM      3  C   UNL     1      34.465   9.212  39.731  1.00  0.00     0.000 C 
BRANCH   3   4
ATOM      4  C   UNL     1      34.577   8.029  40.707  1.00  0.00     0.000 C 
BRANCH   4   5
ATOM      5  C   UNL     1      33.952   6.734  40.162  1.00  0.00     0.000 C 
BRANCH   5   6
ATOM      6  C   UNL     1      33.945   5.599  41.208  1.00  0.00     0.000 C 
BRANCH   6   7
ATOM      7  C   UNL     1      32.572   4.923  41.373  1.00  0.00     0.000 C 
BRANCH   7   8
ATOM      8  C   UNL     1      31.468   5.906  41.802  1.00  0.00     0.000 C 
BRANCH   8   9
ATOM      9  C   UNL     1      30.143   5.188  42.133  1.00  0.00     0.000 C 
BRANCH   9  10
ATOM     10  C   UNL     1      28.895   6.022  41.798  1.00  0.00     0.000 C 
BRANCH  10  11
ATOM     11  C   UNL     1      29.237   7.428  41.284  1.00  0.00     0.000 C 
BRANCH  11  12
ATOM     12  C   UNL     1      29.590   7.393  39.790  1.00  0.00     0.000 C 
BRANCH  12  13
ATOM     13  C   UNL     1      28.874   8.491  38.981  1.00  0.00     0.006 C 
BRANCH  13  14
ATOM     14  C   UNL     1      29.152   8.443  37.469  1.00  0.00     0.053 C 
BRANCH  14  15
ATOM     15  C   UNL     1      28.134   7.623  36.737  1.00  0.00     0.041 C 
ATOM     16  O   UNL     1      28.303   6.383  36.597  1.00  0.00    -0.550 OA
ATOM     17  O   UNL     1      27.023   8.234  36.173  1.00  0.00    -0.550 OA
ENDBRANCH  14  15
ENDBRANCH  13  14
ENDBRANCH  12  13
ENDBRANCH  11  12
ENDBRANCH  10  11
ENDBRANCH   9  10
ENDBRANCH   8   9
ENDBRANCH   7   8
ENDBRANCH   6   7
ENDBRANCH   5   6
ENDBRANCH   4   5
ENDBRANCH   3   4
ENDBRANCH   2   3
ENDBRANCH   1   2
BRANCH   1  18
ATOM     18  C   UNL     1      33.006  11.750  41.498  1.00  0.00     0.000 C 
BRANCH  18  19
ATOM     19  C   UNL     1      33.874  12.445  40.428  1.00  0.00     0.000 C 
BRANCH  19  20
ATOM     20  C   UNL     1      35.032  13.243  41.046  1.00  0.00     0.000 C 
BRANCH  20  21
ATOM     21  C   UNL     1      34.933  13.276  42.576  1.00  0.00     0.000 C 
BRANCH  21  22
ATOM     22  C   UNL     1      36.293  13.616  43.205  1.00  0.00     0.000 C 
BRANCH  22  23
ATOM     23  C   UNL     1      36.349  15.051  43.750  1.00  0.00     0.000 C 
BRANCH  23  24
ATOM     24  C   UNL     1      34.983  15.548  44.247  1.00  0.00    -0.000 C 
BRANCH  24  25
ATOM     25  C   UNL     1      34.577  16.844  43.532  1.00  0.00    -0.000 C 
BRANCH  25  26
ATOM     26  C   UNL     1      34.094  16.608  42.090  1.00  0.00    -0.000 C 
BRANCH  26  27
ATOM     27  C   UNL     1      34.030  17.896  41.241  1.00  0.00    -0.000 C 
BRANCH  27  28
ATOM     28  C   UNL     1      33.723  17.601  39.761  1.00  0.00    -0.000 C 
BRANCH  28  29
ATOM     29  C   UNL     1      32.632  18.521  39.189  1.00  0.00    -0.000 C 
BRANCH  29  30
ATOM     30  C   UNL     1      32.028  17.977  37.881  1.00  0.00    -0.000 C 
BRANCH  30  31
ATOM     31  C   UNL     1      31.112  18.998  37.189  1.00  0.00    -0.003 C 
ATOM     32  C   UNL     1      30.902  20.263  38.021  1.00  0.00     0.004 C 
ENDBRANCH  30  31
ENDBRANCH  29  30
ENDBRANCH  28  29
ENDBRANCH  27  28
ENDBRANCH  26  27
ENDBRANCH  25  26
ENDBRANCH  24  25
ENDBRANCH  23  24
ENDBRANCH  22  23
ENDBRANCH  21  22
ENDBRANCH  20  21
ENDBRANCH  19  20
ENDBRANCH  18  19
ENDBRANCH   1  18
TORSDOF 28
ENDMDL
MODEL 5
REMARK VINA RESULT:    15.531      1.297      2.385
REMARK INTER + INTRA:          39.451
REMARK INTER:                  41.648
REMARK INTRA:                  -2.197
REMARK UNBOUND:                -1.502
REMARK SMILES CCCCCCCCCCCCCCCCCCCCCCCCCCCCCC(=O)[O-]
REMARK SMILES IDX 16 1 17 2 18 3 19 4 20 5 21 6 22 7 23 8 24 9 25 10 26 11
REMARK SMILES IDX 27 12 28 13 29 14 30 15 31 16 32 17 15 18 14 19 13 20 12 21
REMARK SMILES IDX 11 22 10 23 9 24 8 25 7 26 6 27 5 28 4 29 3 30 2 31 1 32
REMARK H PARENT
REMARK Flexibility Score: inf
ROOT
ATOM      1  C   UNL     1      33.357  11.310  41.023  1.00  0.00     0.000 C 
ENDROOT
BRANCH   1   2
ATOM      2  C   UNL     1      33.422  12.455  39.998  1.00  0.00     0.000 C 
BRANCH   2   3
ATOM      3  C   UNL     1      34.426  13.557  40.391  1.00  0.00     0.000 C 
BRANCH   3   4
ATOM      4  C   UNL     1      35.529  13.086  41.354  1.00  0.00     0.000 C 
BRANCH   4   5
ATOM      5  C   UNL     1      35.271  13.492  42.815  1.00  0.00     0.000 C 
BRANCH   5   6
ATOM      6  C   UNL     1      36.464  14.251  43.434  1.00  0.00     0.000 C 
BRANCH   6   7
ATOM      7  C   UNL     1      36.147  15.717  43.778  1.00  0.00     0.000 C 
BRANCH   7   8
ATOM      8  C   UNL     1      34.802  15.886  44.505  1.00  0.00     0.000 C 
BRANCH   8   9
ATOM      9  C   UNL     1      33.730  16.537  43.606  1.00  0.00     0.000 C 
BRANCH   9  10
ATOM     10  C   UNL     1      34.301  17.576  42.627  1.00  0.00     0.000 C 
BRANCH  10  11
ATOM     11  C   UNL     1      33.467  17.710  41.345  1.00  0.00     0.000 C 
BRANCH  11  12
ATOM     12  C   UNL     1      34.365  17.668  40.101  1.00  0.00     0.000 C 
BRANCH  12  13
ATOM     13  C   UNL     1      33.605  17.998  38.803  1.00  0.00     0.006 C 
BRANCH  13  14
ATOM     14  C   UNL     1      32.355  18.870  39.008  1.00  0.00     0.053 C 
BRANCH  14  15
ATOM     15  C   UNL     1      31.440  18.829  37.823  1.00  0.00     0.041 C 
ATOM     16  O   UNL     1      31.060  19.900  37.280  1.00  0.00    -0.550 OA
ATOM     17  O   UNL     1      30.974  17.612  37.345  1.00  0.00    -0.550 OA
ENDBRANCH  14  15
ENDBRANCH  13  14
ENDBRANCH  12  13
ENDBRANCH  11  12
ENDBRANCH  10  11
ENDBRANCH   9  10
ENDBRANCH   8   9
ENDBRANCH   7   8
ENDBRANCH   6   7
ENDBRANCH   5   6
ENDBRANCH   4   5
ENDBRANCH   3   4
ENDBRANCH   2   3
ENDBRANCH   1   2
BRANCH   1  18
ATOM     18  C   UNL     1      33.696   9.939  40.412  1.00  0.00     0.000 C 
BRANCH  18  19
ATOM     19  C   UNL     1      32.482   9.224  39.781  1.00  0.00     0.000 C 
BRANCH  19  20
ATOM     20  C   UNL     1      31.300   9.114  40.757  1.00  0.00     0.000 C 
BRANCH  20  21
ATOM     21  C   UNL     1      31.016   7.654  41.126  1.00  0.00     0.000 C 
BRANCH  21  22
ATOM     22  C   UNL     1      29.542   7.466  41.516  1.00  0.00     0.000 C 
BRANCH  22  23
ATOM     23  C   UNL     1      29.288   6.134  42.240  1.00  0.00     0.000 C 
BRANCH  23  24
ATOM     24  C   UNL     1      28.574   5.106  41.350  1.00  0.00    -0.000 C 
BRANCH  24  25
ATOM     25  C   UNL     1      28.922   5.325  39.870  1.00  0.00    -0.000 C 
BRANCH  25  26
ATOM     26  C   UNL     1      27.711   5.148  38.937  1.00  0.00    -0.000 C 
BRANCH  26  27
ATOM     27  C   UNL     1      27.951   4.132  37.800  1.00  0.00    -0.000 C 
BRANCH  27  28
ATOM     28  C   UNL     1      27.518   4.682  36.429  1.00  0.00    -0.000 C 
BRANCH  28  29
ATOM     29  C   UNL     1      27.131   6.169  36.484  1.00  0.00    -0.000 C 
BRANCH  29  30
ATOM     30  C   UNL     1      28.319   7.100  36.178  1.00  0.00    -0.000 C 
BRANCH  30  31
ATOM     31  C   UNL     1      28.140   8.500  36.787  1.00  0.00    -0.003 C 
ATOM     32  C   UNL     1      28.927   8.684  38.084  1.00  0.00     0.004 C 
ENDBRANCH  30  31
ENDBRANCH  29  30
ENDBRANCH  28  29
ENDBRANCH  27  28
ENDBRANCH  26  27
ENDBRANCH  25  26
ENDBRANCH  24  25
ENDBRANCH  23  24
ENDBRANCH  22  23
ENDBRANCH  21  22
ENDBRANCH  20  21
ENDBRANCH  19  20
ENDBRANCH  18  19
ENDBRANCH   1  18
TORSDOF 28
ENDMDL
MODEL 6
REMARK VINA RESULT:    15.569      3.772     11.045
REMARK INTER + INTRA:          39.551
REMARK INTER:                  41.397
REMARK INTRA:                  -1.846
REMARK UNBOUND:                -1.502
REMARK SMILES CCCCCCCCCCCCCCCCCCCCCCCCCCCCCC(=O)[O-]
REMARK SMILES IDX 16 1 17 2 18 3 19 4 20 5 21 6 22 7 23 8 24 9 25 10 26 11
REMARK SMILES IDX 27 12 28 13 29 14 30 15 31 16 32 17 15 18 14 19 13 20 12 21
REMARK SMILES IDX 11 22 10 23 9 24 8 25 7 26 6 27 5 28 4 29 3 30 2 31 1 32
REMARK H PARENT
REMARK Flexibility Score: inf
ROOT
ATOM      1  C   UNL     1      33.084  10.625  41.436  1.00  0.00     0.000 C 
ENDROOT
BRANCH   1   2
ATOM      2  C   UNL     1      33.954  10.007  40.327  1.00  0.00     0.000 C 
BRANCH   2   3
ATOM      3  C   UNL     1      33.125   9.305  39.234  1.00  0.00     0.000 C 
BRANCH   3   4
ATOM      4  C   UNL     1      31.615   9.260  39.524  1.00  0.00     0.000 C 
BRANCH   4   5
ATOM      5  C   UNL     1      30.751   9.422  38.261  1.00  0.00     0.000 C 
BRANCH   5   6
ATOM      6  C   UNL     1      29.311   8.905  38.463  1.00  0.00     0.000 C 
BRANCH   6   7
ATOM      7  C   UNL     1      28.305   9.475  37.448  1.00  0.00     0.000 C 
BRANCH   7   8
ATOM      8  C   UNL     1      27.669   8.391  36.560  1.00  0.00     0.000 C 
BRANCH   8   9
ATOM      9  C   UNL     1      28.504   7.095  36.531  1.00  0.00     0.000 C 
BRANCH   9  10
ATOM     10  C   UNL     1      27.695   5.854  36.118  1.00  0.00     0.000 C 
BRANCH  10  11
ATOM     11  C   UNL     1      27.319   4.963  37.310  1.00  0.00     0.000 C 
BRANCH  11  12
ATOM     12  C   UNL     1      28.499   4.821  38.282  1.00  0.00     0.000 C 
BRANCH  12  13
ATOM     13  C   UNL     1      28.205   5.417  39.671  1.00  0.00     0.006 C 
BRANCH  13  14
ATOM     14  C   UNL     1      29.453   5.910  40.423  1.00  0.00     0.053 C 
BRANCH  14  15
ATOM     15  C   UNL     1      29.351   5.669  41.898  1.00  0.00     0.041 C 
ATOM     16  O   UNL     1      30.395   5.578  42.597  1.00  0.00    -0.550 OA
ATOM     17  O   UNL     1      28.109   5.503  42.493  1.00  0.00    -0.550 OA
ENDBRANCH  14  15
ENDBRANCH  13  14
ENDBRANCH  12  13
ENDBRANCH  11  12
ENDBRANCH  10  11
ENDBRANCH   9  10
ENDBRANCH   8   9
ENDBRANCH   7   8
ENDBRANCH   6   7
ENDBRANCH   5   6
ENDBRANCH   4   5
ENDBRANCH   3   4
ENDBRANCH   2   3
ENDBRANCH   1   2
BRANCH   1  18
ATOM     18  C   UNL     1      32.807  12.123  41.214  1.00  0.00     0.000 C 
BRANCH  18  19
ATOM     19  C   UNL     1      33.868  12.827  40.343  1.00  0.00     0.000 C 
BRANCH  19  20
ATOM     20  C   UNL     1      35.206  12.995  41.079  1.00  0.00     0.000 C 
BRANCH  20  21
ATOM     21  C   UNL     1      34.998  13.538  42.498  1.00  0.00     0.000 C 
BRANCH  21  22
ATOM     22  C   UNL     1      36.320  14.059  43.083  1.00  0.00     0.000 C 
BRANCH  22  23
ATOM     23  C   UNL     1      36.112  14.903  44.350  1.00  0.00     0.000 C 
BRANCH  23  24
ATOM     24  C   UNL     1      35.612  16.321  44.039  1.00  0.00    -0.000 C 
BRANCH  24  25
ATOM     25  C   UNL     1      34.214  16.284  43.405  1.00  0.00    -0.000 C 
BRANCH  25  26
ATOM     26  C   UNL     1      33.972  17.439  42.418  1.00  0.00    -0.000 C 
BRANCH  26  27
ATOM     27  C   UNL     1      33.958  16.995  40.939  1.00  0.00    -0.000 C 
BRANCH  27  28
ATOM     28  C   UNL     1      34.116  18.184  39.974  1.00  0.00    -0.000 C 
BRANCH  28  29
ATOM     29  C   UNL     1      33.125  18.129  38.800  1.00  0.00    -0.000 C 
BRANCH  29  30
ATOM     30  C   UNL     1      32.168  19.335  38.779  1.00  0.00    -0.000 C 
BRANCH  30  31
ATOM     31  C   UNL     1      31.110  19.226  37.670  1.00  0.00    -0.003 C 
ATOM     32  C   UNL     1      31.017  17.819  37.080  1.00  0.00     0.004 C 
ENDBRANCH  30  31
ENDBRANCH  29  30
ENDBRANCH  28  29
ENDBRANCH  27  28
ENDBRANCH  26  27
ENDBRANCH  25  26
ENDBRANCH  24  25
ENDBRANCH  23  24
ENDBRANCH  22  23
ENDBRANCH  21  22
ENDBRANCH  20  21
ENDBRANCH  19  20
ENDBRANCH  18  19
ENDBRANCH   1  18
TORSDOF 28
ENDMDL
MODEL 7
REMARK VINA RESULT:    15.626      3.294     10.952
REMARK INTER + INTRA:          39.703
REMARK INTER:                  42.235
REMARK INTRA:                  -2.532
REMARK UNBOUND:                -1.502
REMARK SMILES CCCCCCCCCCCCCCCCCCCCCCCCCCCCCC(=O)[O-]
REMARK SMILES IDX 16 1 17 2 18 3 19 4 20 5 21 6 22 7 23 8 24 9 25 10 26 11
REMARK SMILES IDX 27 12 28 13 29 14 30 15 31 16 32 17 15 18 14 19 13 20 12 21
REMARK SMILES IDX 11 22 10 23 9 24 8 25 7 26 6 27 5 28 4 29 3 30 2 31 1 32
REMARK H PARENT
REMARK Flexibility Score: inf
ROOT
ATOM      1  C   UNL     1      32.745  12.134  41.330  1.00  0.00     0.000 C 
ENDROOT
BRANCH   1   2
ATOM      2  C   UNL     1      32.916  10.610  41.465  1.00  0.00     0.000 C 
BRANCH   2   3
ATOM      3  C   UNL     1      33.691   9.987  40.288  1.00  0.00     0.000 C 
BRANCH   3   4
ATOM      4  C   UNL     1      32.824   9.131  39.349  1.00  0.00     0.000 C 
BRANCH   4   5
ATOM      5  C   UNL     1      31.326   9.473  39.428  1.00  0.00     0.000 C 
BRANCH   5   6
ATOM      6  C   UNL     1      30.609   9.289  38.074  1.00  0.00     0.000 C 
BRANCH   6   7
ATOM      7  C   UNL     1      29.251   8.573  38.190  1.00  0.00     0.000 C 
BRANCH   7   8
ATOM      8  C   UNL     1      28.410   8.671  36.905  1.00  0.00     0.000 C 
BRANCH   8   9
ATOM      9  C   UNL     1      28.194   7.295  36.241  1.00  0.00     0.000 C 
BRANCH   9  10
ATOM     10  C   UNL     1      27.237   6.382  37.025  1.00  0.00     0.000 C 
BRANCH  10  11
ATOM     11  C   UNL     1      27.683   4.913  37.029  1.00  0.00     0.000 C 
BRANCH  11  12
ATOM     12  C   UNL     1      28.755   4.669  38.100  1.00  0.00     0.000 C 
BRANCH  12  13
ATOM     13  C   UNL     1      28.428   5.353  39.441  1.00  0.00     0.006 C 
BRANCH  13  14
ATOM     14  C   UNL     1      29.619   5.445  40.409  1.00  0.00     0.053 C 
BRANCH  14  15
ATOM     15  C   UNL     1      29.266   6.181  41.665  1.00  0.00     0.041 C 
ATOM     16  O   UNL     1      28.884   5.546  42.684  1.00  0.00    -0.550 OA
ATOM     17  O   UNL     1      29.318   7.567  41.699  1.00  0.00    -0.550 OA
ENDBRANCH  14  15
ENDBRANCH  13  14
ENDBRANCH  12  13
ENDBRANCH  11  12
ENDBRANCH  10  11
ENDBRANCH   9  10
ENDBRANCH   8   9
ENDBRANCH   7   8
ENDBRANCH   6   7
ENDBRANCH   5   6
ENDBRANCH   4   5
ENDBRANCH   3   4
ENDBRANCH   2   3
ENDBRANCH   1   2
BRANCH   1  18
ATOM     18  C   UNL     1      33.489  12.714  40.114  1.00  0.00     0.000 C 
BRANCH  18  19
ATOM     19  C   UNL     1      34.669  13.635  40.492  1.00  0.00     0.000 C 
BRANCH  19  20
ATOM     20  C   UNL     1      35.629  12.971  41.491  1.00  0.00     0.000 C 
BRANCH  20  21
ATOM     21  C   UNL     1      35.300  13.373  42.933  1.00  0.00     0.000 C 
BRANCH  21  22
ATOM     22  C   UNL     1      36.466  14.152  43.562  1.00  0.00     0.000 C 
BRANCH  22  23
ATOM     23  C   UNL     1      36.055  15.559  44.023  1.00  0.00     0.000 C 
BRANCH  23  24
ATOM     24  C   UNL     1      34.531  15.737  44.088  1.00  0.00    -0.000 C 
BRANCH  24  25
ATOM     25  C   UNL     1      34.112  17.092  43.497  1.00  0.00    -0.000 C 
BRANCH  25  26
ATOM     26  C   UNL     1      34.573  17.279  42.041  1.00  0.00    -0.000 C 
BRANCH  26  27
ATOM     27  C   UNL     1      33.419  17.588  41.063  1.00  0.00    -0.000 C 
BRANCH  27  28
ATOM     28  C   UNL     1      33.895  17.634  39.600  1.00  0.00    -0.000 C 
BRANCH  28  29
ATOM     29  C   UNL     1      33.100  18.640  38.751  1.00  0.00    -0.000 C 
BRANCH  29  30
ATOM     30  C   UNL     1      31.986  17.968  37.928  1.00  0.00    -0.000 C 
BRANCH  30  31
ATOM     31  C   UNL     1      30.843  18.936  37.587  1.00  0.00    -0.003 C 
ATOM     32  C   UNL     1      31.275  20.401  37.637  1.00  0.00     0.004 C 
ENDBRANCH  30  31
ENDBRANCH  29  30
ENDBRANCH  28  29
ENDBRANCH  27  28
ENDBRANCH  26  27
ENDBRANCH  25  26
ENDBRANCH  24  25
ENDBRANCH  23  24
ENDBRANCH  22  23
ENDBRANCH  21  22
ENDBRANCH  20  21
ENDBRANCH  19  20
ENDBRANCH  18  19
ENDBRANCH   1  18
TORSDOF 28
ENDMDL
MODEL 8
REMARK VINA RESULT:    15.653      2.602     10.519
REMARK INTER + INTRA:          39.772
REMARK INTER:                  41.293
REMARK INTRA:                  -1.521
REMARK UNBOUND:                -1.502
REMARK SMILES CCCCCCCCCCCCCCCCCCCCCCCCCCCCCC(=O)[O-]
REMARK SMILES IDX 16 1 17 2 18 3 19 4 20 5 21 6 22 7 23 8 24 9 25 10 26 11
REMARK SMILES IDX 27 12 28 13 29 14 30 15 31 16 32 17 15 18 14 19 13 20 12 21
REMARK SMILES IDX 11 22 10 23 9 24 8 25 7 26 6 27 5 28 4 29 3 30 2 31 1 32
REMARK H PARENT
REMARK Flexibility Score: inf
ROOT
ATOM      1  C   UNL     1      34.319  10.346  40.866  1.00  0.00     0.000 C 
ENDROOT
BRANCH   1   2
ATOM      2  C   UNL     1      33.705   9.206  40.035  1.00  0.00     0.000 C 
BRANCH   2   3
ATOM      3  C   UNL     1      32.244   9.480  39.629  1.00  0.00     0.000 C 
BRANCH   3   4
ATOM      4  C   UNL     1      31.225   9.257  40.760  1.00  0.00     0.000 C 
BRANCH   4   5
ATOM      5  C   UNL     1      30.817   7.783  40.924  1.00  0.00     0.000 C 
BRANCH   5   6
ATOM      6  C   UNL     1      29.507   7.622  41.724  1.00  0.00     0.000 C 
BRANCH   6   7
ATOM      7  C   UNL     1      29.108   6.154  41.961  1.00  0.00     0.000 C 
BRANCH   7   8
ATOM      8  C   UNL     1      29.396   5.251  40.749  1.00  0.00     0.000 C 
BRANCH   8   9
ATOM      9  C   UNL     1      28.316   5.379  39.654  1.00  0.00     0.000 C 
BRANCH   9  10
ATOM     10  C   UNL     1      28.802   4.946  38.261  1.00  0.00     0.000 C 
BRANCH  10  11
ATOM     11  C   UNL     1      27.659   4.482  37.348  1.00  0.00     0.000 C 
BRANCH  11  12
ATOM     12  C   UNL     1      27.360   5.532  36.269  1.00  0.00     0.000 C 
BRANCH  12  13
ATOM     13  C   UNL     1      28.302   6.749  36.340  1.00  0.00     0.006 C 
BRANCH  13  14
ATOM     14  C   UNL     1      27.578   8.105  36.372  1.00  0.00     0.053 C 
BRANCH  14  15
ATOM     15  C   UNL     1      28.239   9.072  37.306  1.00  0.00     0.041 C 
ATOM     16  O   UNL     1      27.922  10.291  37.282  1.00  0.00    -0.550 OA
ATOM     17  O   UNL     1      29.232   8.636  38.172  1.00  0.00    -0.550 OA
ENDBRANCH  14  15
ENDBRANCH  13  14
ENDBRANCH  12  13
ENDBRANCH  11  12
ENDBRANCH  10  11
ENDBRANCH   9  10
ENDBRANCH   8   9
ENDBRANCH   7   8
ENDBRANCH   6   7
ENDBRANCH   5   6
ENDBRANCH   4   5
ENDBRANCH   3   4
ENDBRANCH   2   3
ENDBRANCH   1   2
BRANCH   1  18
ATOM     18  C   UNL     1      33.398  11.575  40.971  1.00  0.00     0.000 C 
BRANCH  18  19
ATOM     19  C   UNL     1      33.786  12.724  40.016  1.00  0.00     0.000 C 
BRANCH  19  20
ATOM     20  C   UNL     1      34.540  13.851  40.738  1.00  0.00     0.000 C 
BRANCH  20  21
ATOM     21  C   UNL     1      35.710  13.302  41.562  1.00  0.00     0.000 C 
BRANCH  21  22
ATOM     22  C   UNL     1      35.430  13.438  43.067  1.00  0.00     0.000 C 
BRANCH  22  23
ATOM     23  C   UNL     1      35.991  14.741  43.656  1.00  0.00     0.000 C 
BRANCH  23  24
ATOM     24  C   UNL     1      34.886  15.720  44.083  1.00  0.00    -0.000 C 
BRANCH  24  25
ATOM     25  C   UNL     1      35.027  17.061  43.348  1.00  0.00    -0.000 C 
BRANCH  25  26
ATOM     26  C   UNL     1      33.795  17.408  42.494  1.00  0.00    -0.000 C 
BRANCH  26  27
ATOM     27  C   UNL     1      34.046  17.294  40.974  1.00  0.00    -0.000 C 
BRANCH  27  28
ATOM     28  C   UNL     1      33.007  18.079  40.153  1.00  0.00    -0.000 C 
BRANCH  28  29
ATOM     29  C   UNL     1      33.501  18.410  38.735  1.00  0.00    -0.000 C 
BRANCH  29  30
ATOM     30  C   UNL     1      32.461  18.064  37.653  1.00  0.00    -0.000 C 
BRANCH  30  31
ATOM     31  C   UNL     1      31.128  18.799  37.866  1.00  0.00    -0.003 C 
ATOM     32  C   UNL     1      31.268  20.317  37.760  1.00  0.00     0.004 C 
ENDBRANCH  30  31
ENDBRANCH  29  30
ENDBRANCH  28  29
ENDBRANCH  27  28
ENDBRANCH  26  27
ENDBRANCH  25  26
ENDBRANCH  24  25
ENDBRANCH  23  24
ENDBRANCH  22  23
ENDBRANCH  21  22
ENDBRANCH  20  21
ENDBRANCH  19  20
ENDBRANCH  18  19
ENDBRANCH   1  18
TORSDOF 28
ENDMDL
MODEL 9
REMARK VINA RESULT:    15.982      2.331     10.382
REMARK INTER + INTRA:          40.641
REMARK INTER:                  42.601
REMARK INTRA:                  -1.960
REMARK UNBOUND:                -1.502
REMARK SMILES CCCCCCCCCCCCCCCCCCCCCCCCCCCCCC(=O)[O-]
REMARK SMILES IDX 16 1 17 2 18 3 19 4 20 5 21 6 22 7 23 8 24 9 25 10 26 11
REMARK SMILES IDX 27 12 28 13 29 14 30 15 31 16 32 17 15 18 14 19 13 20 12 21
REMARK SMILES IDX 11 22 10 23 9 24 8 25 7 26 6 27 5 28 4 29 3 30 2 31 1 32
REMARK H PARENT
REMARK Flexibility Score: inf
ROOT
ATOM      1  C   UNL     1      33.920   9.093  39.700  1.00  0.00     0.000 C 
ENDROOT
BRANCH   1   2
ATOM      2  C   UNL     1      34.283   7.989  40.708  1.00  0.00     0.000 C 
BRANCH   2   3
ATOM      3  C   UNL     1      33.733   6.606  40.307  1.00  0.00     0.000 C 
BRANCH   3   4
ATOM      4  C   UNL     1      33.176   5.786  41.483  1.00  0.00     0.000 C 
BRANCH   4   5
ATOM      5  C   UNL     1      31.900   5.004  41.125  1.00  0.00     0.000 C 
BRANCH   5   6
ATOM      6  C   UNL     1      30.734   5.310  42.090  1.00  0.00     0.000 C 
BRANCH   6   7
ATOM      7  C   UNL     1      29.739   6.348  41.540  1.00  0.00     0.000 C 
BRANCH   7   8
ATOM      8  C   UNL     1      28.537   5.707  40.825  1.00  0.00     0.000 C 
BRANCH   8   9
ATOM      9  C   UNL     1      28.839   5.387  39.346  1.00  0.00     0.000 C 
BRANCH   9  10
ATOM     10  C   UNL     1      27.709   4.617  38.643  1.00  0.00     0.000 C 
BRANCH  10  11
ATOM     11  C   UNL     1      27.928   4.486  37.129  1.00  0.00     0.000 C 
BRANCH  11  12
ATOM     12  C   UNL     1      27.317   5.680  36.382  1.00  0.00     0.000 C 
BRANCH  12  13
ATOM     13  C   UNL     1      28.240   6.913  36.367  1.00  0.00     0.006 C 
BRANCH  13  14
ATOM     14  C   UNL     1      27.523   8.241  36.662  1.00  0.00     0.053 C 
BRANCH  14  15
ATOM     15  C   UNL     1      28.411   9.213  37.376  1.00  0.00     0.041 C 
ATOM     16  O   UNL     1      29.254   8.799  38.216  1.00  0.00    -0.550 OA
ATOM     17  O   UNL     1      28.281  10.575  37.148  1.00  0.00    -0.550 OA
ENDBRANCH  14  15
ENDBRANCH  13  14
ENDBRANCH  12  13
ENDBRANCH  11  12
ENDBRANCH  10  11
ENDBRANCH   9  10
ENDBRANCH   8   9
ENDBRANCH   7   8
ENDBRANCH   6   7
ENDBRANCH   5   6
ENDBRANCH   4   5
ENDBRANCH   3   4
ENDBRANCH   2   3
ENDBRANCH   1   2
BRANCH   1  18
ATOM     18  C   UNL     1      32.574   9.772  40.013  1.00  0.00     0.000 C 
BRANCH  18  19
ATOM     19  C   UNL     1      32.660  10.829  41.134  1.00  0.00     0.000 C 
BRANCH  19  20
ATOM     20  C   UNL     1      34.088  11.364  41.322  1.00  0.00     0.000 C 
BRANCH  20  21
ATOM     21  C   UNL     1      34.316  12.644  40.510  1.00  0.00     0.000 C 
BRANCH  21  22
ATOM     22  C   UNL     1      35.294  13.583  41.233  1.00  0.00     0.000 C 
BRANCH  22  23
ATOM     23  C   UNL     1      35.036  13.650  42.746  1.00  0.00     0.000 C 
BRANCH  23  24
ATOM     24  C   UNL     1      36.183  14.329  43.511  1.00  0.00    -0.000 C 
BRANCH  24  25
ATOM     25  C   UNL     1      35.819  15.776  43.874  1.00  0.00    -0.000 C 
BRANCH  25  26
ATOM     26  C   UNL     1      34.304  16.043  43.829  1.00  0.00    -0.000 C 
BRANCH  26  27
ATOM     27  C   UNL     1      33.919  17.278  42.987  1.00  0.00    -0.000 C 
BRANCH  27  28
ATOM     28  C   UNL     1      34.034  17.009  41.475  1.00  0.00    -0.000 C 
BRANCH  28  29
ATOM     29  C   UNL     1      33.166  17.962  40.637  1.00  0.00    -0.000 C 
BRANCH  29  30
ATOM     30  C   UNL     1      33.651  18.073  39.180  1.00  0.00    -0.000 C 
BRANCH  30  31
ATOM     31  C   UNL     1      32.623  18.763  38.270  1.00  0.00    -0.003 C 
ATOM     32  C   UNL     1      31.504  17.823  37.823  1.00  0.00     0.004 C 
ENDBRANCH  30  31
ENDBRANCH  29  30
ENDBRANCH  28  29
ENDBRANCH  27  28
ENDBRANCH  26  27
ENDBRANCH  25  26
ENDBRANCH  24  25
ENDBRANCH  23  24
ENDBRANCH  22  23
ENDBRANCH  21  22
ENDBRANCH  20  21
ENDBRANCH  19  20
ENDBRANCH  18  19
ENDBRANCH   1  18
TORSDOF 28
ENDMDL
