MODEL 1
REMARK VINA RESULT:    -5.530      0.000      0.000
REMARK INTER + INTRA:          -5.738
REMARK INTER:                  -6.014
REMARK INTRA:                   0.277
REMARK UNBOUND:                 0.277
REMARK SMILES C[C@@H]1[C@H]2C3=CC[C@H]4[C@@]5(C)CC[C@@H](O)C(C)(C)[C@H]5CC[C@@]4(C)[C@@]3(C)CC[C@@]2(C(=O)[O-])CC[C@@H]1C
REMARK SMILES IDX 26 1 30 2 25 3 3 4 31 5 24 6 4 7 2 8 32 9 22 10 5 11 1 12
REMARK SMILES IDX 33 13 23 14 20 15 6 16 7 17 19 18 21 19 8 20 18 21 17 22
REMARK SMILES IDX 10 23 9 24 14 25 11 26 12 27 15 28 16 29 27 30 28 31 29 32
REMARK SMILES IDX 13 33
REMARK H PARENT 13 34
REMARK Flexibility Score: inf
ROOT
ATOM      1  C   UNL     1      -8.914   1.405  -5.623  1.00  0.00     0.017 C 
ATOM      2  C   UNL     1      -9.422   1.128  -7.077  1.00  0.00     0.014 C 
ATOM      3  C   UNL     1      -7.695   2.361  -5.739  1.00  0.00     0.014 C 
ATOM      4  C   UNL     1      -8.572   0.076  -4.806  1.00  0.00     0.030 C 
ATOM      5  C   UNL     1     -10.541   0.082  -7.111  1.00  0.00     0.004 C 
ATOM      6  C   UNL     1      -6.443   1.637  -6.238  1.00  0.00     0.013 C 
ATOM      7  C   UNL     1      -7.075  -0.361  -4.808  1.00  0.00    -0.063 C 
ATOM      8  C   UNL     1      -9.593  -1.104  -5.075  1.00  0.00    -0.003 C 
ATOM      9  C   UNL     1      -9.997  -1.244  -6.573  1.00  0.00    -0.011 C 
ATOM     10  C   UNL     1      -5.937   0.571  -5.235  1.00  0.00    -0.006 C 
ATOM     11  C   UNL     1      -6.687  -1.429  -4.071  1.00  0.00    -0.027 C 
ATOM     12  C   UNL     1     -10.791  -1.034  -4.108  1.00  0.00     0.008 C 
ATOM     13  C   UNL     1     -10.968  -2.408  -6.884  1.00  0.00     0.008 C 
ATOM     14  C   UNL     1      -5.481   1.356  -3.941  1.00  0.00     0.017 C 
ATOM     15  C   UNL     1      -4.722  -0.296  -5.859  1.00  0.00    -0.020 C 
ATOM     16  C   UNL     1      -5.231  -1.714  -3.717  1.00  0.00     0.032 C 
ATOM     17  C   UNL     1      -4.139  -1.302  -4.770  1.00  0.00     0.006 C 
ATOM     18  C   UNL     1      -5.164  -1.130  -7.125  1.00  0.00     0.008 C 
ATOM     19  C   UNL     1      -3.622   0.709  -6.299  1.00  0.00     0.012 C 
ATOM     20  C   UNL     1      -3.362  -2.579  -5.341  1.00  0.00    -0.025 C 
ATOM     21  C   UNL     1      -5.492  -2.606  -6.898  1.00  0.00     0.005 C 
ATOM     22  C   UNL     1      -4.305  -3.427  -6.312  1.00  0.00     0.003 C 
ATOM     23  C   UNL     1      -2.695  -3.352  -4.129  1.00  0.00     0.010 C 
ATOM     24  C   UNL     1      -2.145  -2.143  -6.208  1.00  0.00     0.012 C 
ATOM     25  C   UNL     1      -4.712  -4.912  -5.865  1.00  0.00    -0.006 C 
ATOM     26  C   UNL     1      -3.105  -4.811  -3.865  1.00  0.00     0.033 C 
ATOM     27  C   UNL     1      -3.497  -5.572  -5.149  1.00  0.00     0.120 C 
ATOM     28  C   UNL     1      -4.989  -5.798  -7.125  1.00  0.00     0.014 C 
ATOM     29  C   UNL     1      -5.997  -5.038  -4.969  1.00  0.00     0.014 C 
ENDROOT
BRANCH   1  30
ATOM     30  C   UNL     1     -10.047   2.142  -4.911  1.00  0.00     0.048 C 
ATOM     31  O   UNL     1      -9.845   3.158  -4.206  1.00  0.00    -0.550 OA
ATOM     32  O   UNL     1      -9.848   3.268  -4.124  1.00  0.00    -0.550 OA
ENDBRANCH   1  30
BRANCH  27  33
ATOM     33  O   UNL     1      -3.768  -6.925  -4.818  1.00  0.00    -0.393 OA
ATOM     34  H   UNL     1      -3.543  -7.449  -5.626  1.00  0.00     0.210 HD
ENDBRANCH  27  33
TORSDOF 2
ENDMDL
MODEL 2
REMARK VINA RESULT:    -4.474      2.866      8.724
REMARK INTER + INTRA:          -4.589
REMARK INTER:                  -4.759
REMARK INTRA:                   0.169
REMARK UNBOUND:                 0.277
REMARK SMILES C[C@@H]1[C@H]2C3=CC[C@H]4[C@@]5(C)CC[C@@H](O)C(C)(C)[C@H]5CC[C@@]4(C)[C@@]3(C)CC[C@@]2(C(=O)[O-])CC[C@@H]1C
REMARK SMILES IDX 26 1 30 2 25 3 3 4 31 5 24 6 4 7 2 8 32 9 22 10 5 11 1 12
REMARK SMILES IDX 33 13 23 14 20 15 6 16 7 17 19 18 21 19 8 20 18 21 17 22
REMARK SMILES IDX 10 23 9 24 14 25 11 26 12 27 15 28 16 29 27 30 28 31 29 32
REMARK SMILES IDX 13 33
REMARK H PARENT 13 34
REMARK Flexibility Score: inf
ROOT
ATOM      1  C   UNL     1      -1.742  -7.776  -5.307  1.00  0.00     0.017 C 
ATOM      2  C   UNL     1      -1.052  -7.702  -6.710  1.00  0.00     0.014 C 
ATOM      3  C   UNL     1      -3.181  -8.316  -5.532  1.00  0.00     0.014 C 
ATOM      4  C   UNL     1      -1.728  -6.387  -4.519  1.00  0.00     0.030 C 
ATOM      5  C   UNL     1       0.333  -7.050  -6.642  1.00  0.00     0.004 C 
ATOM      6  C   UNL     1      -4.104  -7.256  -6.138  1.00  0.00     0.013 C 
ATOM      7  C   UNL     1      -3.012  -5.513  -4.651  1.00  0.00    -0.063 C 
ATOM      8  C   UNL     1      -0.375  -5.583  -4.693  1.00  0.00    -0.003 C 
ATOM      9  C   UNL     1       0.178  -5.609  -6.150  1.00  0.00    -0.011 C 
ATOM     10  C   UNL     1      -4.341  -6.062  -5.179  1.00  0.00    -0.006 C 
ATOM     11  C   UNL     1      -3.115  -4.360  -3.948  1.00  0.00    -0.027 C 
ATOM     12  C   UNL     1       0.658  -5.993  -3.625  1.00  0.00     0.008 C 
ATOM     13  C   UNL     1       1.481  -4.805  -6.370  1.00  0.00     0.008 C 
ATOM     14  C   UNL     1      -5.124  -6.639  -3.933  1.00  0.00     0.017 C 
ATOM     15  C   UNL     1      -5.175  -4.881  -5.905  1.00  0.00    -0.020 C 
ATOM     16  C   UNL     1      -4.438  -3.636  -3.721  1.00  0.00     0.032 C 
ATOM     17  C   UNL     1      -5.511  -3.719  -4.868  1.00  0.00     0.006 C 
ATOM     18  C   UNL     1      -4.393  -4.253  -7.124  1.00  0.00     0.008 C 
ATOM     19  C   UNL     1      -6.488  -5.511  -6.444  1.00  0.00     0.012 C 
ATOM     20  C   UNL     1      -5.807  -2.279  -5.501  1.00  0.00    -0.025 C 
ATOM     21  C   UNL     1      -3.648  -2.943  -6.865  1.00  0.00     0.005 C 
ATOM     22  C   UNL     1      -4.571  -1.784  -6.382  1.00  0.00     0.003 C 
ATOM     23  C   UNL     1      -6.305  -1.311  -4.350  1.00  0.00     0.010 C 
ATOM     24  C   UNL     1      -7.022  -2.343  -6.472  1.00  0.00     0.012 C 
ATOM     25  C   UNL     1      -3.767  -0.485  -5.896  1.00  0.00    -0.006 C 
ATOM     26  C   UNL     1      -5.491  -0.041  -4.046  1.00  0.00     0.033 C 
ATOM     27  C   UNL     1      -4.778   0.532  -5.288  1.00  0.00     0.120 C 
ATOM     28  C   UNL     1      -3.127   0.244  -7.124  1.00  0.00     0.014 C 
ATOM     29  C   UNL     1      -2.587  -0.736  -4.891  1.00  0.00     0.014 C 
ENDROOT
BRANCH   1  30
ATOM     30  C   UNL     1      -0.954  -8.807  -4.501  1.00  0.00     0.048 C 
ATOM     31  O   UNL     1      -1.026  -8.876  -3.251  1.00  0.00    -0.550 OA
ATOM     32  O   UNL     1      -1.016  -8.902  -3.117  1.00  0.00    -0.550 OA
ENDBRANCH   1  30
BRANCH  27  33
ATOM     33  O   UNL     1      -4.134   1.745  -4.930  1.00  0.00    -0.393 OA
ATOM     34  H   UNL     1      -4.859   2.371  -4.683  1.00  0.00     0.210 HD
ENDBRANCH  27  33
TORSDOF 2
ENDMDL
MODEL 3
REMARK VINA RESULT:    -4.431      1.813      7.672
REMARK INTER + INTRA:          -4.543
REMARK INTER:                  -4.854
REMARK INTRA:                   0.310
REMARK UNBOUND:                 0.277
REMARK SMILES C[C@@H]1[C@H]2C3=CC[C@H]4[C@@]5(C)CC[C@@H](O)C(C)(C)[C@H]5CC[C@@]4(C)[C@@]3(C)CC[C@@]2(C(=O)[O-])CC[C@@H]1C
REMARK SMILES IDX 26 1 30 2 25 3 3 4 31 5 24 6 4 7 2 8 32 9 22 10 5 11 1 12
REMARK SMILES IDX 33 13 23 14 20 15 6 16 7 17 19 18 21 19 8 20 18 21 17 22
REMARK SMILES IDX 10 23 9 24 14 25 11 26 12 27 15 28 16 29 27 30 28 31 29 32
REMARK SMILES IDX 13 33
REMARK H PARENT 13 34
REMARK Flexibility Score: inf
ROOT
ATOM      1  C   UNL     1      -5.984  -2.947  -5.634  1.00  0.00     0.017 C 
ATOM      2  C   UNL     1      -5.411  -2.856  -7.088  1.00  0.00     0.014 C 
ATOM      3  C   UNL     1      -7.457  -3.425  -5.752  1.00  0.00     0.014 C 
ATOM      4  C   UNL     1      -5.848  -1.584  -4.813  1.00  0.00     0.030 C 
ATOM      5  C   UNL     1      -4.000  -2.258  -7.119  1.00  0.00     0.004 C 
ATOM      6  C   UNL     1      -8.384  -2.313  -6.248  1.00  0.00     0.013 C 
ATOM      7  C   UNL     1      -7.103  -0.659  -4.811  1.00  0.00    -0.063 C 
ATOM      8  C   UNL     1      -4.484  -0.827  -5.079  1.00  0.00    -0.003 C 
ATOM      9  C   UNL     1      -4.056  -0.829  -6.577  1.00  0.00    -0.011 C 
ATOM     10  C   UNL     1      -8.493  -1.141  -5.240  1.00  0.00    -0.006 C 
ATOM     11  C   UNL     1      -7.101   0.475  -4.071  1.00  0.00    -0.027 C 
ATOM     12  C   UNL     1      -3.383  -1.308  -4.113  1.00  0.00     0.008 C 
ATOM     13  C   UNL     1      -2.744  -0.068  -6.885  1.00  0.00     0.008 C 
ATOM     14  C   UNL     1      -9.191  -1.726  -3.949  1.00  0.00     0.017 C 
ATOM     15  C   UNL     1      -9.336   0.092  -5.861  1.00  0.00    -0.020 C 
ATOM     16  C   UNL     1      -8.370   1.241  -3.714  1.00  0.00     0.032 C 
ATOM     17  C   UNL     1      -9.538   1.234  -4.768  1.00  0.00     0.006 C 
ATOM     18  C   UNL     1      -8.634   0.728  -7.124  1.00  0.00     0.008 C 
ATOM     19  C   UNL     1     -10.714  -0.471  -6.303  1.00  0.00     0.012 C 
ATOM     20  C   UNL     1      -9.828   2.702  -5.333  1.00  0.00    -0.025 C 
ATOM     21  C   UNL     1      -7.818   2.000  -6.893  1.00  0.00     0.005 C 
ATOM     22  C   UNL     1      -8.650   3.177  -6.302  1.00  0.00     0.003 C 
ATOM     23  C   UNL     1     -10.189   3.653  -4.118  1.00  0.00     0.010 C 
ATOM     24  C   UNL     1     -11.120   2.714  -6.200  1.00  0.00     0.012 C 
ATOM     25  C   UNL     1      -7.758   4.430  -5.850  1.00  0.00    -0.006 C 
ATOM     26  C   UNL     1      -9.301   4.881  -3.849  1.00  0.00     0.033 C 
ATOM     27  C   UNL     1      -8.672   5.465  -5.131  1.00  0.00     0.120 C 
ATOM     28  C   UNL     1      -7.193   5.171  -7.108  1.00  0.00     0.014 C 
ATOM     29  C   UNL     1      -6.508   4.104  -4.956  1.00  0.00     0.014 C 
ENDROOT
BRANCH   1  30
ATOM     30  C   UNL     1      -5.174  -4.031  -4.926  1.00  0.00     0.048 C 
ATOM     31  O   UNL     1      -5.490  -5.243  -4.975  1.00  0.00    -0.550 OA
ATOM     32  O   UNL     1      -5.505  -5.378  -4.964  1.00  0.00    -0.550 OA
ENDBRANCH   1  30
BRANCH  27  33
ATOM     33  O   UNL     1      -7.952   6.641  -4.796  1.00  0.00    -0.393 OA
ATOM     34  H   UNL     1      -6.996   6.394  -4.847  1.00  0.00     0.210 HD
ENDBRANCH  27  33
TORSDOF 2
ENDMDL
MODEL 4
REMARK VINA RESULT:    -2.590      1.113      1.228
REMARK INTER + INTRA:          -2.540
REMARK INTER:                  -2.868
REMARK INTRA:                   0.328
REMARK UNBOUND:                 0.277
REMARK SMILES C[C@@H]1[C@H]2C3=CC[C@H]4[C@@]5(C)CC[C@@H](O)C(C)(C)[C@H]5CC[C@@]4(C)[C@@]3(C)CC[C@@]2(C(=O)[O-])CC[C@@H]1C
REMARK SMILES IDX 26 1 30 2 25 3 3 4 31 5 24 6 4 7 2 8 32 9 22 10 5 11 1 12
REMARK SMILES IDX 33 13 23 14 20 15 6 16 7 17 19 18 21 19 8 20 18 21 17 22
REMARK SMILES IDX 10 23 9 24 14 25 11 26 12 27 15 28 16 29 27 30 28 31 29 32
REMARK SMILES IDX 13 33
REMARK H PARENT 13 34
REMARK Flexibility Score: inf
ROOT
ATOM      1  C   UNL     1      -7.547   1.317  -5.369  1.00  0.00     0.017 C 
ATOM      2  C   UNL     1      -8.196   1.163  -6.785  1.00  0.00     0.014 C 
ATOM      3  C   UNL     1      -6.169   2.004  -5.569  1.00  0.00     0.014 C 
ATOM      4  C   UNL     1      -7.433  -0.062  -4.571  1.00  0.00     0.030 C 
ATOM      5  C   UNL     1      -9.505   0.368  -6.741  1.00  0.00     0.004 C 
ATOM      6  C   UNL     1      -5.127   1.043  -6.147  1.00  0.00     0.013 C 
ATOM      7  C   UNL     1      -6.061  -0.796  -4.669  1.00  0.00    -0.063 C 
ATOM      8  C   UNL     1      -8.690  -1.005  -4.766  1.00  0.00    -0.003 C 
ATOM      9  C   UNL     1      -9.211  -1.045  -6.234  1.00  0.00    -0.011 C 
ATOM     10  C   UNL     1      -4.786  -0.113  -5.174  1.00  0.00    -0.006 C 
ATOM     11  C   UNL     1      -5.853  -1.928  -3.955  1.00  0.00    -0.027 C 
ATOM     12  C   UNL     1      -9.782  -0.700  -3.723  1.00  0.00     0.008 C 
ATOM     13  C   UNL     1     -10.417  -1.983  -6.475  1.00  0.00     0.008 C 
ATOM     14  C   UNL     1      -4.096   0.550  -3.916  1.00  0.00     0.017 C 
ATOM     15  C   UNL     1      -3.818  -1.204  -5.873  1.00  0.00    -0.020 C 
ATOM     16  C   UNL     1      -4.466  -2.508  -3.695  1.00  0.00     0.032 C 
ATOM     17  C   UNL     1      -3.383  -2.318  -4.820  1.00  0.00     0.006 C 
ATOM     18  C   UNL     1      -4.503  -1.918  -7.103  1.00  0.00     0.008 C 
ATOM     19  C   UNL     1      -2.567  -0.442  -6.389  1.00  0.00     0.012 C 
ATOM     20  C   UNL     1      -2.924  -3.723  -5.435  1.00  0.00    -0.025 C 
ATOM     21  C   UNL     1      -5.112  -3.298  -6.849  1.00  0.00     0.005 C 
ATOM     22  C   UNL     1      -4.082  -4.350  -6.338  1.00  0.00     0.003 C 
ATOM     23  C   UNL     1      -2.352  -4.627  -4.266  1.00  0.00     0.010 C 
ATOM     24  C   UNL     1      -1.702  -3.537  -6.382  1.00  0.00     0.012 C 
ATOM     25  C   UNL     1      -4.755  -5.724  -5.858  1.00  0.00    -0.006 C 
ATOM     26  C   UNL     1      -3.035  -5.973  -3.969  1.00  0.00     0.033 C 
ATOM     27  C   UNL     1      -3.656  -6.626  -5.221  1.00  0.00     0.120 C 
ATOM     28  C   UNL     1      -5.289  -6.523  -7.094  1.00  0.00     0.014 C 
ATOM     29  C   UNL     1      -5.977  -5.593  -4.880  1.00  0.00     0.014 C 
ENDROOT
BRANCH   1  30
ATOM     30  C   UNL     1      -8.457   2.263  -4.588  1.00  0.00     0.048 C 
ATOM     31  O   UNL     1      -8.158   3.464  -4.385  1.00  0.00    -0.550 OA
ATOM     32  O   UNL     1      -8.146   3.596  -4.350  1.00  0.00    -0.550 OA
ENDBRANCH   1  30
BRANCH  27  33
ATOM     33  O   UNL     1      -4.177  -7.897  -4.867  1.00  0.00    -0.393 OA
ATOM     34  H   UNL     1      -4.044  -7.979  -3.890  1.00  0.00     0.210 HD
ENDBRANCH  27  33
TORSDOF 2
ENDMDL
