MODEL 1
REMARK VINA RESULT:    -6.593      0.000      0.000
REMARK INTER + INTRA:          -8.199
REMARK INTER:                  -7.942
REMARK INTRA:                  -0.257
REMARK UNBOUND:                -0.257
REMARK SMILES O=c1c(O)c(-c2ccc(O)c(O)c2)oc2cc(O)cc(O)c12
REMARK SMILES IDX 5 1 3 2 2 3 1 4 22 5 20 6 19 7 17 8 16 9 15 10 14 11 6 12
REMARK SMILES IDX 7 13 8 14 9 15 13 16 11 17 10 18 12 20 4 22 21 24 18 26
REMARK H PARENT 10 19 12 21 4 23 21 25 18 27
REMARK Flexibility Score: inf
ROOT
ATOM      1  C   UNL     1     -14.344  36.711  -2.667  1.00  0.00     0.180 A 
ATOM      2  C   UNL     1     -14.385  35.352  -2.313  1.00  0.00     0.208 A 
ATOM      3  C   UNL     1     -13.251  34.554  -2.538  1.00  0.00     0.238 A 
ATOM      4  O   UNL     1     -13.313  33.326  -2.269  1.00  0.00    -0.285 OA
ATOM      5  C   UNL     1     -12.086  35.129  -3.099  1.00  0.00     0.111 A 
ATOM      6  C   UNL     1     -10.867  34.424  -3.333  1.00  0.00     0.134 A 
ATOM      7  C   UNL     1      -9.821  35.061  -4.013  1.00  0.00     0.093 A 
ATOM      8  C   UNL     1      -9.927  36.396  -4.409  1.00  0.00     0.123 A 
ATOM      9  C   UNL     1     -11.091  37.110  -4.132  1.00  0.00     0.094 A 
ATOM     10  C   UNL     1     -12.164  36.492  -3.488  1.00  0.00     0.146 A 
ATOM     11  O   UNL     1     -13.259  37.206  -3.252  1.00  0.00    -0.452 OA
ENDROOT
BRANCH   1  12
ATOM     12  C   UNL     1     -15.490  37.621  -2.437  1.00  0.00     0.025 A 
ATOM     13  C   UNL     1     -15.464  38.586  -1.416  1.00  0.00     0.016 A 
ATOM     14  C   UNL     1     -16.547  39.449  -1.233  1.00  0.00     0.051 A 
ATOM     15  C   UNL     1     -17.665  39.371  -2.075  1.00  0.00     0.157 A 
ATOM     16  C   UNL     1     -16.603  37.561  -3.293  1.00  0.00     0.062 A 
ATOM     17  C   UNL     1     -17.689  38.423  -3.113  1.00  0.00     0.158 A 
BRANCH  15  18
ATOM     18  O   UNL     1     -18.744  40.233  -1.889  1.00  0.00    -0.504 OA
ATOM     19  H   UNL     1     -18.847  41.080  -2.437  1.00  0.00     0.293 HD
ENDBRANCH  15  18
BRANCH  17  20
ATOM     20  O   UNL     1     -18.783  38.325  -3.972  1.00  0.00    -0.504 OA
ATOM     21  H   UNL     1     -18.701  38.494  -4.968  1.00  0.00     0.293 HD
ENDBRANCH  17  20
ENDBRANCH   1  12
BRANCH   2  22
ATOM     22  O   UNL     1     -15.553  34.799  -1.780  1.00  0.00    -0.502 OA
ATOM     23  H   UNL     1     -15.618  34.485  -0.819  1.00  0.00     0.293 HD
ENDBRANCH   2  22
BRANCH   6  24
ATOM     24  O   UNL     1     -10.624  33.118  -2.898  1.00  0.00    -0.507 OA
ATOM     25  H   UNL     1     -10.744  32.798  -1.949  1.00  0.00     0.293 HD
ENDBRANCH   6  24
BRANCH   8  26
ATOM     26  O   UNL     1      -8.876  37.026  -5.072  1.00  0.00    -0.508 OA
ATOM     27  H   UNL     1      -8.580  37.963  -4.827  1.00  0.00     0.293 HD
ENDBRANCH   8  26
TORSDOF 6
ENDMDL
MODEL 2
REMARK VINA RESULT:    -6.417      1.221      2.883
REMARK INTER + INTRA:          -7.988
REMARK INTER:                  -7.666
REMARK INTRA:                  -0.322
REMARK UNBOUND:                -0.257
REMARK SMILES O=c1c(O)c(-c2ccc(O)c(O)c2)oc2cc(O)cc(O)c12
REMARK SMILES IDX 5 1 3 2 2 3 1 4 22 5 20 6 19 7 17 8 16 9 15 10 14 11 6 12
REMARK SMILES IDX 7 13 8 14 9 15 13 16 11 17 10 18 12 20 4 22 21 24 18 26
REMARK H PARENT 10 19 12 21 4 23 21 25 18 27
REMARK Flexibility Score: inf
ROOT
ATOM      1  C   UNL     1     -14.110  37.658  -2.904  1.00  0.00     0.180 A 
ATOM      2  C   UNL     1     -13.236  38.611  -3.454  1.00  0.00     0.208 A 
ATOM      3  C   UNL     1     -11.953  38.206  -3.858  1.00  0.00     0.238 A 
ATOM      4  O   UNL     1     -11.156  39.074  -4.299  1.00  0.00    -0.285 OA
ATOM      5  C   UNL     1     -11.567  36.850  -3.724  1.00  0.00     0.111 A 
ATOM      6  C   UNL     1     -10.308  36.321  -4.138  1.00  0.00     0.134 A 
ATOM      7  C   UNL     1      -9.986  34.992  -3.837  1.00  0.00     0.093 A 
ATOM      8  C   UNL     1     -10.902  34.155  -3.196  1.00  0.00     0.123 A 
ATOM      9  C   UNL     1     -12.156  34.647  -2.840  1.00  0.00     0.094 A 
ATOM     10  C   UNL     1     -12.494  35.977  -3.095  1.00  0.00     0.146 A 
ATOM     11  O   UNL     1     -13.696  36.408  -2.731  1.00  0.00    -0.452 OA
ENDROOT
BRANCH   1  12
ATOM     12  C   UNL     1     -15.485  38.004  -2.478  1.00  0.00     0.025 A 
ATOM     13  C   UNL     1     -15.764  38.405  -1.160  1.00  0.00     0.016 A 
ATOM     14  C   UNL     1     -17.065  38.749  -0.787  1.00  0.00     0.051 A 
ATOM     15  C   UNL     1     -18.105  38.712  -1.726  1.00  0.00     0.157 A 
ATOM     16  C   UNL     1     -16.526  37.989  -3.422  1.00  0.00     0.062 A 
ATOM     17  C   UNL     1     -17.831  38.333  -3.052  1.00  0.00     0.158 A 
BRANCH  15  18
ATOM     18  O   UNL     1     -19.402  39.055  -1.350  1.00  0.00    -0.504 OA
ATOM     19  H   UNL     1     -19.896  38.548  -0.624  1.00  0.00     0.293 HD
ENDBRANCH  15  18
BRANCH  17  20
ATOM     20  O   UNL     1     -18.841  38.292  -4.012  1.00  0.00    -0.504 OA
ATOM     21  H   UNL     1     -19.809  38.487  -3.784  1.00  0.00     0.293 HD
ENDBRANCH  17  20
ENDBRANCH   1  12
BRANCH   2  22
ATOM     22  O   UNL     1     -13.628  39.949  -3.558  1.00  0.00    -0.502 OA
ATOM     23  H   UNL     1     -13.365  40.648  -2.874  1.00  0.00     0.293 HD
ENDBRANCH   2  22
BRANCH   6  24
ATOM     24  O   UNL     1      -9.359  37.044  -4.865  1.00  0.00    -0.507 OA
ATOM     25  H   UNL     1      -8.407  36.750  -5.019  1.00  0.00     0.293 HD
ENDBRANCH   6  24
BRANCH   8  26
ATOM     26  O   UNL     1     -10.578  32.830  -2.914  1.00  0.00    -0.508 OA
ATOM     27  H   UNL     1     -10.275  32.543  -1.991  1.00  0.00     0.293 HD
ENDBRANCH   8  26
TORSDOF 6
ENDMDL
MODEL 3
REMARK VINA RESULT:    -6.337      2.132      3.173
REMARK INTER + INTRA:          -7.890
REMARK INTER:                  -7.681
REMARK INTRA:                  -0.209
REMARK UNBOUND:                -0.257
REMARK SMILES O=c1c(O)c(-c2ccc(O)c(O)c2)oc2cc(O)cc(O)c12
REMARK SMILES IDX 5 1 3 2 2 3 1 4 22 5 20 6 19 7 17 8 16 9 15 10 14 11 6 12
REMARK SMILES IDX 7 13 8 14 9 15 13 16 11 17 10 18 12 20 4 22 21 24 18 26
REMARK H PARENT 10 19 12 21 4 23 21 25 18 27
REMARK Flexibility Score: inf
ROOT
ATOM      1  C   UNL     1     -14.793  38.359  -3.558  1.00  0.00     0.180 A 
ATOM      2  C   UNL     1     -14.077  37.187  -3.263  1.00  0.00     0.208 A 
ATOM      3  C   UNL     1     -12.742  37.078  -3.687  1.00  0.00     0.238 A 
ATOM      4  O   UNL     1     -12.124  36.005  -3.468  1.00  0.00    -0.285 OA
ATOM      5  C   UNL     1     -12.136  38.149  -4.388  1.00  0.00     0.111 A 
ATOM      6  C   UNL     1     -10.780  38.164  -4.829  1.00  0.00     0.134 A 
ATOM      7  C   UNL     1     -10.324  39.221  -5.626  1.00  0.00     0.093 A 
ATOM      8  C   UNL     1     -11.159  40.296  -5.943  1.00  0.00     0.123 A 
ATOM      9  C   UNL     1     -12.468  40.319  -5.466  1.00  0.00     0.094 A 
ATOM     10  C   UNL     1     -12.961  39.262  -4.699  1.00  0.00     0.146 A 
ATOM     11  O   UNL     1     -14.218  39.320  -4.274  1.00  0.00    -0.452 OA
ENDROOT
BRANCH   1  12
ATOM     12  C   UNL     1     -16.194  38.558  -3.123  1.00  0.00     0.025 A 
ATOM     13  C   UNL     1     -17.247  37.812  -3.681  1.00  0.00     0.016 A 
ATOM     14  C   UNL     1     -18.558  37.999  -3.238  1.00  0.00     0.051 A 
ATOM     15  C   UNL     1     -18.837  38.923  -2.221  1.00  0.00     0.157 A 
ATOM     16  C   UNL     1     -16.475  39.467  -2.089  1.00  0.00     0.062 A 
ATOM     17  C   UNL     1     -17.788  39.658  -1.642  1.00  0.00     0.158 A 
BRANCH  15  18
ATOM     18  O   UNL     1     -20.146  39.109  -1.782  1.00  0.00    -0.504 OA
ATOM     19  H   UNL     1     -20.739  39.833  -2.172  1.00  0.00     0.293 HD
ENDBRANCH  15  18
BRANCH  17  20
ATOM     20  O   UNL     1     -18.029  40.580  -0.625  1.00  0.00    -0.504 OA
ATOM     21  H   UNL     1     -18.909  41.077  -0.548  1.00  0.00     0.293 HD
ENDBRANCH  17  20
ENDBRANCH   1  12
BRANCH   2  22
ATOM     22  O   UNL     1     -14.700  36.133  -2.589  1.00  0.00    -0.502 OA
ATOM     23  H   UNL     1     -15.559  36.252  -2.067  1.00  0.00     0.293 HD
ENDBRANCH   2  22
BRANCH   6  24
ATOM     24  O   UNL     1      -9.839  37.186  -4.493  1.00  0.00    -0.507 OA
ATOM     25  H   UNL     1      -8.996  36.997  -5.013  1.00  0.00     0.293 HD
ENDBRANCH   6  24
BRANCH   8  26
ATOM     26  O   UNL     1     -10.693  41.351  -6.724  1.00  0.00    -0.508 OA
ATOM     27  H   UNL     1     -11.320  41.907  -7.293  1.00  0.00     0.293 HD
ENDBRANCH   8  26
TORSDOF 6
ENDMDL
MODEL 4
REMARK VINA RESULT:    -6.315     10.074     13.237
REMARK INTER + INTRA:          -7.865
REMARK INTER:                  -7.594
REMARK INTRA:                  -0.271
REMARK UNBOUND:                -0.257
REMARK SMILES O=c1c(O)c(-c2ccc(O)c(O)c2)oc2cc(O)cc(O)c12
REMARK SMILES IDX 5 1 3 2 2 3 1 4 22 5 20 6 19 7 17 8 16 9 15 10 14 11 6 12
REMARK SMILES IDX 7 13 8 14 9 15 13 16 11 17 10 18 12 20 4 22 21 24 18 26
REMARK H PARENT 10 19 12 21 4 23 21 25 18 27
REMARK Flexibility Score: inf
ROOT
ATOM      1  C   UNL     1     -25.213  38.978  -5.872  1.00  0.00     0.180 A 
ATOM      2  C   UNL     1     -26.157  38.192  -6.553  1.00  0.00     0.208 A 
ATOM      3  C   UNL     1     -27.077  37.434  -5.809  1.00  0.00     0.238 A 
ATOM      4  O   UNL     1     -27.884  36.690  -6.424  1.00  0.00    -0.285 OA
ATOM      5  C   UNL     1     -27.051  37.484  -4.395  1.00  0.00     0.111 A 
ATOM      6  C   UNL     1     -27.960  36.789  -3.543  1.00  0.00     0.134 A 
ATOM      7  C   UNL     1     -27.759  36.809  -2.157  1.00  0.00     0.093 A 
ATOM      8  C   UNL     1     -26.720  37.550  -1.590  1.00  0.00     0.123 A 
ATOM      9  C   UNL     1     -25.863  38.280  -2.411  1.00  0.00     0.094 A 
ATOM     10  C   UNL     1     -26.017  38.252  -3.798  1.00  0.00     0.146 A 
ATOM     11  O   UNL     1     -25.171  38.954  -4.544  1.00  0.00    -0.452 OA
ENDROOT
BRANCH   1  12
ATOM     12  C   UNL     1     -24.229  39.823  -6.586  1.00  0.00     0.025 A 
ATOM     13  C   UNL     1     -24.614  41.016  -7.221  1.00  0.00     0.016 A 
ATOM     14  C   UNL     1     -23.664  41.810  -7.869  1.00  0.00     0.051 A 
ATOM     15  C   UNL     1     -22.314  41.432  -7.879  1.00  0.00     0.157 A 
ATOM     16  C   UNL     1     -22.872  39.460  -6.580  1.00  0.00     0.062 A 
ATOM     17  C   UNL     1     -21.917  40.251  -7.228  1.00  0.00     0.158 A 
BRANCH  15  18
ATOM     18  O   UNL     1     -21.369  42.225  -8.527  1.00  0.00    -0.504 OA
ATOM     19  H   UNL     1     -21.031  43.089  -8.118  1.00  0.00     0.293 HD
ENDBRANCH  15  18
BRANCH  17  20
ATOM     20  O   UNL     1     -20.582  39.851  -7.213  1.00  0.00    -0.504 OA
ATOM     21  H   UNL     1     -19.898  40.236  -7.854  1.00  0.00     0.293 HD
ENDBRANCH  17  20
ENDBRANCH   1  12
BRANCH   2  22
ATOM     22  O   UNL     1     -26.153  38.140  -7.950  1.00  0.00    -0.502 OA
ATOM     23  H   UNL     1     -25.405  38.532  -8.508  1.00  0.00     0.293 HD
ENDBRANCH   2  22
BRANCH   6  24
ATOM     24  O   UNL     1     -29.083  36.094  -4.000  1.00  0.00    -0.507 OA
ATOM     25  H   UNL     1     -29.941  35.983  -3.482  1.00  0.00     0.293 HD
ENDBRANCH   6  24
BRANCH   8  26
ATOM     26  O   UNL     1     -26.537  37.576  -0.209  1.00  0.00    -0.508 OA
ATOM     27  H   UNL     1     -25.677  37.253   0.218  1.00  0.00     0.293 HD
ENDBRANCH   8  26
TORSDOF 6
ENDMDL
MODEL 5
REMARK VINA RESULT:    -6.205      2.196      3.740
REMARK INTER + INTRA:          -7.732
REMARK INTER:                  -7.423
REMARK INTRA:                  -0.309
REMARK UNBOUND:                -0.257
REMARK SMILES O=c1c(O)c(-c2ccc(O)c(O)c2)oc2cc(O)cc(O)c12
REMARK SMILES IDX 5 1 3 2 2 3 1 4 22 5 20 6 19 7 17 8 16 9 15 10 14 11 6 12
REMARK SMILES IDX 7 13 8 14 9 15 13 16 11 17 10 18 12 20 4 22 21 24 18 26
REMARK H PARENT 10 19 12 21 4 23 21 25 18 27
REMARK Flexibility Score: inf
ROOT
ATOM      1  C   UNL     1     -15.787  36.930  -1.790  1.00  0.00     0.180 A 
ATOM      2  C   UNL     1     -14.827  36.864  -2.813  1.00  0.00     0.208 A 
ATOM      3  C   UNL     1     -13.876  35.830  -2.789  1.00  0.00     0.238 A 
ATOM      4  O   UNL     1     -12.985  35.808  -3.677  1.00  0.00    -0.285 OA
ATOM      5  C   UNL     1     -13.907  34.868  -1.752  1.00  0.00     0.111 A 
ATOM      6  C   UNL     1     -13.018  33.756  -1.651  1.00  0.00     0.134 A 
ATOM      7  C   UNL     1     -13.059  32.941  -0.512  1.00  0.00     0.093 A 
ATOM      8  C   UNL     1     -13.999  33.160   0.498  1.00  0.00     0.123 A 
ATOM      9  C   UNL     1     -14.910  34.208   0.380  1.00  0.00     0.094 A 
ATOM     10  C   UNL     1     -14.871  35.058  -0.727  1.00  0.00     0.146 A 
ATOM     11  O   UNL     1     -15.751  36.051  -0.795  1.00  0.00    -0.452 OA
ENDROOT
BRANCH   1  12
ATOM     12  C   UNL     1     -16.837  37.974  -1.761  1.00  0.00     0.025 A 
ATOM     13  C   UNL     1     -16.673  39.156  -1.016  1.00  0.00     0.016 A 
ATOM     14  C   UNL     1     -17.666  40.138  -1.023  1.00  0.00     0.051 A 
ATOM     15  C   UNL     1     -18.831  39.962  -1.782  1.00  0.00     0.157 A 
ATOM     16  C   UNL     1     -17.996  37.812  -2.537  1.00  0.00     0.062 A 
ATOM     17  C   UNL     1     -18.994  38.793  -2.546  1.00  0.00     0.158 A 
BRANCH  15  18
ATOM     18  O   UNL     1     -19.821  40.943  -1.785  1.00  0.00    -0.504 OA
ATOM     19  H   UNL     1     -19.703  41.817  -1.285  1.00  0.00     0.293 HD
ENDBRANCH  15  18
BRANCH  17  20
ATOM     20  O   UNL     1     -20.137  38.590  -3.318  1.00  0.00    -0.504 OA
ATOM     21  H   UNL     1     -21.036  38.980  -3.060  1.00  0.00     0.293 HD
ENDBRANCH  17  20
ENDBRANCH   1  12
BRANCH   2  22
ATOM     22  O   UNL     1     -14.799  37.837  -3.816  1.00  0.00    -0.502 OA
ATOM     23  H   UNL     1     -15.630  38.128  -4.316  1.00  0.00     0.293 HD
ENDBRANCH   2  22
BRANCH   6  24
ATOM     24  O   UNL     1     -12.104  33.395  -2.644  1.00  0.00    -0.507 OA
ATOM     25  H   UNL     1     -11.759  32.459  -2.795  1.00  0.00     0.293 HD
ENDBRANCH   6  24
BRANCH   8  26
ATOM     26  O   UNL     1     -14.041  32.335   1.620  1.00  0.00    -0.508 OA
ATOM     27  H   UNL     1     -13.243  32.237   2.236  1.00  0.00     0.293 HD
ENDBRANCH   8  26
TORSDOF 6
ENDMDL
MODEL 6
REMARK VINA RESULT:    -6.107      1.867      7.204
REMARK INTER + INTRA:          -7.613
REMARK INTER:                  -7.279
REMARK INTRA:                  -0.335
REMARK UNBOUND:                -0.257
REMARK SMILES O=c1c(O)c(-c2ccc(O)c(O)c2)oc2cc(O)cc(O)c12
REMARK SMILES IDX 5 1 3 2 2 3 1 4 22 5 20 6 19 7 17 8 16 9 15 10 14 11 6 12
REMARK SMILES IDX 7 13 8 14 9 15 13 16 11 17 10 18 12 20 4 22 21 24 18 26
REMARK H PARENT 10 19 12 21 4 23 21 25 18 27
REMARK Flexibility Score: inf
ROOT
ATOM      1  C   UNL     1     -14.906  36.409  -1.504  1.00  0.00     0.180 A 
ATOM      2  C   UNL     1     -14.884  37.151  -0.312  1.00  0.00     0.208 A 
ATOM      3  C   UNL     1     -15.952  38.019  -0.030  1.00  0.00     0.238 A 
ATOM      4  O   UNL     1     -15.901  38.722   1.012  1.00  0.00    -0.285 OA
ATOM      5  C   UNL     1     -17.035  38.122  -0.936  1.00  0.00     0.111 A 
ATOM      6  C   UNL     1     -18.187  38.938  -0.733  1.00  0.00     0.134 A 
ATOM      7  C   UNL     1     -19.135  39.061  -1.757  1.00  0.00     0.093 A 
ATOM      8  C   UNL     1     -19.005  38.346  -2.950  1.00  0.00     0.123 A 
ATOM      9  C   UNL     1     -17.913  37.500  -3.133  1.00  0.00     0.094 A 
ATOM     10  C   UNL     1     -16.933  37.384  -2.145  1.00  0.00     0.146 A 
ATOM     11  O   UNL     1     -15.903  36.575  -2.366  1.00  0.00    -0.452 OA
ENDROOT
BRANCH   1  12
ATOM     12  C   UNL     1     -13.830  35.455  -1.858  1.00  0.00     0.025 A 
ATOM     13  C   UNL     1     -13.884  34.109  -1.457  1.00  0.00     0.016 A 
ATOM     14  C   UNL     1     -12.869  33.221  -1.822  1.00  0.00     0.051 A 
ATOM     15  C   UNL     1     -11.792  33.661  -2.605  1.00  0.00     0.157 A 
ATOM     16  C   UNL     1     -12.760  35.886  -2.660  1.00  0.00     0.062 A 
ATOM     17  C   UNL     1     -11.741  35.000  -3.029  1.00  0.00     0.158 A 
BRANCH  15  18
ATOM     18  O   UNL     1     -10.780  32.774  -2.967  1.00  0.00    -0.504 OA
ATOM     19  H   UNL     1     -10.946  31.775  -3.027  1.00  0.00     0.293 HD
ENDBRANCH  15  18
BRANCH  17  20
ATOM     20  O   UNL     1     -10.688  35.468  -3.814  1.00  0.00    -0.504 OA
ATOM     21  H   UNL     1     -10.254  34.895  -4.528  1.00  0.00     0.293 HD
ENDBRANCH  17  20
ENDBRANCH   1  12
BRANCH   2  22
ATOM     22  O   UNL     1     -13.796  37.053   0.560  1.00  0.00    -0.502 OA
ATOM     23  H   UNL     1     -13.756  37.551   1.440  1.00  0.00     0.293 HD
ENDBRANCH   2  22
BRANCH   6  24
ATOM     24  O   UNL     1     -18.460  39.621   0.455  1.00  0.00    -0.507 OA
ATOM     25  H   UNL     1     -18.054  40.507   0.715  1.00  0.00     0.293 HD
ENDBRANCH   6  24
BRANCH   8  26
ATOM     26  O   UNL     1     -19.961  38.463  -3.956  1.00  0.00    -0.508 OA
ATOM     27  H   UNL     1     -20.895  38.802  -3.763  1.00  0.00     0.293 HD
ENDBRANCH   8  26
TORSDOF 6
ENDMDL
MODEL 7
REMARK VINA RESULT:    -6.053      9.926     12.978
REMARK INTER + INTRA:          -7.549
REMARK INTER:                  -7.220
REMARK INTRA:                  -0.329
REMARK UNBOUND:                -0.257
REMARK SMILES O=c1c(O)c(-c2ccc(O)c(O)c2)oc2cc(O)cc(O)c12
REMARK SMILES IDX 5 1 3 2 2 3 1 4 22 5 20 6 19 7 17 8 16 9 15 10 14 11 6 12
REMARK SMILES IDX 7 13 8 14 9 15 13 16 11 17 10 18 12 20 4 22 21 24 18 26
REMARK H PARENT 10 19 12 21 4 23 21 25 18 27
REMARK Flexibility Score: inf
ROOT
ATOM      1  C   UNL     1     -25.756  39.792  -6.067  1.00  0.00     0.180 A 
ATOM      2  C   UNL     1     -26.259  40.958  -6.667  1.00  0.00     0.208 A 
ATOM      3  C   UNL     1     -25.389  41.771  -7.412  1.00  0.00     0.238 A 
ATOM      4  O   UNL     1     -25.832  42.843  -7.901  1.00  0.00    -0.285 OA
ATOM      5  C   UNL     1     -24.031  41.399  -7.561  1.00  0.00     0.111 A 
ATOM      6  C   UNL     1     -23.071  42.126  -8.327  1.00  0.00     0.134 A 
ATOM      7  C   UNL     1     -21.727  41.735  -8.298  1.00  0.00     0.093 A 
ATOM      8  C   UNL     1     -21.319  40.606  -7.583  1.00  0.00     0.123 A 
ATOM      9  C   UNL     1     -22.260  39.856  -6.880  1.00  0.00     0.094 A 
ATOM     10  C   UNL     1     -23.601  40.241  -6.861  1.00  0.00     0.146 A 
ATOM     11  O   UNL     1     -24.463  39.503  -6.170  1.00  0.00    -0.452 OA
ENDROOT
BRANCH   1  12
ATOM     12  C   UNL     1     -26.616  38.872  -5.288  1.00  0.00     0.025 A 
ATOM     13  C   UNL     1     -27.253  37.776  -5.895  1.00  0.00     0.016 A 
ATOM     14  C   UNL     1     -28.041  36.908  -5.135  1.00  0.00     0.051 A 
ATOM     15  C   UNL     1     -28.194  37.112  -3.757  1.00  0.00     0.157 A 
ATOM     16  C   UNL     1     -26.754  39.061  -3.903  1.00  0.00     0.062 A 
ATOM     17  C   UNL     1     -27.543  38.194  -3.138  1.00  0.00     0.158 A 
BRANCH  15  18
ATOM     18  O   UNL     1     -28.981  36.245  -3.002  1.00  0.00    -0.504 OA
ATOM     19  H   UNL     1     -29.049  35.259  -3.226  1.00  0.00     0.293 HD
ENDBRANCH  15  18
BRANCH  17  20
ATOM     20  O   UNL     1     -27.668  38.422  -1.769  1.00  0.00    -0.504 OA
ATOM     21  H   UNL     1     -27.449  39.318  -1.350  1.00  0.00     0.293 HD
ENDBRANCH  17  20
ENDBRANCH   1  12
BRANCH   2  22
ATOM     22  O   UNL     1     -27.597  41.320  -6.489  1.00  0.00    -0.502 OA
ATOM     23  H   UNL     1     -27.985  41.545  -5.582  1.00  0.00     0.293 HD
ENDBRANCH   2  22
BRANCH   6  24
ATOM     24  O   UNL     1     -23.388  43.212  -9.148  1.00  0.00    -0.507 OA
ATOM     25  H   UNL     1     -23.723  43.137 -10.096  1.00  0.00     0.293 HD
ENDBRANCH   6  24
BRANCH   8  26
ATOM     26  O   UNL     1     -19.982  40.217  -7.572  1.00  0.00    -0.508 OA
ATOM     27  H   UNL     1     -19.701  39.277  -7.826  1.00  0.00     0.293 HD
ENDBRANCH   8  26
TORSDOF 6
ENDMDL
MODEL 8
REMARK VINA RESULT:    -6.047      1.757      2.255
REMARK INTER + INTRA:          -7.542
REMARK INTER:                  -7.231
REMARK INTRA:                  -0.310
REMARK UNBOUND:                -0.257
REMARK SMILES O=c1c(O)c(-c2ccc(O)c(O)c2)oc2cc(O)cc(O)c12
REMARK SMILES IDX 5 1 3 2 2 3 1 4 22 5 20 6 19 7 17 8 16 9 15 10 14 11 6 12
REMARK SMILES IDX 7 13 8 14 9 15 13 16 11 17 10 18 12 20 4 22 21 24 18 26
REMARK H PARENT 10 19 12 21 4 23 21 25 18 27
REMARK Flexibility Score: inf
ROOT
ATOM      1  C   UNL     1     -14.756  36.239  -1.988  1.00  0.00     0.180 A 
ATOM      2  C   UNL     1     -14.499  35.823  -0.671  1.00  0.00     0.208 A 
ATOM      3  C   UNL     1     -13.242  35.278  -0.361  1.00  0.00     0.238 A 
ATOM      4  O   UNL     1     -13.038  34.858   0.807  1.00  0.00    -0.285 OA
ATOM      5  C   UNL     1     -12.253  35.170  -1.367  1.00  0.00     0.111 A 
ATOM      6  C   UNL     1     -10.933  34.672  -1.156  1.00  0.00     0.134 A 
ATOM      7  C   UNL     1     -10.080  34.489  -2.252  1.00  0.00     0.093 A 
ATOM      8  C   UNL     1     -10.478  34.848  -3.542  1.00  0.00     0.123 A 
ATOM      9  C   UNL     1     -11.744  35.392  -3.750  1.00  0.00     0.094 A 
ATOM     10  C   UNL     1     -12.629  35.553  -2.682  1.00  0.00     0.146 A 
ATOM     11  O   UNL     1     -13.830  36.065  -2.926  1.00  0.00    -0.452 OA
ENDROOT
BRANCH   1  12
ATOM     12  C   UNL     1     -16.047  36.846  -2.386  1.00  0.00     0.025 A 
ATOM     13  C   UNL     1     -17.078  36.071  -2.944  1.00  0.00     0.016 A 
ATOM     14  C   UNL     1     -18.297  36.661  -3.290  1.00  0.00     0.051 A 
ATOM     15  C   UNL     1     -18.508  38.029  -3.071  1.00  0.00     0.157 A 
ATOM     16  C   UNL     1     -16.271  38.212  -2.150  1.00  0.00     0.062 A 
ATOM     17  C   UNL     1     -17.489  38.807  -2.495  1.00  0.00     0.158 A 
BRANCH  15  18
ATOM     18  O   UNL     1     -19.724  38.615  -3.419  1.00  0.00    -0.504 OA
ATOM     19  H   UNL     1     -20.414  38.118  -3.971  1.00  0.00     0.293 HD
ENDBRANCH  15  18
BRANCH  17  20
ATOM     20  O   UNL     1     -17.670  40.169  -2.258  1.00  0.00    -0.504 OA
ATOM     21  H   UNL     1     -18.007  40.800  -2.976  1.00  0.00     0.293 HD
ENDBRANCH  17  20
ENDBRANCH   1  12
BRANCH   2  22
ATOM     22  O   UNL     1     -15.497  35.918   0.304  1.00  0.00    -0.502 OA
ATOM     23  H   UNL     1     -15.292  36.116   1.275  1.00  0.00     0.293 HD
ENDBRANCH   2  22
BRANCH   6  24
ATOM     24  O   UNL     1     -10.405  34.369   0.102  1.00  0.00    -0.507 OA
ATOM     25  H   UNL     1     -10.929  33.966   0.863  1.00  0.00     0.293 HD
ENDBRANCH   6  24
BRANCH   8  26
ATOM     26  O   UNL     1      -9.618  34.677  -4.625  1.00  0.00    -0.508 OA
ATOM     27  H   UNL     1      -8.909  33.954  -4.629  1.00  0.00     0.293 HD
ENDBRANCH   8  26
TORSDOF 6
ENDMDL
MODEL 9
REMARK VINA RESULT:    -5.889     11.179     14.051
REMARK INTER + INTRA:          -7.351
REMARK INTER:                  -7.133
REMARK INTRA:                  -0.218
REMARK UNBOUND:                -0.257
REMARK SMILES O=c1c(O)c(-c2ccc(O)c(O)c2)oc2cc(O)cc(O)c12
REMARK SMILES IDX 5 1 3 2 2 3 1 4 22 5 20 6 19 7 17 8 16 9 15 10 14 11 6 12
REMARK SMILES IDX 7 13 8 14 9 15 13 16 11 17 10 18 12 20 4 22 21 24 18 26
REMARK H PARENT 10 19 12 21 4 23 21 25 18 27
REMARK Flexibility Score: inf
ROOT
ATOM      1  C   UNL     1     -26.230  32.032   0.425  1.00  0.00     0.180 A 
ATOM      2  C   UNL     1     -26.925  33.253   0.458  1.00  0.00     0.208 A 
ATOM      3  C   UNL     1     -26.249  34.411   0.875  1.00  0.00     0.238 A 
ATOM      4  O   UNL     1     -26.892  35.490   0.955  1.00  0.00    -0.285 OA
ATOM      5  C   UNL     1     -24.883  34.337   1.239  1.00  0.00     0.111 A 
ATOM      6  C   UNL     1     -24.089  35.453   1.638  1.00  0.00     0.134 A 
ATOM      7  C   UNL     1     -22.784  35.242   2.100  1.00  0.00     0.093 A 
ATOM      8  C   UNL     1     -22.223  33.963   2.116  1.00  0.00     0.123 A 
ATOM      9  C   UNL     1     -22.971  32.875   1.672  1.00  0.00     0.094 A 
ATOM     10  C   UNL     1     -24.287  33.049   1.239  1.00  0.00     0.146 A 
ATOM     11  O   UNL     1     -24.967  31.982   0.834  1.00  0.00    -0.452 OA
ENDROOT
BRANCH   1  12
ATOM     12  C   UNL     1     -26.868  30.774  -0.027  1.00  0.00     0.025 A 
ATOM     13  C   UNL     1     -27.193  29.751   0.880  1.00  0.00     0.016 A 
ATOM     14  C   UNL     1     -27.815  28.583   0.434  1.00  0.00     0.051 A 
ATOM     15  C   UNL     1     -28.135  28.424  -0.921  1.00  0.00     0.157 A 
ATOM     16  C   UNL     1     -27.210  30.620  -1.381  1.00  0.00     0.062 A 
ATOM     17  C   UNL     1     -27.833  29.451  -1.832  1.00  0.00     0.158 A 
BRANCH  15  18
ATOM     18  O   UNL     1     -28.755  27.257  -1.363  1.00  0.00    -0.504 OA
ATOM     19  H   UNL     1     -28.678  26.388  -0.847  1.00  0.00     0.293 HD
ENDBRANCH  15  18
BRANCH  17  20
ATOM     20  O   UNL     1     -28.144  29.328  -3.186  1.00  0.00    -0.504 OA
ATOM     21  H   UNL     1     -28.896  28.733  -3.513  1.00  0.00     0.293 HD
ENDBRANCH  17  20
ENDBRANCH   1  12
BRANCH   2  22
ATOM     22  O   UNL     1     -28.280  33.301   0.116  1.00  0.00    -0.502 OA
ATOM     23  H   UNL     1     -29.017  33.108   0.783  1.00  0.00     0.293 HD
ENDBRANCH   2  22
BRANCH   6  24
ATOM     24  O   UNL     1     -24.521  36.781   1.574  1.00  0.00    -0.507 OA
ATOM     25  H   UNL     1     -25.479  37.079   1.679  1.00  0.00     0.293 HD
ENDBRANCH   6  24
BRANCH   8  26
ATOM     26  O   UNL     1     -20.919  33.765   2.563  1.00  0.00    -0.508 OA
ATOM     27  H   UNL     1     -20.634  32.894   2.996  1.00  0.00     0.293 HD
ENDBRANCH   8  26
TORSDOF 6
ENDMDL
