MODEL 1
REMARK VINA RESULT:    -0.725      0.000      0.000
REMARK INTER + INTRA:           8.525
REMARK INTER:                  -1.064
REMARK INTRA:                   9.589
REMARK UNBOUND:                 9.589
REMARK SMILES O=c1c(O[C@@H]2O[C@@H](CO)[C@H](O)[C@H](O)[C@@H]2O)c(-c2ccc(O)c(O)c2)oc2cc(O)cc(O)c12
REMARK SMILES IDX 4 1 3 2 16 3 25 4 2 5 26 6 1 7 33 8 27 9 31 10 28 11 30 12
REMARK SMILES IDX 17 13 18 14 19 15 20 16 24 17 22 18 21 19 23 21 32 23 29 25
REMARK SMILES IDX 5 27 14 28 6 29 12 30 7 31 10 32 15 33 13 35 8 37 9 38 11 40
REMARK H PARENT 21 20 23 22 32 24 29 26 15 34 13 36 9 39 11 41
REMARK Flexibility Score: inf
ROOT
ATOM      1  O   UNL     1      91.000 101.726  98.452  1.00  0.00    -0.454 OA
ENDROOT
BRANCH   1   2
ATOM      2  C   UNL     1      92.015 102.614  98.035  1.00  0.00     0.214 A 
ATOM      3  C   UNL     1      92.706 102.318  96.842  1.00  0.00     0.180 A 
ATOM      4  O   UNL     1      93.617 103.158  96.364  1.00  0.00    -0.452 OA
ATOM      5  C   UNL     1      92.361 103.801  98.725  1.00  0.00     0.239 A 
ATOM      6  C   UNL     1      93.958 104.285  96.972  1.00  0.00     0.146 A 
ATOM      7  O   UNL     1      91.792 104.097  99.808  1.00  0.00    -0.285 OA
ATOM      8  C   UNL     1      93.348 104.657  98.191  1.00  0.00     0.111 A 
ATOM      9  C   UNL     1      94.933 105.101  96.391  1.00  0.00     0.094 A 
ATOM     10  C   UNL     1      93.745 105.865  98.817  1.00  0.00     0.134 A 
ATOM     11  C   UNL     1      95.319 106.290  97.011  1.00  0.00     0.123 A 
ATOM     12  C   UNL     1      94.728 106.669  98.220  1.00  0.00     0.093 A 
BRANCH   3  13
ATOM     13  C   UNL     1      92.434 101.085  96.075  1.00  0.00     0.025 A 
ATOM     14  C   UNL     1      91.119 100.698  95.775  1.00  0.00     0.016 A 
ATOM     15  C   UNL     1      90.875  99.519  95.065  1.00  0.00     0.051 A 
ATOM     16  C   UNL     1      91.941  98.705  94.661  1.00  0.00     0.157 A 
ATOM     17  C   UNL     1      93.499 100.256  95.690  1.00  0.00     0.062 A 
ATOM     18  C   UNL     1      93.259  99.074  94.979  1.00  0.00     0.158 A 
BRANCH  16  19
ATOM     19  O   UNL     1      91.696  97.532  93.949  1.00  0.00    -0.504 OA
ATOM     20  H   UNL     1      92.428  96.851  93.780  1.00  0.00     0.293 HD
ENDBRANCH  16  19
BRANCH  18  21
ATOM     21  O   UNL     1      94.341  98.281  94.599  1.00  0.00    -0.504 OA
ATOM     22  H   UNL     1      95.044  98.607  93.945  1.00  0.00     0.293 HD
ENDBRANCH  18  21
ENDBRANCH   3  13
BRANCH  10  23
ATOM     23  O   UNL     1      93.174 106.274 100.023  1.00  0.00    -0.507 OA
ATOM     24  H   UNL     1      92.386 106.909 100.053  1.00  0.00     0.293 HD
ENDBRANCH  10  23
BRANCH  11  25
ATOM     25  O   UNL     1      96.295 107.088  96.416  1.00  0.00    -0.508 OA
ATOM     26  H   UNL     1      96.080 108.014  96.065  1.00  0.00     0.293 HD
ENDBRANCH  11  25
ENDBRANCH   1   2
BRANCH   1  27
ATOM     27  C   UNL     1      91.021 100.866  99.597  1.00  0.00     0.339 C 
ATOM     28  C   UNL     1      92.304 100.009  99.623  1.00  0.00     0.214 C 
ATOM     29  O   UNL     1      90.875 101.601 100.803  1.00  0.00    -0.332 OA
ATOM     30  C   UNL     1      93.543 100.870  99.927  1.00  0.00     0.180 C 
ATOM     31  C   UNL     1      91.945 102.514 100.997  1.00  0.00     0.179 C 
ATOM     32  C   UNL     1      93.281 101.750 101.162  1.00  0.00     0.177 C 
BRANCH  28  33
ATOM     33  O   UNL     1      92.473  99.342  98.399  1.00  0.00    -0.384 OA
ATOM     34  H   UNL     1      93.160  99.847  97.889  1.00  0.00     0.211 HD
ENDBRANCH  28  33
BRANCH  30  35
ATOM     35  O   UNL     1      93.866 101.683  98.826  1.00  0.00    -0.387 OA
ATOM     36  H   UNL     1      94.623 102.263  99.104  1.00  0.00     0.211 HD
ENDBRANCH  30  35
BRANCH  31  37
ATOM     37  C   UNL     1      91.621 103.355 102.242  1.00  0.00     0.191 C 
BRANCH  37  38
ATOM     38  O   UNL     1      91.700 102.587 103.413  1.00  0.00    -0.394 OA
ATOM     39  H   UNL     1      91.280 101.711 103.207  1.00  0.00     0.210 HD
ENDBRANCH  37  38
ENDBRANCH  31  37
BRANCH  32  40
ATOM     40  O   UNL     1      94.341 102.657 101.331  1.00  0.00    -0.387 OA
ATOM     41  H   UNL     1      95.051 102.390 100.691  1.00  0.00     0.211 HD
ENDBRANCH  32  40
ENDBRANCH   1  27
TORSDOF 12
ENDMDL
MODEL 2
REMARK VINA RESULT:     0.938      1.706      7.015
REMARK INTER + INTRA:          10.966
REMARK INTER:                   9.442
REMARK INTRA:                   1.524
REMARK UNBOUND:                 9.589
REMARK SMILES O=c1c(O[C@@H]2O[C@@H](CO)[C@H](O)[C@H](O)[C@@H]2O)c(-c2ccc(O)c(O)c2)oc2cc(O)cc(O)c12
REMARK SMILES IDX 4 1 3 2 16 3 25 4 2 5 26 6 1 7 33 8 27 9 31 10 28 11 30 12
REMARK SMILES IDX 17 13 18 14 19 15 20 16 24 17 22 18 21 19 23 21 32 23 29 25
REMARK SMILES IDX 5 27 14 28 6 29 12 30 7 31 10 32 15 33 13 35 8 37 9 38 11 40
REMARK H PARENT 21 20 23 22 32 24 29 26 15 34 13 36 9 39 11 41
REMARK Flexibility Score: inf
ROOT
ATOM      1  O   UNL     1      92.741 103.867  98.852  1.00  0.00    -0.454 OA
ENDROOT
BRANCH   1   2
ATOM      2  C   UNL     1      92.416 102.499  98.719  1.00  0.00     0.214 A 
ATOM      3  C   UNL     1      91.789 101.858  99.806  1.00  0.00     0.180 A 
ATOM      4  O   UNL     1      91.393 100.594  99.706  1.00  0.00    -0.452 OA
ATOM      5  C   UNL     1      92.653 101.740  97.547  1.00  0.00     0.239 A 
ATOM      6  C   UNL     1      91.584  99.855  98.623  1.00  0.00     0.146 A 
ATOM      7  O   UNL     1      93.233 102.260  96.558  1.00  0.00    -0.285 OA
ATOM      8  C   UNL     1      92.233 100.394  97.489  1.00  0.00     0.111 A 
ATOM      9  C   UNL     1      91.136  98.530  98.617  1.00  0.00     0.094 A 
ATOM     10  C   UNL     1      92.427  99.571  96.352  1.00  0.00     0.134 A 
ATOM     11  C   UNL     1      91.328  97.725  97.494  1.00  0.00     0.123 A 
ATOM     12  C   UNL     1      91.972  98.244  96.367  1.00  0.00     0.093 A 
BRANCH   3  13
ATOM     13  C   UNL     1      91.533 102.563 101.079  1.00  0.00     0.025 A 
ATOM     14  C   UNL     1      91.142 103.910 101.090  1.00  0.00     0.016 A 
ATOM     15  C   UNL     1      90.921 104.570 102.302  1.00  0.00     0.051 A 
ATOM     16  C   UNL     1      91.105 103.896 103.517  1.00  0.00     0.157 A 
ATOM     17  C   UNL     1      91.740 101.897 102.296  1.00  0.00     0.062 A 
ATOM     18  C   UNL     1      91.520 102.554 103.513  1.00  0.00     0.158 A 
BRANCH  16  19
ATOM     19  O   UNL     1      90.880 104.556 104.724  1.00  0.00    -0.504 OA
ATOM     20  H   UNL     1      91.452 105.341 105.014  1.00  0.00     0.293 HD
ENDBRANCH  16  19
BRANCH  18  21
ATOM     21  O   UNL     1      91.721 101.859 104.704  1.00  0.00    -0.504 OA
ATOM     22  H   UNL     1      92.484 101.202 104.822  1.00  0.00     0.293 HD
ENDBRANCH  18  21
ENDBRANCH   3  13
BRANCH  10  23
ATOM     23  O   UNL     1      93.065 100.057  95.210  1.00  0.00    -0.507 OA
ATOM     24  H   UNL     1      92.803 100.940  94.787  1.00  0.00     0.293 HD
ENDBRANCH  10  23
BRANCH  11  25
ATOM     25  O   UNL     1      90.875  96.407  97.510  1.00  0.00    -0.508 OA
ATOM     26  H   UNL     1      90.794  95.864  96.658  1.00  0.00     0.293 HD
ENDBRANCH  11  25
ENDBRANCH   1   2
BRANCH   1  27
ATOM     27  C   UNL     1      93.903 104.422  99.479  1.00  0.00     0.339 C 
ATOM     28  C   UNL     1      95.192 103.931  98.788  1.00  0.00     0.214 C 
ATOM     29  O   UNL     1      93.849 105.840  99.511  1.00  0.00    -0.332 OA
ATOM     30  C   UNL     1      95.341 104.546  97.385  1.00  0.00     0.180 C 
ATOM     31  C   UNL     1      93.823 106.396  98.205  1.00  0.00     0.179 C 
ATOM     32  C   UNL     1      95.136 106.069  97.454  1.00  0.00     0.177 C 
BRANCH  28  33
ATOM     33  O   UNL     1      95.200 102.530  98.701  1.00  0.00    -0.384 OA
ATOM     34  H   UNL     1      94.264 102.228  98.840  1.00  0.00     0.211 HD
ENDBRANCH  28  33
BRANCH  30  35
ATOM     35  O   UNL     1      94.409 103.983  96.494  1.00  0.00    -0.387 OA
ATOM     36  H   UNL     1      94.904 103.746  95.666  1.00  0.00     0.211 HD
ENDBRANCH  30  35
BRANCH  31  37
ATOM     37  C   UNL     1      93.620 107.914  98.348  1.00  0.00     0.191 C 
BRANCH  37  38
ATOM     38  O   UNL     1      93.502 108.534  97.095  1.00  0.00    -0.394 OA
ATOM     39  H   UNL     1      92.531 108.654  96.927  1.00  0.00     0.210 HD
ENDBRANCH  37  38
ENDBRANCH  31  37
BRANCH  32  40
ATOM     40  O   UNL     1      95.099 106.602  96.155  1.00  0.00    -0.387 OA
ATOM     41  H   UNL     1      94.178 106.943  96.011  1.00  0.00     0.211 HD
ENDBRANCH  32  40
ENDBRANCH   1  27
TORSDOF 12
ENDMDL
MODEL 3
REMARK VINA RESULT:     1.093      1.585      2.707
REMARK INTER + INTRA:          11.193
REMARK INTER:                   0.587
REMARK INTRA:                  10.606
REMARK UNBOUND:                 9.589
REMARK SMILES O=c1c(O[C@@H]2O[C@@H](CO)[C@H](O)[C@H](O)[C@@H]2O)c(-c2ccc(O)c(O)c2)oc2cc(O)cc(O)c12
REMARK SMILES IDX 4 1 3 2 16 3 25 4 2 5 26 6 1 7 33 8 27 9 31 10 28 11 30 12
REMARK SMILES IDX 17 13 18 14 19 15 20 16 24 17 22 18 21 19 23 21 32 23 29 25
REMARK SMILES IDX 5 27 14 28 6 29 12 30 7 31 10 32 15 33 13 35 8 37 9 38 11 40
REMARK H PARENT 21 20 23 22 32 24 29 26 15 34 13 36 9 39 11 41
REMARK Flexibility Score: inf
ROOT
ATOM      1  O   UNL     1      94.871 101.456  98.869  1.00  0.00    -0.454 OA
ENDROOT
BRANCH   1   2
ATOM      2  C   UNL     1      94.559 102.780  98.490  1.00  0.00     0.214 A 
ATOM      3  C   UNL     1      93.604 102.971  97.471  1.00  0.00     0.180 A 
ATOM      4  O   UNL     1      93.219 104.195  97.129  1.00  0.00    -0.452 OA
ATOM      5  C   UNL     1      95.125 103.929  99.094  1.00  0.00     0.239 A 
ATOM      6  C   UNL     1      93.713 105.295  97.680  1.00  0.00     0.146 A 
ATOM      7  O   UNL     1      96.001 103.812  99.990  1.00  0.00    -0.285 OA
ATOM      8  C   UNL     1      94.700 105.212  98.688  1.00  0.00     0.111 A 
ATOM      9  C   UNL     1      93.246 106.539  97.247  1.00  0.00     0.094 A 
ATOM     10  C   UNL     1      95.212 106.410  99.247  1.00  0.00     0.134 A 
ATOM     11  C   UNL     1      93.752 107.715  97.802  1.00  0.00     0.123 A 
ATOM     12  C   UNL     1      94.732 107.650  98.797  1.00  0.00     0.093 A 
BRANCH   3  13
ATOM     13  C   UNL     1      92.988 101.830  96.764  1.00  0.00     0.025 A 
ATOM     14  C   UNL     1      91.616 101.820  96.471  1.00  0.00     0.016 A 
ATOM     15  C   UNL     1      91.042 100.726  95.818  1.00  0.00     0.051 A 
ATOM     16  C   UNL     1      91.829  99.622  95.464  1.00  0.00     0.157 A 
ATOM     17  C   UNL     1      93.769 100.713  96.431  1.00  0.00     0.062 A 
ATOM     18  C   UNL     1      93.199  99.615  95.777  1.00  0.00     0.158 A 
BRANCH  16  19
ATOM     19  O   UNL     1      91.255  98.534  94.809  1.00  0.00    -0.504 OA
ATOM     20  H   UNL     1      90.642  98.658  94.012  1.00  0.00     0.293 HD
ENDBRANCH  16  19
BRANCH  18  21
ATOM     21  O   UNL     1      94.007  98.528  95.447  1.00  0.00    -0.504 OA
ATOM     22  H   UNL     1      94.926  98.646  95.037  1.00  0.00     0.293 HD
ENDBRANCH  18  21
ENDBRANCH   3  13
BRANCH  10  23
ATOM     23  O   UNL     1      96.189 106.380 100.242  1.00  0.00    -0.507 OA
ATOM     24  H   UNL     1      96.926 107.074 100.288  1.00  0.00     0.293 HD
ENDBRANCH  10  23
BRANCH  11  25
ATOM     25  O   UNL     1      93.274 108.946  97.356  1.00  0.00    -0.508 OA
ATOM     26  H   UNL     1      93.489 109.807  97.845  1.00  0.00     0.293 HD
ENDBRANCH  11  25
ENDBRANCH   1   2
BRANCH   1  27
ATOM     27  C   UNL     1      94.420 100.763 100.039  1.00  0.00     0.339 C 
ATOM     28  C   UNL     1      94.330 101.718 101.247  1.00  0.00     0.214 C 
ATOM     29  O   UNL     1      93.181 100.110  99.812  1.00  0.00    -0.332 OA
ATOM     30  C   UNL     1      93.172 102.718 101.082  1.00  0.00     0.180 C 
ATOM     31  C   UNL     1      92.148 101.031  99.499  1.00  0.00     0.179 C 
ATOM     32  C   UNL     1      91.883 101.971 100.700  1.00  0.00     0.177 C 
BRANCH  28  33
ATOM     33  O   UNL     1      95.540 102.409 101.418  1.00  0.00    -0.384 OA
ATOM     34  H   UNL     1      95.577 102.691 102.370  1.00  0.00     0.211 HD
ENDBRANCH  28  33
BRANCH  30  35
ATOM     35  O   UNL     1      93.477 103.672 100.095  1.00  0.00    -0.387 OA
ATOM     36  H   UNL     1      93.972 103.199  99.375  1.00  0.00     0.211 HD
ENDBRANCH  30  35
BRANCH  31  37
ATOM     37  C   UNL     1      90.894 100.221  99.131  1.00  0.00     0.191 C 
BRANCH  37  38
ATOM     38  O   UNL     1      91.049  98.865  99.453  1.00  0.00    -0.394 OA
ATOM     39  H   UNL     1      91.898  98.567  99.031  1.00  0.00     0.210 HD
ENDBRANCH  37  38
ENDBRANCH  31  37
BRANCH  32  40
ATOM     40  O   UNL     1      90.876 102.897 100.380  1.00  0.00    -0.387 OA
ATOM     41  H   UNL     1      90.017 102.398 100.384  1.00  0.00     0.211 HD
ENDBRANCH  32  40
ENDBRANCH   1  27
TORSDOF 12
ENDMDL
MODEL 4
REMARK VINA RESULT:     1.098      1.676      6.617
REMARK INTER + INTRA:          11.201
REMARK INTER:                  11.207
REMARK INTRA:                  -0.007
REMARK UNBOUND:                 9.589
REMARK SMILES O=c1c(O[C@@H]2O[C@@H](CO)[C@H](O)[C@H](O)[C@@H]2O)c(-c2ccc(O)c(O)c2)oc2cc(O)cc(O)c12
REMARK SMILES IDX 4 1 3 2 16 3 25 4 2 5 26 6 1 7 33 8 27 9 31 10 28 11 30 12
REMARK SMILES IDX 17 13 18 14 19 15 20 16 24 17 22 18 21 19 23 21 32 23 29 25
REMARK SMILES IDX 5 27 14 28 6 29 12 30 7 31 10 32 15 33 13 35 8 37 9 38 11 40
REMARK H PARENT 21 20 23 22 32 24 29 26 15 34 13 36 9 39 11 41
REMARK Flexibility Score: inf
ROOT
ATOM      1  O   UNL     1      94.554 103.021  98.567  1.00  0.00    -0.454 OA
ENDROOT
BRANCH   1   2
ATOM      2  C   UNL     1      93.869 101.907  98.034  1.00  0.00     0.214 A 
ATOM      3  C   UNL     1      92.833 101.338  98.800  1.00  0.00     0.180 A 
ATOM      4  O   UNL     1      92.106 100.337  98.315  1.00  0.00    -0.452 OA
ATOM      5  C   UNL     1      94.140 101.347  96.762  1.00  0.00     0.239 A 
ATOM      6  C   UNL     1      92.319  99.795  97.124  1.00  0.00     0.146 A 
ATOM      7  O   UNL     1      95.073 101.803  96.050  1.00  0.00    -0.285 OA
ATOM      8  C   UNL     1      93.356 100.272  96.291  1.00  0.00     0.111 A 
ATOM      9  C   UNL     1      91.503  98.740  96.704  1.00  0.00     0.094 A 
ATOM     10  C   UNL     1      93.559  99.661  95.028  1.00  0.00     0.134 A 
ATOM     11  C   UNL     1      91.705  98.144  95.459  1.00  0.00     0.123 A 
ATOM     12  C   UNL     1      92.731  98.602  94.626  1.00  0.00     0.093 A 
BRANCH   3  13
ATOM     13  C   UNL     1      92.504 101.836 100.151  1.00  0.00     0.025 A 
ATOM     14  C   UNL     1      91.171 102.037 100.541  1.00  0.00     0.016 A 
ATOM     15  C   UNL     1      90.875 102.527 101.816  1.00  0.00     0.051 A 
ATOM     16  C   UNL     1      91.908 102.838 102.710  1.00  0.00     0.157 A 
ATOM     17  C   UNL     1      93.537 102.172 101.039  1.00  0.00     0.062 A 
ATOM     18  C   UNL     1      93.246 102.664 102.317  1.00  0.00     0.158 A 
BRANCH  16  19
ATOM     19  O   UNL     1      91.610 103.323 103.982  1.00  0.00    -0.504 OA
ATOM     20  H   UNL     1      91.911 102.837 104.819  1.00  0.00     0.293 HD
ENDBRANCH  16  19
BRANCH  18  21
ATOM     21  O   UNL     1      94.296 102.973 103.180  1.00  0.00    -0.504 OA
ATOM     22  H   UNL     1      95.085 102.350 103.312  1.00  0.00     0.293 HD
ENDBRANCH  18  21
ENDBRANCH   3  13
BRANCH  10  23
ATOM     23  O   UNL     1      94.571 100.095  94.172  1.00  0.00    -0.507 OA
ATOM     24  H   UNL     1      95.235 100.808  94.449  1.00  0.00     0.293 HD
ENDBRANCH  10  23
BRANCH  11  25
ATOM     25  O   UNL     1      90.882  97.092  95.059  1.00  0.00    -0.508 OA
ATOM     26  H   UNL     1      89.969  97.259  94.652  1.00  0.00     0.293 HD
ENDBRANCH  11  25
ENDBRANCH   1   2
BRANCH   1  27
ATOM     27  C   UNL     1      95.219 104.058  97.835  1.00  0.00     0.339 C 
ATOM     28  C   UNL     1      94.202 104.975  97.126  1.00  0.00     0.214 C 
ATOM     29  O   UNL     1      96.087 104.809  98.670  1.00  0.00    -0.332 OA
ATOM     30  C   UNL     1      93.426 105.835  98.139  1.00  0.00     0.180 C 
ATOM     31  C   UNL     1      95.379 105.472  99.706  1.00  0.00     0.179 C 
ATOM     32  C   UNL     1      94.407 106.518  99.108  1.00  0.00     0.177 C 
BRANCH  28  33
ATOM     33  O   UNL     1      93.305 104.214  96.358  1.00  0.00    -0.384 OA
ATOM     34  H   UNL     1      93.845 103.529  95.883  1.00  0.00     0.211 HD
ENDBRANCH  28  33
BRANCH  30  35
ATOM     35  O   UNL     1      92.514 105.048  98.865  1.00  0.00    -0.387 OA
ATOM     36  H   UNL     1      92.823 105.039  99.809  1.00  0.00     0.211 HD
ENDBRANCH  30  35
BRANCH  31  37
ATOM     37  C   UNL     1      96.415 106.133 100.631  1.00  0.00     0.191 C 
BRANCH  37  38
ATOM     38  O   UNL     1      97.707 105.651 100.378  1.00  0.00    -0.394 OA
ATOM     39  H   UNL     1      98.327 106.191 100.936  1.00  0.00     0.210 HD
ENDBRANCH  37  38
ENDBRANCH  31  37
BRANCH  32  40
ATOM     40  O   UNL     1      93.691 107.158 100.134  1.00  0.00    -0.387 OA
ATOM     41  H   UNL     1      92.999 107.717  99.695  1.00  0.00     0.211 HD
ENDBRANCH  32  40
ENDBRANCH   1  27
TORSDOF 12
ENDMDL
