MODEL 1
REMARK VINA RESULT:    -4.668      0.000      0.000
REMARK INTER + INTRA:         -13.908
REMARK INTER:                 -10.671
REMARK INTRA:                  -3.237
REMARK UNBOUND:                -3.237
REMARK SMILES CCCCCCCCCCCCCCCCCCCCCCCC(=O)[O-]
REMARK SMILES IDX 13 1 14 2 15 3 16 4 17 5 18 6 19 7 20 8 21 9 22 10 23 11
REMARK SMILES IDX 24 12 25 13 26 14 12 15 11 16 10 17 9 18 8 19 7 20 6 21 5 22
REMARK SMILES IDX 4 23 3 24 2 25 1 26
REMARK H PARENT
REMARK Flexibility Score: inf
ROOT
ATOM      1  C   UNL     1      49.702  52.322  23.843  1.00  0.00     0.000 C 
ENDROOT
BRANCH   1   2
ATOM      2  C   UNL     1      49.261  52.527  22.382  1.00  0.00     0.000 C 
BRANCH   2   3
ATOM      3  C   UNL     1      49.271  51.254  21.511  1.00  0.00     0.000 C 
BRANCH   3   4
ATOM      4  C   UNL     1      50.619  50.930  20.836  1.00  0.00     0.000 C 
BRANCH   4   5
ATOM      5  C   UNL     1      51.863  51.378  21.623  1.00  0.00     0.000 C 
BRANCH   5   6
ATOM      6  C   UNL     1      52.901  52.093  20.745  1.00  0.00     0.000 C 
BRANCH   6   7
ATOM      7  C   UNL     1      52.358  53.438  20.242  1.00  0.00     0.000 C 
BRANCH   7   8
ATOM      8  C   UNL     1      51.781  54.305  21.372  1.00  0.00     0.000 C 
BRANCH   8   9
ATOM      9  C   UNL     1      52.665  55.517  21.699  1.00  0.00     0.000 C 
BRANCH   9  10
ATOM     10  C   UNL     1      53.302  55.373  23.089  1.00  0.00     0.006 C 
BRANCH  10  11
ATOM     11  C   UNL     1      52.671  54.235  23.902  1.00  0.00     0.053 C 
BRANCH  11  12
ATOM     12  C   UNL     1      53.667  53.163  24.222  1.00  0.00     0.041 C 
ATOM     13  O   UNL     1      53.501  52.422  25.226  1.00  0.00    -0.550 OA
ATOM     14  O   UNL     1      54.764  52.963  23.394  1.00  0.00    -0.550 OA
ENDBRANCH  11  12
ENDBRANCH  10  11
ENDBRANCH   9  10
ENDBRANCH   8   9
ENDBRANCH   7   8
ENDBRANCH   6   7
ENDBRANCH   5   6
ENDBRANCH   4   5
ENDBRANCH   3   4
ENDBRANCH   2   3
ENDBRANCH   1   2
BRANCH   1  15
ATOM     15  C   UNL     1      49.134  53.390  24.792  1.00  0.00     0.000 C 
BRANCH  15  16
ATOM     16  C   UNL     1      49.015  52.888  26.241  1.00  0.00     0.000 C 
BRANCH  16  17
ATOM     17  C   UNL     1      47.759  53.423  26.952  1.00  0.00     0.000 C 
BRANCH  17  18
ATOM     18  C   UNL     1      46.543  53.506  26.016  1.00  0.00    -0.000 C 
BRANCH  18  19
ATOM     19  C   UNL     1      45.999  52.119  25.630  1.00  0.00    -0.000 C 
BRANCH  19  20
ATOM     20  C   UNL     1      45.937  51.914  24.108  1.00  0.00    -0.000 C 
BRANCH  20  21
ATOM     21  C   UNL     1      46.560  50.577  23.669  1.00  0.00    -0.000 C 
BRANCH  21  22
ATOM     22  C   UNL     1      47.491  49.976  24.736  1.00  0.00    -0.000 C 
BRANCH  22  23
ATOM     23  C   UNL     1      47.388  48.446  24.901  1.00  0.00    -0.000 C 
BRANCH  23  24
ATOM     24  C   UNL     1      48.683  47.665  24.601  1.00  0.00    -0.000 C 
BRANCH  24  25
ATOM     25  C   UNL     1      49.722  48.433  23.765  1.00  0.00    -0.003 C 
ATOM     26  C   UNL     1      51.057  47.697  23.653  1.00  0.00     0.004 C 
ENDBRANCH  24  25
ENDBRANCH  23  24
ENDBRANCH  22  23
ENDBRANCH  21  22
ENDBRANCH  20  21
ENDBRANCH  19  20
ENDBRANCH  18  19
ENDBRANCH  17  18
ENDBRANCH  16  17
ENDBRANCH  15  16
ENDBRANCH   1  15
TORSDOF 22
ENDMDL
MODEL 2
REMARK VINA RESULT:    -4.504      2.026      6.532
REMARK INTER + INTRA:         -13.534
REMARK INTER:                 -10.742
REMARK INTRA:                  -2.792
REMARK UNBOUND:                -3.237
REMARK SMILES CCCCCCCCCCCCCCCCCCCCCCCC(=O)[O-]
REMARK SMILES IDX 13 1 14 2 15 3 16 4 17 5 18 6 19 7 20 8 21 9 22 10 23 11
REMARK SMILES IDX 24 12 25 13 26 14 12 15 11 16 10 17 9 18 8 19 7 20 6 21 5 22
REMARK SMILES IDX 4 23 3 24 2 25 1 26
REMARK H PARENT
REMARK Flexibility Score: inf
ROOT
ATOM      1  C   UNL     1      48.596  53.042  26.351  1.00  0.00     0.000 C 
ENDROOT
BRANCH   1   2
ATOM      2  C   UNL     1      47.260  53.728  26.688  1.00  0.00     0.000 C 
BRANCH   2   3
ATOM      3  C   UNL     1      45.999  52.946  26.266  1.00  0.00     0.000 C 
BRANCH   3   4
ATOM      4  C   UNL     1      46.072  51.420  26.474  1.00  0.00     0.000 C 
BRANCH   4   5
ATOM      5  C   UNL     1      45.888  50.582  25.196  1.00  0.00     0.000 C 
BRANCH   5   6
ATOM      6  C   UNL     1      47.204  50.347  24.440  1.00  0.00     0.000 C 
BRANCH   6   7
ATOM      7  C   UNL     1      47.105  50.863  22.997  1.00  0.00     0.000 C 
BRANCH   7   8
ATOM      8  C   UNL     1      48.294  51.754  22.602  1.00  0.00     0.000 C 
BRANCH   8   9
ATOM      9  C   UNL     1      49.416  50.971  21.907  1.00  0.00     0.000 C 
BRANCH   9  10
ATOM     10  C   UNL     1      50.306  50.258  22.935  1.00  0.00     0.006 C 
BRANCH  10  11
ATOM     11  C   UNL     1      50.600  48.805  22.541  1.00  0.00     0.053 C 
BRANCH  11  12
ATOM     12  C   UNL     1      50.541  47.887  23.723  1.00  0.00     0.041 C 
ATOM     13  O   UNL     1      51.562  47.238  24.073  1.00  0.00    -0.550 OA
ATOM     14  O   UNL     1      49.367  47.770  24.455  1.00  0.00    -0.550 OA
ENDBRANCH  11  12
ENDBRANCH  10  11
ENDBRANCH   9  10
ENDBRANCH   8   9
ENDBRANCH   7   8
ENDBRANCH   6   7
ENDBRANCH   5   6
ENDBRANCH   4   5
ENDBRANCH   3   4
ENDBRANCH   2   3
ENDBRANCH   1   2
BRANCH   1  15
ATOM     15  C   UNL     1      49.135  53.433  24.965  1.00  0.00     0.000 C 
BRANCH  15  16
ATOM     16  C   UNL     1      50.662  53.290  24.864  1.00  0.00     0.000 C 
BRANCH  16  17
ATOM     17  C   UNL     1      51.349  54.582  24.387  1.00  0.00     0.000 C 
BRANCH  17  18
ATOM     18  C   UNL     1      52.875  54.536  24.563  1.00  0.00    -0.000 C 
BRANCH  18  19
ATOM     19  C   UNL     1      53.429  53.100  24.545  1.00  0.00    -0.000 C 
BRANCH  19  20
ATOM     20  C   UNL     1      54.001  52.707  23.174  1.00  0.00    -0.000 C 
BRANCH  20  21
ATOM     21  C   UNL     1      52.932  52.113  22.239  1.00  0.00    -0.000 C 
BRANCH  21  22
ATOM     22  C   UNL     1      53.212  52.407  20.755  1.00  0.00    -0.000 C 
BRANCH  22  23
ATOM     23  C   UNL     1      52.276  53.452  20.112  1.00  0.00    -0.000 C 
BRANCH  23  24
ATOM     24  C   UNL     1      51.820  54.589  21.050  1.00  0.00    -0.000 C 
BRANCH  24  25
ATOM     25  C   UNL     1      52.140  56.007  20.547  1.00  0.00    -0.003 C 
ATOM     26  C   UNL     1      53.128  56.748  21.448  1.00  0.00     0.004 C 
ENDBRANCH  24  25
ENDBRANCH  23  24
ENDBRANCH  22  23
ENDBRANCH  21  22
ENDBRANCH  20  21
ENDBRANCH  19  20
ENDBRANCH  18  19
ENDBRANCH  17  18
ENDBRANCH  16  17
ENDBRANCH  15  16
ENDBRANCH   1  15
TORSDOF 22
ENDMDL
MODEL 3
REMARK VINA RESULT:    -4.416      1.838      6.687
REMARK INTER + INTRA:         -13.332
REMARK INTER:                 -10.306
REMARK INTRA:                  -3.026
REMARK UNBOUND:                -3.237
REMARK SMILES CCCCCCCCCCCCCCCCCCCCCCCC(=O)[O-]
REMARK SMILES IDX 13 1 14 2 15 3 16 4 17 5 18 6 19 7 20 8 21 9 22 10 23 11
REMARK SMILES IDX 24 12 25 13 26 14 12 15 11 16 10 17 9 18 8 19 7 20 6 21 5 22
REMARK SMILES IDX 4 23 3 24 2 25 1 26
REMARK H PARENT
REMARK Flexibility Score: inf
ROOT
ATOM      1  C   UNL     1      48.877  52.904  26.331  1.00  0.00     0.000 C 
ENDROOT
BRANCH   1   2
ATOM      2  C   UNL     1      47.540  53.392  26.920  1.00  0.00     0.000 C 
BRANCH   2   3
ATOM      3  C   UNL     1      46.377  53.488  25.912  1.00  0.00     0.000 C 
BRANCH   3   4
ATOM      4  C   UNL     1      45.875  52.140  25.357  1.00  0.00     0.000 C 
BRANCH   4   5
ATOM      5  C   UNL     1      46.011  51.974  23.834  1.00  0.00     0.000 C 
BRANCH   5   6
ATOM      6  C   UNL     1      46.771  50.700  23.436  1.00  0.00     0.000 C 
BRANCH   6   7
ATOM      7  C   UNL     1      47.527  50.117  24.639  1.00  0.00     0.000 C 
BRANCH   7   8
ATOM      8  C   UNL     1      47.890  48.635  24.449  1.00  0.00     0.000 C 
BRANCH   8   9
ATOM      9  C   UNL     1      49.383  48.424  24.160  1.00  0.00     0.000 C 
BRANCH   9  10
ATOM     10  C   UNL     1      49.729  48.845  22.725  1.00  0.00     0.006 C 
BRANCH  10  11
ATOM     11  C   UNL     1      50.413  50.217  22.670  1.00  0.00     0.053 C 
BRANCH  11  12
ATOM     12  C   UNL     1      49.991  51.000  21.465  1.00  0.00     0.041 C 
ATOM     13  O   UNL     1      50.321  50.616  20.312  1.00  0.00    -0.550 OA
ATOM     14  O   UNL     1      49.209  52.138  21.613  1.00  0.00    -0.550 OA
ENDBRANCH  11  12
ENDBRANCH  10  11
ENDBRANCH   9  10
ENDBRANCH   8   9
ENDBRANCH   7   8
ENDBRANCH   6   7
ENDBRANCH   5   6
ENDBRANCH   4   5
ENDBRANCH   3   4
ENDBRANCH   2   3
ENDBRANCH   1   2
BRANCH   1  15
ATOM     15  C   UNL     1      49.104  53.387  24.888  1.00  0.00     0.000 C 
BRANCH  15  16
ATOM     16  C   UNL     1      50.584  53.331  24.475  1.00  0.00     0.000 C 
BRANCH  16  17
ATOM     17  C   UNL     1      51.411  54.483  25.075  1.00  0.00     0.000 C 
BRANCH  17  18
ATOM     18  C   UNL     1      52.799  54.609  24.428  1.00  0.00    -0.000 C 
BRANCH  18  19
ATOM     19  C   UNL     1      53.604  53.298  24.497  1.00  0.00    -0.000 C 
BRANCH  19  20
ATOM     20  C   UNL     1      54.181  52.889  23.133  1.00  0.00    -0.000 C 
BRANCH  20  21
ATOM     21  C   UNL     1      53.134  52.213  22.231  1.00  0.00    -0.000 C 
BRANCH  21  22
ATOM     22  C   UNL     1      53.306  52.577  20.745  1.00  0.00    -0.000 C 
BRANCH  22  23
ATOM     23  C   UNL     1      52.215  53.508  20.175  1.00  0.00    -0.000 C 
BRANCH  23  24
ATOM     24  C   UNL     1      51.859  54.721  21.058  1.00  0.00    -0.000 C 
BRANCH  24  25
ATOM     25  C   UNL     1      52.353  56.076  20.524  1.00  0.00    -0.003 C 
ATOM     26  C   UNL     1      53.217  56.834  21.532  1.00  0.00     0.004 C 
ENDBRANCH  24  25
ENDBRANCH  23  24
ENDBRANCH  22  23
ENDBRANCH  21  22
ENDBRANCH  20  21
ENDBRANCH  19  20
ENDBRANCH  18  19
ENDBRANCH  17  18
ENDBRANCH  16  17
ENDBRANCH  15  16
ENDBRANCH   1  15
TORSDOF 22
ENDMDL
MODEL 4
REMARK VINA RESULT:    -4.370      1.746      6.363
REMARK INTER + INTRA:         -13.227
REMARK INTER:                 -10.857
REMARK INTRA:                  -2.370
REMARK UNBOUND:                -3.237
REMARK SMILES CCCCCCCCCCCCCCCCCCCCCCCC(=O)[O-]
REMARK SMILES IDX 13 1 14 2 15 3 16 4 17 5 18 6 19 7 20 8 21 9 22 10 23 11
REMARK SMILES IDX 24 12 25 13 26 14 12 15 11 16 10 17 9 18 8 19 7 20 6 21 5 22
REMARK SMILES IDX 4 23 3 24 2 25 1 26
REMARK H PARENT
REMARK Flexibility Score: inf
ROOT
ATOM      1  C   UNL     1      45.887  52.629  25.187  1.00  0.00     0.000 C 
ENDROOT
BRANCH   1   2
ATOM      2  C   UNL     1      46.243  52.260  23.734  1.00  0.00     0.000 C 
BRANCH   2   3
ATOM      3  C   UNL     1      46.562  50.770  23.498  1.00  0.00     0.000 C 
BRANCH   3   4
ATOM      4  C   UNL     1      47.438  50.106  24.579  1.00  0.00     0.000 C 
BRANCH   4   5
ATOM      5  C   UNL     1      46.679  49.197  25.561  1.00  0.00     0.000 C 
BRANCH   5   6
ATOM      6  C   UNL     1      47.332  47.817  25.727  1.00  0.00     0.000 C 
BRANCH   6   7
ATOM      7  C   UNL     1      48.147  47.445  24.480  1.00  0.00     0.000 C 
BRANCH   7   8
ATOM      8  C   UNL     1      49.574  46.984  24.819  1.00  0.00     0.000 C 
BRANCH   8   9
ATOM      9  C   UNL     1      50.646  47.739  24.021  1.00  0.00     0.000 C 
BRANCH   9  10
ATOM     10  C   UNL     1      50.004  48.657  22.971  1.00  0.00     0.006 C 
BRANCH  10  11
ATOM     11  C   UNL     1      50.627  50.059  22.966  1.00  0.00     0.053 C 
BRANCH  11  12
ATOM     12  C   UNL     1      50.556  50.693  21.611  1.00  0.00     0.041 C 
ATOM     13  O   UNL     1      49.590  51.443  21.311  1.00  0.00    -0.550 OA
ATOM     14  O   UNL     1      51.573  50.479  20.689  1.00  0.00    -0.550 OA
ENDBRANCH  11  12
ENDBRANCH  10  11
ENDBRANCH   9  10
ENDBRANCH   8   9
ENDBRANCH   7   8
ENDBRANCH   6   7
ENDBRANCH   5   6
ENDBRANCH   4   5
ENDBRANCH   3   4
ENDBRANCH   2   3
ENDBRANCH   1   2
BRANCH   1  15
ATOM     15  C   UNL     1      46.777  53.748  25.753  1.00  0.00     0.000 C 
BRANCH  15  16
ATOM     16  C   UNL     1      47.883  53.212  26.676  1.00  0.00     0.000 C 
BRANCH  16  17
ATOM     17  C   UNL     1      49.112  52.708  25.898  1.00  0.00     0.000 C 
BRANCH  17  18
ATOM     18  C   UNL     1      49.736  53.798  25.013  1.00  0.00    -0.000 C 
BRANCH  18  19
ATOM     19  C   UNL     1      51.051  53.345  24.356  1.00  0.00    -0.000 C 
BRANCH  19  20
ATOM     20  C   UNL     1      52.129  54.439  24.380  1.00  0.00    -0.000 C 
BRANCH  20  21
ATOM     21  C   UNL     1      53.407  54.023  23.630  1.00  0.00    -0.000 C 
BRANCH  21  22
ATOM     22  C   UNL     1      53.154  52.915  22.593  1.00  0.00    -0.000 C 
BRANCH  22  23
ATOM     23  C   UNL     1      52.744  53.417  21.193  1.00  0.00    -0.000 C 
BRANCH  23  24
ATOM     24  C   UNL     1      51.727  54.577  21.183  1.00  0.00    -0.000 C 
BRANCH  24  25
ATOM     25  C   UNL     1      52.226  55.866  20.507  1.00  0.00    -0.003 C 
ATOM     26  C   UNL     1      53.037  56.755  21.448  1.00  0.00     0.004 C 
ENDBRANCH  24  25
ENDBRANCH  23  24
ENDBRANCH  22  23
ENDBRANCH  21  22
ENDBRANCH  20  21
ENDBRANCH  19  20
ENDBRANCH  18  19
ENDBRANCH  17  18
ENDBRANCH  16  17
ENDBRANCH  15  16
ENDBRANCH   1  15
TORSDOF 22
ENDMDL
MODEL 5
REMARK VINA RESULT:    -4.304      2.184      6.822
REMARK INTER + INTRA:         -13.077
REMARK INTER:                 -10.307
REMARK INTRA:                  -2.770
REMARK UNBOUND:                -3.237
REMARK SMILES CCCCCCCCCCCCCCCCCCCCCCCC(=O)[O-]
REMARK SMILES IDX 13 1 14 2 15 3 16 4 17 5 18 6 19 7 20 8 21 9 22 10 23 11
REMARK SMILES IDX 24 12 25 13 26 14 12 15 11 16 10 17 9 18 8 19 7 20 6 21 5 22
REMARK SMILES IDX 4 23 3 24 2 25 1 26
REMARK H PARENT
REMARK Flexibility Score: inf
ROOT
ATOM      1  C   UNL     1      51.031  49.862  21.599  1.00  0.00     0.000 C 
ENDROOT
BRANCH   1   2
ATOM      2  C   UNL     1      50.178  49.168  22.678  1.00  0.00     0.000 C 
BRANCH   2   3
ATOM      3  C   UNL     1      50.883  48.022  23.432  1.00  0.00     0.000 C 
BRANCH   3   4
ATOM      4  C   UNL     1      50.014  47.286  24.470  1.00  0.00     0.000 C 
BRANCH   4   5
ATOM      5  C   UNL     1      48.497  47.381  24.231  1.00  0.00     0.000 C 
BRANCH   5   6
ATOM      6  C   UNL     1      47.685  47.387  25.534  1.00  0.00     0.000 C 
BRANCH   6   7
ATOM      7  C   UNL     1      46.768  48.617  25.601  1.00  0.00     0.000 C 
BRANCH   7   8
ATOM      8  C   UNL     1      47.395  49.861  24.952  1.00  0.00     0.000 C 
BRANCH   8   9
ATOM      9  C   UNL     1      46.468  50.522  23.922  1.00  0.00     0.000 C 
BRANCH   9  10
ATOM     10  C   UNL     1      46.127  51.961  24.336  1.00  0.00     0.006 C 
BRANCH  10  11
ATOM     11  C   UNL     1      46.032  52.121  25.859  1.00  0.00     0.053 C 
BRANCH  11  12
ATOM     12  C   UNL     1      46.722  53.364  26.331  1.00  0.00     0.041 C 
ATOM     13  O   UNL     1      46.234  54.496  26.077  1.00  0.00    -0.550 OA
ATOM     14  O   UNL     1      47.890  53.270  27.077  1.00  0.00    -0.550 OA
ENDBRANCH  11  12
ENDBRANCH  10  11
ENDBRANCH   9  10
ENDBRANCH   8   9
ENDBRANCH   7   8
ENDBRANCH   6   7
ENDBRANCH   5   6
ENDBRANCH   4   5
ENDBRANCH   3   4
ENDBRANCH   2   3
ENDBRANCH   1   2
BRANCH   1  15
ATOM     15  C   UNL     1      50.373  51.138  21.049  1.00  0.00     0.000 C 
BRANCH  15  16
ATOM     16  C   UNL     1      49.082  51.506  21.798  1.00  0.00     0.000 C 
BRANCH  16  17
ATOM     17  C   UNL     1      49.248  52.748  22.692  1.00  0.00     0.000 C 
BRANCH  17  18
ATOM     18  C   UNL     1      49.992  52.435  24.000  1.00  0.00    -0.000 C 
BRANCH  18  19
ATOM     19  C   UNL     1      50.369  53.706  24.783  1.00  0.00    -0.000 C 
BRANCH  19  20
ATOM     20  C   UNL     1      51.704  54.309  24.317  1.00  0.00    -0.000 C 
BRANCH  20  21
ATOM     21  C   UNL     1      52.737  53.232  23.940  1.00  0.00    -0.000 C 
BRANCH  21  22
ATOM     22  C   UNL     1      53.176  53.320  22.468  1.00  0.00    -0.000 C 
BRANCH  22  23
ATOM     23  C   UNL     1      52.064  53.735  21.482  1.00  0.00    -0.000 C 
BRANCH  23  24
ATOM     24  C   UNL     1      52.545  54.507  20.237  1.00  0.00    -0.000 C 
BRANCH  24  25
ATOM     25  C   UNL     1      52.341  56.031  20.304  1.00  0.00    -0.003 C 
ATOM     26  C   UNL     1      52.992  56.664  21.534  1.00  0.00     0.004 C 
ENDBRANCH  24  25
ENDBRANCH  23  24
ENDBRANCH  22  23
ENDBRANCH  21  22
ENDBRANCH  20  21
ENDBRANCH  19  20
ENDBRANCH  18  19
ENDBRANCH  17  18
ENDBRANCH  16  17
ENDBRANCH  15  16
ENDBRANCH   1  15
TORSDOF 22
ENDMDL
MODEL 6
REMARK VINA RESULT:    -4.144      1.707      3.763
REMARK INTER + INTRA:         -12.710
REMARK INTER:                  -9.752
REMARK INTRA:                  -2.959
REMARK UNBOUND:                -3.237
REMARK SMILES CCCCCCCCCCCCCCCCCCCCCCCC(=O)[O-]
REMARK SMILES IDX 13 1 14 2 15 3 16 4 17 5 18 6 19 7 20 8 21 9 22 10 23 11
REMARK SMILES IDX 24 12 25 13 26 14 12 15 11 16 10 17 9 18 8 19 7 20 6 21 5 22
REMARK SMILES IDX 4 23 3 24 2 25 1 26
REMARK H PARENT
REMARK Flexibility Score: inf
ROOT
ATOM      1  C   UNL     1      48.682  53.252  26.534  1.00  0.00     0.000 C 
ENDROOT
BRANCH   1   2
ATOM      2  C   UNL     1      49.238  52.681  25.216  1.00  0.00     0.000 C 
BRANCH   2   3
ATOM      3  C   UNL     1      50.168  53.630  24.433  1.00  0.00     0.000 C 
BRANCH   3   4
ATOM      4  C   UNL     1      51.322  54.244  25.251  1.00  0.00     0.000 C 
BRANCH   4   5
ATOM      5  C   UNL     1      52.603  54.534  24.450  1.00  0.00     0.000 C 
BRANCH   5   6
ATOM      6  C   UNL     1      53.672  53.443  24.615  1.00  0.00     0.000 C 
BRANCH   6   7
ATOM      7  C   UNL     1      54.096  52.881  23.250  1.00  0.00     0.000 C 
BRANCH   7   8
ATOM      8  C   UNL     1      52.934  52.215  22.496  1.00  0.00     0.000 C 
BRANCH   8   9
ATOM      9  C   UNL     1      53.150  52.191  20.976  1.00  0.00     0.000 C 
BRANCH   9  10
ATOM     10  C   UNL     1      52.321  53.284  20.287  1.00  0.00     0.006 C 
BRANCH  10  11
ATOM     11  C   UNL     1      51.960  54.429  21.242  1.00  0.00     0.053 C 
BRANCH  11  12
ATOM     12  C   UNL     1      52.415  55.755  20.716  1.00  0.00     0.041 C 
ATOM     13  O   UNL     1      52.818  56.647  21.508  1.00  0.00    -0.550 OA
ATOM     14  O   UNL     1      52.421  55.996  19.348  1.00  0.00    -0.550 OA
ENDBRANCH  11  12
ENDBRANCH  10  11
ENDBRANCH   9  10
ENDBRANCH   8   9
ENDBRANCH   7   8
ENDBRANCH   6   7
ENDBRANCH   5   6
ENDBRANCH   4   5
ENDBRANCH   3   4
ENDBRANCH   2   3
ENDBRANCH   1   2
BRANCH   1  15
ATOM     15  C   UNL     1      47.147  53.202  26.605  1.00  0.00     0.000 C 
BRANCH  15  16
ATOM     16  C   UNL     1      46.491  53.260  25.215  1.00  0.00     0.000 C 
BRANCH  16  17
ATOM     17  C   UNL     1      45.875  51.913  24.794  1.00  0.00     0.000 C 
BRANCH  17  18
ATOM     18  C   UNL     1      46.000  50.842  25.888  1.00  0.00    -0.000 C 
BRANCH  18  19
ATOM     19  C   UNL     1      46.401  49.467  25.325  1.00  0.00    -0.000 C 
BRANCH  19  20
ATOM     20  C   UNL     1      47.716  49.517  24.531  1.00  0.00    -0.000 C 
BRANCH  20  21
ATOM     21  C   UNL     1      48.458  48.169  24.538  1.00  0.00    -0.000 C 
BRANCH  21  22
ATOM     22  C   UNL     1      49.808  48.231  23.800  1.00  0.00    -0.000 C 
BRANCH  22  23
ATOM     23  C   UNL     1      50.193  49.626  23.267  1.00  0.00    -0.000 C 
BRANCH  23  24
ATOM     24  C   UNL     1      50.447  49.700  21.747  1.00  0.00    -0.000 C 
BRANCH  24  25
ATOM     25  C   UNL     1      49.879  50.954  21.059  1.00  0.00    -0.003 C 
ATOM     26  C   UNL     1      48.832  51.676  21.908  1.00  0.00     0.004 C 
ENDBRANCH  24  25
ENDBRANCH  23  24
ENDBRANCH  22  23
ENDBRANCH  21  22
ENDBRANCH  20  21
ENDBRANCH  19  20
ENDBRANCH  18  19
ENDBRANCH  17  18
ENDBRANCH  16  17
ENDBRANCH  15  16
ENDBRANCH   1  15
TORSDOF 22
ENDMDL
MODEL 7
REMARK VINA RESULT:    -4.083      1.774      6.578
REMARK INTER + INTRA:         -12.571
REMARK INTER:                 -10.179
REMARK INTRA:                  -2.391
REMARK UNBOUND:                -3.237
REMARK SMILES CCCCCCCCCCCCCCCCCCCCCCCC(=O)[O-]
REMARK SMILES IDX 13 1 14 2 15 3 16 4 17 5 18 6 19 7 20 8 21 9 22 10 23 11
REMARK SMILES IDX 24 12 25 13 26 14 12 15 11 16 10 17 9 18 8 19 7 20 6 21 5 22
REMARK SMILES IDX 4 23 3 24 2 25 1 26
REMARK H PARENT
REMARK Flexibility Score: inf
ROOT
ATOM      1  C   UNL     1      50.520  53.826  24.579  1.00  0.00     0.000 C 
ENDROOT
BRANCH   1   2
ATOM      2  C   UNL     1      49.171  53.184  24.953  1.00  0.00     0.000 C 
BRANCH   2   3
ATOM      3  C   UNL     1      48.812  53.245  26.452  1.00  0.00     0.000 C 
BRANCH   3   4
ATOM      4  C   UNL     1      47.350  52.891  26.793  1.00  0.00     0.000 C 
BRANCH   4   5
ATOM      5  C   UNL     1      46.292  53.645  25.969  1.00  0.00     0.000 C 
BRANCH   5   6
ATOM      6  C   UNL     1      45.876  52.893  24.697  1.00  0.00     0.000 C 
BRANCH   6   7
ATOM      7  C   UNL     1      45.962  51.374  24.907  1.00  0.00     0.000 C 
BRANCH   7   8
ATOM      8  C   UNL     1      46.904  50.689  23.905  1.00  0.00     0.000 C 
BRANCH   8   9
ATOM      9  C   UNL     1      48.009  49.875  24.592  1.00  0.00     0.000 C 
BRANCH   9  10
ATOM     10  C   UNL     1      48.505  48.744  23.680  1.00  0.00     0.006 C 
BRANCH  10  11
ATOM     11  C   UNL     1      49.437  47.771  24.414  1.00  0.00     0.053 C 
BRANCH  11  12
ATOM     12  C   UNL     1      50.777  47.679  23.752  1.00  0.00     0.041 C 
ATOM     13  O   UNL     1      50.978  48.244  22.644  1.00  0.00    -0.550 OA
ATOM     14  O   UNL     1      51.815  46.995  24.373  1.00  0.00    -0.550 OA
ENDBRANCH  11  12
ENDBRANCH  10  11
ENDBRANCH   9  10
ENDBRANCH   8   9
ENDBRANCH   7   8
ENDBRANCH   6   7
ENDBRANCH   5   6
ENDBRANCH   4   5
ENDBRANCH   3   4
ENDBRANCH   2   3
ENDBRANCH   1   2
BRANCH   1  15
ATOM     15  C   UNL     1      51.654  52.796  24.448  1.00  0.00     0.000 C 
BRANCH  15  16
ATOM     16  C   UNL     1      53.022  53.455  24.199  1.00  0.00     0.000 C 
BRANCH  16  17
ATOM     17  C   UNL     1      52.908  54.960  23.897  1.00  0.00     0.000 C 
BRANCH  17  18
ATOM     18  C   UNL     1      53.727  55.376  22.665  1.00  0.00    -0.000 C 
BRANCH  18  19
ATOM     19  C   UNL     1      52.981  56.385  21.774  1.00  0.00    -0.000 C 
BRANCH  19  20
ATOM     20  C   UNL     1      52.140  55.699  20.685  1.00  0.00    -0.000 C 
BRANCH  20  21
ATOM     21  C   UNL     1      51.706  54.278  21.086  1.00  0.00    -0.000 C 
BRANCH  21  22
ATOM     22  C   UNL     1      52.323  53.193  20.185  1.00  0.00    -0.000 C 
BRANCH  22  23
ATOM     23  C   UNL     1      52.877  51.964  20.935  1.00  0.00    -0.000 C 
BRANCH  23  24
ATOM     24  C   UNL     1      51.816  50.948  21.405  1.00  0.00    -0.000 C 
BRANCH  24  25
ATOM     25  C   UNL     1      50.455  51.061  20.696  1.00  0.00    -0.003 C 
ATOM     26  C   UNL     1      49.388  51.729  21.563  1.00  0.00     0.004 C 
ENDBRANCH  24  25
ENDBRANCH  23  24
ENDBRANCH  22  23
ENDBRANCH  21  22
ENDBRANCH  20  21
ENDBRANCH  19  20
ENDBRANCH  18  19
ENDBRANCH  17  18
ENDBRANCH  16  17
ENDBRANCH  15  16
ENDBRANCH   1  15
TORSDOF 22
ENDMDL
MODEL 8
REMARK VINA RESULT:    -3.880      1.816      6.894
REMARK INTER + INTRA:         -12.108
REMARK INTER:                  -9.239
REMARK INTRA:                  -2.870
REMARK UNBOUND:                -3.237
REMARK SMILES CCCCCCCCCCCCCCCCCCCCCCCC(=O)[O-]
REMARK SMILES IDX 13 1 14 2 15 3 16 4 17 5 18 6 19 7 20 8 21 9 22 10 23 11
REMARK SMILES IDX 24 12 25 13 26 14 12 15 11 16 10 17 9 18 8 19 7 20 6 21 5 22
REMARK SMILES IDX 4 23 3 24 2 25 1 26
REMARK H PARENT
REMARK Flexibility Score: inf
ROOT
ATOM      1  C   UNL     1      49.272  52.161  24.437  1.00  0.00     0.000 C 
ENDROOT
BRANCH   1   2
ATOM      2  C   UNL     1      49.540  53.026  25.683  1.00  0.00     0.000 C 
BRANCH   2   3
ATOM      3  C   UNL     1      48.281  53.613  26.354  1.00  0.00     0.000 C 
BRANCH   3   4
ATOM      4  C   UNL     1      47.054  52.680  26.379  1.00  0.00     0.000 C 
BRANCH   4   5
ATOM      5  C   UNL     1      45.966  53.010  25.343  1.00  0.00     0.000 C 
BRANCH   5   6
ATOM      6  C   UNL     1      45.875  51.970  24.217  1.00  0.00     0.000 C 
BRANCH   6   7
ATOM      7  C   UNL     1      45.936  50.544  24.784  1.00  0.00     0.000 C 
BRANCH   7   8
ATOM      8  C   UNL     1      47.243  49.818  24.425  1.00  0.00     0.000 C 
BRANCH   8   9
ATOM      9  C   UNL     1      47.507  48.598  25.319  1.00  0.00     0.000 C 
BRANCH   9  10
ATOM     10  C   UNL     1      48.098  47.439  24.503  1.00  0.00     0.006 C 
BRANCH  10  11
ATOM     11  C   UNL     1      49.494  47.035  24.994  1.00  0.00     0.053 C 
BRANCH  11  12
ATOM     12  C   UNL     1      50.566  47.483  24.049  1.00  0.00     0.041 C 
ATOM     13  O   UNL     1      50.349  48.429  23.247  1.00  0.00    -0.550 OA
ATOM     14  O   UNL     1      51.815  46.875  24.074  1.00  0.00    -0.550 OA
ENDBRANCH  11  12
ENDBRANCH  10  11
ENDBRANCH   9  10
ENDBRANCH   8   9
ENDBRANCH   7   8
ENDBRANCH   6   7
ENDBRANCH   5   6
ENDBRANCH   4   5
ENDBRANCH   3   4
ENDBRANCH   2   3
ENDBRANCH   1   2
BRANCH   1  15
ATOM     15  C   UNL     1      49.315  52.970  23.129  1.00  0.00     0.000 C 
BRANCH  15  16
ATOM     16  C   UNL     1      49.017  52.106  21.893  1.00  0.00     0.000 C 
BRANCH  16  17
ATOM     17  C   UNL     1      49.923  50.865  21.803  1.00  0.00     0.000 C 
BRANCH  17  18
ATOM     18  C   UNL     1      51.416  51.227  21.789  1.00  0.00    -0.000 C 
BRANCH  18  19
ATOM     19  C   UNL     1      51.881  51.759  20.422  1.00  0.00    -0.000 C 
BRANCH  19  20
ATOM     20  C   UNL     1      52.904  52.899  20.551  1.00  0.00    -0.000 C 
BRANCH  20  21
ATOM     21  C   UNL     1      52.290  54.277  20.246  1.00  0.00    -0.000 C 
BRANCH  21  22
ATOM     22  C   UNL     1      52.009  55.097  21.518  1.00  0.00    -0.000 C 
BRANCH  22  23
ATOM     23  C   UNL     1      53.028  54.896  22.658  1.00  0.00    -0.000 C 
BRANCH  23  24
ATOM     24  C   UNL     1      52.444  54.325  23.967  1.00  0.00    -0.000 C 
BRANCH  24  25
ATOM     25  C   UNL     1      53.111  53.029  24.459  1.00  0.00    -0.003 C 
ATOM     26  C   UNL     1      54.446  52.748  23.770  1.00  0.00     0.004 C 
ENDBRANCH  24  25
ENDBRANCH  23  24
ENDBRANCH  22  23
ENDBRANCH  21  22
ENDBRANCH  20  21
ENDBRANCH  19  20
ENDBRANCH  18  19
ENDBRANCH  17  18
ENDBRANCH  16  17
ENDBRANCH  15  16
ENDBRANCH   1  15
TORSDOF 22
ENDMDL
MODEL 9
REMARK VINA RESULT:    -2.179      0.870      3.624
REMARK INTER + INTRA:          -8.219
REMARK INTER:                  -5.927
REMARK INTRA:                  -2.292
REMARK UNBOUND:                -3.237
REMARK SMILES CCCCCCCCCCCCCCCCCCCCCCCC(=O)[O-]
REMARK SMILES IDX 13 1 14 2 15 3 16 4 17 5 18 6 19 7 20 8 21 9 22 10 23 11
REMARK SMILES IDX 24 12 25 13 26 14 12 15 11 16 10 17 9 18 8 19 7 20 6 21 5 22
REMARK SMILES IDX 4 23 3 24 2 25 1 26
REMARK H PARENT
REMARK Flexibility Score: inf
ROOT
ATOM      1  C   UNL     1      50.668  49.722  23.293  1.00  0.00     0.000 C 
ENDROOT
BRANCH   1   2
ATOM      2  C   UNL     1      49.541  50.737  23.026  1.00  0.00     0.000 C 
BRANCH   2   3
ATOM      3  C   UNL     1      49.780  51.680  21.829  1.00  0.00     0.000 C 
BRANCH   3   4
ATOM      4  C   UNL     1      50.342  51.004  20.562  1.00  0.00     0.000 C 
BRANCH   4   5
ATOM      5  C   UNL     1      51.877  50.925  20.495  1.00  0.00     0.000 C 
BRANCH   5   6
ATOM      6  C   UNL     1      52.567  52.143  21.127  1.00  0.00     0.000 C 
BRANCH   6   7
ATOM      7  C   UNL     1      52.613  53.319  20.139  1.00  0.00     0.000 C 
BRANCH   7   8
ATOM      8  C   UNL     1      52.238  54.658  20.793  1.00  0.00     0.000 C 
BRANCH   8   9
ATOM      9  C   UNL     1      51.617  54.484  22.186  1.00  0.00     0.000 C 
BRANCH   9  10
ATOM     10  C   UNL     1      52.626  54.847  23.285  1.00  0.00     0.006 C 
BRANCH  10  11
ATOM     11  C   UNL     1      52.557  53.885  24.478  1.00  0.00     0.053 C 
BRANCH  11  12
ATOM     12  C   UNL     1      53.699  52.917  24.478  1.00  0.00     0.041 C 
ATOM     13  O   UNL     1      53.788  52.042  25.379  1.00  0.00    -0.550 OA
ATOM     14  O   UNL     1      54.649  52.961  23.466  1.00  0.00    -0.550 OA
ENDBRANCH  11  12
ENDBRANCH  10  11
ENDBRANCH   9  10
ENDBRANCH   8   9
ENDBRANCH   7   8
ENDBRANCH   6   7
ENDBRANCH   5   6
ENDBRANCH   4   5
ENDBRANCH   3   4
ENDBRANCH   2   3
ENDBRANCH   1   2
BRANCH   1  15
ATOM     15  C   UNL     1      50.244  48.272  23.009  1.00  0.00     0.000 C 
BRANCH  15  16
ATOM     16  C   UNL     1      50.656  47.307  24.133  1.00  0.00     0.000 C 
BRANCH  16  17
ATOM     17  C   UNL     1      49.488  46.962  25.076  1.00  0.00     0.000 C 
BRANCH  17  18
ATOM     18  C   UNL     1      48.124  47.358  24.490  1.00  0.00    -0.000 C 
BRANCH  18  19
ATOM     19  C   UNL     1      47.369  48.364  25.377  1.00  0.00    -0.000 C 
BRANCH  19  20
ATOM     20  C   UNL     1      47.244  49.748  24.722  1.00  0.00    -0.000 C 
BRANCH  20  21
ATOM     21  C   UNL     1      46.102  50.584  25.327  1.00  0.00    -0.000 C 
BRANCH  21  22
ATOM     22  C   UNL     1      45.875  51.909  24.579  1.00  0.00    -0.000 C 
BRANCH  22  23
ATOM     23  C   UNL     1      46.222  53.178  25.386  1.00  0.00    -0.000 C 
BRANCH  23  24
ATOM     24  C   UNL     1      46.921  52.926  26.737  1.00  0.00    -0.000 C 
BRANCH  24  25
ATOM     25  C   UNL     1      48.430  53.226  26.749  1.00  0.00    -0.003 C 
ATOM     26  C   UNL     1      49.044  53.240  25.349  1.00  0.00     0.004 C 
ENDBRANCH  24  25
ENDBRANCH  23  24
ENDBRANCH  22  23
ENDBRANCH  21  22
ENDBRANCH  20  21
ENDBRANCH  19  20
ENDBRANCH  18  19
ENDBRANCH  17  18
ENDBRANCH  16  17
ENDBRANCH  15  16
ENDBRANCH   1  15
TORSDOF 22
ENDMDL
