MODEL 1
REMARK VINA RESULT:    -6.233      0.000      0.000
REMARK INTER + INTRA:          -9.833
REMARK INTER:                  -8.601
REMARK INTRA:                  -1.233
REMARK UNBOUND:                -1.233
REMARK SMILES CC[C@H](CC[C@@H](C)[C@@H]1CC[C@H]2[C@@H]3CC=C4C[C@@H](O)CC[C@@]4(C)[C@H]3CC[C@]21C)C(C)C
REMARK SMILES IDX 5 1 4 2 3 3 2 4 1 5 28 6 29 7 30 8 6 9 7 10 8 11 9 12 26 13
REMARK SMILES IDX 10 14 11 15 25 16 27 17 12 18 24 19 23 20 13 21 21 22 14 23
REMARK SMILES IDX 15 24 20 25 22 26 16 27 19 28 17 29 18 30
REMARK H PARENT 18 31
REMARK Flexibility Score: inf
ROOT
ATOM      1  C   UNL     1      -6.899  33.252  -1.062  1.00  0.00     0.004 C 
ENDROOT
BRANCH   1   2
ATOM      2  C   UNL     1      -7.912  32.080  -1.118  1.00  0.00     0.004 C 
BRANCH   2   3
ATOM      3  C   UNL     1      -7.891  31.150   0.123  1.00  0.00    -0.009 C 
BRANCH   3   4
ATOM      4  C   UNL     1      -7.997  31.960   1.452  1.00  0.00     0.000 C 
ATOM      5  C   UNL     1      -6.880  31.709   2.480  1.00  0.00     0.004 C 
ENDBRANCH   3   4
BRANCH   3   6
ATOM      6  C   UNL     1      -8.886  29.940   0.016  1.00  0.00    -0.014 C 
ATOM      7  C   UNL     1      -8.738  29.190  -1.324  1.00  0.00     0.007 C 
ATOM      8  C   UNL     1      -8.784  28.941   1.175  1.00  0.00     0.007 C 
ENDBRANCH   3   6
ENDBRANCH   2   3
ENDBRANCH   1   2
BRANCH   1   9
ATOM      9  C   UNL     1      -7.598  34.636  -1.077  1.00  0.00    -0.011 C 
ATOM     10  C   UNL     1      -9.125  34.417  -1.215  1.00  0.00     0.008 C 
BRANCH   9  11
ATOM     11  C   UNL     1      -7.259  35.529   0.176  1.00  0.00    -0.002 C 
ATOM     12  C   UNL     1      -8.429  35.537   1.174  1.00  0.00     0.005 C 
ATOM     13  C   UNL     1      -6.916  37.056  -0.040  1.00  0.00    -0.026 C 
ATOM     14  C   UNL     1      -8.161  36.685   2.111  1.00  0.00     0.005 C 
ATOM     15  C   UNL     1      -7.365  37.734   1.309  1.00  0.00    -0.001 C 
ATOM     16  C   UNL     1      -5.385  37.263  -0.388  1.00  0.00     0.007 C 
ATOM     17  C   UNL     1      -7.769  37.658  -1.192  1.00  0.00     0.012 C 
ATOM     18  C   UNL     1      -6.194  38.326   2.124  1.00  0.00     0.000 C 
ATOM     19  C   UNL     1      -4.638  38.493   0.201  1.00  0.00     0.005 C 
ATOM     20  C   UNL     1      -5.443  39.335   1.214  1.00  0.00     0.003 C 
ATOM     21  C   UNL     1      -6.640  38.976   3.437  1.00  0.00     0.031 C 
ATOM     22  C   UNL     1      -4.626  40.476   2.004  1.00  0.00    -0.008 C 
ATOM     23  C   UNL     1      -5.421  39.480   4.153  1.00  0.00    -0.027 C 
ATOM     24  C   UNL     1      -4.431  40.104   3.488  1.00  0.00    -0.065 C 
ATOM     25  C   UNL     1      -3.252  40.796   1.335  1.00  0.00     0.014 C 
ATOM     26  C   UNL     1      -5.469  41.788   1.983  1.00  0.00     0.016 C 
ATOM     27  C   UNL     1      -3.295  40.687   4.314  1.00  0.00     0.063 C 
ATOM     28  C   UNL     1      -2.367  41.710   2.186  1.00  0.00     0.033 C 
ATOM     29  C   UNL     1      -2.028  41.027   3.512  1.00  0.00     0.118 C 
BRANCH  29  30
ATOM     30  O   UNL     1      -1.285  39.848   3.291  1.00  0.00    -0.393 OA
ATOM     31  H   UNL     1      -1.621  39.177   3.937  1.00  0.00     0.210 HD
ENDBRANCH  29  30
ENDBRANCH   9  11
ENDBRANCH   1   9
TORSDOF 7
ENDMDL
MODEL 2
REMARK VINA RESULT:    -5.970      1.031      1.941
REMARK INTER + INTRA:          -9.471
REMARK INTER:                  -7.956
REMARK INTRA:                  -1.515
REMARK UNBOUND:                -1.233
REMARK SMILES CC[C@H](CC[C@@H](C)[C@@H]1CC[C@H]2[C@@H]3CC=C4C[C@@H](O)CC[C@@]4(C)[C@H]3CC[C@]21C)C(C)C
REMARK SMILES IDX 5 1 4 2 3 3 2 4 1 5 28 6 29 7 30 8 6 9 7 10 8 11 9 12 26 13
REMARK SMILES IDX 10 14 11 15 25 16 27 17 12 18 24 19 23 20 13 21 21 22 14 23
REMARK SMILES IDX 15 24 20 25 22 26 16 27 19 28 17 29 18 30
REMARK H PARENT 18 31
REMARK Flexibility Score: inf
ROOT
ATOM      1  C   UNL     1      -6.728  33.110  -0.872  1.00  0.00     0.004 C 
ENDROOT
BRANCH   1   2
ATOM      2  C   UNL     1      -7.913  32.129  -0.677  1.00  0.00     0.004 C 
BRANCH   2   3
ATOM      3  C   UNL     1      -8.286  31.855   0.803  1.00  0.00    -0.009 C 
BRANCH   3   4
ATOM      4  C   UNL     1      -8.557  30.339   1.058  1.00  0.00     0.000 C 
ATOM      5  C   UNL     1      -8.519  29.434  -0.186  1.00  0.00     0.004 C 
ENDBRANCH   3   4
BRANCH   3   6
ATOM      6  C   UNL     1      -7.304  32.523   1.830  1.00  0.00    -0.014 C 
ATOM      7  C   UNL     1      -7.971  33.687   2.590  1.00  0.00     0.007 C 
ATOM      8  C   UNL     1      -6.685  31.543   2.834  1.00  0.00     0.007 C 
ENDBRANCH   3   6
ENDBRANCH   2   3
ENDBRANCH   1   2
BRANCH   1   9
ATOM      9  C   UNL     1      -7.188  34.489  -1.412  1.00  0.00    -0.011 C 
ATOM     10  C   UNL     1      -8.659  34.369  -1.883  1.00  0.00     0.008 C 
BRANCH   9  11
ATOM     11  C   UNL     1      -7.013  35.664  -0.377  1.00  0.00    -0.002 C 
ATOM     12  C   UNL     1      -8.380  36.153   0.131  1.00  0.00     0.005 C 
ATOM     13  C   UNL     1      -6.269  36.981  -0.829  1.00  0.00    -0.026 C 
ATOM     14  C   UNL     1      -8.121  37.480   0.793  1.00  0.00     0.005 C 
ATOM     15  C   UNL     1      -6.903  38.101   0.079  1.00  0.00    -0.001 C 
ATOM     16  C   UNL     1      -4.698  36.841  -0.678  1.00  0.00     0.007 C 
ATOM     17  C   UNL     1      -6.591  37.319  -2.312  1.00  0.00     0.012 C 
ATOM     18  C   UNL     1      -5.903  38.733   1.072  1.00  0.00     0.000 C 
ATOM     19  C   UNL     1      -3.875  38.067  -0.190  1.00  0.00     0.005 C 
ATOM     20  C   UNL     1      -4.708  39.290   0.252  1.00  0.00     0.003 C 
ATOM     21  C   UNL     1      -6.533  39.815   1.954  1.00  0.00     0.031 C 
ATOM     22  C   UNL     1      -3.899  40.484   0.968  1.00  0.00    -0.008 C 
ATOM     23  C   UNL     1      -5.482  40.328   2.895  1.00  0.00    -0.027 C 
ATOM     24  C   UNL     1      -4.225  40.562   2.474  1.00  0.00    -0.065 C 
ATOM     25  C   UNL     1      -2.357  40.375   0.748  1.00  0.00     0.014 C 
ATOM     26  C   UNL     1      -4.362  41.836   0.344  1.00  0.00     0.016 C 
ATOM     27  C   UNL     1      -3.263  41.196   3.467  1.00  0.00     0.063 C 
ATOM     28  C   UNL     1      -1.555  41.364   1.598  1.00  0.00     0.033 C 
ATOM     29  C   UNL     1      -1.778  41.080   3.084  1.00  0.00     0.118 C 
BRANCH  29  30
ATOM     30  O   UNL     1      -1.307  39.794   3.423  1.00  0.00    -0.393 OA
ATOM     31  H   UNL     1      -1.498  39.210   2.645  1.00  0.00     0.210 HD
ENDBRANCH  29  30
ENDBRANCH   9  11
ENDBRANCH   1   9
TORSDOF 7
ENDMDL
MODEL 3
REMARK VINA RESULT:    -5.404      2.321      8.352
REMARK INTER + INTRA:          -8.689
REMARK INTER:                  -6.885
REMARK INTRA:                  -1.805
REMARK UNBOUND:                -1.233
REMARK SMILES CC[C@H](CC[C@@H](C)[C@@H]1CC[C@H]2[C@@H]3CC=C4C[C@@H](O)CC[C@@]4(C)[C@H]3CC[C@]21C)C(C)C
REMARK SMILES IDX 5 1 4 2 3 3 2 4 1 5 28 6 29 7 30 8 6 9 7 10 8 11 9 12 26 13
REMARK SMILES IDX 10 14 11 15 25 16 27 17 12 18 24 19 23 20 13 21 21 22 14 23
REMARK SMILES IDX 15 24 20 25 22 26 16 27 19 28 17 29 18 30
REMARK H PARENT 18 31
REMARK Flexibility Score: inf
ROOT
ATOM      1  C   UNL     1      -6.598  41.212   2.499  1.00  0.00     0.004 C 
ENDROOT
BRANCH   1   2
ATOM      2  C   UNL     1      -5.528  41.805   3.451  1.00  0.00     0.004 C 
BRANCH   2   3
ATOM      3  C   UNL     1      -4.911  40.785   4.442  1.00  0.00    -0.009 C 
BRANCH   3   4
ATOM      4  C   UNL     1      -5.816  39.525   4.610  1.00  0.00     0.000 C 
ATOM      5  C   UNL     1      -6.113  39.102   6.060  1.00  0.00     0.004 C 
ENDBRANCH   3   4
BRANCH   3   6
ATOM      6  C   UNL     1      -3.400  40.469   4.156  1.00  0.00    -0.014 C 
ATOM      7  C   UNL     1      -3.234  39.387   3.069  1.00  0.00     0.007 C 
ATOM      8  C   UNL     1      -2.561  41.698   3.788  1.00  0.00     0.007 C 
ENDBRANCH   3   6
ENDBRANCH   2   3
ENDBRANCH   1   2
BRANCH   1   9
ATOM      9  C   UNL     1      -6.137  41.220   1.018  1.00  0.00    -0.011 C 
ATOM     10  C   UNL     1      -4.884  42.120   0.895  1.00  0.00     0.008 C 
BRANCH   9  11
ATOM     11  C   UNL     1      -5.869  39.782   0.431  1.00  0.00    -0.002 C 
ATOM     12  C   UNL     1      -5.111  39.870  -0.904  1.00  0.00     0.005 C 
ATOM     13  C   UNL     1      -7.096  38.837   0.125  1.00  0.00    -0.026 C 
ATOM     14  C   UNL     1      -5.244  38.512  -1.541  1.00  0.00     0.005 C 
ATOM     15  C   UNL     1      -6.579  37.920  -1.047  1.00  0.00    -0.001 C 
ATOM     16  C   UNL     1      -7.550  38.038   1.416  1.00  0.00     0.007 C 
ATOM     17  C   UNL     1      -8.310  39.655  -0.400  1.00  0.00     0.012 C 
ATOM     18  C   UNL     1      -6.449  36.431  -0.657  1.00  0.00     0.000 C 
ATOM     19  C   UNL     1      -8.009  36.560   1.265  1.00  0.00     0.005 C 
ATOM     20  C   UNL     1      -7.833  35.952  -0.142  1.00  0.00     0.003 C 
ATOM     21  C   UNL     1      -5.939  35.551  -1.802  1.00  0.00     0.031 C 
ATOM     22  C   UNL     1      -8.088  34.367  -0.273  1.00  0.00    -0.008 C 
ATOM     23  C   UNL     1      -5.820  34.142  -1.297  1.00  0.00    -0.027 C 
ATOM     24  C   UNL     1      -6.770  33.602  -0.510  1.00  0.00    -0.065 C 
ATOM     25  C   UNL     1      -8.845  33.782   0.961  1.00  0.00     0.014 C 
ATOM     26  C   UNL     1      -8.980  34.114  -1.527  1.00  0.00     0.016 C 
ATOM     27  C   UNL     1      -6.624  32.131  -0.151  1.00  0.00     0.063 C 
ATOM     28  C   UNL     1      -8.901  32.252   0.963  1.00  0.00     0.033 C 
ATOM     29  C   UNL     1      -7.486  31.674   1.038  1.00  0.00     0.118 C 
BRANCH  29  30
ATOM     30  O   UNL     1      -6.857  32.050   2.244  1.00  0.00    -0.393 OA
ATOM     31  H   UNL     1      -6.613  31.209   2.709  1.00  0.00     0.210 HD
ENDBRANCH  29  30
ENDBRANCH   9  11
ENDBRANCH   1   9
TORSDOF 7
ENDMDL
MODEL 4
REMARK VINA RESULT:    -5.001      2.914      8.376
REMARK INTER + INTRA:          -8.133
REMARK INTER:                  -6.031
REMARK INTRA:                  -2.103
REMARK UNBOUND:                -1.233
REMARK SMILES CC[C@H](CC[C@@H](C)[C@@H]1CC[C@H]2[C@@H]3CC=C4C[C@@H](O)CC[C@@]4(C)[C@H]3CC[C@]21C)C(C)C
REMARK SMILES IDX 5 1 4 2 3 3 2 4 1 5 28 6 29 7 30 8 6 9 7 10 8 11 9 12 26 13
REMARK SMILES IDX 10 14 11 15 25 16 27 17 12 18 24 19 23 20 13 21 21 22 14 23
REMARK SMILES IDX 15 24 20 25 22 26 16 27 19 28 17 29 18 30
REMARK H PARENT 18 31
REMARK Flexibility Score: inf
ROOT
ATOM      1  C   UNL     1      -3.103  41.501   3.647  1.00  0.00     0.004 C 
ENDROOT
BRANCH   1   2
ATOM      2  C   UNL     1      -3.304  42.123   2.241  1.00  0.00     0.004 C 
BRANCH   2   3
ATOM      3  C   UNL     1      -2.486  41.442   1.113  1.00  0.00    -0.009 C 
BRANCH   3   4
ATOM      4  C   UNL     1      -1.207  40.742   1.670  1.00  0.00     0.000 C 
ATOM      5  C   UNL     1       0.135  41.307   1.173  1.00  0.00     0.004 C 
ENDBRANCH   3   4
BRANCH   3   6
ATOM      6  C   UNL     1      -3.357  40.546   0.161  1.00  0.00    -0.014 C 
ATOM      7  C   UNL     1      -4.763  41.140  -0.060  1.00  0.00     0.007 C 
ATOM      8  C   UNL     1      -2.704  40.256  -1.195  1.00  0.00     0.007 C 
ENDBRANCH   3   6
ENDBRANCH   2   3
ENDBRANCH   1   2
BRANCH   1   9
ATOM      9  C   UNL     1      -4.423  40.941   4.237  1.00  0.00    -0.011 C 
ATOM     10  C   UNL     1      -4.999  41.979   5.232  1.00  0.00     0.008 C 
BRANCH   9  11
ATOM     11  C   UNL     1      -5.487  40.545   3.144  1.00  0.00    -0.002 C 
ATOM     12  C   UNL     1      -6.747  41.418   3.267  1.00  0.00     0.005 C 
ATOM     13  C   UNL     1      -6.037  39.065   3.109  1.00  0.00    -0.026 C 
ATOM     14  C   UNL     1      -7.808  40.723   2.457  1.00  0.00     0.005 C 
ATOM     15  C   UNL     1      -7.480  39.216   2.497  1.00  0.00    -0.001 C 
ATOM     16  C   UNL     1      -5.081  38.110   2.280  1.00  0.00     0.007 C 
ATOM     17  C   UNL     1      -6.178  38.492   4.548  1.00  0.00     0.012 C 
ATOM     18  C   UNL     1      -7.640  38.546   1.115  1.00  0.00     0.000 C 
ATOM     19  C   UNL     1      -5.712  37.010   1.380  1.00  0.00     0.005 C 
ATOM     20  C   UNL     1      -7.251  37.051   1.264  1.00  0.00     0.003 C 
ATOM     21  C   UNL     1      -9.045  38.706   0.526  1.00  0.00     0.031 C 
ATOM     22  C   UNL     1      -7.910  36.071   0.169  1.00  0.00    -0.008 C 
ATOM     23  C   UNL     1      -9.069  38.050  -0.824  1.00  0.00    -0.027 C 
ATOM     24  C   UNL     1      -8.470  36.863  -1.031  1.00  0.00    -0.065 C 
ATOM     25  C   UNL     1      -6.919  34.968  -0.318  1.00  0.00     0.014 C 
ATOM     26  C   UNL     1      -9.125  35.346   0.826  1.00  0.00     0.016 C 
ATOM     27  C   UNL     1      -8.652  36.218  -2.397  1.00  0.00     0.063 C 
ATOM     28  C   UNL     1      -7.446  34.168  -1.512  1.00  0.00     0.033 C 
ATOM     29  C   UNL     1      -7.653  35.094  -2.713  1.00  0.00     0.118 C 
BRANCH  29  30
ATOM     30  O   UNL     1      -6.427  35.659  -3.124  1.00  0.00    -0.393 OA
ATOM     31  H   UNL     1      -6.456  36.615  -2.865  1.00  0.00     0.210 HD
ENDBRANCH  29  30
ENDBRANCH   9  11
ENDBRANCH   1   9
TORSDOF 7
ENDMDL
MODEL 5
REMARK VINA RESULT:    -4.706      2.805      8.351
REMARK INTER + INTRA:          -7.727
REMARK INTER:                  -7.124
REMARK INTRA:                  -0.603
REMARK UNBOUND:                -1.233
REMARK SMILES CC[C@H](CC[C@@H](C)[C@@H]1CC[C@H]2[C@@H]3CC=C4C[C@@H](O)CC[C@@]4(C)[C@H]3CC[C@]21C)C(C)C
REMARK SMILES IDX 5 1 4 2 3 3 2 4 1 5 28 6 29 7 30 8 6 9 7 10 8 11 9 12 26 13
REMARK SMILES IDX 10 14 11 15 25 16 27 17 12 18 24 19 23 20 13 21 21 22 14 23
REMARK SMILES IDX 15 24 20 25 22 26 16 27 19 28 17 29 18 30
REMARK H PARENT 18 31
REMARK Flexibility Score: inf
ROOT
ATOM      1  C   UNL     1      -2.984  40.432   3.329  1.00  0.00     0.004 C 
ENDROOT
BRANCH   1   2
ATOM      2  C   UNL     1      -3.857  41.523   4.001  1.00  0.00     0.004 C 
BRANCH   2   3
ATOM      3  C   UNL     1      -5.208  41.011   4.563  1.00  0.00    -0.009 C 
BRANCH   3   4
ATOM      4  C   UNL     1      -6.342  41.086   3.494  1.00  0.00     0.000 C 
ATOM      5  C   UNL     1      -7.446  42.125   3.760  1.00  0.00     0.004 C 
ENDBRANCH   3   4
BRANCH   3   6
ATOM      6  C   UNL     1      -5.097  39.629   5.300  1.00  0.00    -0.014 C 
ATOM      7  C   UNL     1      -5.709  39.681   6.715  1.00  0.00     0.007 C 
ATOM      8  C   UNL     1      -5.701  38.454   4.523  1.00  0.00     0.007 C 
ENDBRANCH   3   6
ENDBRANCH   2   3
ENDBRANCH   1   2
BRANCH   1   9
ATOM      9  C   UNL     1      -2.510  40.847   1.912  1.00  0.00    -0.011 C 
ATOM     10  C   UNL     1      -0.965  40.956   1.920  1.00  0.00     0.008 C 
BRANCH   9  11
ATOM     11  C   UNL     1      -3.010  39.883   0.770  1.00  0.00    -0.002 C 
ATOM     12  C   UNL     1      -2.451  40.319  -0.596  1.00  0.00     0.005 C 
ATOM     13  C   UNL     1      -4.562  39.723   0.525  1.00  0.00    -0.026 C 
ATOM     14  C   UNL     1      -3.271  39.589  -1.626  1.00  0.00     0.005 C 
ATOM     15  C   UNL     1      -4.665  39.365  -1.005  1.00  0.00    -0.001 C 
ATOM     16  C   UNL     1      -5.190  38.631   1.487  1.00  0.00     0.007 C 
ATOM     17  C   UNL     1      -5.302  41.070   0.759  1.00  0.00     0.012 C 
ATOM     18  C   UNL     1      -5.202  37.942  -1.274  1.00  0.00     0.000 C 
ATOM     19  C   UNL     1      -6.299  37.691   0.935  1.00  0.00     0.005 C 
ATOM     20  C   UNL     1      -6.584  37.816  -0.577  1.00  0.00     0.003 C 
ATOM     21  C   UNL     1      -5.290  37.603  -2.765  1.00  0.00     0.031 C 
ATOM     22  C   UNL     1      -7.560  36.707  -1.215  1.00  0.00    -0.008 C 
ATOM     23  C   UNL     1      -5.788  36.193  -2.899  1.00  0.00    -0.027 C 
ATOM     24  C   UNL     1      -6.787  35.730  -2.124  1.00  0.00    -0.065 C 
ATOM     25  C   UNL     1      -8.362  35.923  -0.128  1.00  0.00     0.014 C 
ATOM     26  C   UNL     1      -8.600  37.431  -2.125  1.00  0.00     0.016 C 
ATOM     27  C   UNL     1      -7.306  34.331  -2.417  1.00  0.00     0.063 C 
ATOM     28  C   UNL     1      -9.125  34.721  -0.692  1.00  0.00     0.033 C 
ATOM     29  C   UNL     1      -8.144  33.709  -1.288  1.00  0.00     0.118 C 
BRANCH  29  30
ATOM     30  O   UNL     1      -7.284  33.201  -0.291  1.00  0.00    -0.393 OA
ATOM     31  H   UNL     1      -6.622  32.628  -0.755  1.00  0.00     0.210 HD
ENDBRANCH  29  30
ENDBRANCH   9  11
ENDBRANCH   1   9
TORSDOF 7
ENDMDL
MODEL 6
REMARK VINA RESULT:    -4.516      2.606      8.488
REMARK INTER + INTRA:          -7.464
REMARK INTER:                  -6.895
REMARK INTRA:                  -0.569
REMARK UNBOUND:                -1.233
REMARK SMILES CC[C@H](CC[C@@H](C)[C@@H]1CC[C@H]2[C@@H]3CC=C4C[C@@H](O)CC[C@@]4(C)[C@H]3CC[C@]21C)C(C)C
REMARK SMILES IDX 5 1 4 2 3 3 2 4 1 5 28 6 29 7 30 8 6 9 7 10 8 11 9 12 26 13
REMARK SMILES IDX 10 14 11 15 25 16 27 17 12 18 24 19 23 20 13 21 21 22 14 23
REMARK SMILES IDX 15 24 20 25 22 26 16 27 19 28 17 29 18 30
REMARK H PARENT 18 31
REMARK Flexibility Score: inf
ROOT
ATOM      1  C   UNL     1      -1.753  40.564   1.303  1.00  0.00     0.004 C 
ENDROOT
BRANCH   1   2
ATOM      2  C   UNL     1      -2.531  41.558   2.204  1.00  0.00     0.004 C 
BRANCH   2   3
ATOM      3  C   UNL     1      -3.758  40.945   2.928  1.00  0.00    -0.009 C 
BRANCH   3   4
ATOM      4  C   UNL     1      -3.328  40.026   4.113  1.00  0.00     0.000 C 
ATOM      5  C   UNL     1      -4.339  38.938   4.518  1.00  0.00     0.004 C 
ENDBRANCH   3   4
BRANCH   3   6
ATOM      6  C   UNL     1      -4.863  42.000   3.289  1.00  0.00    -0.014 C 
ATOM      7  C   UNL     1      -6.170  41.755   2.507  1.00  0.00     0.007 C 
ATOM      8  C   UNL     1      -5.173  42.094   4.788  1.00  0.00     0.007 C 
ENDBRANCH   3   6
ENDBRANCH   2   3
ENDBRANCH   1   2
BRANCH   1   9
ATOM      9  C   UNL     1      -1.928  40.876  -0.206  1.00  0.00    -0.011 C 
ATOM     10  C   UNL     1      -0.526  41.042  -0.842  1.00  0.00     0.008 C 
BRANCH   9  11
ATOM     11  C   UNL     1      -2.784  39.801  -0.978  1.00  0.00    -0.002 C 
ATOM     12  C   UNL     1      -2.843  40.128  -2.481  1.00  0.00     0.005 C 
ATOM     13  C   UNL     1      -4.291  39.579  -0.566  1.00  0.00    -0.026 C 
ATOM     14  C   UNL     1      -3.960  39.288  -3.039  1.00  0.00     0.005 C 
ATOM     15  C   UNL     1      -4.975  39.084  -1.896  1.00  0.00    -0.001 C 
ATOM     16  C   UNL     1      -4.418  38.562   0.642  1.00  0.00     0.007 C 
ATOM     17  C   UNL     1      -4.957  40.922  -0.150  1.00  0.00     0.012 C 
ATOM     18  C   UNL     1      -5.489  37.629  -1.824  1.00  0.00     0.000 C 
ATOM     19  C   UNL     1      -5.597  37.547   0.652  1.00  0.00     0.005 C 
ATOM     20  C   UNL     1      -6.468  37.530  -0.623  1.00  0.00     0.003 C 
ATOM     21  C   UNL     1      -6.144  37.156  -3.125  1.00  0.00     0.031 C 
ATOM     22  C   UNL     1      -7.550  36.343  -0.733  1.00  0.00    -0.008 C 
ATOM     23  C   UNL     1      -6.569  35.727  -2.947  1.00  0.00    -0.027 C 
ATOM     24  C   UNL     1      -7.146  35.310  -1.805  1.00  0.00    -0.065 C 
ATOM     25  C   UNL     1      -7.803  35.638   0.637  1.00  0.00     0.014 C 
ATOM     26  C   UNL     1      -8.907  36.956  -1.197  1.00  0.00     0.016 C 
ATOM     27  C   UNL     1      -7.654  33.877  -1.764  1.00  0.00     0.063 C 
ATOM     28  C   UNL     1      -8.654  34.372   0.515  1.00  0.00     0.033 C 
ATOM     29  C   UNL     1      -7.934  33.337  -0.351  1.00  0.00     0.118 C 
BRANCH  29  30
ATOM     30  O   UNL     1      -6.719  32.942   0.248  1.00  0.00    -0.393 OA
ATOM     31  H   UNL     1      -6.426  32.121  -0.222  1.00  0.00     0.210 HD
ENDBRANCH  29  30
ENDBRANCH   9  11
ENDBRANCH   1   9
TORSDOF 7
ENDMDL
MODEL 7
REMARK VINA RESULT:    -4.303      2.383      8.532
REMARK INTER + INTRA:          -7.171
REMARK INTER:                  -5.612
REMARK INTRA:                  -1.559
REMARK UNBOUND:                -1.233
REMARK SMILES CC[C@H](CC[C@@H](C)[C@@H]1CC[C@H]2[C@@H]3CC=C4C[C@@H](O)CC[C@@]4(C)[C@H]3CC[C@]21C)C(C)C
REMARK SMILES IDX 5 1 4 2 3 3 2 4 1 5 28 6 29 7 30 8 6 9 7 10 8 11 9 12 26 13
REMARK SMILES IDX 10 14 11 15 25 16 27 17 12 18 24 19 23 20 13 21 21 22 14 23
REMARK SMILES IDX 15 24 20 25 22 26 16 27 19 28 17 29 18 30
REMARK H PARENT 18 31
REMARK Flexibility Score: inf
ROOT
ATOM      1  C   UNL     1      -6.000  41.308   2.030  1.00  0.00     0.004 C 
ENDROOT
BRANCH   1   2
ATOM      2  C   UNL     1      -4.607  41.977   1.896  1.00  0.00     0.004 C 
BRANCH   2   3
ATOM      3  C   UNL     1      -3.474  41.019   1.446  1.00  0.00    -0.009 C 
BRANCH   3   4
ATOM      4  C   UNL     1      -2.553  41.680   0.373  1.00  0.00     0.000 C 
ATOM      5  C   UNL     1      -2.400  40.903  -0.947  1.00  0.00     0.004 C 
ENDBRANCH   3   4
BRANCH   3   6
ATOM      6  C   UNL     1      -2.706  40.352   2.642  1.00  0.00    -0.014 C 
ATOM      7  C   UNL     1      -2.817  41.187   3.934  1.00  0.00     0.007 C 
ATOM      8  C   UNL     1      -3.128  38.906   2.929  1.00  0.00     0.007 C 
ENDBRANCH   3   6
ENDBRANCH   2   3
ENDBRANCH   1   2
BRANCH   1   9
ATOM      9  C   UNL     1      -6.641  41.002   0.651  1.00  0.00    -0.011 C 
ATOM     10  C   UNL     1      -6.202  42.098  -0.352  1.00  0.00     0.008 C 
BRANCH   9  11
ATOM     11  C   UNL     1      -6.310  39.561   0.106  1.00  0.00    -0.002 C 
ATOM     12  C   UNL     1      -5.661  39.640  -1.287  1.00  0.00     0.005 C 
ATOM     13  C   UNL     1      -7.483  38.518  -0.067  1.00  0.00    -0.026 C 
ATOM     14  C   UNL     1      -5.739  38.248  -1.855  1.00  0.00     0.005 C 
ATOM     15  C   UNL     1      -6.986  37.586  -1.236  1.00  0.00    -0.001 C 
ATOM     16  C   UNL     1      -7.780  37.750   1.287  1.00  0.00     0.007 C 
ATOM     17  C   UNL     1      -8.789  39.222  -0.530  1.00  0.00     0.012 C 
ATOM     18  C   UNL     1      -6.717  36.130  -0.796  1.00  0.00     0.000 C 
ATOM     19  C   UNL     1      -8.137  36.238   1.233  1.00  0.00     0.005 C 
ATOM     20  C   UNL     1      -8.020  35.578  -0.157  1.00  0.00     0.003 C 
ATOM     21  C   UNL     1      -6.228  35.236  -1.939  1.00  0.00     0.031 C 
ATOM     22  C   UNL     1      -8.165  33.975  -0.202  1.00  0.00    -0.008 C 
ATOM     23  C   UNL     1      -5.968  33.864  -1.387  1.00  0.00    -0.027 C 
ATOM     24  C   UNL     1      -6.814  33.295  -0.508  1.00  0.00    -0.065 C 
ATOM     25  C   UNL     1      -8.783  33.396   1.110  1.00  0.00     0.014 C 
ATOM     26  C   UNL     1      -9.125  33.600  -1.373  1.00  0.00     0.016 C 
ATOM     27  C   UNL     1      -6.534  31.857  -0.100  1.00  0.00     0.063 C 
ATOM     28  C   UNL     1      -8.725  31.867   1.179  1.00  0.00     0.033 C 
ATOM     29  C   UNL     1      -7.269  31.396   1.169  1.00  0.00     0.118 C 
BRANCH  29  30
ATOM     30  O   UNL     1      -6.583  31.872   2.306  1.00  0.00    -0.393 OA
ATOM     31  H   UNL     1      -7.010  32.731   2.555  1.00  0.00     0.210 HD
ENDBRANCH  29  30
ENDBRANCH   9  11
ENDBRANCH   1   9
TORSDOF 7
ENDMDL
MODEL 8
REMARK VINA RESULT:    -4.299      1.884      3.243
REMARK INTER + INTRA:          -7.164
REMARK INTER:                  -5.742
REMARK INTRA:                  -1.423
REMARK UNBOUND:                -1.233
REMARK SMILES CC[C@H](CC[C@@H](C)[C@@H]1CC[C@H]2[C@@H]3CC=C4C[C@@H](O)CC[C@@]4(C)[C@H]3CC[C@]21C)C(C)C
REMARK SMILES IDX 5 1 4 2 3 3 2 4 1 5 28 6 29 7 30 8 6 9 7 10 8 11 9 12 26 13
REMARK SMILES IDX 10 14 11 15 25 16 27 17 12 18 24 19 23 20 13 21 21 22 14 23
REMARK SMILES IDX 15 24 20 25 22 26 16 27 19 28 17 29 18 30
REMARK H PARENT 18 31
REMARK Flexibility Score: inf
ROOT
ATOM      1  C   UNL     1      -7.320  32.679  -1.045  1.00  0.00     0.004 C 
ENDROOT
BRANCH   1   2
ATOM      2  C   UNL     1      -8.627  32.100  -0.444  1.00  0.00     0.004 C 
BRANCH   2   3
ATOM      3  C   UNL     1      -8.509  31.641   1.032  1.00  0.00    -0.009 C 
BRANCH   3   4
ATOM      4  C   UNL     1      -8.398  30.088   1.145  1.00  0.00     0.000 C 
ATOM      5  C   UNL     1      -8.709  29.299  -0.139  1.00  0.00     0.004 C 
ENDBRANCH   3   4
BRANCH   3   6
ATOM      6  C   UNL     1      -7.429  32.433   1.850  1.00  0.00    -0.014 C 
ATOM      7  C   UNL     1      -7.986  33.762   2.402  1.00  0.00     0.007 C 
ATOM      8  C   UNL     1      -6.794  31.630   2.992  1.00  0.00     0.007 C 
ENDBRANCH   3   6
ENDBRANCH   2   3
ENDBRANCH   1   2
BRANCH   1   9
ATOM      9  C   UNL     1      -7.595  33.692  -2.186  1.00  0.00    -0.011 C 
ATOM     10  C   UNL     1      -8.674  33.099  -3.125  1.00  0.00     0.008 C 
BRANCH   9  11
ATOM     11  C   UNL     1      -8.006  35.125  -1.674  1.00  0.00    -0.002 C 
ATOM     12  C   UNL     1      -9.087  35.739  -2.581  1.00  0.00     0.005 C 
ATOM     13  C   UNL     1      -6.901  36.248  -1.566  1.00  0.00    -0.026 C 
ATOM     14  C   UNL     1      -9.125  37.204  -2.239  1.00  0.00     0.005 C 
ATOM     15  C   UNL     1      -7.706  37.586  -1.770  1.00  0.00    -0.001 C 
ATOM     16  C   UNL     1      -6.124  36.166  -0.187  1.00  0.00     0.007 C 
ATOM     17  C   UNL     1      -5.868  36.123  -2.721  1.00  0.00     0.012 C 
ATOM     18  C   UNL     1      -7.729  38.492  -0.519  1.00  0.00     0.000 C 
ATOM     19  C   UNL     1      -5.720  37.486   0.529  1.00  0.00     0.005 C 
ATOM     20  C   UNL     1      -6.258  38.781  -0.115  1.00  0.00     0.003 C 
ATOM     21  C   UNL     1      -8.521  39.787  -0.726  1.00  0.00     0.031 C 
ATOM     22  C   UNL     1      -6.045  40.138   0.725  1.00  0.00    -0.008 C 
ATOM     23  C   UNL     1      -8.502  40.563   0.559  1.00  0.00    -0.027 C 
ATOM     24  C   UNL     1      -7.379  40.664   1.295  1.00  0.00    -0.065 C 
ATOM     25  C   UNL     1      -4.991  39.974   1.866  1.00  0.00     0.014 C 
ATOM     26  C   UNL     1      -5.512  41.238  -0.243  1.00  0.00     0.016 C 
ATOM     27  C   UNL     1      -7.424  41.571   2.515  1.00  0.00     0.063 C 
ATOM     28  C   UNL     1      -4.935  41.176   2.812  1.00  0.00     0.033 C 
ATOM     29  C   UNL     1      -6.281  41.351   3.519  1.00  0.00     0.118 C 
BRANCH  29  30
ATOM     30  O   UNL     1      -6.573  40.228   4.321  1.00  0.00    -0.393 OA
ATOM     31  H   UNL     1      -7.558  40.203   4.425  1.00  0.00     0.210 HD
ENDBRANCH  29  30
ENDBRANCH   9  11
ENDBRANCH   1   9
TORSDOF 7
ENDMDL
MODEL 9
REMARK VINA RESULT:    -3.795      2.161      3.823
REMARK INTER + INTRA:          -6.469
REMARK INTER:                  -5.273
REMARK INTRA:                  -1.196
REMARK UNBOUND:                -1.233
REMARK SMILES CC[C@H](CC[C@@H](C)[C@@H]1CC[C@H]2[C@@H]3CC=C4C[C@@H](O)CC[C@@]4(C)[C@H]3CC[C@]21C)C(C)C
REMARK SMILES IDX 5 1 4 2 3 3 2 4 1 5 28 6 29 7 30 8 6 9 7 10 8 11 9 12 26 13
REMARK SMILES IDX 10 14 11 15 25 16 27 17 12 18 24 19 23 20 13 21 21 22 14 23
REMARK SMILES IDX 15 24 20 25 22 26 16 27 19 28 17 29 18 30
REMARK H PARENT 18 31
REMARK Flexibility Score: inf
ROOT
ATOM      1  C   UNL     1      -8.340  34.578   1.895  1.00  0.00     0.004 C 
ENDROOT
BRANCH   1   2
ATOM      2  C   UNL     1      -9.002  34.863   0.522  1.00  0.00     0.004 C 
BRANCH   2   3
ATOM      3  C   UNL     1      -9.009  33.657  -0.453  1.00  0.00    -0.009 C 
BRANCH   3   4
ATOM      4  C   UNL     1      -8.704  34.099  -1.918  1.00  0.00     0.000 C 
ATOM      5  C   UNL     1      -8.291  35.570  -2.103  1.00  0.00     0.004 C 
ENDBRANCH   3   4
BRANCH   3   6
ATOM      6  C   UNL     1      -8.155  32.439   0.052  1.00  0.00    -0.014 C 
ATOM      7  C   UNL     1      -9.043  31.304   0.602  1.00  0.00     0.007 C 
ATOM      8  C   UNL     1      -7.191  31.873  -0.997  1.00  0.00     0.007 C 
ENDBRANCH   3   6
ENDBRANCH   2   3
ENDBRANCH   1   2
BRANCH   1   9
ATOM      9  C   UNL     1      -8.368  35.815   2.830  1.00  0.00    -0.011 C 
ATOM     10  C   UNL     1      -8.527  35.326   4.291  1.00  0.00     0.008 C 
BRANCH   9  11
ATOM     11  C   UNL     1      -7.112  36.754   2.674  1.00  0.00    -0.002 C 
ATOM     12  C   UNL     1      -6.743  37.400   4.020  1.00  0.00     0.005 C 
ATOM     13  C   UNL     1      -7.179  37.964   1.663  1.00  0.00    -0.026 C 
ATOM     14  C   UNL     1      -5.807  38.531   3.689  1.00  0.00     0.005 C 
ATOM     15  C   UNL     1      -6.186  39.021   2.277  1.00  0.00    -0.001 C 
ATOM     16  C   UNL     1      -6.810  37.511   0.190  1.00  0.00     0.007 C 
ATOM     17  C   UNL     1      -8.602  38.591   1.642  1.00  0.00     0.012 C 
ATOM     18  C   UNL     1      -4.944  39.288   1.398  1.00  0.00     0.000 C 
ATOM     19  C   UNL     1      -5.971  38.468  -0.704  1.00  0.00     0.005 C 
ATOM     20  C   UNL     1      -5.441  39.737  -0.003  1.00  0.00     0.003 C 
ATOM     21  C   UNL     1      -3.982  40.311   2.009  1.00  0.00     0.031 C 
ATOM     22  C   UNL     1      -4.390  40.627  -0.836  1.00  0.00    -0.008 C 
ATOM     23  C   UNL     1      -2.805  40.460   1.089  1.00  0.00    -0.027 C 
ATOM     24  C   UNL     1      -2.968  40.521  -0.246  1.00  0.00    -0.065 C 
ATOM     25  C   UNL     1      -4.379  40.270  -2.356  1.00  0.00     0.014 C 
ATOM     26  C   UNL     1      -4.808  42.125  -0.715  1.00  0.00     0.016 C 
ATOM     27  C   UNL     1      -1.732  40.796  -1.088  1.00  0.00     0.063 C 
ATOM     28  C   UNL     1      -3.238  40.942  -3.125  1.00  0.00     0.033 C 
ATOM     29  C   UNL     1      -1.888  40.468  -2.582  1.00  0.00     0.118 C 
BRANCH  29  30
ATOM     30  O   UNL     1      -1.733  39.079  -2.776  1.00  0.00    -0.393 OA
ATOM     31  H   UNL     1      -2.577  38.656  -2.476  1.00  0.00     0.210 HD
ENDBRANCH  29  30
ENDBRANCH   9  11
ENDBRANCH   1   9
TORSDOF 7
ENDMDL
