MODEL 1
REMARK VINA RESULT:     0.812      0.000      0.000
REMARK INTER + INTRA:           0.859
REMARK INTER:                   0.859
REMARK INTRA:                   0.000
REMARK UNBOUND:                 0.000
REMARK SMILES O=c1ccc2cc(O)c(O)cc2o1
REMARK SMILES IDX 4 1 3 2 2 3 1 4 13 5 12 6 11 7 9 8 7 9 6 10 5 11 8 12 10 14
REMARK H PARENT 8 13 10 15
REMARK Flexibility Score: inf
ROOT
ATOM      1  C   UNL     1      -3.958  -0.540   3.919  1.00  0.00     0.019 A 
ATOM      2  C   UNL     1      -2.782   0.188   4.093  1.00  0.00     0.094 A 
ATOM      3  C   UNL     1      -1.910   0.339   3.010  1.00  0.00     0.336 A 
ATOM      4  O   UNL     1      -0.844   0.992   3.147  1.00  0.00    -0.246 OA
ATOM      5  O   UNL     1      -2.201  -0.207   1.831  1.00  0.00    -0.423 OA
ATOM      6  C   UNL     1      -3.312  -0.909   1.622  1.00  0.00     0.142 A 
ATOM      7  C   UNL     1      -3.564  -1.458   0.362  1.00  0.00     0.098 A 
ATOM      8  C   UNL     1      -4.734  -2.200   0.134  1.00  0.00     0.161 A 
ATOM      9  C   UNL     1      -5.657  -2.392   1.179  1.00  0.00     0.158 A 
ATOM     10  C   UNL     1      -5.406  -1.843   2.443  1.00  0.00     0.062 A 
ATOM     11  C   UNL     1      -4.238  -1.102   2.669  1.00  0.00     0.022 A 
ENDROOT
BRANCH   9  12
ATOM     12  O   UNL     1      -6.826  -3.125   0.980  1.00  0.00    -0.504 OA
ATOM     13  H   UNL     1      -7.106  -3.454   0.064  1.00  0.00     0.293 HD
ENDBRANCH   9  12
BRANCH   8  14
ATOM     14  O   UNL     1      -4.981  -2.746  -1.125  1.00  0.00    -0.504 OA
ATOM     15  H   UNL     1      -5.763  -2.443  -1.691  1.00  0.00     0.293 HD
ENDBRANCH   8  14
TORSDOF 2
ENDMDL
MODEL 2
REMARK VINA RESULT:     1.254      1.026      4.501
REMARK INTER + INTRA:           1.328
REMARK INTER:                   1.328
REMARK INTRA:                   0.000
REMARK UNBOUND:                 0.000
REMARK SMILES O=c1ccc2cc(O)c(O)cc2o1
REMARK SMILES IDX 4 1 3 2 2 3 1 4 13 5 12 6 11 7 9 8 7 9 6 10 5 11 8 12 10 14
REMARK H PARENT 8 13 10 15
REMARK Flexibility Score: inf
ROOT
ATOM      1  C   UNL     1      -5.665  -1.998   2.223  1.00  0.00     0.019 A 
ATOM      2  C   UNL     1      -5.920  -2.643   1.013  1.00  0.00     0.094 A 
ATOM      3  C   UNL     1      -4.990  -2.528  -0.026  1.00  0.00     0.336 A 
ATOM      4  O   UNL     1      -5.202  -3.102  -1.125  1.00  0.00    -0.246 OA
ATOM      5  O   UNL     1      -3.880  -1.813   0.141  1.00  0.00    -0.423 OA
ATOM      6  C   UNL     1      -3.599  -1.182   1.278  1.00  0.00     0.142 A 
ATOM      7  C   UNL     1      -2.416  -0.446   1.395  1.00  0.00     0.098 A 
ATOM      8  C   UNL     1      -2.113   0.222   2.591  1.00  0.00     0.161 A 
ATOM      9  C   UNL     1      -3.003   0.150   3.679  1.00  0.00     0.158 A 
ATOM     10  C   UNL     1      -4.189  -0.586   3.564  1.00  0.00     0.062 A 
ATOM     11  C   UNL     1      -4.491  -1.253   2.369  1.00  0.00     0.022 A 
ENDROOT
BRANCH   9  12
ATOM     12  O   UNL     1      -2.727   0.805   4.879  1.00  0.00    -0.504 OA
ATOM     13  H   UNL     1      -1.974   1.478   4.963  1.00  0.00     0.293 HD
ENDBRANCH   9  12
BRANCH   8  14
ATOM     14  O   UNL     1      -0.932   0.956   2.702  1.00  0.00    -0.504 OA
ATOM     15  H   UNL     1      -0.909   1.857   3.163  1.00  0.00     0.293 HD
ENDBRANCH   8  14
TORSDOF 2
ENDMDL
