MODEL 1
REMARK VINA RESULT:    27.987      0.000      0.000
REMARK INTER + INTRA:          41.764
REMARK INTER:                  41.076
REMARK INTRA:                   0.688
REMARK UNBOUND:                 0.688
REMARK SMILES O=c1c(O[C@@H]2O[C@H](CO)[C@@H](O)[C@H](O)[C@@H]2O)c(-c2ccc(O)c(O)c2)oc2cc(O)cc(O)c12
REMARK SMILES IDX 4 1 3 2 16 3 25 4 2 5 26 6 1 7 33 8 27 9 31 10 28 11 30 12
REMARK SMILES IDX 17 13 18 14 19 15 20 16 24 17 22 18 21 19 23 21 32 23 29 25
REMARK SMILES IDX 5 27 14 28 6 29 12 30 7 31 10 32 15 33 13 35 8 37 9 38 11 40
REMARK H PARENT 21 20 23 22 32 24 29 26 15 34 13 36 9 39 11 41
REMARK Flexibility Score: inf
ROOT
ATOM      1  O   UNL     1     -30.816 -24.158 -35.250  1.00  0.00    -0.454 OA
ENDROOT
BRANCH   1   2
ATOM      2  C   UNL     1     -30.917 -23.035 -34.411  1.00  0.00     0.214 A 
ATOM      3  C   UNL     1     -31.988 -22.110 -34.318  1.00  0.00     0.180 A 
ATOM      4  O   UNL     1     -32.207 -21.637 -33.080  1.00  0.00    -0.452 OA
ATOM      5  C   UNL     1     -29.739 -22.604 -33.858  1.00  0.00     0.239 A 
ATOM      6  C   UNL     1     -31.123 -21.471 -32.282  1.00  0.00     0.146 A 
ATOM      7  O   UNL     1     -28.671 -22.900 -34.518  1.00  0.00    -0.285 OA
ATOM      8  C   UNL     1     -29.789 -21.632 -32.819  1.00  0.00     0.111 A 
ATOM      9  C   UNL     1     -31.282 -20.930 -31.000  1.00  0.00     0.094 A 
ATOM     10  C   UNL     1     -28.746 -20.814 -32.294  1.00  0.00     0.134 A 
ATOM     11  C   UNL     1     -30.185 -20.332 -30.391  1.00  0.00     0.123 A 
ATOM     12  C   UNL     1     -28.932 -20.160 -31.101  1.00  0.00     0.093 A 
BRANCH   3  13
ATOM     13  C   UNL     1     -32.102 -21.104 -35.488  1.00  0.00     0.025 A 
ATOM     14  C   UNL     1     -33.400 -20.544 -35.653  1.00  0.00     0.016 A 
ATOM     15  C   UNL     1     -34.125 -20.758 -36.883  1.00  0.00     0.051 A 
ATOM     16  C   UNL     1     -33.452 -21.158 -38.045  1.00  0.00     0.157 A 
ATOM     17  C   UNL     1     -31.406 -21.342 -36.691  1.00  0.00     0.062 A 
ATOM     18  C   UNL     1     -32.028 -21.183 -37.976  1.00  0.00     0.158 A 
BRANCH  16  19
ATOM     19  O   UNL     1     -34.125 -21.768 -39.124  1.00  0.00    -0.504 OA
ATOM     20  H   UNL     1     -35.097 -21.490 -39.471  1.00  0.00     0.293 HD
ENDBRANCH  16  19
BRANCH  18  21
ATOM     21  O   UNL     1     -31.337 -20.569 -38.976  1.00  0.00    -0.504 OA
ATOM     22  H   UNL     1     -31.908 -19.843 -39.385  1.00  0.00     0.293 HD
ENDBRANCH  18  21
ENDBRANCH   3  13
BRANCH  10  23
ATOM     23  O   UNL     1     -27.560 -20.547 -32.968  1.00  0.00    -0.507 OA
ATOM     24  H   UNL     1     -26.733 -21.078 -32.859  1.00  0.00     0.293 HD
ENDBRANCH  10  23
BRANCH  11  25
ATOM     25  O   UNL     1     -30.326 -19.876 -29.096  1.00  0.00    -0.508 OA
ATOM     26  H   UNL     1     -31.246 -19.682 -28.710  1.00  0.00     0.293 HD
ENDBRANCH  11  25
ENDBRANCH   1   2
BRANCH   1  27
ATOM     27  C   UNL     1     -31.502 -25.441 -35.346  1.00  0.00     0.339 C 
ATOM     28  C   UNL     1     -32.876 -25.166 -36.310  1.00  0.00     0.214 C 
ATOM     29  O   UNL     1     -30.533 -26.271 -36.115  1.00  0.00    -0.332 OA
ATOM     30  C   UNL     1     -32.883 -25.046 -37.930  1.00  0.00     0.180 C 
ATOM     31  C   UNL     1     -30.551 -26.177 -37.605  1.00  0.00     0.179 C 
ATOM     32  C   UNL     1     -31.870 -26.067 -38.558  1.00  0.00     0.177 C 
BRANCH  28  33
ATOM     33  O   UNL     1     -33.810 -24.178 -35.753  1.00  0.00    -0.384 OA
ATOM     34  H   UNL     1     -33.538 -23.987 -34.740  1.00  0.00     0.211 HD
ENDBRANCH  28  33
BRANCH  30  35
ATOM     35  O   UNL     1     -32.632 -23.762 -38.479  1.00  0.00    -0.387 OA
ATOM     36  H   UNL     1     -31.619 -23.656 -38.506  1.00  0.00     0.211 HD
ENDBRANCH  30  35
BRANCH  31  37
ATOM     37  C   UNL     1     -29.829 -24.777 -37.877  1.00  0.00     0.191 C 
BRANCH  37  38
ATOM     38  O   UNL     1     -30.386 -24.262 -39.051  1.00  0.00    -0.394 OA
ATOM     39  H   UNL     1     -31.261 -24.747 -39.213  1.00  0.00     0.210 HD
ENDBRANCH  37  38
ENDBRANCH  31  37
BRANCH  32  40
ATOM     40  O   UNL     1     -32.480 -27.296 -38.912  1.00  0.00    -0.387 OA
ATOM     41  H   UNL     1     -32.619 -27.264 -39.959  1.00  0.00     0.211 HD
ENDBRANCH  32  40
ENDBRANCH   1  27
TORSDOF 12
ENDMDL
