MODEL 1
REMARK VINA RESULT:    63.887      0.000      0.000
REMARK INTER + INTRA:          91.905
REMARK INTER:                  93.765
REMARK INTRA:                  -1.860
REMARK UNBOUND:                -1.860
REMARK SMILES O=c1c(O[C@H]2O[C@@H](CO)[C@@H](O)[C@@H](O)[C@@H]2O)c(-c2ccc(O)c(O)c2)oc2cc(O)cc(O)c12
REMARK SMILES IDX 4 1 3 2 16 3 25 4 2 5 26 6 1 7 33 8 27 9 31 10 28 11 30 12
REMARK SMILES IDX 17 13 18 14 19 15 20 16 24 17 22 18 21 19 23 21 32 23 29 25
REMARK SMILES IDX 5 27 14 28 6 29 12 30 7 31 10 32 15 33 13 35 8 37 9 38 11 40
REMARK H PARENT 21 20 23 22 32 24 29 26 15 34 13 36 9 39 11 41
REMARK Flexibility Score: inf
ROOT
ATOM      1  O   UNL     1      -4.092  -0.506   1.658  1.00  0.00    -0.454 OA
ENDROOT
BRANCH   1   2
ATOM      2  C   UNL     1      -3.637   0.807   1.387  1.00  0.00     0.214 A 
ATOM      3  C   UNL     1      -2.412   1.378   1.868  1.00  0.00     0.180 A 
ATOM      4  O   UNL     1      -2.187   2.675   1.697  1.00  0.00    -0.452 OA
ATOM      5  C   UNL     1      -4.450   1.619   0.549  1.00  0.00     0.239 A 
ATOM      6  C   UNL     1      -2.982   3.490   1.023  1.00  0.00     0.146 A 
ATOM      7  O   UNL     1      -5.470   1.106  -0.018  1.00  0.00    -0.285 OA
ATOM      8  C   UNL     1      -4.139   2.982   0.378  1.00  0.00     0.111 A 
ATOM      9  C   UNL     1      -2.660   4.851   0.949  1.00  0.00     0.094 A 
ATOM     10  C   UNL     1      -4.956   3.865  -0.366  1.00  0.00     0.134 A 
ATOM     11  C   UNL     1      -3.467   5.716   0.203  1.00  0.00     0.123 A 
ATOM     12  C   UNL     1      -4.592   5.213  -0.469  1.00  0.00     0.093 A 
BRANCH   3  13
ATOM     13  C   UNL     1      -1.272   0.602   2.417  1.00  0.00     0.025 A 
ATOM     14  C   UNL     1      -1.216   0.377   3.807  1.00  0.00     0.016 A 
ATOM     15  C   UNL     1      -0.086  -0.215   4.379  1.00  0.00     0.051 A 
ATOM     16  C   UNL     1       0.990  -0.607   3.593  1.00  0.00     0.157 A 
ATOM     17  C   UNL     1      -0.144   0.290   1.634  1.00  0.00     0.062 A 
ATOM     18  C   UNL     1       0.964  -0.370   2.194  1.00  0.00     0.158 A 
BRANCH  16  19
ATOM     19  O   UNL     1       2.050  -1.235   4.247  1.00  0.00    -0.504 OA
ATOM     20  H   UNL     1       2.698  -1.860   3.802  1.00  0.00     0.293 HD
ENDBRANCH  16  19
BRANCH  18  21
ATOM     21  O   UNL     1       2.006  -0.772   1.359  1.00  0.00    -0.504 OA
ATOM     22  H   UNL     1       2.087  -0.514   0.385  1.00  0.00     0.293 HD
ENDBRANCH  18  21
ENDBRANCH   3  13
BRANCH  10  23
ATOM     23  O   UNL     1      -6.095   3.420  -1.022  1.00  0.00    -0.507 OA
ATOM     24  H   UNL     1      -6.451   2.479  -0.905  1.00  0.00     0.293 HD
ENDBRANCH  10  23
BRANCH  11  25
ATOM     25  O   UNL     1      -3.157   7.080   0.170  1.00  0.00    -0.508 OA
ATOM     26  H   UNL     1      -2.979   7.622   1.005  1.00  0.00     0.293 HD
ENDBRANCH  11  25
ENDBRANCH   1   2
BRANCH   1  27
ATOM     27  C   UNL     1      -3.712  -1.742   1.032  1.00  0.00     0.339 C 
ATOM     28  C   UNL     1      -4.478  -1.895  -0.301  1.00  0.00     0.214 C 
ATOM     29  O   UNL     1      -3.960  -2.883   1.827  1.00  0.00    -0.332 OA
ATOM     30  C   UNL     1      -5.980  -2.288  -0.054  1.00  0.00     0.180 C 
ATOM     31  C   UNL     1      -5.278  -2.940   2.334  1.00  0.00     0.179 C 
ATOM     32  C   UNL     1      -6.382  -2.272   1.438  1.00  0.00     0.177 C 
BRANCH  28  33
ATOM     33  O   UNL     1      -3.854  -2.865  -1.125  1.00  0.00    -0.384 OA
ATOM     34  H   UNL     1      -4.561  -3.497  -1.464  1.00  0.00     0.211 HD
ENDBRANCH  28  33
BRANCH  30  35
ATOM     35  O   UNL     1      -6.822  -1.428  -0.792  1.00  0.00    -0.387 OA
ATOM     36  H   UNL     1      -6.486  -1.411  -1.721  1.00  0.00     0.211 HD
ENDBRANCH  30  35
BRANCH  31  37
ATOM     37  C   UNL     1      -5.279  -2.568   3.844  1.00  0.00     0.191 C 
BRANCH  37  38
ATOM     38  O   UNL     1      -4.625  -1.330   4.064  1.00  0.00    -0.394 OA
ATOM     39  H   UNL     1      -4.767  -0.774   3.238  1.00  0.00     0.210 HD
ENDBRANCH  37  38
ENDBRANCH  31  37
BRANCH  32  40
ATOM     40  O   UNL     1      -6.620  -0.943   1.839  1.00  0.00    -0.387 OA
ATOM     41  H   UNL     1      -6.580  -0.923   2.831  1.00  0.00     0.211 HD
ENDBRANCH  32  40
ENDBRANCH   1  27
TORSDOF 12
ENDMDL
MODEL 2
REMARK VINA RESULT:    66.795      1.345      5.937
REMARK INTER + INTRA:          96.173
REMARK INTER:                  91.932
REMARK INTRA:                   4.241
REMARK UNBOUND:                -1.860
REMARK SMILES O=c1c(O[C@H]2O[C@@H](CO)[C@@H](O)[C@@H](O)[C@@H]2O)c(-c2ccc(O)c(O)c2)oc2cc(O)cc(O)c12
REMARK SMILES IDX 4 1 3 2 16 3 25 4 2 5 26 6 1 7 33 8 27 9 31 10 28 11 30 12
REMARK SMILES IDX 17 13 18 14 19 15 20 16 24 17 22 18 21 19 23 21 32 23 29 25
REMARK SMILES IDX 5 27 14 28 6 29 12 30 7 31 10 32 15 33 13 35 8 37 9 38 11 40
REMARK H PARENT 21 20 23 22 32 24 29 26 15 34 13 36 9 39 11 41
REMARK Flexibility Score: inf
ROOT
ATOM      1  O   UNL     1      -4.888   0.231   1.881  1.00  0.00    -0.454 OA
ENDROOT
BRANCH   1   2
ATOM      2  C   UNL     1      -3.520   0.399   2.207  1.00  0.00     0.214 A 
ATOM      3  C   UNL     1      -2.644   1.380   1.636  1.00  0.00     0.180 A 
ATOM      4  O   UNL     1      -1.342   1.315   1.887  1.00  0.00    -0.452 OA
ATOM      5  C   UNL     1      -2.976  -0.463   3.199  1.00  0.00     0.239 A 
ATOM      6  C   UNL     1      -0.782   0.449   2.715  1.00  0.00     0.146 A 
ATOM      7  O   UNL     1      -3.751  -1.248   3.836  1.00  0.00    -0.285 OA
ATOM      8  C   UNL     1      -1.590  -0.460   3.446  1.00  0.00     0.111 A 
ATOM      9  C   UNL     1       0.611   0.451   2.865  1.00  0.00     0.094 A 
ATOM     10  C   UNL     1      -0.973  -1.354   4.352  1.00  0.00     0.134 A 
ATOM     11  C   UNL     1       1.212  -0.429   3.771  1.00  0.00     0.123 A 
ATOM     12  C   UNL     1       0.416  -1.306   4.525  1.00  0.00     0.093 A 
BRANCH   3  13
ATOM     13  C   UNL     1      -3.089   2.586   0.893  1.00  0.00     0.025 A 
ATOM     14  C   UNL     1      -2.181   3.654   0.735  1.00  0.00     0.016 A 
ATOM     15  C   UNL     1      -2.607   4.862   0.177  1.00  0.00     0.051 A 
ATOM     16  C   UNL     1      -3.919   5.030  -0.246  1.00  0.00     0.157 A 
ATOM     17  C   UNL     1      -4.439   2.788   0.550  1.00  0.00     0.062 A 
ATOM     18  C   UNL     1      -4.855   3.976  -0.076  1.00  0.00     0.158 A 
BRANCH  16  19
ATOM     19  O   UNL     1      -4.238   6.253  -0.837  1.00  0.00    -0.504 OA
ATOM     20  H   UNL     1      -5.067   6.421  -1.377  1.00  0.00     0.293 HD
ENDBRANCH  16  19
BRANCH  18  21
ATOM     21  O   UNL     1      -6.175   4.085  -0.512  1.00  0.00    -0.504 OA
ATOM     22  H   UNL     1      -6.452   4.136  -1.482  1.00  0.00     0.293 HD
ENDBRANCH  18  21
ENDBRANCH   3  13
BRANCH  10  23
ATOM     23  O   UNL     1      -1.716  -2.258   5.098  1.00  0.00    -0.507 OA
ATOM     24  H   UNL     1      -1.355  -2.683   5.943  1.00  0.00     0.293 HD
ENDBRANCH  10  23
BRANCH  11  25
ATOM     25  O   UNL     1       2.607  -0.446   3.882  1.00  0.00    -0.508 OA
ATOM     26  H   UNL     1       3.086  -0.698   4.736  1.00  0.00     0.293 HD
ENDBRANCH  11  25
ENDBRANCH   1   2
BRANCH   1  27
ATOM     27  C   UNL     1      -5.761  -0.869   2.185  1.00  0.00     0.339 C 
ATOM     28  C   UNL     1      -4.913  -2.128   2.471  1.00  0.00     0.214 C 
ATOM     29  O   UNL     1      -6.678  -1.169   1.154  1.00  0.00    -0.332 OA
ATOM     30  C   UNL     1      -4.331  -2.738   1.144  1.00  0.00     0.180 C 
ATOM     31  C   UNL     1      -6.072  -1.320  -0.113  1.00  0.00     0.179 C 
ATOM     32  C   UNL     1      -4.597  -1.864  -0.102  1.00  0.00     0.177 C 
BRANCH  28  33
ATOM     33  O   UNL     1      -5.684  -3.103   3.154  1.00  0.00    -0.384 OA
ATOM     34  H   UNL     1      -6.275  -3.569   2.483  1.00  0.00     0.211 HD
ENDBRANCH  28  33
BRANCH  30  35
ATOM     35  O   UNL     1      -2.945  -2.960   1.293  1.00  0.00    -0.387 OA
ATOM     36  H   UNL     1      -2.796  -3.296   2.210  1.00  0.00     0.211 HD
ENDBRANCH  30  35
BRANCH  31  37
ATOM     37  C   UNL     1      -6.350  -0.062  -0.985  1.00  0.00     0.191 C 
BRANCH  37  38
ATOM     38  O   UNL     1      -7.742   0.162  -1.125  1.00  0.00    -0.394 OA
ATOM     39  H   UNL     1      -7.870   0.680  -1.977  1.00  0.00     0.210 HD
ENDBRANCH  37  38
ENDBRANCH  31  37
BRANCH  32  40
ATOM     40  O   UNL     1      -3.670  -0.806  -0.132  1.00  0.00    -0.387 OA
ATOM     41  H   UNL     1      -2.772  -1.204  -0.281  1.00  0.00     0.211 HD
ENDBRANCH  32  40
ENDBRANCH   1  27
TORSDOF 12
ENDMDL
