MODEL 1
REMARK VINA RESULT:    -3.291      0.000      0.000
REMARK INTER + INTRA:          -9.871
REMARK INTER:                  -7.139
REMARK INTRA:                  -2.732
REMARK UNBOUND:                -2.732
REMARK SMILES CCCCCCCCCCCCCCCCCCCCCC(=O)[O-]
REMARK SMILES IDX 12 1 11 2 10 3 9 4 8 5 7 6 6 7 5 8 4 9 3 10 2 11 1 12 13 13
REMARK SMILES IDX 14 14 15 15 16 16 17 17 18 18 19 19 20 20 21 21 22 22 23 23
REMARK SMILES IDX 24 24
REMARK H PARENT
REMARK Flexibility Score: inf
ROOT
ATOM      1  C   UNL     1       9.933  -1.519  22.314  1.00  0.00     0.000 C 
ENDROOT
BRANCH   1   2
ATOM      2  C   UNL     1      10.953  -2.667  22.214  1.00  0.00     0.000 C 
BRANCH   2   3
ATOM      3  C   UNL     1      11.124  -3.191  20.776  1.00  0.00     0.000 C 
BRANCH   3   4
ATOM      4  C   UNL     1      10.806  -4.688  20.585  1.00  0.00    -0.000 C 
BRANCH   4   5
ATOM      5  C   UNL     1       9.460  -4.931  19.879  1.00  0.00    -0.000 C 
BRANCH   5   6
ATOM      6  C   UNL     1       9.445  -6.272  19.109  1.00  0.00    -0.000 C 
BRANCH   6   7
ATOM      7  C   UNL     1       9.999  -6.171  17.677  1.00  0.00    -0.000 C 
BRANCH   7   8
ATOM      8  C   UNL     1       9.084  -6.831  16.633  1.00  0.00    -0.000 C 
BRANCH   8   9
ATOM      9  C   UNL     1       7.967  -7.679  17.267  1.00  0.00    -0.000 C 
BRANCH   9  10
ATOM     10  C   UNL     1       8.177  -9.202  17.177  1.00  0.00    -0.000 C 
BRANCH  10  11
ATOM     11  C   UNL     1       6.942  -9.940  16.636  1.00  0.00    -0.003 C 
ATOM     12  C   UNL     1       6.193  -9.091  15.615  1.00  0.00     0.004 C 
ENDBRANCH  10  11
ENDBRANCH   9  10
ENDBRANCH   8   9
ENDBRANCH   7   8
ENDBRANCH   6   7
ENDBRANCH   5   6
ENDBRANCH   4   5
ENDBRANCH   3   4
ENDBRANCH   2   3
ENDBRANCH   1   2
BRANCH   1  13
ATOM     13  C   UNL     1       8.747  -1.689  21.341  1.00  0.00     0.000 C 
BRANCH  13  14
ATOM     14  C   UNL     1       8.065  -0.360  20.951  1.00  0.00     0.000 C 
BRANCH  14  15
ATOM     15  C   UNL     1       8.300   0.094  19.501  1.00  0.00     0.000 C 
BRANCH  15  16
ATOM     16  C   UNL     1       9.571  -0.516  18.888  1.00  0.00     0.000 C 
BRANCH  16  17
ATOM     17  C   UNL     1       9.314  -1.011  17.457  1.00  0.00     0.000 C 
BRANCH  17  18
ATOM     18  C   UNL     1       9.055  -2.531  17.407  1.00  0.00     0.000 C 
BRANCH  18  19
ATOM     19  C   UNL     1       7.585  -2.888  17.108  1.00  0.00     0.000 C 
BRANCH  19  20
ATOM     20  C   UNL     1       6.712  -2.844  18.374  1.00  0.00     0.006 C 
BRANCH  20  21
ATOM     21  C   UNL     1       5.476  -1.952  18.198  1.00  0.00     0.053 C 
BRANCH  21  22
ATOM     22  C   UNL     1       5.511  -1.225  16.887  1.00  0.00     0.041 C 
ATOM     23  O   UNL     1       6.059  -0.096  16.800  1.00  0.00    -0.550 OA
ATOM     24  O   UNL     1       4.959  -1.812  15.753  1.00  0.00    -0.550 OA
ENDBRANCH  21  22
ENDBRANCH  20  21
ENDBRANCH  19  20
ENDBRANCH  18  19
ENDBRANCH  17  18
ENDBRANCH  16  17
ENDBRANCH  15  16
ENDBRANCH  14  15
ENDBRANCH  13  14
ENDBRANCH   1  13
TORSDOF 20
ENDMDL
MODEL 2
REMARK VINA RESULT:    -3.283      2.650      4.982
REMARK INTER + INTRA:          -9.855
REMARK INTER:                  -6.589
REMARK INTRA:                  -3.266
REMARK UNBOUND:                -2.732
REMARK SMILES CCCCCCCCCCCCCCCCCCCCCC(=O)[O-]
REMARK SMILES IDX 12 1 11 2 10 3 9 4 8 5 7 6 6 7 5 8 4 9 3 10 2 11 1 12 13 13
REMARK SMILES IDX 14 14 15 15 16 16 17 17 18 18 19 19 20 20 21 21 22 22 23 23
REMARK SMILES IDX 24 24
REMARK H PARENT
REMARK Flexibility Score: inf
ROOT
ATOM      1  C   UNL     1       7.102  -1.405  19.767  1.00  0.00     0.000 C 
ENDROOT
BRANCH   1   2
ATOM      2  C   UNL     1       8.616  -1.650  19.650  1.00  0.00     0.000 C 
BRANCH   2   3
ATOM      3  C   UNL     1       9.233  -2.210  20.945  1.00  0.00     0.000 C 
BRANCH   3   4
ATOM      4  C   UNL     1      10.307  -3.298  20.739  1.00  0.00    -0.000 C 
BRANCH   4   5
ATOM      5  C   UNL     1      10.193  -4.004  19.376  1.00  0.00    -0.000 C 
BRANCH   5   6
ATOM      6  C   UNL     1       9.258  -5.234  19.439  1.00  0.00    -0.000 C 
BRANCH   6   7
ATOM      7  C   UNL     1       8.506  -5.509  18.126  1.00  0.00    -0.000 C 
BRANCH   7   8
ATOM      8  C   UNL     1       9.231  -4.950  16.890  1.00  0.00    -0.000 C 
BRANCH   8   9
ATOM      9  C   UNL     1       8.432  -3.844  16.179  1.00  0.00    -0.000 C 
BRANCH   9  10
ATOM     10  C   UNL     1       9.130  -2.471  16.124  1.00  0.00    -0.000 C 
BRANCH  10  11
ATOM     11  C   UNL     1       8.144  -1.312  15.911  1.00  0.00    -0.003 C 
ATOM     12  C   UNL     1       8.765   0.023  16.306  1.00  0.00     0.004 C 
ENDBRANCH  10  11
ENDBRANCH   9  10
ENDBRANCH   8   9
ENDBRANCH   7   8
ENDBRANCH   6   7
ENDBRANCH   5   6
ENDBRANCH   4   5
ENDBRANCH   3   4
ENDBRANCH   2   3
ENDBRANCH   1   2
BRANCH   1  13
ATOM     13  C   UNL     1       6.275  -2.322  18.841  1.00  0.00     0.000 C 
BRANCH  13  14
ATOM     14  C   UNL     1       5.112  -1.603  18.128  1.00  0.00     0.000 C 
BRANCH  14  15
ATOM     15  C   UNL     1       4.932  -0.122  18.501  1.00  0.00     0.000 C 
BRANCH  15  16
ATOM     16  C   UNL     1       5.201   0.823  17.320  1.00  0.00     0.000 C 
BRANCH  16  17
ATOM     17  C   UNL     1       4.837   0.160  15.983  1.00  0.00     0.000 C 
BRANCH  17  18
ATOM     18  C   UNL     1       5.423   0.923  14.778  1.00  0.00     0.000 C 
BRANCH  18  19
ATOM     19  C   UNL     1       4.350   1.400  13.779  1.00  0.00     0.000 C 
BRANCH  19  20
ATOM     20  C   UNL     1       2.972   0.781  14.075  1.00  0.00     0.006 C 
BRANCH  20  21
ATOM     21  C   UNL     1       2.342   0.144  12.829  1.00  0.00     0.053 C 
BRANCH  21  22
ATOM     22  C   UNL     1       2.501  -1.346  12.839  1.00  0.00     0.041 C 
ATOM     23  O   UNL     1       3.627  -1.864  13.058  1.00  0.00    -0.550 OA
ATOM     24  O   UNL     1       1.395  -2.165  12.634  1.00  0.00    -0.550 OA
ENDBRANCH  21  22
ENDBRANCH  20  21
ENDBRANCH  19  20
ENDBRANCH  18  19
ENDBRANCH  17  18
ENDBRANCH  16  17
ENDBRANCH  15  16
ENDBRANCH  14  15
ENDBRANCH  13  14
ENDBRANCH   1  13
TORSDOF 20
ENDMDL
MODEL 3
REMARK VINA RESULT:    -3.271      4.036      6.667
REMARK INTER + INTRA:          -9.827
REMARK INTER:                  -6.307
REMARK INTRA:                  -3.520
REMARK UNBOUND:                -2.732
REMARK SMILES CCCCCCCCCCCCCCCCCCCCCC(=O)[O-]
REMARK SMILES IDX 12 1 11 2 10 3 9 4 8 5 7 6 6 7 5 8 4 9 3 10 2 11 1 12 13 13
REMARK SMILES IDX 14 14 15 15 16 16 17 17 18 18 19 19 20 20 21 21 22 22 23 23
REMARK SMILES IDX 24 24
REMARK H PARENT
REMARK Flexibility Score: inf
ROOT
ATOM      1  C   UNL     1       7.605   0.423  19.949  1.00  0.00     0.000 C 
ENDROOT
BRANCH   1   2
ATOM      2  C   UNL     1       8.401   0.792  18.685  1.00  0.00     0.000 C 
BRANCH   2   3
ATOM      3  C   UNL     1       9.902   0.471  18.809  1.00  0.00     0.000 C 
BRANCH   3   4
ATOM      4  C   UNL     1      10.366  -0.785  18.043  1.00  0.00    -0.000 C 
BRANCH   4   5
ATOM      5  C   UNL     1       9.213  -1.519  17.336  1.00  0.00    -0.000 C 
BRANCH   5   6
ATOM      6  C   UNL     1       8.870  -2.858  18.029  1.00  0.00    -0.000 C 
BRANCH   6   7
ATOM      7  C   UNL     1       7.428  -3.334  17.779  1.00  0.00    -0.000 C 
BRANCH   7   8
ATOM      8  C   UNL     1       6.442  -2.848  18.854  1.00  0.00    -0.000 C 
BRANCH   8   9
ATOM      9  C   UNL     1       5.400  -1.858  18.304  1.00  0.00    -0.000 C 
BRANCH   9  10
ATOM     10  C   UNL     1       5.475  -1.611  16.785  1.00  0.00    -0.000 C 
BRANCH  10  11
ATOM     11  C   UNL     1       5.569  -0.119  16.430  1.00  0.00    -0.003 C 
ATOM     12  C   UNL     1       6.645   0.134  15.380  1.00  0.00     0.004 C 
ENDBRANCH  10  11
ENDBRANCH   9  10
ENDBRANCH   8   9
ENDBRANCH   7   8
ENDBRANCH   6   7
ENDBRANCH   5   6
ENDBRANCH   4   5
ENDBRANCH   3   4
ENDBRANCH   2   3
ENDBRANCH   1   2
BRANCH   1  13
ATOM     13  C   UNL     1       8.512   0.014  21.128  1.00  0.00     0.000 C 
BRANCH  13  14
ATOM     14  C   UNL     1       8.426  -1.483  21.491  1.00  0.00     0.000 C 
BRANCH  14  15
ATOM     15  C   UNL     1       9.746  -2.262  21.370  1.00  0.00     0.000 C 
BRANCH  15  16
ATOM     16  C   UNL     1      10.889  -1.618  22.172  1.00  0.00     0.000 C 
BRANCH  16  17
ATOM     17  C   UNL     1      10.775  -1.953  23.667  1.00  0.00     0.000 C 
BRANCH  17  18
ATOM     18  C   UNL     1      10.207  -0.774  24.484  1.00  0.00     0.000 C 
BRANCH  18  19
ATOM     19  C   UNL     1       9.242  -1.218  25.602  1.00  0.00     0.000 C 
BRANCH  19  20
ATOM     20  C   UNL     1       7.781  -1.255  25.120  1.00  0.00     0.006 C 
BRANCH  20  21
ATOM     21  C   UNL     1       6.820  -1.741  26.214  1.00  0.00     0.053 C 
BRANCH  21  22
ATOM     22  C   UNL     1       6.510  -3.200  26.058  1.00  0.00     0.041 C 
ATOM     23  O   UNL     1       7.300  -4.070  26.508  1.00  0.00    -0.550 OA
ATOM     24  O   UNL     1       5.329  -3.596  25.439  1.00  0.00    -0.550 OA
ENDBRANCH  21  22
ENDBRANCH  20  21
ENDBRANCH  19  20
ENDBRANCH  18  19
ENDBRANCH  17  18
ENDBRANCH  16  17
ENDBRANCH  15  16
ENDBRANCH  14  15
ENDBRANCH  13  14
ENDBRANCH   1  13
TORSDOF 20
ENDMDL
MODEL 4
REMARK VINA RESULT:    -3.265      9.692     13.504
REMARK INTER + INTRA:          -9.815
REMARK INTER:                  -6.072
REMARK INTRA:                  -3.743
REMARK UNBOUND:                -2.732
REMARK SMILES CCCCCCCCCCCCCCCCCCCCCC(=O)[O-]
REMARK SMILES IDX 12 1 11 2 10 3 9 4 8 5 7 6 6 7 5 8 4 9 3 10 2 11 1 12 13 13
REMARK SMILES IDX 14 14 15 15 16 16 17 17 18 18 19 19 20 20 21 21 22 22 23 23
REMARK SMILES IDX 24 24
REMARK H PARENT
REMARK Flexibility Score: inf
ROOT
ATOM      1  C   UNL     1      -2.557  -1.137  22.276  1.00  0.00     0.000 C 
ENDROOT
BRANCH   1   2
ATOM      2  C   UNL     1      -3.932  -1.824  22.207  1.00  0.00     0.000 C 
BRANCH   2   3
ATOM      3  C   UNL     1      -4.254  -2.377  20.807  1.00  0.00     0.000 C 
BRANCH   3   4
ATOM      4  C   UNL     1      -5.311  -1.579  20.016  1.00  0.00    -0.000 C 
BRANCH   4   5
ATOM      5  C   UNL     1      -6.251  -0.764  20.923  1.00  0.00    -0.000 C 
BRANCH   5   6
ATOM      6  C   UNL     1      -6.765   0.514  20.222  1.00  0.00    -0.000 C 
BRANCH   6   7
ATOM      7  C   UNL     1      -5.694   1.236  19.385  1.00  0.00    -0.000 C 
BRANCH   7   8
ATOM      8  C   UNL     1      -5.762   2.766  19.514  1.00  0.00    -0.000 C 
BRANCH   8   9
ATOM      9  C   UNL     1      -4.833   3.314  20.613  1.00  0.00    -0.000 C 
BRANCH   9  10
ATOM     10  C   UNL     1      -3.769   2.321  21.120  1.00  0.00    -0.000 C 
BRANCH  10  11
ATOM     11  C   UNL     1      -3.609   2.352  22.648  1.00  0.00    -0.003 C 
ATOM     12  C   UNL     1      -4.804   1.707  23.343  1.00  0.00     0.004 C 
ENDBRANCH  10  11
ENDBRANCH   9  10
ENDBRANCH   8   9
ENDBRANCH   7   8
ENDBRANCH   6   7
ENDBRANCH   5   6
ENDBRANCH   4   5
ENDBRANCH   3   4
ENDBRANCH   2   3
ENDBRANCH   1   2
BRANCH   1  13
ATOM     13  C   UNL     1      -1.943  -0.889  20.881  1.00  0.00     0.000 C 
BRANCH  13  14
ATOM     14  C   UNL     1      -0.454  -1.279  20.777  1.00  0.00     0.000 C 
BRANCH  14  15
ATOM     15  C   UNL     1       0.492  -0.141  20.361  1.00  0.00     0.000 C 
BRANCH  15  16
ATOM     16  C   UNL     1       0.154   1.192  21.048  1.00  0.00     0.000 C 
BRANCH  16  17
ATOM     17  C   UNL     1       0.843   1.303  22.416  1.00  0.00     0.000 C 
BRANCH  17  18
ATOM     18  C   UNL     1      -0.173   1.372  23.574  1.00  0.00     0.000 C 
BRANCH  18  19
ATOM     19  C   UNL     1       0.009   0.246  24.612  1.00  0.00     0.000 C 
BRANCH  19  20
ATOM     20  C   UNL     1       0.985  -0.838  24.120  1.00  0.00     0.006 C 
BRANCH  20  21
ATOM     21  C   UNL     1       0.471  -2.256  24.404  1.00  0.00     0.053 C 
BRANCH  21  22
ATOM     22  C   UNL     1       1.603  -3.228  24.548  1.00  0.00     0.041 C 
ATOM     23  O   UNL     1       1.461  -4.427  24.194  1.00  0.00    -0.550 OA
ATOM     24  O   UNL     1       2.828  -2.798  25.049  1.00  0.00    -0.550 OA
ENDBRANCH  21  22
ENDBRANCH  20  21
ENDBRANCH  19  20
ENDBRANCH  18  19
ENDBRANCH  17  18
ENDBRANCH  16  17
ENDBRANCH  15  16
ENDBRANCH  14  15
ENDBRANCH  13  14
ENDBRANCH   1  13
TORSDOF 20
ENDMDL
MODEL 5
REMARK VINA RESULT:    -3.260      2.411      4.849
REMARK INTER + INTRA:          -9.804
REMARK INTER:                  -6.375
REMARK INTRA:                  -3.430
REMARK UNBOUND:                -2.732
REMARK SMILES CCCCCCCCCCCCCCCCCCCCCC(=O)[O-]
REMARK SMILES IDX 12 1 11 2 10 3 9 4 8 5 7 6 6 7 5 8 4 9 3 10 2 11 1 12 13 13
REMARK SMILES IDX 14 14 15 15 16 16 17 17 18 18 19 19 20 20 21 21 22 22 23 23
REMARK SMILES IDX 24 24
REMARK H PARENT
REMARK Flexibility Score: inf
ROOT
ATOM      1  C   UNL     1      10.737  -3.875  20.473  1.00  0.00     0.000 C 
ENDROOT
BRANCH   1   2
ATOM      2  C   UNL     1      11.030  -5.349  20.139  1.00  0.00     0.000 C 
BRANCH   2   3
ATOM      3  C   UNL     1       9.751  -6.190  19.976  1.00  0.00     0.000 C 
BRANCH   3   4
ATOM      4  C   UNL     1       9.670  -7.006  18.669  1.00  0.00    -0.000 C 
BRANCH   4   5
ATOM      5  C   UNL     1       8.387  -6.727  17.866  1.00  0.00    -0.000 C 
BRANCH   5   6
ATOM      6  C   UNL     1       8.454  -5.374  17.121  1.00  0.00    -0.000 C 
BRANCH   6   7
ATOM      7  C   UNL     1       9.802  -5.115  16.426  1.00  0.00    -0.000 C 
BRANCH   7   8
ATOM      8  C   UNL     1      10.099  -3.620  16.231  1.00  0.00    -0.000 C 
BRANCH   8   9
ATOM      9  C   UNL     1       8.833  -2.746  16.290  1.00  0.00    -0.000 C 
BRANCH   9  10
ATOM     10  C   UNL     1       9.060  -1.251  15.996  1.00  0.00    -0.000 C 
BRANCH  10  11
ATOM     11  C   UNL     1       9.005  -0.382  17.262  1.00  0.00    -0.003 C 
ATOM     12  C   UNL     1      10.371  -0.293  17.932  1.00  0.00     0.004 C 
ENDBRANCH  10  11
ENDBRANCH   9  10
ENDBRANCH   8   9
ENDBRANCH   7   8
ENDBRANCH   6   7
ENDBRANCH   5   6
ENDBRANCH   4   5
ENDBRANCH   3   4
ENDBRANCH   2   3
ENDBRANCH   1   2
BRANCH   1  13
ATOM     13  C   UNL     1       9.375  -3.399  19.926  1.00  0.00     0.000 C 
BRANCH  13  14
ATOM     14  C   UNL     1       8.776  -2.205  20.699  1.00  0.00     0.000 C 
BRANCH  14  15
ATOM     15  C   UNL     1       7.385  -1.752  20.226  1.00  0.00     0.000 C 
BRANCH  15  16
ATOM     16  C   UNL     1       6.718  -2.770  19.287  1.00  0.00     0.000 C 
BRANCH  16  17
ATOM     17  C   UNL     1       5.823  -2.069  18.254  1.00  0.00     0.000 C 
BRANCH  17  18
ATOM     18  C   UNL     1       5.380  -0.668  18.726  1.00  0.00     0.000 C 
BRANCH  18  19
ATOM     19  C   UNL     1       5.376   0.381  17.596  1.00  0.00     0.000 C 
BRANCH  19  20
ATOM     20  C   UNL     1       4.010   1.076  17.460  1.00  0.00     0.006 C 
BRANCH  20  21
ATOM     21  C   UNL     1       3.360   1.352  18.822  1.00  0.00     0.053 C 
BRANCH  21  22
ATOM     22  C   UNL     1       1.870   1.467  18.701  1.00  0.00     0.041 C 
ATOM     23  O   UNL     1       1.118   0.902  19.537  1.00  0.00    -0.550 OA
ATOM     24  O   UNL     1       1.312   2.225  17.676  1.00  0.00    -0.550 OA
ENDBRANCH  21  22
ENDBRANCH  20  21
ENDBRANCH  19  20
ENDBRANCH  18  19
ENDBRANCH  17  18
ENDBRANCH  16  17
ENDBRANCH  15  16
ENDBRANCH  14  15
ENDBRANCH  13  14
ENDBRANCH   1  13
TORSDOF 20
ENDMDL
MODEL 6
REMARK VINA RESULT:    -3.257      1.452      3.084
REMARK INTER + INTRA:          -9.799
REMARK INTER:                  -6.684
REMARK INTRA:                  -3.114
REMARK UNBOUND:                -2.732
REMARK SMILES CCCCCCCCCCCCCCCCCCCCCC(=O)[O-]
REMARK SMILES IDX 12 1 11 2 10 3 9 4 8 5 7 6 6 7 5 8 4 9 3 10 2 11 1 12 13 13
REMARK SMILES IDX 14 14 15 15 16 16 17 17 18 18 19 19 20 20 21 21 22 22 23 23
REMARK SMILES IDX 24 24
REMARK H PARENT
REMARK Flexibility Score: inf
ROOT
ATOM      1  C   UNL     1       9.836  -5.357  20.340  1.00  0.00     0.000 C 
ENDROOT
BRANCH   1   2
ATOM      2  C   UNL     1       9.683  -6.184  19.050  1.00  0.00     0.000 C 
BRANCH   2   3
ATOM      3  C   UNL     1       8.496  -5.725  18.184  1.00  0.00     0.000 C 
BRANCH   3   4
ATOM      4  C   UNL     1       8.867  -5.268  16.758  1.00  0.00    -0.000 C 
BRANCH   4   5
ATOM      5  C   UNL     1      10.372  -5.391  16.460  1.00  0.00    -0.000 C 
BRANCH   5   6
ATOM      6  C   UNL     1      10.674  -6.540  15.471  1.00  0.00    -0.000 C 
BRANCH   6   7
ATOM      7  C   UNL     1       9.468  -6.945  14.605  1.00  0.00    -0.000 C 
BRANCH   7   8
ATOM      8  C   UNL     1       9.550  -8.396  14.103  1.00  0.00    -0.000 C 
BRANCH   8   9
ATOM      9  C   UNL     1       8.476  -9.305  14.727  1.00  0.00    -0.000 C 
BRANCH   9  10
ATOM     10  C   UNL     1       7.693  -8.679  15.897  1.00  0.00    -0.000 C 
BRANCH  10  11
ATOM     11  C   UNL     1       8.034  -9.320  17.251  1.00  0.00    -0.003 C 
ATOM     12  C   UNL     1       7.419 -10.710  17.376  1.00  0.00     0.004 C 
ENDBRANCH  10  11
ENDBRANCH   9  10
ENDBRANCH   8   9
ENDBRANCH   7   8
ENDBRANCH   6   7
ENDBRANCH   5   6
ENDBRANCH   4   5
ENDBRANCH   3   4
ENDBRANCH   2   3
ENDBRANCH   1   2
BRANCH   1  13
ATOM     13  C   UNL     1      11.120  -4.501  20.350  1.00  0.00     0.000 C 
BRANCH  13  14
ATOM     14  C   UNL     1      10.856  -2.981  20.315  1.00  0.00     0.000 C 
BRANCH  14  15
ATOM     15  C   UNL     1      10.823  -2.355  18.911  1.00  0.00     0.000 C 
BRANCH  15  16
ATOM     16  C   UNL     1       9.395  -2.051  18.432  1.00  0.00     0.000 C 
BRANCH  16  17
ATOM     17  C   UNL     1       8.771  -0.902  19.238  1.00  0.00     0.000 C 
BRANCH  17  18
ATOM     18  C   UNL     1       7.435  -1.310  19.891  1.00  0.00     0.000 C 
BRANCH  18  19
ATOM     19  C   UNL     1       6.716  -2.451  19.145  1.00  0.00     0.000 C 
BRANCH  19  20
ATOM     20  C   UNL     1       5.370  -1.995  18.554  1.00  0.00     0.006 C 
BRANCH  20  21
ATOM     21  C   UNL     1       5.547  -0.971  17.424  1.00  0.00     0.053 C 
BRANCH  21  22
ATOM     22  C   UNL     1       5.784  -1.648  16.108  1.00  0.00     0.041 C 
ATOM     23  O   UNL     1       4.913  -1.596  15.200  1.00  0.00    -0.550 OA
ATOM     24  O   UNL     1       6.982  -2.314  15.874  1.00  0.00    -0.550 OA
ENDBRANCH  21  22
ENDBRANCH  20  21
ENDBRANCH  19  20
ENDBRANCH  18  19
ENDBRANCH  17  18
ENDBRANCH  16  17
ENDBRANCH  15  16
ENDBRANCH  14  15
ENDBRANCH  13  14
ENDBRANCH   1  13
TORSDOF 20
ENDMDL
MODEL 7
REMARK VINA RESULT:    -3.237      1.501      2.967
REMARK INTER + INTRA:          -9.754
REMARK INTER:                  -7.788
REMARK INTRA:                  -1.967
REMARK UNBOUND:                -2.732
REMARK SMILES CCCCCCCCCCCCCCCCCCCCCC(=O)[O-]
REMARK SMILES IDX 12 1 11 2 10 3 9 4 8 5 7 6 6 7 5 8 4 9 3 10 2 11 1 12 13 13
REMARK SMILES IDX 14 14 15 15 16 16 17 17 18 18 19 19 20 20 21 21 22 22 23 23
REMARK SMILES IDX 24 24
REMARK H PARENT
REMARK Flexibility Score: inf
ROOT
ATOM      1  C   UNL     1      11.115  -4.777  20.600  1.00  0.00     0.000 C 
ENDROOT
BRANCH   1   2
ATOM      2  C   UNL     1      10.260  -6.039  20.389  1.00  0.00     0.000 C 
BRANCH   2   3
ATOM      3  C   UNL     1       9.292  -5.913  19.198  1.00  0.00     0.000 C 
BRANCH   3   4
ATOM      4  C   UNL     1       9.905  -6.241  17.821  1.00  0.00    -0.000 C 
BRANCH   4   5
ATOM      5  C   UNL     1      10.925  -7.392  17.877  1.00  0.00    -0.000 C 
BRANCH   5   6
ATOM      6  C   UNL     1      10.246  -8.774  17.734  1.00  0.00    -0.000 C 
BRANCH   6   7
ATOM      7  C   UNL     1       9.155  -8.818  16.650  1.00  0.00    -0.000 C 
BRANCH   7   8
ATOM      8  C   UNL     1       7.758  -9.123  17.217  1.00  0.00    -0.000 C 
BRANCH   8   9
ATOM      9  C   UNL     1       6.749  -9.533  16.129  1.00  0.00    -0.000 C 
BRANCH   9  10
ATOM     10  C   UNL     1       6.024 -10.868  16.385  1.00  0.00    -0.000 C 
BRANCH  10  11
ATOM     11  C   UNL     1       6.349 -11.466  17.763  1.00  0.00    -0.003 C 
ATOM     12  C   UNL     1       5.079 -11.883  18.498  1.00  0.00     0.004 C 
ENDBRANCH  10  11
ENDBRANCH   9  10
ENDBRANCH   8   9
ENDBRANCH   7   8
ENDBRANCH   6   7
ENDBRANCH   5   6
ENDBRANCH   4   5
ENDBRANCH   3   4
ENDBRANCH   2   3
ENDBRANCH   1   2
BRANCH   1  13
ATOM     13  C   UNL     1      10.483  -3.516  19.974  1.00  0.00     0.000 C 
BRANCH  13  14
ATOM     14  C   UNL     1      10.234  -2.377  20.984  1.00  0.00     0.000 C 
BRANCH  14  15
ATOM     15  C   UNL     1       8.830  -1.753  20.931  1.00  0.00     0.000 C 
BRANCH  15  16
ATOM     16  C   UNL     1       7.738  -2.779  20.587  1.00  0.00     0.000 C 
BRANCH  16  17
ATOM     17  C   UNL     1       6.893  -2.311  19.394  1.00  0.00     0.000 C 
BRANCH  17  18
ATOM     18  C   UNL     1       7.285  -3.031  18.087  1.00  0.00     0.000 C 
BRANCH  18  19
ATOM     19  C   UNL     1       6.679  -2.380  16.828  1.00  0.00     0.000 C 
BRANCH  19  20
ATOM     20  C   UNL     1       5.385  -1.609  17.143  1.00  0.00     0.006 C 
BRANCH  20  21
ATOM     21  C   UNL     1       5.240  -0.342  16.291  1.00  0.00     0.053 C 
BRANCH  21  22
ATOM     22  C   UNL     1       5.286  -0.661  14.827  1.00  0.00     0.041 C 
ATOM     23  O   UNL     1       4.393  -1.377  14.303  1.00  0.00    -0.550 OA
ATOM     24  O   UNL     1       6.305  -0.142  14.034  1.00  0.00    -0.550 OA
ENDBRANCH  21  22
ENDBRANCH  20  21
ENDBRANCH  19  20
ENDBRANCH  18  19
ENDBRANCH  17  18
ENDBRANCH  16  17
ENDBRANCH  15  16
ENDBRANCH  14  15
ENDBRANCH  13  14
ENDBRANCH   1  13
TORSDOF 20
ENDMDL
MODEL 8
REMARK VINA RESULT:    -3.197      7.398     11.034
REMARK INTER + INTRA:          -9.667
REMARK INTER:                  -5.918
REMARK INTRA:                  -3.750
REMARK UNBOUND:                -2.732
REMARK SMILES CCCCCCCCCCCCCCCCCCCCCC(=O)[O-]
REMARK SMILES IDX 12 1 11 2 10 3 9 4 8 5 7 6 6 7 5 8 4 9 3 10 2 11 1 12 13 13
REMARK SMILES IDX 14 14 15 15 16 16 17 17 18 18 19 19 20 20 21 21 22 22 23 23
REMARK SMILES IDX 24 24
REMARK H PARENT
REMARK Flexibility Score: inf
ROOT
ATOM      1  C   UNL     1       0.993   7.381  16.459  1.00  0.00     0.000 C 
ENDROOT
BRANCH   1   2
ATOM      2  C   UNL     1       0.227   6.206  17.093  1.00  0.00     0.000 C 
BRANCH   2   3
ATOM      3  C   UNL     1       1.160   5.107  17.634  1.00  0.00     0.000 C 
BRANCH   3   4
ATOM      4  C   UNL     1       2.027   4.404  16.570  1.00  0.00    -0.000 C 
BRANCH   4   5
ATOM      5  C   UNL     1       1.284   3.268  15.844  1.00  0.00    -0.000 C 
BRANCH   5   6
ATOM      6  C   UNL     1       2.193   2.040  15.609  1.00  0.00    -0.000 C 
BRANCH   6   7
ATOM      7  C   UNL     1       3.640   2.238  16.094  1.00  0.00    -0.000 C 
BRANCH   7   8
ATOM      8  C   UNL     1       4.249   0.965  16.704  1.00  0.00    -0.000 C 
BRANCH   8   9
ATOM      9  C   UNL     1       3.936   0.812  18.203  1.00  0.00    -0.000 C 
BRANCH   9  10
ATOM     10  C   UNL     1       3.834   2.136  18.985  1.00  0.00    -0.000 C 
BRANCH  10  11
ATOM     11  C   UNL     1       2.505   2.278  19.742  1.00  0.00    -0.003 C 
ATOM     12  C   UNL     1       1.435   1.363  19.158  1.00  0.00     0.004 C 
ENDBRANCH  10  11
ENDBRANCH   9  10
ENDBRANCH   8   9
ENDBRANCH   7   8
ENDBRANCH   6   7
ENDBRANCH   5   6
ENDBRANCH   4   5
ENDBRANCH   3   4
ENDBRANCH   2   3
ENDBRANCH   1   2
BRANCH   1  13
ATOM     13  C   UNL     1       0.566   7.654  15.002  1.00  0.00     0.000 C 
BRANCH  13  14
ATOM     14  C   UNL     1      -0.138   6.460  14.324  1.00  0.00     0.000 C 
BRANCH  14  15
ATOM     15  C   UNL     1       0.536   5.945  13.042  1.00  0.00     0.000 C 
BRANCH  15  16
ATOM     16  C   UNL     1       2.062   5.828  13.181  1.00  0.00     0.000 C 
BRANCH  16  17
ATOM     17  C   UNL     1       2.700   5.310  11.884  1.00  0.00     0.000 C 
BRANCH  17  18
ATOM     18  C   UNL     1       2.621   3.773  11.772  1.00  0.00     0.000 C 
BRANCH  18  19
ATOM     19  C   UNL     1       3.777   3.051  12.493  1.00  0.00     0.000 C 
BRANCH  19  20
ATOM     20  C   UNL     1       3.884   1.574  12.074  1.00  0.00     0.006 C 
BRANCH  20  21
ATOM     21  C   UNL     1       2.517   0.877  12.044  1.00  0.00     0.053 C 
BRANCH  21  22
ATOM     22  C   UNL     1       2.541  -0.403  12.823  1.00  0.00     0.041 C 
ATOM     23  O   UNL     1       1.567  -1.199  12.770  1.00  0.00    -0.550 OA
ATOM     24  O   UNL     1       3.656  -0.731  13.587  1.00  0.00    -0.550 OA
ENDBRANCH  21  22
ENDBRANCH  20  21
ENDBRANCH  19  20
ENDBRANCH  18  19
ENDBRANCH  17  18
ENDBRANCH  16  17
ENDBRANCH  15  16
ENDBRANCH  14  15
ENDBRANCH  13  14
ENDBRANCH   1  13
TORSDOF 20
ENDMDL
MODEL 9
REMARK VINA RESULT:    -3.180      3.938      6.239
REMARK INTER + INTRA:          -9.630
REMARK INTER:                  -6.315
REMARK INTRA:                  -3.314
REMARK UNBOUND:                -2.732
REMARK SMILES CCCCCCCCCCCCCCCCCCCCCC(=O)[O-]
REMARK SMILES IDX 12 1 11 2 10 3 9 4 8 5 7 6 6 7 5 8 4 9 3 10 2 11 1 12 13 13
REMARK SMILES IDX 14 14 15 15 16 16 17 17 18 18 19 19 20 20 21 21 22 22 23 23
REMARK SMILES IDX 24 24
REMARK H PARENT
REMARK Flexibility Score: inf
ROOT
ATOM      1  C   UNL     1       7.394   0.978  21.576  1.00  0.00     0.000 C 
ENDROOT
BRANCH   1   2
ATOM      2  C   UNL     1       7.775  -0.286  20.784  1.00  0.00     0.000 C 
BRANCH   2   3
ATOM      3  C   UNL     1       9.094  -0.129  20.007  1.00  0.00     0.000 C 
BRANCH   3   4
ATOM      4  C   UNL     1       9.924  -1.422  19.863  1.00  0.00    -0.000 C 
BRANCH   4   5
ATOM      5  C   UNL     1       9.672  -2.428  21.000  1.00  0.00    -0.000 C 
BRANCH   5   6
ATOM      6  C   UNL     1      10.760  -3.525  21.053  1.00  0.00    -0.000 C 
BRANCH   6   7
ATOM      7  C   UNL     1      10.790  -4.427  19.807  1.00  0.00    -0.000 C 
BRANCH   7   8
ATOM      8  C   UNL     1       9.861  -5.646  19.926  1.00  0.00    -0.000 C 
BRANCH   8   9
ATOM      9  C   UNL     1       8.870  -5.758  18.753  1.00  0.00    -0.000 C 
BRANCH   9  10
ATOM     10  C   UNL     1       8.611  -4.443  17.993  1.00  0.00    -0.000 C 
BRANCH  10  11
ATOM     11  C   UNL     1       7.340  -3.722  18.470  1.00  0.00    -0.003 C 
ATOM     12  C   UNL     1       7.058  -2.482  17.628  1.00  0.00     0.004 C 
ENDBRANCH  10  11
ENDBRANCH   9  10
ENDBRANCH   8   9
ENDBRANCH   7   8
ENDBRANCH   6   7
ENDBRANCH   5   6
ENDBRANCH   4   5
ENDBRANCH   3   4
ENDBRANCH   2   3
ENDBRANCH   1   2
BRANCH   1  13
ATOM     13  C   UNL     1       8.598   1.913  21.821  1.00  0.00     0.000 C 
BRANCH  13  14
ATOM     14  C   UNL     1       8.879   2.188  23.313  1.00  0.00     0.000 C 
BRANCH  14  15
ATOM     15  C   UNL     1      10.278   1.779  23.801  1.00  0.00     0.000 C 
BRANCH  15  16
ATOM     16  C   UNL     1      10.740   0.435  23.215  1.00  0.00     0.000 C 
BRANCH  16  17
ATOM     17  C   UNL     1      10.580  -0.701  24.236  1.00  0.00     0.000 C 
BRANCH  17  18
ATOM     18  C   UNL     1       9.168  -1.322  24.196  1.00  0.00     0.000 C 
BRANCH  18  19
ATOM     19  C   UNL     1       8.272  -0.870  25.366  1.00  0.00     0.000 C 
BRANCH  19  20
ATOM     20  C   UNL     1       8.380  -1.818  26.573  1.00  0.00     0.006 C 
BRANCH  20  21
ATOM     21  C   UNL     1       7.005  -2.244  27.104  1.00  0.00     0.053 C 
BRANCH  21  22
ATOM     22  C   UNL     1       6.567  -3.546  26.502  1.00  0.00     0.041 C 
ATOM     23  O   UNL     1       7.151  -4.617  26.810  1.00  0.00    -0.550 OA
ATOM     24  O   UNL     1       5.493  -3.576  25.619  1.00  0.00    -0.550 OA
ENDBRANCH  21  22
ENDBRANCH  20  21
ENDBRANCH  19  20
ENDBRANCH  18  19
ENDBRANCH  17  18
ENDBRANCH  16  17
ENDBRANCH  15  16
ENDBRANCH  14  15
ENDBRANCH  13  14
ENDBRANCH   1  13
TORSDOF 20
ENDMDL
