MODEL 1
REMARK VINA RESULT:    -0.523      0.000      0.000
REMARK INTER + INTRA:          -3.101
REMARK INTER:                  -1.380
REMARK INTRA:                  -1.722
REMARK UNBOUND:                -1.722
REMARK SMILES CCCCCCCCCCCCCCCCCCCCCCCCCCCCCC(=O)[O-]
REMARK SMILES IDX 16 1 17 2 18 3 19 4 20 5 21 6 22 7 23 8 24 9 25 10 26 11
REMARK SMILES IDX 27 12 28 13 29 14 30 15 31 16 32 17 15 18 14 19 13 20 12 21
REMARK SMILES IDX 11 22 10 23 9 24 8 25 7 26 6 27 5 28 4 29 3 30 2 31 1 32
REMARK H PARENT
REMARK Flexibility Score: inf
ROOT
ATOM      1  C   UNL     1     -12.305  35.613  -5.513  1.00  0.00     0.000 C 
ENDROOT
BRANCH   1   2
ATOM      2  C   UNL     1     -13.199  36.215  -6.616  1.00  0.00     0.000 C 
BRANCH   2   3
ATOM      3  C   UNL     1     -14.517  35.463  -6.887  1.00  0.00     0.000 C 
BRANCH   3   4
ATOM      4  C   UNL     1     -14.559  34.654  -8.198  1.00  0.00     0.000 C 
BRANCH   4   5
ATOM      5  C   UNL     1     -13.646  35.237  -9.291  1.00  0.00     0.000 C 
BRANCH   5   6
ATOM      6  C   UNL     1     -14.031  34.769 -10.707  1.00  0.00     0.000 C 
BRANCH   6   7
ATOM      7  C   UNL     1     -15.181  33.747 -10.772  1.00  0.00     0.000 C 
BRANCH   7   8
ATOM      8  C   UNL     1     -15.749  33.574 -12.192  1.00  0.00     0.000 C 
BRANCH   8   9
ATOM      9  C   UNL     1     -17.243  33.208 -12.189  1.00  0.00     0.000 C 
BRANCH   9  10
ATOM     10  C   UNL     1     -18.045  33.990 -11.136  1.00  0.00     0.000 C 
BRANCH  10  11
ATOM     11  C   UNL     1     -18.436  33.085  -9.961  1.00  0.00     0.000 C 
BRANCH  11  12
ATOM     12  C   UNL     1     -18.984  33.912  -8.788  1.00  0.00     0.000 C 
BRANCH  12  13
ATOM     13  C   UNL     1     -20.304  33.360  -8.222  1.00  0.00     0.006 C 
BRANCH  13  14
ATOM     14  C   UNL     1     -21.300  34.448  -7.780  1.00  0.00     0.053 C 
BRANCH  14  15
ATOM     15  C   UNL     1     -22.637  33.886  -7.404  1.00  0.00     0.041 C 
ATOM     16  O   UNL     1     -23.691  34.409  -7.848  1.00  0.00    -0.550 OA
ATOM     17  O   UNL     1     -22.719  32.761  -6.591  1.00  0.00    -0.550 OA
ENDBRANCH  14  15
ENDBRANCH  13  14
ENDBRANCH  12  13
ENDBRANCH  11  12
ENDBRANCH  10  11
ENDBRANCH   9  10
ENDBRANCH   8   9
ENDBRANCH   7   8
ENDBRANCH   6   7
ENDBRANCH   5   6
ENDBRANCH   4   5
ENDBRANCH   3   4
ENDBRANCH   2   3
ENDBRANCH   1   2
BRANCH   1  18
ATOM     18  C   UNL     1     -12.508  36.246  -4.120  1.00  0.00     0.000 C 
BRANCH  18  19
ATOM     19  C   UNL     1     -11.209  36.316  -3.297  1.00  0.00     0.000 C 
BRANCH  19  20
ATOM     20  C   UNL     1     -11.459  36.240  -1.782  1.00  0.00     0.000 C 
BRANCH  20  21
ATOM     21  C   UNL     1     -10.214  36.601  -0.953  1.00  0.00     0.000 C 
BRANCH  21  22
ATOM     22  C   UNL     1      -9.384  37.722  -1.601  1.00  0.00     0.000 C 
BRANCH  22  23
ATOM     23  C   UNL     1      -7.901  37.668  -1.196  1.00  0.00     0.000 C 
BRANCH  23  24
ATOM     24  C   UNL     1      -7.666  38.107   0.260  1.00  0.00    -0.000 C 
BRANCH  24  25
ATOM     25  C   UNL     1      -6.210  37.912   0.735  1.00  0.00    -0.000 C 
BRANCH  25  26
ATOM     26  C   UNL     1      -6.092  36.845   1.837  1.00  0.00    -0.000 C 
BRANCH  26  27
ATOM     27  C   UNL     1      -5.016  35.785   1.516  1.00  0.00    -0.000 C 
BRANCH  27  28
ATOM     28  C   UNL     1      -5.566  34.542   0.794  1.00  0.00    -0.000 C 
BRANCH  28  29
ATOM     29  C   UNL     1      -7.094  34.417   0.895  1.00  0.00    -0.000 C 
BRANCH  29  30
ATOM     30  C   UNL     1      -7.572  32.959   0.717  1.00  0.00    -0.000 C 
BRANCH  30  31
ATOM     31  C   UNL     1      -6.758  31.943   1.536  1.00  0.00    -0.003 C 
ATOM     32  C   UNL     1      -7.410  30.564   1.596  1.00  0.00     0.004 C 
ENDBRANCH  30  31
ENDBRANCH  29  30
ENDBRANCH  28  29
ENDBRANCH  27  28
ENDBRANCH  26  27
ENDBRANCH  25  26
ENDBRANCH  24  25
ENDBRANCH  23  24
ENDBRANCH  22  23
ENDBRANCH  21  22
ENDBRANCH  20  21
ENDBRANCH  19  20
ENDBRANCH  18  19
ENDBRANCH   1  18
TORSDOF 28
ENDMDL
MODEL 2
REMARK VINA RESULT:    -0.276      4.497     14.390
REMARK INTER + INTRA:          -2.450
REMARK INTER:                  -1.010
REMARK INTRA:                  -1.439
REMARK UNBOUND:                -1.722
REMARK SMILES CCCCCCCCCCCCCCCCCCCCCCCCCCCCCC(=O)[O-]
REMARK SMILES IDX 16 1 17 2 18 3 19 4 20 5 21 6 22 7 23 8 24 9 25 10 26 11
REMARK SMILES IDX 27 12 28 13 29 14 30 15 31 16 32 17 15 18 14 19 13 20 12 21
REMARK SMILES IDX 11 22 10 23 9 24 8 25 7 26 6 27 5 28 4 29 3 30 2 31 1 32
REMARK H PARENT
REMARK Flexibility Score: inf
ROOT
ATOM      1  C   UNL     1     -12.366  35.822  -5.639  1.00  0.00     0.000 C 
ENDROOT
BRANCH   1   2
ATOM      2  C   UNL     1     -12.514  35.846  -4.105  1.00  0.00     0.000 C 
BRANCH   2   3
ATOM      3  C   UNL     1     -11.321  36.442  -3.331  1.00  0.00     0.000 C 
BRANCH   3   4
ATOM      4  C   UNL     1     -11.438  36.389  -1.795  1.00  0.00     0.000 C 
BRANCH   4   5
ATOM      5  C   UNL     1     -10.071  36.430  -1.089  1.00  0.00     0.000 C 
BRANCH   5   6
ATOM      6  C   UNL     1      -9.208  37.630  -1.523  1.00  0.00     0.000 C 
BRANCH   6   7
ATOM      7  C   UNL     1      -8.086  38.022  -0.544  1.00  0.00     0.000 C 
BRANCH   7   8
ATOM      8  C   UNL     1      -7.473  36.811   0.181  1.00  0.00     0.000 C 
BRANCH   8   9
ATOM      9  C   UNL     1      -6.141  37.149   0.873  1.00  0.00     0.000 C 
BRANCH   9  10
ATOM     10  C   UNL     1      -5.742  36.111   1.935  1.00  0.00     0.000 C 
BRANCH  10  11
ATOM     11  C   UNL     1      -6.646  34.875   1.861  1.00  0.00     0.000 C 
BRANCH  11  12
ATOM     12  C   UNL     1      -5.828  33.613   1.549  1.00  0.00     0.000 C 
BRANCH  12  13
ATOM     13  C   UNL     1      -6.619  32.558   0.757  1.00  0.00     0.006 C 
BRANCH  13  14
ATOM     14  C   UNL     1      -7.743  31.882   1.564  1.00  0.00     0.053 C 
BRANCH  14  15
ATOM     15  C   UNL     1      -7.589  30.393   1.630  1.00  0.00     0.041 C 
ATOM     16  O   UNL     1      -7.386  29.826   2.735  1.00  0.00    -0.550 OA
ATOM     17  O   UNL     1      -7.704  29.625   0.476  1.00  0.00    -0.550 OA
ENDBRANCH  14  15
ENDBRANCH  13  14
ENDBRANCH  12  13
ENDBRANCH  11  12
ENDBRANCH  10  11
ENDBRANCH   9  10
ENDBRANCH   8   9
ENDBRANCH   7   8
ENDBRANCH   6   7
ENDBRANCH   5   6
ENDBRANCH   4   5
ENDBRANCH   3   4
ENDBRANCH   2   3
ENDBRANCH   1   2
BRANCH   1  18
ATOM     18  C   UNL     1     -13.616  36.311  -6.401  1.00  0.00     0.000 C 
BRANCH  18  19
ATOM     19  C   UNL     1     -14.241  35.221  -7.292  1.00  0.00     0.000 C 
BRANCH  19  20
ATOM     20  C   UNL     1     -13.631  35.184  -8.703  1.00  0.00     0.000 C 
BRANCH  20  21
ATOM     21  C   UNL     1     -14.530  34.460  -9.721  1.00  0.00     0.000 C 
BRANCH  21  22
ATOM     22  C   UNL     1     -14.153  34.793 -11.175  1.00  0.00     0.000 C 
BRANCH  22  23
ATOM     23  C   UNL     1     -14.793  33.826 -12.186  1.00  0.00     0.000 C 
BRANCH  23  24
ATOM     24  C   UNL     1     -16.025  33.102 -11.618  1.00  0.00    -0.000 C 
BRANCH  24  25
ATOM     25  C   UNL     1     -17.346  33.496 -12.314  1.00  0.00    -0.000 C 
BRANCH  25  26
ATOM     26  C   UNL     1     -18.366  34.100 -11.333  1.00  0.00    -0.000 C 
BRANCH  26  27
ATOM     27  C   UNL     1     -18.457  33.301 -10.014  1.00  0.00    -0.000 C 
BRANCH  27  28
ATOM     28  C   UNL     1     -19.040  34.106  -8.840  1.00  0.00    -0.000 C 
BRANCH  28  29
ATOM     29  C   UNL     1     -20.141  33.348  -8.081  1.00  0.00    -0.000 C 
BRANCH  29  30
ATOM     30  C   UNL     1     -21.337  34.260  -7.728  1.00  0.00    -0.000 C 
BRANCH  30  31
ATOM     31  C   UNL     1     -22.632  33.484  -7.434  1.00  0.00    -0.003 C 
ATOM     32  C   UNL     1     -23.894  34.287  -7.742  1.00  0.00     0.004 C 
ENDBRANCH  30  31
ENDBRANCH  29  30
ENDBRANCH  28  29
ENDBRANCH  27  28
ENDBRANCH  26  27
ENDBRANCH  25  26
ENDBRANCH  24  25
ENDBRANCH  23  24
ENDBRANCH  22  23
ENDBRANCH  21  22
ENDBRANCH  20  21
ENDBRANCH  19  20
ENDBRANCH  18  19
ENDBRANCH   1  18
TORSDOF 28
ENDMDL
MODEL 3
REMARK VINA RESULT:    -0.233      4.551     13.972
REMARK INTER + INTRA:          -2.336
REMARK INTER:                  -0.339
REMARK INTRA:                  -1.997
REMARK UNBOUND:                -1.722
REMARK SMILES CCCCCCCCCCCCCCCCCCCCCCCCCCCCCC(=O)[O-]
REMARK SMILES IDX 16 1 17 2 18 3 19 4 20 5 21 6 22 7 23 8 24 9 25 10 26 11
REMARK SMILES IDX 27 12 28 13 29 14 30 15 31 16 32 17 15 18 14 19 13 20 12 21
REMARK SMILES IDX 11 22 10 23 9 24 8 25 7 26 6 27 5 28 4 29 3 30 2 31 1 32
REMARK H PARENT
REMARK Flexibility Score: inf
ROOT
ATOM      1  C   UNL     1     -11.016  36.517  -2.759  1.00  0.00     0.000 C 
ENDROOT
BRANCH   1   2
ATOM      2  C   UNL     1     -10.882  36.228  -1.251  1.00  0.00     0.000 C 
BRANCH   2   3
ATOM      3  C   UNL     1      -9.467  36.398  -0.665  1.00  0.00     0.000 C 
BRANCH   3   4
ATOM      4  C   UNL     1      -8.669  37.603  -1.201  1.00  0.00     0.000 C 
BRANCH   4   5
ATOM      5  C   UNL     1      -7.431  37.930  -0.348  1.00  0.00     0.000 C 
BRANCH   5   6
ATOM      6  C   UNL     1      -6.122  37.907  -1.158  1.00  0.00     0.000 C 
BRANCH   6   7
ATOM      7  C   UNL     1      -4.865  37.501  -0.367  1.00  0.00     0.000 C 
BRANCH   7   8
ATOM      8  C   UNL     1      -4.151  36.274  -0.963  1.00  0.00     0.000 C 
BRANCH   8   9
ATOM      9  C   UNL     1      -4.375  34.999  -0.133  1.00  0.00     0.000 C 
BRANCH   9  10
ATOM     10  C   UNL     1      -4.723  35.298   1.334  1.00  0.00     0.000 C 
BRANCH  10  11
ATOM     11  C   UNL     1      -6.149  34.841   1.664  1.00  0.00     0.000 C 
BRANCH  11  12
ATOM     12  C   UNL     1      -6.738  34.004   0.519  1.00  0.00     0.000 C 
BRANCH  12  13
ATOM     13  C   UNL     1      -7.586  32.817   1.008  1.00  0.00     0.006 C 
BRANCH  13  14
ATOM     14  C   UNL     1      -6.773  31.714   1.710  1.00  0.00     0.053 C 
BRANCH  14  15
ATOM     15  C   UNL     1      -7.457  30.381   1.669  1.00  0.00     0.041 C 
ATOM     16  O   UNL     1      -7.762  29.861   0.565  1.00  0.00    -0.550 OA
ATOM     17  O   UNL     1      -7.726  29.695   2.849  1.00  0.00    -0.550 OA
ENDBRANCH  14  15
ENDBRANCH  13  14
ENDBRANCH  12  13
ENDBRANCH  11  12
ENDBRANCH  10  11
ENDBRANCH   9  10
ENDBRANCH   8   9
ENDBRANCH   7   8
ENDBRANCH   6   7
ENDBRANCH   5   6
ENDBRANCH   4   5
ENDBRANCH   3   4
ENDBRANCH   2   3
ENDBRANCH   1   2
BRANCH   1  18
ATOM     18  C   UNL     1     -12.425  36.247  -3.331  1.00  0.00     0.000 C 
BRANCH  18  19
ATOM     19  C   UNL     1     -12.392  35.582  -4.720  1.00  0.00     0.000 C 
BRANCH  19  20
ATOM     20  C   UNL     1     -13.190  36.366  -5.774  1.00  0.00     0.000 C 
BRANCH  20  21
ATOM     21  C   UNL     1     -13.585  35.504  -6.986  1.00  0.00     0.000 C 
BRANCH  21  22
ATOM     22  C   UNL     1     -13.528  36.289  -8.307  1.00  0.00     0.000 C 
BRANCH  22  23
ATOM     23  C   UNL     1     -12.737  35.550  -9.399  1.00  0.00     0.000 C 
BRANCH  23  24
ATOM     24  C   UNL     1     -13.615  35.136 -10.592  1.00  0.00    -0.000 C 
BRANCH  24  25
ATOM     25  C   UNL     1     -14.888  34.363 -10.181  1.00  0.00    -0.000 C 
BRANCH  25  26
ATOM     26  C   UNL     1     -15.177  33.174 -11.114  1.00  0.00    -0.000 C 
BRANCH  26  27
ATOM     27  C   UNL     1     -15.955  33.596 -12.380  1.00  0.00    -0.000 C 
BRANCH  27  28
ATOM     28  C   UNL     1     -17.445  33.212 -12.348  1.00  0.00    -0.000 C 
BRANCH  28  29
ATOM     29  C   UNL     1     -18.258  34.047 -11.346  1.00  0.00    -0.000 C 
BRANCH  29  30
ATOM     30  C   UNL     1     -18.582  33.257 -10.059  1.00  0.00    -0.000 C 
BRANCH  30  31
ATOM     31  C   UNL     1     -19.483  34.027  -9.078  1.00  0.00    -0.003 C 
ATOM     32  C   UNL     1     -19.713  33.281  -7.766  1.00  0.00     0.004 C 
ENDBRANCH  30  31
ENDBRANCH  29  30
ENDBRANCH  28  29
ENDBRANCH  27  28
ENDBRANCH  26  27
ENDBRANCH  25  26
ENDBRANCH  24  25
ENDBRANCH  23  24
ENDBRANCH  22  23
ENDBRANCH  21  22
ENDBRANCH  20  21
ENDBRANCH  19  20
ENDBRANCH  18  19
ENDBRANCH   1  18
TORSDOF 28
ENDMDL
MODEL 4
REMARK VINA RESULT:    -0.005      1.529      3.285
REMARK INTER + INTRA:          -1.734
REMARK INTER:                  -0.309
REMARK INTRA:                  -1.425
REMARK UNBOUND:                -1.722
REMARK SMILES CCCCCCCCCCCCCCCCCCCCCCCCCCCCCC(=O)[O-]
REMARK SMILES IDX 16 1 17 2 18 3 19 4 20 5 21 6 22 7 23 8 24 9 25 10 26 11
REMARK SMILES IDX 27 12 28 13 29 14 30 15 31 16 32 17 15 18 14 19 13 20 12 21
REMARK SMILES IDX 11 22 10 23 9 24 8 25 7 26 6 27 5 28 4 29 3 30 2 31 1 32
REMARK H PARENT
REMARK Flexibility Score: inf
ROOT
ATOM      1  C   UNL     1     -10.787  36.602  -2.683  1.00  0.00     0.000 C 
ENDROOT
BRANCH   1   2
ATOM      2  C   UNL     1     -12.167  36.235  -3.264  1.00  0.00     0.000 C 
BRANCH   2   3
ATOM      3  C   UNL     1     -12.162  35.719  -4.716  1.00  0.00     0.000 C 
BRANCH   3   4
ATOM      4  C   UNL     1     -13.205  36.365  -5.650  1.00  0.00     0.000 C 
BRANCH   4   5
ATOM      5  C   UNL     1     -13.529  35.496  -6.878  1.00  0.00     0.000 C 
BRANCH   5   6
ATOM      6  C   UNL     1     -13.574  36.304  -8.189  1.00  0.00     0.000 C 
BRANCH   6   7
ATOM      7  C   UNL     1     -12.783  35.698  -9.363  1.00  0.00     0.000 C 
BRANCH   7   8
ATOM      8  C   UNL     1     -13.692  35.093 -10.448  1.00  0.00     0.000 C 
BRANCH   8   9
ATOM      9  C   UNL     1     -14.920  34.378  -9.858  1.00  0.00     0.000 C 
BRANCH   9  10
ATOM     10  C   UNL     1     -15.386  33.190 -10.716  1.00  0.00     0.000 C 
BRANCH  10  11
ATOM     11  C   UNL     1     -15.678  33.633 -12.155  1.00  0.00     0.000 C 
BRANCH  11  12
ATOM     12  C   UNL     1     -17.143  33.360 -12.528  1.00  0.00     0.000 C 
BRANCH  12  13
ATOM     13  C   UNL     1     -18.143  33.900 -11.491  1.00  0.00     0.006 C 
BRANCH  13  14
ATOM     14  C   UNL     1     -18.392  32.948 -10.306  1.00  0.00     0.053 C 
BRANCH  14  15
ATOM     15  C   UNL     1     -18.671  33.681  -9.029  1.00  0.00     0.041 C 
ATOM     16  O   UNL     1     -17.725  34.179  -8.366  1.00  0.00    -0.550 OA
ATOM     17  O   UNL     1     -19.979  33.846  -8.588  1.00  0.00    -0.550 OA
ENDBRANCH  14  15
ENDBRANCH  13  14
ENDBRANCH  12  13
ENDBRANCH  11  12
ENDBRANCH  10  11
ENDBRANCH   9  10
ENDBRANCH   8   9
ENDBRANCH   7   8
ENDBRANCH   6   7
ENDBRANCH   5   6
ENDBRANCH   4   5
ENDBRANCH   3   4
ENDBRANCH   2   3
ENDBRANCH   1   2
BRANCH   1  18
ATOM     18  C   UNL     1     -10.628  36.280  -1.182  1.00  0.00     0.000 C 
BRANCH  18  19
ATOM     19  C   UNL     1      -9.214  36.581  -0.650  1.00  0.00     0.000 C 
BRANCH  19  20
ATOM     20  C   UNL     1      -8.550  37.769  -1.366  1.00  0.00     0.000 C 
BRANCH  20  21
ATOM     21  C   UNL     1      -7.097  38.000  -0.913  1.00  0.00     0.000 C 
BRANCH  21  22
ATOM     22  C   UNL     1      -6.924  37.832   0.607  1.00  0.00     0.000 C 
BRANCH  22  23
ATOM     23  C   UNL     1      -5.467  38.026   1.058  1.00  0.00     0.000 C 
BRANCH  23  24
ATOM     24  C   UNL     1      -5.012  36.960   2.070  1.00  0.00    -0.000 C 
BRANCH  24  25
ATOM     25  C   UNL     1      -4.002  35.948   1.486  1.00  0.00    -0.000 C 
BRANCH  25  26
ATOM     26  C   UNL     1      -4.697  34.746   0.823  1.00  0.00    -0.000 C 
BRANCH  26  27
ATOM     27  C   UNL     1      -5.749  34.093   1.747  1.00  0.00    -0.000 C 
BRANCH  27  28
ATOM     28  C   UNL     1      -7.183  34.153   1.193  1.00  0.00    -0.000 C 
BRANCH  28  29
ATOM     29  C   UNL     1      -7.808  32.763   0.995  1.00  0.00    -0.000 C 
BRANCH  29  30
ATOM     30  C   UNL     1      -6.781  31.628   1.202  1.00  0.00    -0.000 C 
BRANCH  30  31
ATOM     31  C   UNL     1      -7.427  30.248   1.411  1.00  0.00    -0.003 C 
ATOM     32  C   UNL     1      -7.962  30.045   2.826  1.00  0.00     0.004 C 
ENDBRANCH  30  31
ENDBRANCH  29  30
ENDBRANCH  28  29
ENDBRANCH  27  28
ENDBRANCH  26  27
ENDBRANCH  25  26
ENDBRANCH  24  25
ENDBRANCH  23  24
ENDBRANCH  22  23
ENDBRANCH  21  22
ENDBRANCH  20  21
ENDBRANCH  19  20
ENDBRANCH  18  19
ENDBRANCH   1  18
TORSDOF 28
ENDMDL
MODEL 5
REMARK VINA RESULT:     0.292      0.900      2.157
REMARK INTER + INTRA:          -0.951
REMARK INTER:                   0.315
REMARK INTRA:                  -1.266
REMARK UNBOUND:                -1.722
REMARK SMILES CCCCCCCCCCCCCCCCCCCCCCCCCCCCCC(=O)[O-]
REMARK SMILES IDX 16 1 17 2 18 3 19 4 20 5 21 6 22 7 23 8 24 9 25 10 26 11
REMARK SMILES IDX 27 12 28 13 29 14 30 15 31 16 32 17 15 18 14 19 13 20 12 21
REMARK SMILES IDX 11 22 10 23 9 24 8 25 7 26 6 27 5 28 4 29 3 30 2 31 1 32
REMARK H PARENT
REMARK Flexibility Score: inf
ROOT
ATOM      1  C   UNL     1     -11.301  36.335  -3.289  1.00  0.00     0.000 C 
ENDROOT
BRANCH   1   2
ATOM      2  C   UNL     1     -12.627  36.217  -4.065  1.00  0.00     0.000 C 
BRANCH   2   3
ATOM      3  C   UNL     1     -12.527  35.567  -5.459  1.00  0.00     0.000 C 
BRANCH   3   4
ATOM      4  C   UNL     1     -13.295  36.291  -6.583  1.00  0.00     0.000 C 
BRANCH   4   5
ATOM      5  C   UNL     1     -14.339  35.394  -7.269  1.00  0.00     0.000 C 
BRANCH   5   6
ATOM      6  C   UNL     1     -13.975  35.058  -8.728  1.00  0.00     0.000 C 
BRANCH   6   7
ATOM      7  C   UNL     1     -14.813  33.941  -9.375  1.00  0.00     0.000 C 
BRANCH   7   8
ATOM      8  C   UNL     1     -15.244  34.272 -10.815  1.00  0.00     0.000 C 
BRANCH   8   9
ATOM      9  C   UNL     1     -15.947  33.092 -11.508  1.00  0.00     0.000 C 
BRANCH   9  10
ATOM     10  C   UNL     1     -17.359  33.448 -12.001  1.00  0.00     0.000 C 
BRANCH  10  11
ATOM     11  C   UNL     1     -18.140  34.213 -10.927  1.00  0.00     0.000 C 
BRANCH  11  12
ATOM     12  C   UNL     1     -18.647  33.261  -9.832  1.00  0.00     0.000 C 
BRANCH  12  13
ATOM     13  C   UNL     1     -19.397  33.984  -8.700  1.00  0.00     0.006 C 
BRANCH  13  14
ATOM     14  C   UNL     1     -20.453  33.114  -7.994  1.00  0.00     0.053 C 
BRANCH  14  15
ATOM     15  C   UNL     1     -21.669  33.896  -7.597  1.00  0.00     0.041 C 
ATOM     16  O   UNL     1     -21.782  35.104  -7.931  1.00  0.00    -0.550 OA
ATOM     17  O   UNL     1     -22.696  33.282  -6.887  1.00  0.00    -0.550 OA
ENDBRANCH  14  15
ENDBRANCH  13  14
ENDBRANCH  12  13
ENDBRANCH  11  12
ENDBRANCH  10  11
ENDBRANCH   9  10
ENDBRANCH   8   9
ENDBRANCH   7   8
ENDBRANCH   6   7
ENDBRANCH   5   6
ENDBRANCH   4   5
ENDBRANCH   3   4
ENDBRANCH   2   3
ENDBRANCH   1   2
BRANCH   1  18
ATOM     18  C   UNL     1     -11.458  36.257  -1.755  1.00  0.00     0.000 C 
BRANCH  18  19
ATOM     19  C   UNL     1     -10.113  36.344  -1.009  1.00  0.00     0.000 C 
BRANCH  19  20
ATOM     20  C   UNL     1      -9.424  37.707  -1.183  1.00  0.00     0.000 C 
BRANCH  20  21
ATOM     21  C   UNL     1      -7.900  37.585  -1.365  1.00  0.00     0.000 C 
BRANCH  21  22
ATOM     22  C   UNL     1      -7.130  37.880  -0.066  1.00  0.00     0.000 C 
BRANCH  22  23
ATOM     23  C   UNL     1      -5.609  37.730  -0.236  1.00  0.00     0.000 C 
BRANCH  23  24
ATOM     24  C   UNL     1      -5.126  36.286  -0.013  1.00  0.00    -0.000 C 
BRANCH  24  25
ATOM     25  C   UNL     1      -5.096  35.869   1.473  1.00  0.00    -0.000 C 
BRANCH  25  26
ATOM     26  C   UNL     1      -6.505  35.610   2.036  1.00  0.00    -0.000 C 
BRANCH  26  27
ATOM     27  C   UNL     1      -7.256  34.510   1.255  1.00  0.00    -0.000 C 
BRANCH  27  28
ATOM     28  C   UNL     1      -6.502  33.171   1.191  1.00  0.00    -0.000 C 
BRANCH  28  29
ATOM     29  C   UNL     1      -7.432  31.969   0.961  1.00  0.00    -0.000 C 
BRANCH  29  30
ATOM     30  C   UNL     1      -6.953  30.710   1.715  1.00  0.00    -0.000 C 
BRANCH  30  31
ATOM     31  C   UNL     1      -8.099  29.897   2.341  1.00  0.00    -0.003 C 
ATOM     32  C   UNL     1      -7.965  29.740   3.854  1.00  0.00     0.004 C 
ENDBRANCH  30  31
ENDBRANCH  29  30
ENDBRANCH  28  29
ENDBRANCH  27  28
ENDBRANCH  26  27
ENDBRANCH  25  26
ENDBRANCH  24  25
ENDBRANCH  23  24
ENDBRANCH  22  23
ENDBRANCH  21  22
ENDBRANCH  20  21
ENDBRANCH  19  20
ENDBRANCH  18  19
ENDBRANCH   1  18
TORSDOF 28
ENDMDL
MODEL 6
REMARK VINA RESULT:     0.750      4.680     13.850
REMARK INTER + INTRA:           0.255
REMARK INTER:                   2.206
REMARK INTRA:                  -1.951
REMARK UNBOUND:                -1.722
REMARK SMILES CCCCCCCCCCCCCCCCCCCCCCCCCCCCCC(=O)[O-]
REMARK SMILES IDX 16 1 17 2 18 3 19 4 20 5 21 6 22 7 23 8 24 9 25 10 26 11
REMARK SMILES IDX 27 12 28 13 29 14 30 15 31 16 32 17 15 18 14 19 13 20 12 21
REMARK SMILES IDX 11 22 10 23 9 24 8 25 7 26 6 27 5 28 4 29 3 30 2 31 1 32
REMARK H PARENT
REMARK Flexibility Score: inf
ROOT
ATOM      1  C   UNL     1     -10.213  36.627  -1.581  1.00  0.00     0.000 C 
ENDROOT
BRANCH   1   2
ATOM      2  C   UNL     1      -9.468  37.908  -1.155  1.00  0.00     0.000 C 
BRANCH   2   3
ATOM      3  C   UNL     1      -8.090  38.124  -1.811  1.00  0.00     0.000 C 
BRANCH   3   4
ATOM      4  C   UNL     1      -6.881  37.653  -0.979  1.00  0.00     0.000 C 
BRANCH   4   5
ATOM      5  C   UNL     1      -5.540  37.854  -1.705  1.00  0.00     0.000 C 
BRANCH   5   6
ATOM      6  C   UNL     1      -4.363  38.083  -0.738  1.00  0.00     0.000 C 
BRANCH   6   7
ATOM      7  C   UNL     1      -4.092  36.936   0.253  1.00  0.00     0.000 C 
BRANCH   7   8
ATOM      8  C   UNL     1      -3.952  35.568  -0.437  1.00  0.00     0.000 C 
BRANCH   8   9
ATOM      9  C   UNL     1      -4.796  34.475   0.241  1.00  0.00     0.000 C 
BRANCH   9  10
ATOM     10  C   UNL     1      -5.043  34.755   1.733  1.00  0.00     0.000 C 
BRANCH  10  11
ATOM     11  C   UNL     1      -6.538  34.951   2.015  1.00  0.00     0.000 C 
BRANCH  11  12
ATOM     12  C   UNL     1      -7.387  34.520   0.809  1.00  0.00     0.000 C 
BRANCH  12  13
ATOM     13  C   UNL     1      -7.985  33.110   0.962  1.00  0.00     0.006 C 
BRANCH  13  14
ATOM     14  C   UNL     1      -6.957  31.974   0.811  1.00  0.00     0.053 C 
BRANCH  14  15
ATOM     15  C   UNL     1      -7.373  30.723   1.525  1.00  0.00     0.041 C 
ATOM     16  O   UNL     1      -7.591  30.746   2.764  1.00  0.00    -0.550 OA
ATOM     17  O   UNL     1      -7.556  29.541   0.817  1.00  0.00    -0.550 OA
ENDBRANCH  14  15
ENDBRANCH  13  14
ENDBRANCH  12  13
ENDBRANCH  11  12
ENDBRANCH  10  11
ENDBRANCH   9  10
ENDBRANCH   8   9
ENDBRANCH   7   8
ENDBRANCH   6   7
ENDBRANCH   5   6
ENDBRANCH   4   5
ENDBRANCH   3   4
ENDBRANCH   2   3
ENDBRANCH   1   2
BRANCH   1  18
ATOM     18  C   UNL     1     -10.633  36.605  -3.066  1.00  0.00     0.000 C 
BRANCH  18  19
ATOM     19  C   UNL     1     -12.137  36.336  -3.261  1.00  0.00     0.000 C 
BRANCH  19  20
ATOM     20  C   UNL     1     -12.430  35.448  -4.481  1.00  0.00     0.000 C 
BRANCH  20  21
ATOM     21  C   UNL     1     -13.197  36.192  -5.589  1.00  0.00     0.000 C 
BRANCH  21  22
ATOM     22  C   UNL     1     -12.556  36.001  -6.974  1.00  0.00     0.000 C 
BRANCH  22  23
ATOM     23  C   UNL     1     -13.600  35.914  -8.100  1.00  0.00     0.000 C 
BRANCH  23  24
ATOM     24  C   UNL     1     -14.558  34.722  -7.931  1.00  0.00    -0.000 C 
BRANCH  24  25
ATOM     25  C   UNL     1     -15.061  34.142  -9.271  1.00  0.00    -0.000 C 
BRANCH  25  26
ATOM     26  C   UNL     1     -14.277  34.690 -10.477  1.00  0.00    -0.000 C 
BRANCH  26  27
ATOM     27  C   UNL     1     -14.759  34.086 -11.814  1.00  0.00    -0.000 C 
BRANCH  27  28
ATOM     28  C   UNL     1     -15.937  33.107 -11.663  1.00  0.00    -0.000 C 
BRANCH  28  29
ATOM     29  C   UNL     1     -17.216  33.597 -12.359  1.00  0.00    -0.000 C 
BRANCH  29  30
ATOM     30  C   UNL     1     -18.296  34.041 -11.348  1.00  0.00    -0.000 C 
BRANCH  30  31
ATOM     31  C   UNL     1     -18.152  33.379  -9.967  1.00  0.00    -0.003 C 
ATOM     32  C   UNL     1     -19.252  33.787  -8.990  1.00  0.00     0.004 C 
ENDBRANCH  30  31
ENDBRANCH  29  30
ENDBRANCH  28  29
ENDBRANCH  27  28
ENDBRANCH  26  27
ENDBRANCH  25  26
ENDBRANCH  24  25
ENDBRANCH  23  24
ENDBRANCH  22  23
ENDBRANCH  21  22
ENDBRANCH  20  21
ENDBRANCH  19  20
ENDBRANCH  18  19
ENDBRANCH   1  18
TORSDOF 28
ENDMDL
MODEL 7
REMARK VINA RESULT:     1.697      4.563     13.907
REMARK INTER + INTRA:           2.754
REMARK INTER:                   4.442
REMARK INTRA:                  -1.688
REMARK UNBOUND:                -1.722
REMARK SMILES CCCCCCCCCCCCCCCCCCCCCCCCCCCCCC(=O)[O-]
REMARK SMILES IDX 16 1 17 2 18 3 19 4 20 5 21 6 22 7 23 8 24 9 25 10 26 11
REMARK SMILES IDX 27 12 28 13 29 14 30 15 31 16 32 17 15 18 14 19 13 20 12 21
REMARK SMILES IDX 11 22 10 23 9 24 8 25 7 26 6 27 5 28 4 29 3 30 2 31 1 32
REMARK H PARENT
REMARK Flexibility Score: inf
ROOT
ATOM      1  C   UNL     1     -11.336  35.973  -2.137  1.00  0.00     0.000 C 
ENDROOT
BRANCH   1   2
ATOM      2  C   UNL     1     -10.631  37.011  -1.242  1.00  0.00     0.000 C 
BRANCH   2   3
ATOM      3  C   UNL     1      -9.183  37.358  -1.640  1.00  0.00     0.000 C 
BRANCH   3   4
ATOM      4  C   UNL     1      -9.014  37.982  -3.040  1.00  0.00     0.000 C 
BRANCH   4   5
ATOM      5  C   UNL     1      -7.552  37.990  -3.520  1.00  0.00     0.000 C 
BRANCH   5   6
ATOM      6  C   UNL     1      -6.540  37.977  -2.359  1.00  0.00     0.000 C 
BRANCH   6   7
ATOM      7  C   UNL     1      -5.059  37.926  -2.777  1.00  0.00     0.000 C 
BRANCH   7   8
ATOM      8  C   UNL     1      -4.098  37.877  -1.576  1.00  0.00     0.000 C 
BRANCH   8   9
ATOM      9  C   UNL     1      -4.043  36.486  -0.920  1.00  0.00     0.000 C 
BRANCH   9  10
ATOM     10  C   UNL     1      -4.065  36.552   0.616  1.00  0.00     0.000 C 
BRANCH  10  11
ATOM     11  C   UNL     1      -5.068  37.603   1.106  1.00  0.00     0.000 C 
BRANCH  11  12
ATOM     12  C   UNL     1      -5.644  37.217   2.477  1.00  0.00     0.000 C 
BRANCH  12  13
ATOM     13  C   UNL     1      -6.541  35.968   2.428  1.00  0.00     0.006 C 
BRANCH  13  14
ATOM     14  C   UNL     1      -6.954  35.549   1.005  1.00  0.00     0.053 C 
BRANCH  14  15
ATOM     15  C   UNL     1      -7.009  34.061   0.837  1.00  0.00     0.041 C 
ATOM     16  O   UNL     1      -7.982  33.527   0.244  1.00  0.00    -0.550 OA
ATOM     17  O   UNL     1      -5.969  33.265   1.303  1.00  0.00    -0.550 OA
ENDBRANCH  14  15
ENDBRANCH  13  14
ENDBRANCH  12  13
ENDBRANCH  11  12
ENDBRANCH  10  11
ENDBRANCH   9  10
ENDBRANCH   8   9
ENDBRANCH   7   8
ENDBRANCH   6   7
ENDBRANCH   5   6
ENDBRANCH   4   5
ENDBRANCH   3   4
ENDBRANCH   2   3
ENDBRANCH   1   2
BRANCH   1  18
ATOM     18  C   UNL     1     -12.231  36.590  -3.234  1.00  0.00     0.000 C 
BRANCH  18  19
ATOM     19  C   UNL     1     -12.100  35.871  -4.590  1.00  0.00     0.000 C 
BRANCH  19  20
ATOM     20  C   UNL     1     -13.205  36.266  -5.582  1.00  0.00     0.000 C 
BRANCH  20  21
ATOM     21  C   UNL     1     -13.285  35.320  -6.793  1.00  0.00     0.000 C 
BRANCH  21  22
ATOM     22  C   UNL     1     -13.536  36.075  -8.110  1.00  0.00     0.000 C 
BRANCH  22  23
ATOM     23  C   UNL     1     -12.899  35.373  -9.321  1.00  0.00     0.000 C 
BRANCH  23  24
ATOM     24  C   UNL     1     -13.888  35.178 -10.483  1.00  0.00    -0.000 C 
BRANCH  24  25
ATOM     25  C   UNL     1     -15.086  34.273 -10.126  1.00  0.00    -0.000 C 
BRANCH  25  26
ATOM     26  C   UNL     1     -15.339  33.191 -11.192  1.00  0.00    -0.000 C 
BRANCH  26  27
ATOM     27  C   UNL     1     -16.836  33.056 -11.547  1.00  0.00    -0.000 C 
BRANCH  27  28
ATOM     28  C   UNL     1     -17.680  34.280 -11.149  1.00  0.00    -0.000 C 
BRANCH  28  29
ATOM     29  C   UNL     1     -18.917  33.910 -10.315  1.00  0.00    -0.000 C 
BRANCH  29  30
ATOM     30  C   UNL     1     -18.540  33.453  -8.888  1.00  0.00    -0.000 C 
BRANCH  30  31
ATOM     31  C   UNL     1     -19.568  33.865  -7.821  1.00  0.00    -0.003 C 
ATOM     32  C   UNL     1     -20.995  33.450  -8.173  1.00  0.00     0.004 C 
ENDBRANCH  30  31
ENDBRANCH  29  30
ENDBRANCH  28  29
ENDBRANCH  27  28
ENDBRANCH  26  27
ENDBRANCH  25  26
ENDBRANCH  24  25
ENDBRANCH  23  24
ENDBRANCH  22  23
ENDBRANCH  21  22
ENDBRANCH  20  21
ENDBRANCH  19  20
ENDBRANCH  18  19
ENDBRANCH   1  18
TORSDOF 28
ENDMDL
MODEL 8
REMARK VINA RESULT:     2.000      2.386      4.906
REMARK INTER + INTRA:           3.553
REMARK INTER:                   5.208
REMARK INTRA:                  -1.655
REMARK UNBOUND:                -1.722
REMARK SMILES CCCCCCCCCCCCCCCCCCCCCCCCCCCCCC(=O)[O-]
REMARK SMILES IDX 16 1 17 2 18 3 19 4 20 5 21 6 22 7 23 8 24 9 25 10 26 11
REMARK SMILES IDX 27 12 28 13 29 14 30 15 31 16 32 17 15 18 14 19 13 20 12 21
REMARK SMILES IDX 11 22 10 23 9 24 8 25 7 26 6 27 5 28 4 29 3 30 2 31 1 32
REMARK H PARENT
REMARK Flexibility Score: inf
ROOT
ATOM      1  C   UNL     1      -8.624  37.117  -1.513  1.00  0.00     0.000 C 
ENDROOT
BRANCH   1   2
ATOM      2  C   UNL     1     -10.127  37.456  -1.475  1.00  0.00     0.000 C 
BRANCH   2   3
ATOM      3  C   UNL     1     -11.081  36.246  -1.431  1.00  0.00     0.000 C 
BRANCH   3   4
ATOM      4  C   UNL     1     -12.262  36.298  -2.421  1.00  0.00     0.000 C 
BRANCH   4   5
ATOM      5  C   UNL     1     -11.905  35.737  -3.809  1.00  0.00     0.000 C 
BRANCH   5   6
ATOM      6  C   UNL     1     -12.983  36.031  -4.869  1.00  0.00     0.000 C 
BRANCH   6   7
ATOM      7  C   UNL     1     -12.482  36.064  -6.325  1.00  0.00     0.000 C 
BRANCH   7   8
ATOM      8  C   UNL     1     -13.607  36.337  -7.339  1.00  0.00     0.000 C 
BRANCH   8   9
ATOM      9  C   UNL     1     -13.761  35.205  -8.369  1.00  0.00     0.000 C 
BRANCH   9  10
ATOM     10  C   UNL     1     -13.459  35.662  -9.806  1.00  0.00     0.000 C 
BRANCH  10  11
ATOM     11  C   UNL     1     -13.965  34.636 -10.826  1.00  0.00     0.000 C 
BRANCH  11  12
ATOM     12  C   UNL     1     -15.072  33.759 -10.223  1.00  0.00     0.000 C 
BRANCH  12  13
ATOM     13  C   UNL     1     -16.027  33.176 -11.278  1.00  0.00     0.006 C 
BRANCH  13  14
ATOM     14  C   UNL     1     -17.514  33.247 -10.884  1.00  0.00     0.053 C 
BRANCH  14  15
ATOM     15  C   UNL     1     -18.302  34.162 -11.773  1.00  0.00     0.041 C 
ATOM     16  O   UNL     1     -19.248  34.843 -11.300  1.00  0.00    -0.550 OA
ATOM     17  O   UNL     1     -17.968  34.291 -13.117  1.00  0.00    -0.550 OA
ENDBRANCH  14  15
ENDBRANCH  13  14
ENDBRANCH  12  13
ENDBRANCH  11  12
ENDBRANCH  10  11
ENDBRANCH   9  10
ENDBRANCH   8   9
ENDBRANCH   7   8
ENDBRANCH   6   7
ENDBRANCH   5   6
ENDBRANCH   4   5
ENDBRANCH   3   4
ENDBRANCH   2   3
ENDBRANCH   1   2
BRANCH   1  18
ATOM     18  C   UNL     1      -7.773  38.112  -2.330  1.00  0.00     0.000 C 
BRANCH  18  19
ATOM     19  C   UNL     1      -6.782  37.415  -3.281  1.00  0.00     0.000 C 
BRANCH  19  20
ATOM     20  C   UNL     1      -5.420  38.125  -3.346  1.00  0.00     0.000 C 
BRANCH  20  21
ATOM     21  C   UNL     1      -4.666  38.091  -2.004  1.00  0.00     0.000 C 
BRANCH  21  22
ATOM     22  C   UNL     1      -4.621  36.680  -1.393  1.00  0.00     0.000 C 
BRANCH  22  23
ATOM     23  C   UNL     1      -3.881  36.645  -0.045  1.00  0.00     0.000 C 
BRANCH  23  24
ATOM     24  C   UNL     1      -4.339  37.758   0.913  1.00  0.00    -0.000 C 
BRANCH  24  25
ATOM     25  C   UNL     1      -5.871  37.827   1.090  1.00  0.00    -0.000 C 
BRANCH  25  26
ATOM     26  C   UNL     1      -6.310  37.486   2.526  1.00  0.00    -0.000 C 
BRANCH  26  27
ATOM     27  C   UNL     1      -6.817  36.033   2.655  1.00  0.00    -0.000 C 
BRANCH  27  28
ATOM     28  C   UNL     1      -6.447  35.139   1.459  1.00  0.00    -0.000 C 
BRANCH  28  29
ATOM     29  C   UNL     1      -6.073  33.707   1.873  1.00  0.00    -0.000 C 
BRANCH  29  30
ATOM     30  C   UNL     1      -6.969  32.651   1.191  1.00  0.00    -0.000 C 
BRANCH  30  31
ATOM     31  C   UNL     1      -6.555  31.202   1.501  1.00  0.00    -0.003 C 
ATOM     32  C   UNL     1      -7.655  30.187   1.198  1.00  0.00     0.004 C 
ENDBRANCH  30  31
ENDBRANCH  29  30
ENDBRANCH  28  29
ENDBRANCH  27  28
ENDBRANCH  26  27
ENDBRANCH  25  26
ENDBRANCH  24  25
ENDBRANCH  23  24
ENDBRANCH  22  23
ENDBRANCH  21  22
ENDBRANCH  20  21
ENDBRANCH  19  20
ENDBRANCH  18  19
ENDBRANCH   1  18
TORSDOF 28
ENDMDL
