MODEL 1
REMARK VINA RESULT:    -5.777      0.000      0.000
REMARK INTER + INTRA:         -10.492
REMARK INTER:                  -9.154
REMARK INTRA:                  -1.338
REMARK UNBOUND:                -1.338
REMARK SMILES CCCCCCCCCCCC(=O)[O-]
REMARK SMILES IDX 7 1 8 2 9 3 10 4 11 5 12 6 13 7 14 8 6 9 5 10 4 11 3 12 2 13
REMARK SMILES IDX 1 14
REMARK H PARENT
REMARK Flexibility Score: inf
ROOT
ATOM      1  C   UNL     1     -16.876  -8.730  -7.299  1.00  0.00     0.000 C 
ENDROOT
BRANCH   1   2
ATOM      2  C   UNL     1     -16.271  -8.138  -8.581  1.00  0.00     0.000 C 
BRANCH   2   3
ATOM      3  C   UNL     1     -16.765  -8.847  -9.851  1.00  0.00     0.000 C 
BRANCH   3   4
ATOM      4  C   UNL     1     -17.832  -9.896  -9.515  1.00  0.00     0.006 C 
BRANCH   4   5
ATOM      5  C   UNL     1     -18.916  -9.944 -10.596  1.00  0.00     0.053 C 
BRANCH   5   6
ATOM      6  C   UNL     1     -18.627 -11.032 -11.580  1.00  0.00     0.041 C 
ATOM      7  O   UNL     1     -17.816 -11.950 -11.289  1.00  0.00    -0.550 OA
ATOM      8  O   UNL     1     -19.289 -11.059 -12.801  1.00  0.00    -0.550 OA
ENDBRANCH   5   6
ENDBRANCH   4   5
ENDBRANCH   3   4
ENDBRANCH   2   3
ENDBRANCH   1   2
BRANCH   1   9
ATOM      9  C   UNL     1     -15.813  -9.341  -6.368  1.00  0.00     0.000 C 
BRANCH   9  10
ATOM     10  C   UNL     1     -14.424  -9.409  -7.037  1.00  0.00    -0.000 C 
BRANCH  10  11
ATOM     11  C   UNL     1     -13.916 -10.846  -7.254  1.00  0.00    -0.000 C 
BRANCH  11  12
ATOM     12  C   UNL     1     -15.051 -11.882  -7.278  1.00  0.00    -0.000 C 
BRANCH  12  13
ATOM     13  C   UNL     1     -15.016 -12.764  -8.536  1.00  0.00    -0.003 C 
ATOM     14  C   UNL     1     -14.691 -11.973  -9.802  1.00  0.00     0.004 C 
ENDBRANCH  12  13
ENDBRANCH  11  12
ENDBRANCH  10  11
ENDBRANCH   9  10
ENDBRANCH   1   9
TORSDOF 10
ENDMDL
MODEL 2
REMARK VINA RESULT:    -5.755      2.097      4.604
REMARK INTER + INTRA:         -10.457
REMARK INTER:                  -9.367
REMARK INTRA:                  -1.091
REMARK UNBOUND:                -1.338
REMARK SMILES CCCCCCCCCCCC(=O)[O-]
REMARK SMILES IDX 7 1 8 2 9 3 10 4 11 5 12 6 13 7 14 8 6 9 5 10 4 11 3 12 2 13
REMARK SMILES IDX 1 14
REMARK H PARENT
REMARK Flexibility Score: inf
ROOT
ATOM      1  C   UNL     1     -17.752  -9.616  -7.542  1.00  0.00     0.000 C 
ENDROOT
BRANCH   1   2
ATOM      2  C   UNL     1     -16.964  -9.639  -6.223  1.00  0.00     0.000 C 
BRANCH   2   3
ATOM      3  C   UNL     1     -15.556  -9.039  -6.363  1.00  0.00     0.000 C 
BRANCH   3   4
ATOM      4  C   UNL     1     -14.492 -10.143  -6.408  1.00  0.00     0.006 C 
BRANCH   4   5
ATOM      5  C   UNL     1     -14.045 -10.417  -7.847  1.00  0.00     0.053 C 
BRANCH   5   6
ATOM      6  C   UNL     1     -14.573 -11.735  -8.317  1.00  0.00     0.041 C 
ATOM      7  O   UNL     1     -15.251 -12.459  -7.541  1.00  0.00    -0.550 OA
ATOM      8  O   UNL     1     -14.357 -12.144  -9.626  1.00  0.00    -0.550 OA
ENDBRANCH   5   6
ENDBRANCH   4   5
ENDBRANCH   3   4
ENDBRANCH   2   3
ENDBRANCH   1   2
BRANCH   1   9
ATOM      9  C   UNL     1     -17.342  -8.449  -8.458  1.00  0.00     0.000 C 
BRANCH   9  10
ATOM     10  C   UNL     1     -16.852  -8.936  -9.839  1.00  0.00    -0.000 C 
BRANCH  10  11
ATOM     11  C   UNL     1     -17.372 -10.334 -10.216  1.00  0.00    -0.000 C 
BRANCH  11  12
ATOM     12  C   UNL     1     -18.677 -10.287 -11.026  1.00  0.00    -0.000 C 
BRANCH  12  13
ATOM     13  C   UNL     1     -18.992 -11.624 -11.715  1.00  0.00    -0.003 C 
ATOM     14  C   UNL     1     -19.930 -11.466 -12.910  1.00  0.00     0.004 C 
ENDBRANCH  12  13
ENDBRANCH  11  12
ENDBRANCH  10  11
ENDBRANCH   9  10
ENDBRANCH   1   9
TORSDOF 10
ENDMDL
MODEL 3
REMARK VINA RESULT:    -5.681      3.411      5.699
REMARK INTER + INTRA:         -10.340
REMARK INTER:                  -9.044
REMARK INTRA:                  -1.296
REMARK UNBOUND:                -1.338
REMARK SMILES CCCCCCCCCCCC(=O)[O-]
REMARK SMILES IDX 7 1 8 2 9 3 10 4 11 5 12 6 13 7 14 8 6 9 5 10 4 11 3 12 2 13
REMARK SMILES IDX 1 14
REMARK H PARENT
REMARK Flexibility Score: inf
ROOT
ATOM      1  C   UNL     1     -16.190 -11.754 -10.956  1.00  0.00     0.000 C 
ENDROOT
BRANCH   1   2
ATOM      2  C   UNL     1     -15.082 -11.385  -9.957  1.00  0.00     0.000 C 
BRANCH   2   3
ATOM      3  C   UNL     1     -14.868 -12.464  -8.885  1.00  0.00     0.000 C 
BRANCH   3   4
ATOM      4  C   UNL     1     -14.535 -11.831  -7.528  1.00  0.00     0.006 C 
BRANCH   4   5
ATOM      5  C   UNL     1     -13.935 -10.433  -7.706  1.00  0.00     0.053 C 
BRANCH   5   6
ATOM      6  C   UNL     1     -12.846 -10.200  -6.708  1.00  0.00     0.041 C 
ATOM      7  O   UNL     1     -12.069  -9.218  -6.836  1.00  0.00    -0.550 OA
ATOM      8  O   UNL     1     -12.720 -11.039  -5.608  1.00  0.00    -0.550 OA
ENDBRANCH   5   6
ENDBRANCH   4   5
ENDBRANCH   3   4
ENDBRANCH   2   3
ENDBRANCH   1   2
BRANCH   1   9
ATOM      9  C   UNL     1     -17.580 -11.271 -10.507  1.00  0.00     0.000 C 
BRANCH   9  10
ATOM     10  C   UNL     1     -17.725  -9.738 -10.612  1.00  0.00    -0.000 C 
BRANCH  10  11
ATOM     11  C   UNL     1     -18.204  -9.075  -9.308  1.00  0.00    -0.000 C 
BRANCH  11  12
ATOM     12  C   UNL     1     -17.089  -8.297  -8.590  1.00  0.00    -0.000 C 
BRANCH  12  13
ATOM     13  C   UNL     1     -16.907  -8.742  -7.131  1.00  0.00    -0.003 C 
ATOM     14  C   UNL     1     -17.630 -10.051  -6.818  1.00  0.00     0.004 C 
ENDBRANCH  12  13
ENDBRANCH  11  12
ENDBRANCH  10  11
ENDBRANCH   9  10
ENDBRANCH   1   9
TORSDOF 10
ENDMDL
MODEL 4
REMARK VINA RESULT:    -5.669      1.207      1.648
REMARK INTER + INTRA:         -10.321
REMARK INTER:                  -9.326
REMARK INTRA:                  -0.995
REMARK UNBOUND:                -1.338
REMARK SMILES CCCCCCCCCCCC(=O)[O-]
REMARK SMILES IDX 7 1 8 2 9 3 10 4 11 5 12 6 13 7 14 8 6 9 5 10 4 11 3 12 2 13
REMARK SMILES IDX 1 14
REMARK H PARENT
REMARK Flexibility Score: inf
ROOT
ATOM      1  C   UNL     1     -17.456  -8.389  -8.420  1.00  0.00     0.000 C 
ENDROOT
BRANCH   1   2
ATOM      2  C   UNL     1     -16.644  -8.819  -9.652  1.00  0.00     0.000 C 
BRANCH   2   3
ATOM      3  C   UNL     1     -17.056 -10.202 -10.180  1.00  0.00     0.000 C 
BRANCH   3   4
ATOM      4  C   UNL     1     -18.485 -10.174 -10.737  1.00  0.00     0.006 C 
BRANCH   4   5
ATOM      5  C   UNL     1     -18.728 -11.352 -11.685  1.00  0.00     0.053 C 
BRANCH   5   6
ATOM      6  C   UNL     1     -19.950 -11.112 -12.514  1.00  0.00     0.041 C 
ATOM      7  O   UNL     1     -20.343 -11.986 -13.331  1.00  0.00    -0.550 OA
ATOM      8  O   UNL     1     -20.683  -9.944 -12.350  1.00  0.00    -0.550 OA
ENDBRANCH   5   6
ENDBRANCH   4   5
ENDBRANCH   3   4
ENDBRANCH   2   3
ENDBRANCH   1   2
BRANCH   1   9
ATOM      9  C   UNL     1     -16.718  -8.664  -7.098  1.00  0.00     0.000 C 
BRANCH   9  10
ATOM     10  C   UNL     1     -15.189  -8.514  -7.242  1.00  0.00    -0.000 C 
BRANCH  10  11
ATOM     11  C   UNL     1     -14.399  -9.710  -6.683  1.00  0.00    -0.000 C 
BRANCH  11  12
ATOM     12  C   UNL     1     -14.094 -10.775  -7.748  1.00  0.00    -0.000 C 
BRANCH  12  13
ATOM     13  C   UNL     1     -14.980 -12.022  -7.604  1.00  0.00    -0.003 C 
ATOM     14  C   UNL     1     -14.929 -12.928  -8.833  1.00  0.00     0.004 C 
ENDBRANCH  12  13
ENDBRANCH  11  12
ENDBRANCH  10  11
ENDBRANCH   9  10
ENDBRANCH   1   9
TORSDOF 10
ENDMDL
MODEL 5
REMARK VINA RESULT:    -5.629      3.555      5.176
REMARK INTER + INTRA:         -10.257
REMARK INTER:                  -9.031
REMARK INTRA:                  -1.226
REMARK UNBOUND:                -1.338
REMARK SMILES CCCCCCCCCCCC(=O)[O-]
REMARK SMILES IDX 7 1 8 2 9 3 10 4 11 5 12 6 13 7 14 8 6 9 5 10 4 11 3 12 2 13
REMARK SMILES IDX 1 14
REMARK H PARENT
REMARK Flexibility Score: inf
ROOT
ATOM      1  C   UNL     1     -17.736  -9.843  -7.600  1.00  0.00     0.000 C 
ENDROOT
BRANCH   1   2
ATOM      2  C   UNL     1     -16.751  -9.558  -6.456  1.00  0.00     0.000 C 
BRANCH   2   3
ATOM      3  C   UNL     1     -15.772  -8.420  -6.787  1.00  0.00     0.000 C 
BRANCH   3   4
ATOM      4  C   UNL     1     -14.456  -8.973  -7.347  1.00  0.00     0.006 C 
BRANCH   4   5
ATOM      5  C   UNL     1     -14.088 -10.300  -6.677  1.00  0.00     0.053 C 
BRANCH   5   6
ATOM      6  C   UNL     1     -12.685 -10.254  -6.160  1.00  0.00     0.041 C 
ATOM      7  O   UNL     1     -12.325 -11.028  -5.234  1.00  0.00    -0.550 OA
ATOM      8  O   UNL     1     -11.761  -9.390  -6.734  1.00  0.00    -0.550 OA
ENDBRANCH   5   6
ENDBRANCH   4   5
ENDBRANCH   3   4
ENDBRANCH   2   3
ENDBRANCH   1   2
BRANCH   1   9
ATOM      9  C   UNL     1     -17.723  -8.749  -8.682  1.00  0.00     0.000 C 
BRANCH   9  10
ATOM     10  C   UNL     1     -17.141  -9.258 -10.018  1.00  0.00    -0.000 C 
BRANCH  10  11
ATOM     11  C   UNL     1     -17.705 -10.622 -10.453  1.00  0.00    -0.000 C 
BRANCH  11  12
ATOM     12  C   UNL     1     -16.609 -11.615 -10.872  1.00  0.00    -0.000 C 
BRANCH  12  13
ATOM     13  C   UNL     1     -15.303 -11.415 -10.088  1.00  0.00    -0.003 C 
ATOM     14  C   UNL     1     -14.891 -12.658  -9.300  1.00  0.00     0.004 C 
ENDBRANCH  12  13
ENDBRANCH  11  12
ENDBRANCH  10  11
ENDBRANCH   9  10
ENDBRANCH   1   9
TORSDOF 10
ENDMDL
MODEL 6
REMARK VINA RESULT:    -5.615      3.546      5.474
REMARK INTER + INTRA:         -10.235
REMARK INTER:                  -9.156
REMARK INTRA:                  -1.079
REMARK UNBOUND:                -1.338
REMARK SMILES CCCCCCCCCCCC(=O)[O-]
REMARK SMILES IDX 7 1 8 2 9 3 10 4 11 5 12 6 13 7 14 8 6 9 5 10 4 11 3 12 2 13
REMARK SMILES IDX 1 14
REMARK H PARENT
REMARK Flexibility Score: inf
ROOT
ATOM      1  C   UNL     1     -17.565  -9.768  -7.198  1.00  0.00     0.000 C 
ENDROOT
BRANCH   1   2
ATOM      2  C   UNL     1     -16.325 -10.307  -6.469  1.00  0.00     0.000 C 
BRANCH   2   3
ATOM      3  C   UNL     1     -15.742 -11.560  -7.139  1.00  0.00     0.000 C 
BRANCH   3   4
ATOM      4  C   UNL     1     -14.367 -11.265  -7.752  1.00  0.00     0.006 C 
BRANCH   4   5
ATOM      5  C   UNL     1     -13.881  -9.865  -7.363  1.00  0.00     0.053 C 
BRANCH   5   6
ATOM      6  C   UNL     1     -12.614  -9.952  -6.574  1.00  0.00     0.041 C 
ATOM      7  O   UNL     1     -11.653  -9.180  -6.830  1.00  0.00    -0.550 OA
ATOM      8  O   UNL     1     -12.511 -10.854  -5.522  1.00  0.00    -0.550 OA
ENDBRANCH   5   6
ENDBRANCH   4   5
ENDBRANCH   3   4
ENDBRANCH   2   3
ENDBRANCH   1   2
BRANCH   1   9
ATOM      9  C   UNL     1     -17.280  -8.471  -7.976  1.00  0.00     0.000 C 
BRANCH   9  10
ATOM     10  C   UNL     1     -16.857  -8.748  -9.435  1.00  0.00    -0.000 C 
BRANCH  10  11
ATOM     11  C   UNL     1     -17.901  -9.545 -10.236  1.00  0.00    -0.000 C 
BRANCH  11  12
ATOM     12  C   UNL     1     -17.399 -10.937 -10.653  1.00  0.00    -0.000 C 
BRANCH  12  13
ATOM     13  C   UNL     1     -18.423 -11.702 -11.504  1.00  0.00    -0.003 C 
ATOM     14  C   UNL     1     -19.571 -10.815 -11.985  1.00  0.00     0.004 C 
ENDBRANCH  12  13
ENDBRANCH  11  12
ENDBRANCH  10  11
ENDBRANCH   9  10
ENDBRANCH   1   9
TORSDOF 10
ENDMDL
MODEL 7
REMARK VINA RESULT:    -5.588      1.282      3.173
REMARK INTER + INTRA:         -10.193
REMARK INTER:                  -8.899
REMARK INTRA:                  -1.294
REMARK UNBOUND:                -1.338
REMARK SMILES CCCCCCCCCCCC(=O)[O-]
REMARK SMILES IDX 7 1 8 2 9 3 10 4 11 5 12 6 13 7 14 8 6 9 5 10 4 11 3 12 2 13
REMARK SMILES IDX 1 14
REMARK H PARENT
REMARK Flexibility Score: inf
ROOT
ATOM      1  C   UNL     1     -14.868 -12.331  -8.125  1.00  0.00     0.000 C 
ENDROOT
BRANCH   1   2
ATOM      2  C   UNL     1     -14.698 -11.759  -9.541  1.00  0.00     0.000 C 
BRANCH   2   3
ATOM      3  C   UNL     1     -15.830 -12.181 -10.490  1.00  0.00     0.000 C 
BRANCH   3   4
ATOM      4  C   UNL     1     -16.943 -11.127 -10.520  1.00  0.00     0.006 C 
BRANCH   4   5
ATOM      5  C   UNL     1     -18.114 -11.588 -11.392  1.00  0.00     0.053 C 
BRANCH   5   6
ATOM      6  C   UNL     1     -19.233 -10.598 -11.334  1.00  0.00     0.041 C 
ATOM      7  O   UNL     1     -20.141 -10.614 -12.206  1.00  0.00    -0.550 OA
ATOM      8  O   UNL     1     -19.301  -9.687 -10.287  1.00  0.00    -0.550 OA
ENDBRANCH   5   6
ENDBRANCH   4   5
ENDBRANCH   3   4
ENDBRANCH   2   3
ENDBRANCH   1   2
BRANCH   1   9
ATOM      9  C   UNL     1     -14.405 -11.353  -7.030  1.00  0.00     0.000 C 
BRANCH   9  10
ATOM     10  C   UNL     1     -13.906 -10.015  -7.617  1.00  0.00    -0.000 C 
BRANCH  10  11
ATOM     11  C   UNL     1     -14.769  -8.807  -7.212  1.00  0.00    -0.000 C 
BRANCH  11  12
ATOM     12  C   UNL     1     -15.828  -8.449  -8.267  1.00  0.00    -0.000 C 
BRANCH  12  13
ATOM     13  C   UNL     1     -17.255  -8.467  -7.698  1.00  0.00    -0.003 C 
ATOM     14  C   UNL     1     -17.657  -9.839  -7.158  1.00  0.00     0.004 C 
ENDBRANCH  12  13
ENDBRANCH  11  12
ENDBRANCH  10  11
ENDBRANCH   9  10
ENDBRANCH   1   9
TORSDOF 10
ENDMDL
MODEL 8
REMARK VINA RESULT:    -5.360      1.123      2.222
REMARK INTER + INTRA:          -9.831
REMARK INTER:                  -8.878
REMARK INTRA:                  -0.953
REMARK UNBOUND:                -1.338
REMARK SMILES CCCCCCCCCCCC(=O)[O-]
REMARK SMILES IDX 7 1 8 2 9 3 10 4 11 5 12 6 13 7 14 8 6 9 5 10 4 11 3 12 2 13
REMARK SMILES IDX 1 14
REMARK H PARENT
REMARK Flexibility Score: inf
ROOT
ATOM      1  C   UNL     1     -17.618  -9.559  -7.379  1.00  0.00     0.000 C 
ENDROOT
BRANCH   1   2
ATOM      2  C   UNL     1     -17.183  -8.384  -8.268  1.00  0.00     0.000 C 
BRANCH   2   3
ATOM      3  C   UNL     1     -16.846  -8.820  -9.702  1.00  0.00     0.000 C 
BRANCH   3   4
ATOM      4  C   UNL     1     -17.567 -10.124 -10.064  1.00  0.00     0.006 C 
BRANCH   4   5
ATOM      5  C   UNL     1     -18.908  -9.839 -10.747  1.00  0.00     0.053 C 
BRANCH   5   6
ATOM      6  C   UNL     1     -19.278 -10.962 -11.663  1.00  0.00     0.041 C 
ATOM      7  O   UNL     1     -20.255 -10.844 -12.448  1.00  0.00    -0.550 OA
ATOM      8  O   UNL     1     -18.513 -12.121 -11.686  1.00  0.00    -0.550 OA
ENDBRANCH   5   6
ENDBRANCH   4   5
ENDBRANCH   3   4
ENDBRANCH   2   3
ENDBRANCH   1   2
BRANCH   1   9
ATOM      9  C   UNL     1     -16.516 -10.004  -6.401  1.00  0.00     0.000 C 
BRANCH   9  10
ATOM     10  C   UNL     1     -16.015 -11.433  -6.699  1.00  0.00    -0.000 C 
BRANCH  10  11
ATOM     11  C   UNL     1     -14.768 -11.471  -7.601  1.00  0.00    -0.000 C 
BRANCH  11  12
ATOM     12  C   UNL     1     -13.955 -10.168  -7.551  1.00  0.00    -0.000 C 
BRANCH  12  13
ATOM     13  C   UNL     1     -12.854 -10.201  -6.481  1.00  0.00    -0.003 C 
ATOM     14  C   UNL     1     -11.756  -9.168  -6.732  1.00  0.00     0.004 C 
ENDBRANCH  12  13
ENDBRANCH  11  12
ENDBRANCH  10  11
ENDBRANCH   9  10
ENDBRANCH   1   9
TORSDOF 10
ENDMDL
MODEL 9
REMARK VINA RESULT:    -5.356      2.286      4.938
REMARK INTER + INTRA:          -9.825
REMARK INTER:                  -8.956
REMARK INTRA:                  -0.869
REMARK UNBOUND:                -1.338
REMARK SMILES CCCCCCCCCCCC(=O)[O-]
REMARK SMILES IDX 7 1 8 2 9 3 10 4 11 5 12 6 13 7 14 8 6 9 5 10 4 11 3 12 2 13
REMARK SMILES IDX 1 14
REMARK H PARENT
REMARK Flexibility Score: inf
ROOT
ATOM      1  C   UNL     1     -14.719 -11.189  -9.027  1.00  0.00     0.000 C 
ENDROOT
BRANCH   1   2
ATOM      2  C   UNL     1     -14.371 -11.632  -7.598  1.00  0.00     0.000 C 
BRANCH   2   3
ATOM      3  C   UNL     1     -14.015 -10.451  -6.682  1.00  0.00     0.000 C 
BRANCH   3   4
ATOM      4  C   UNL     1     -14.481  -9.123  -7.292  1.00  0.00     0.006 C 
BRANCH   4   5
ATOM      5  C   UNL     1     -15.649  -8.532  -6.497  1.00  0.00     0.053 C 
BRANCH   5   6
ATOM      6  C   UNL     1     -16.949  -8.839  -7.171  1.00  0.00     0.041 C 
ATOM      7  O   UNL     1     -17.632  -9.832  -6.807  1.00  0.00    -0.550 OA
ATOM      8  O   UNL     1     -17.430  -8.000  -8.168  1.00  0.00    -0.550 OA
ENDBRANCH   5   6
ENDBRANCH   4   5
ENDBRANCH   3   4
ENDBRANCH   2   3
ENDBRANCH   1   2
BRANCH   1   9
ATOM      9  C   UNL     1     -15.227 -12.350  -9.901  1.00  0.00     0.000 C 
BRANCH   9  10
ATOM     10  C   UNL     1     -16.360 -11.909 -10.852  1.00  0.00    -0.000 C 
BRANCH  10  11
ATOM     11  C   UNL     1     -17.103 -10.647 -10.379  1.00  0.00    -0.000 C 
BRANCH  11  12
ATOM     12  C   UNL     1     -18.469 -10.467 -11.061  1.00  0.00    -0.000 C 
BRANCH  12  13
ATOM     13  C   UNL     1     -18.947 -11.745 -11.768  1.00  0.00    -0.003 C 
ATOM     14  C   UNL     1     -19.913 -11.458 -12.917  1.00  0.00     0.004 C 
ENDBRANCH  12  13
ENDBRANCH  11  12
ENDBRANCH  10  11
ENDBRANCH   9  10
ENDBRANCH   1   9
TORSDOF 10
ENDMDL
