MODEL 1
REMARK VINA RESULT:    -6.205      0.000      0.000
REMARK INTER + INTRA:         -14.358
REMARK INTER:                 -11.646
REMARK INTRA:                  -2.711
REMARK UNBOUND:                -2.711
REMARK SMILES CCCCCCCCC=CCCCCCCCC(=O)[O-]
REMARK SMILES IDX 10 1 9 2 11 3 12 4 13 5 14 6 15 7 16 8 17 9 18 10 19 11
REMARK SMILES IDX 20 12 8 13 7 14 6 15 5 16 4 17 3 18 2 19 1 20
REMARK H PARENT
REMARK Flexibility Score: inf
ROOT
ATOM      1  C   UNL     1      25.385  -2.542  -1.413  1.00  0.00    -0.031 C 
ATOM      2  C   UNL     1      25.083  -1.430  -0.717  1.00  0.00    -0.031 C 
ENDROOT
BRANCH   1   3
ATOM      3  C   UNL     1      24.735  -3.893  -1.221  1.00  0.00     0.027 C 
BRANCH   3   4
ATOM      4  C   UNL     1      25.556  -4.776  -0.273  1.00  0.00     0.004 C 
BRANCH   4   5
ATOM      5  C   UNL     1      24.810  -5.061   1.041  1.00  0.00     0.000 C 
BRANCH   5   6
ATOM      6  C   UNL     1      23.290  -4.877   0.909  1.00  0.00     0.000 C 
BRANCH   6   7
ATOM      7  C   UNL     1      22.644  -4.357   2.206  1.00  0.00     0.000 C 
BRANCH   7   8
ATOM      8  C   UNL     1      21.259  -4.971   2.460  1.00  0.00     0.006 C 
BRANCH   8   9
ATOM      9  C   UNL     1      20.178  -3.907   2.693  1.00  0.00     0.053 C 
BRANCH   9  10
ATOM     10  C   UNL     1      19.641  -4.003   4.085  1.00  0.00     0.041 C 
ATOM     11  O   UNL     1      20.362  -3.677   5.066  1.00  0.00    -0.550 OA
ATOM     12  O   UNL     1      18.330  -4.410   4.300  1.00  0.00    -0.550 OA
ENDBRANCH   9  10
ENDBRANCH   8   9
ENDBRANCH   7   8
ENDBRANCH   6   7
ENDBRANCH   5   6
ENDBRANCH   4   5
ENDBRANCH   3   4
ENDBRANCH   1   3
BRANCH   2  13
ATOM     13  C   UNL     1      24.087  -1.363   0.413  1.00  0.00     0.027 C 
BRANCH  13  14
ATOM     14  C   UNL     1      23.320  -0.032   0.431  1.00  0.00     0.004 C 
BRANCH  14  15
ATOM     15  C   UNL     1      21.938  -0.152  -0.229  1.00  0.00     0.000 C 
BRANCH  15  16
ATOM     16  C   UNL     1      21.438  -1.605  -0.196  1.00  0.00     0.000 C 
BRANCH  16  17
ATOM     17  C   UNL     1      21.038  -2.128  -1.586  1.00  0.00    -0.000 C 
BRANCH  17  18
ATOM     18  C   UNL     1      21.541  -1.224  -2.725  1.00  0.00    -0.000 C 
BRANCH  18  19
ATOM     19  C   UNL     1      22.581  -1.922  -3.615  1.00  0.00    -0.003 C 
ATOM     20  C   UNL     1      22.204  -3.365  -3.951  1.00  0.00     0.004 C 
ENDBRANCH  18  19
ENDBRANCH  17  18
ENDBRANCH  16  17
ENDBRANCH  15  16
ENDBRANCH  14  15
ENDBRANCH  13  14
ENDBRANCH   2  13
TORSDOF 15
ENDMDL
MODEL 2
REMARK VINA RESULT:    -6.122      1.506      3.202
REMARK INTER + INTRA:         -14.201
REMARK INTER:                 -11.295
REMARK INTRA:                  -2.906
REMARK UNBOUND:                -2.711
REMARK SMILES CCCCCCCCC=CCCCCCCCC(=O)[O-]
REMARK SMILES IDX 10 1 9 2 11 3 12 4 13 5 14 6 15 7 16 8 17 9 18 10 19 11
REMARK SMILES IDX 20 12 8 13 7 14 6 15 5 16 4 17 3 18 2 19 1 20
REMARK H PARENT
REMARK Flexibility Score: inf
ROOT
ATOM      1  C   UNL     1      25.513  -5.001  -0.618  1.00  0.00    -0.031 C 
ATOM      2  C   UNL     1      24.371  -5.637  -0.938  1.00  0.00    -0.031 C 
ENDROOT
BRANCH   1   3
ATOM      3  C   UNL     1      25.991  -3.707  -1.235  1.00  0.00     0.027 C 
BRANCH   3   4
ATOM      4  C   UNL     1      26.009  -2.572  -0.205  1.00  0.00     0.004 C 
BRANCH   4   5
ATOM      5  C   UNL     1      24.757  -1.683  -0.302  1.00  0.00     0.000 C 
BRANCH   5   6
ATOM      6  C   UNL     1      23.720  -2.004   0.787  1.00  0.00     0.000 C 
BRANCH   6   7
ATOM      7  C   UNL     1      24.286  -2.918   1.888  1.00  0.00     0.000 C 
BRANCH   7   8
ATOM      8  C   UNL     1      23.302  -4.024   2.299  1.00  0.00     0.006 C 
BRANCH   8   9
ATOM      9  C   UNL     1      21.853  -3.692   1.920  1.00  0.00     0.053 C 
BRANCH   9  10
ATOM     10  C   UNL     1      20.900  -4.370   2.852  1.00  0.00     0.041 C 
ATOM     11  O   UNL     1      19.757  -3.882   3.054  1.00  0.00    -0.550 OA
ATOM     12  O   UNL     1      21.256  -5.564   3.465  1.00  0.00    -0.550 OA
ENDBRANCH   9  10
ENDBRANCH   8   9
ENDBRANCH   7   8
ENDBRANCH   6   7
ENDBRANCH   5   6
ENDBRANCH   4   5
ENDBRANCH   3   4
ENDBRANCH   1   3
BRANCH   2  13
ATOM     13  C   UNL     1      23.409  -5.198  -2.013  1.00  0.00     0.027 C 
BRANCH  13  14
ATOM     14  C   UNL     1      22.117  -4.608  -1.428  1.00  0.00     0.004 C 
BRANCH  14  15
ATOM     15  C   UNL     1      21.523  -3.512  -2.326  1.00  0.00     0.000 C 
BRANCH  15  16
ATOM     16  C   UNL     1      22.479  -3.170  -3.480  1.00  0.00     0.000 C 
BRANCH  16  17
ATOM     17  C   UNL     1      22.842  -1.677  -3.529  1.00  0.00    -0.000 C 
BRANCH  17  18
ATOM     18  C   UNL     1      21.871  -0.805  -2.713  1.00  0.00    -0.000 C 
BRANCH  18  19
ATOM     19  C   UNL     1      22.463   0.570  -2.368  1.00  0.00    -0.003 C 
ATOM     20  C   UNL     1      22.360   0.905  -0.880  1.00  0.00     0.004 C 
ENDBRANCH  18  19
ENDBRANCH  17  18
ENDBRANCH  16  17
ENDBRANCH  15  16
ENDBRANCH  14  15
ENDBRANCH  13  14
ENDBRANCH   2  13
TORSDOF 15
ENDMDL
MODEL 3
REMARK VINA RESULT:    -6.111      3.697      6.309
REMARK INTER + INTRA:         -14.181
REMARK INTER:                 -11.472
REMARK INTRA:                  -2.708
REMARK UNBOUND:                -2.711
REMARK SMILES CCCCCCCCC=CCCCCCCCC(=O)[O-]
REMARK SMILES IDX 10 1 9 2 11 3 12 4 13 5 14 6 15 7 16 8 17 9 18 10 19 11
REMARK SMILES IDX 20 12 8 13 7 14 6 15 5 16 4 17 3 18 2 19 1 20
REMARK H PARENT
REMARK Flexibility Score: inf
ROOT
ATOM      1  C   UNL     1      23.199  -0.323   0.370  1.00  0.00    -0.031 C 
ATOM      2  C   UNL     1      24.077  -1.342   0.347  1.00  0.00    -0.031 C 
ENDROOT
BRANCH   1   3
ATOM      3  C   UNL     1      23.193   0.844  -0.591  1.00  0.00     0.027 C 
BRANCH   3   4
ATOM      4  C   UNL     1      22.099   0.684  -1.653  1.00  0.00     0.004 C 
BRANCH   4   5
ATOM      5  C   UNL     1      22.518  -0.282  -2.775  1.00  0.00     0.000 C 
BRANCH   5   6
ATOM      6  C   UNL     1      21.572  -1.486  -2.902  1.00  0.00     0.000 C 
BRANCH   6   7
ATOM      7  C   UNL     1      22.205  -2.654  -3.678  1.00  0.00     0.000 C 
BRANCH   7   8
ATOM      8  C   UNL     1      21.354  -3.931  -3.618  1.00  0.00     0.006 C 
BRANCH   8   9
ATOM      9  C   UNL     1      22.127  -5.176  -4.074  1.00  0.00     0.053 C 
BRANCH   9  10
ATOM     10  C   UNL     1      21.672  -5.605  -5.432  1.00  0.00     0.041 C 
ATOM     11  O   UNL     1      20.475  -5.434  -5.783  1.00  0.00    -0.550 OA
ATOM     12  O   UNL     1      22.580  -6.155  -6.329  1.00  0.00    -0.550 OA
ENDBRANCH   9  10
ENDBRANCH   8   9
ENDBRANCH   7   8
ENDBRANCH   6   7
ENDBRANCH   5   6
ENDBRANCH   4   5
ENDBRANCH   3   4
ENDBRANCH   1   3
BRANCH   2  13
ATOM     13  C   UNL     1      25.242  -1.457  -0.603  1.00  0.00     0.027 C 
BRANCH  13  14
ATOM     14  C   UNL     1      25.098  -2.654  -1.555  1.00  0.00     0.004 C 
BRANCH  14  15
ATOM     15  C   UNL     1      26.090  -3.779  -1.223  1.00  0.00     0.000 C 
BRANCH  15  16
ATOM     16  C   UNL     1      25.400  -4.904  -0.435  1.00  0.00     0.000 C 
BRANCH  16  17
ATOM     17  C   UNL     1      23.930  -5.097  -0.838  1.00  0.00    -0.000 C 
BRANCH  17  18
ATOM     18  C   UNL     1      22.960  -4.890   0.340  1.00  0.00    -0.000 C 
BRANCH  18  19
ATOM     19  C   UNL     1      21.641  -4.233  -0.093  1.00  0.00    -0.003 C 
ATOM     20  C   UNL     1      21.029  -3.353   0.997  1.00  0.00     0.004 C 
ENDBRANCH  18  19
ENDBRANCH  17  18
ENDBRANCH  16  17
ENDBRANCH  15  16
ENDBRANCH  14  15
ENDBRANCH  13  14
ENDBRANCH   2  13
TORSDOF 15
ENDMDL
MODEL 4
REMARK VINA RESULT:    -6.103      3.172      5.812
REMARK INTER + INTRA:         -14.165
REMARK INTER:                 -11.479
REMARK INTRA:                  -2.686
REMARK UNBOUND:                -2.711
REMARK SMILES CCCCCCCCC=CCCCCCCCC(=O)[O-]
REMARK SMILES IDX 10 1 9 2 11 3 12 4 13 5 14 6 15 7 16 8 17 9 18 10 19 11
REMARK SMILES IDX 20 12 8 13 7 14 6 15 5 16 4 17 3 18 2 19 1 20
REMARK H PARENT
REMARK Flexibility Score: inf
ROOT
ATOM      1  C   UNL     1      23.393  -0.161   0.082  1.00  0.00    -0.031 C 
ATOM      2  C   UNL     1      23.357  -1.406   0.592  1.00  0.00    -0.031 C 
ENDROOT
BRANCH   1   3
ATOM      3  C   UNL     1      22.268   0.501  -0.679  1.00  0.00     0.027 C 
BRANCH   3   4
ATOM      4  C   UNL     1      22.513   0.447  -2.192  1.00  0.00     0.004 C 
BRANCH   4   5
ATOM      5  C   UNL     1      21.845  -0.776  -2.843  1.00  0.00     0.000 C 
BRANCH   5   6
ATOM      6  C   UNL     1      22.867  -1.756  -3.442  1.00  0.00     0.000 C 
BRANCH   6   7
ATOM      7  C   UNL     1      22.272  -3.156  -3.679  1.00  0.00     0.000 C 
BRANCH   7   8
ATOM      8  C   UNL     1      22.757  -4.184  -2.646  1.00  0.00     0.006 C 
BRANCH   8   9
ATOM      9  C   UNL     1      21.663  -5.184  -2.253  1.00  0.00     0.053 C 
BRANCH   9  10
ATOM     10  C   UNL     1      21.549  -6.266  -3.280  1.00  0.00     0.041 C 
ATOM     11  O   UNL     1      20.429  -6.783  -3.534  1.00  0.00    -0.550 OA
ATOM     12  O   UNL     1      22.672  -6.674  -3.989  1.00  0.00    -0.550 OA
ENDBRANCH   9  10
ENDBRANCH   8   9
ENDBRANCH   7   8
ENDBRANCH   6   7
ENDBRANCH   5   6
ENDBRANCH   4   5
ENDBRANCH   3   4
ENDBRANCH   1   3
BRANCH   2  13
ATOM     13  C   UNL     1      22.209  -2.371   0.434  1.00  0.00     0.027 C 
BRANCH  13  14
ATOM     14  C   UNL     1      22.276  -3.523   1.448  1.00  0.00     0.004 C 
BRANCH  14  15
ATOM     15  C   UNL     1      23.670  -3.656   2.080  1.00  0.00     0.000 C 
BRANCH  15  16
ATOM     16  C   UNL     1      24.327  -4.988   1.685  1.00  0.00     0.000 C 
BRANCH  16  17
ATOM     17  C   UNL     1      25.270  -4.851   0.479  1.00  0.00    -0.000 C 
BRANCH  17  18
ATOM     18  C   UNL     1      26.547  -4.059   0.812  1.00  0.00    -0.000 C 
BRANCH  18  19
ATOM     19  C   UNL     1      26.751  -2.852  -0.116  1.00  0.00    -0.003 C 
ATOM     20  C   UNL     1      26.009  -2.993  -1.446  1.00  0.00     0.004 C 
ENDBRANCH  18  19
ENDBRANCH  17  18
ENDBRANCH  16  17
ENDBRANCH  15  16
ENDBRANCH  14  15
ENDBRANCH  13  14
ENDBRANCH   2  13
TORSDOF 15
ENDMDL
MODEL 5
REMARK VINA RESULT:    -6.051      3.778      5.432
REMARK INTER + INTRA:         -14.068
REMARK INTER:                 -11.738
REMARK INTRA:                  -2.330
REMARK UNBOUND:                -2.711
REMARK SMILES CCCCCCCCC=CCCCCCCCC(=O)[O-]
REMARK SMILES IDX 10 1 9 2 11 3 12 4 13 5 14 6 15 7 16 8 17 9 18 10 19 11
REMARK SMILES IDX 20 12 8 13 7 14 6 15 5 16 4 17 3 18 2 19 1 20
REMARK H PARENT
REMARK Flexibility Score: inf
ROOT
ATOM      1  C   UNL     1      26.949  -3.410   0.052  1.00  0.00    -0.031 C 
ATOM      2  C   UNL     1      26.383  -3.599   1.259  1.00  0.00    -0.031 C 
ENDROOT
BRANCH   1   3
ATOM      3  C   UNL     1      26.302  -3.740  -1.274  1.00  0.00     0.027 C 
BRANCH   3   4
ATOM      4  C   UNL     1      25.358  -2.619  -1.726  1.00  0.00     0.004 C 
BRANCH   4   5
ATOM      5  C   UNL     1      24.011  -3.166  -2.228  1.00  0.00     0.000 C 
BRANCH   5   6
ATOM      6  C   UNL     1      23.824  -4.657  -1.909  1.00  0.00     0.000 C 
BRANCH   6   7
ATOM      7  C   UNL     1      22.438  -5.181  -2.328  1.00  0.00     0.000 C 
BRANCH   7   8
ATOM      8  C   UNL     1      22.225  -5.129  -3.848  1.00  0.00     0.006 C 
BRANCH   8   9
ATOM      9  C   UNL     1      22.374  -6.505  -4.510  1.00  0.00     0.053 C 
BRANCH   9  10
ATOM     10  C   UNL     1      21.073  -6.945  -5.101  1.00  0.00     0.041 C 
ATOM     11  O   UNL     1      20.255  -6.093  -5.537  1.00  0.00    -0.550 OA
ATOM     12  O   UNL     1      20.780  -8.299  -5.212  1.00  0.00    -0.550 OA
ENDBRANCH   9  10
ENDBRANCH   8   9
ENDBRANCH   7   8
ENDBRANCH   6   7
ENDBRANCH   5   6
ENDBRANCH   4   5
ENDBRANCH   3   4
ENDBRANCH   1   3
BRANCH   2  13
ATOM     13  C   UNL     1      25.033  -4.229   1.491  1.00  0.00     0.027 C 
BRANCH  13  14
ATOM     14  C   UNL     1      24.038  -3.249   2.130  1.00  0.00     0.004 C 
BRANCH  14  15
ATOM     15  C   UNL     1      22.638  -3.358   1.507  1.00  0.00     0.000 C 
BRANCH  15  16
ATOM     16  C   UNL     1      22.366  -2.177   0.561  1.00  0.00     0.000 C 
BRANCH  16  17
ATOM     17  C   UNL     1      23.352  -1.015   0.762  1.00  0.00    -0.000 C 
BRANCH  17  18
ATOM     18  C   UNL     1      22.837   0.308   0.165  1.00  0.00    -0.000 C 
BRANCH  18  19
ATOM     19  C   UNL     1      23.339   0.540  -1.268  1.00  0.00    -0.003 C 
ATOM     20  C   UNL     1      22.285   0.216  -2.327  1.00  0.00     0.004 C 
ENDBRANCH  18  19
ENDBRANCH  17  18
ENDBRANCH  16  17
ENDBRANCH  15  16
ENDBRANCH  14  15
ENDBRANCH  13  14
ENDBRANCH   2  13
TORSDOF 15
ENDMDL
MODEL 6
REMARK VINA RESULT:    -6.031      3.920      6.061
REMARK INTER + INTRA:         -14.030
REMARK INTER:                 -11.820
REMARK INTRA:                  -2.210
REMARK UNBOUND:                -2.711
REMARK SMILES CCCCCCCCC=CCCCCCCCC(=O)[O-]
REMARK SMILES IDX 10 1 9 2 11 3 12 4 13 5 14 6 15 7 16 8 17 9 18 10 19 11
REMARK SMILES IDX 20 12 8 13 7 14 6 15 5 16 4 17 3 18 2 19 1 20
REMARK H PARENT
REMARK Flexibility Score: inf
ROOT
ATOM      1  C   UNL     1      22.443  -0.802  -2.858  1.00  0.00    -0.031 C 
ATOM      2  C   UNL     1      22.900  -0.278  -1.705  1.00  0.00    -0.031 C 
ENDROOT
BRANCH   1   3
ATOM      3  C   UNL     1      23.069  -1.964  -3.594  1.00  0.00     0.027 C 
BRANCH   3   4
ATOM      4  C   UNL     1      22.375  -3.285  -3.240  1.00  0.00     0.004 C 
BRANCH   4   5
ATOM      5  C   UNL     1      23.131  -4.061  -2.149  1.00  0.00     0.000 C 
BRANCH   5   6
ATOM      6  C   UNL     1      23.267  -5.557  -2.476  1.00  0.00     0.000 C 
BRANCH   6   7
ATOM      7  C   UNL     1      22.067  -6.096  -3.275  1.00  0.00     0.000 C 
BRANCH   7   8
ATOM      8  C   UNL     1      22.487  -6.738  -4.606  1.00  0.00     0.006 C 
BRANCH   8   9
ATOM      9  C   UNL     1      21.878  -6.024  -5.820  1.00  0.00     0.053 C 
BRANCH   9  10
ATOM     10  C   UNL     1      20.389  -6.162  -5.816  1.00  0.00     0.041 C 
ATOM     11  O   UNL     1      19.660  -5.159  -6.035  1.00  0.00    -0.550 OA
ATOM     12  O   UNL     1      19.805  -7.406  -5.613  1.00  0.00    -0.550 OA
ENDBRANCH   9  10
ENDBRANCH   8   9
ENDBRANCH   7   8
ENDBRANCH   6   7
ENDBRANCH   5   6
ENDBRANCH   4   5
ENDBRANCH   3   4
ENDBRANCH   1   3
BRANCH   2  13
ATOM     13  C   UNL     1      24.149  -0.724  -0.989  1.00  0.00     0.027 C 
BRANCH  13  14
ATOM     14  C   UNL     1      23.885  -1.047   0.489  1.00  0.00     0.004 C 
BRANCH  14  15
ATOM     15  C   UNL     1      22.840  -2.160   0.661  1.00  0.00     0.000 C 
BRANCH  15  16
ATOM     16  C   UNL     1      23.393  -3.303   1.528  1.00  0.00     0.000 C 
BRANCH  16  17
ATOM     17  C   UNL     1      24.896  -3.159   1.813  1.00  0.00    -0.000 C 
BRANCH  17  18
ATOM     18  C   UNL     1      25.754  -4.124   0.975  1.00  0.00    -0.000 C 
BRANCH  18  19
ATOM     19  C   UNL     1      26.870  -3.402   0.205  1.00  0.00    -0.003 C 
ATOM     20  C   UNL     1      26.651  -3.411  -1.308  1.00  0.00     0.004 C 
ENDBRANCH  18  19
ENDBRANCH  17  18
ENDBRANCH  16  17
ENDBRANCH  15  16
ENDBRANCH  14  15
ENDBRANCH  13  14
ENDBRANCH   2  13
TORSDOF 15
ENDMDL
MODEL 7
REMARK VINA RESULT:    -6.025      1.432      4.167
REMARK INTER + INTRA:         -14.020
REMARK INTER:                 -11.054
REMARK INTRA:                  -2.966
REMARK UNBOUND:                -2.711
REMARK SMILES CCCCCCCCC=CCCCCCCCC(=O)[O-]
REMARK SMILES IDX 10 1 9 2 11 3 12 4 13 5 14 6 15 7 16 8 17 9 18 10 19 11
REMARK SMILES IDX 20 12 8 13 7 14 6 15 5 16 4 17 3 18 2 19 1 20
REMARK H PARENT
REMARK Flexibility Score: inf
ROOT
ATOM      1  C   UNL     1      23.064  -0.191  -2.600  1.00  0.00    -0.031 C 
ATOM      2  C   UNL     1      22.792  -1.360  -3.209  1.00  0.00    -0.031 C 
ENDROOT
BRANCH   1   3
ATOM      3  C   UNL     1      22.141   0.528  -1.643  1.00  0.00     0.027 C 
BRANCH   3   4
ATOM      4  C   UNL     1      22.616   0.378  -0.193  1.00  0.00     0.004 C 
BRANCH   4   5
ATOM      5  C   UNL     1      23.676  -0.727  -0.044  1.00  0.00     0.000 C 
BRANCH   5   6
ATOM      6  C   UNL     1      23.158  -1.938   0.747  1.00  0.00     0.000 C 
BRANCH   6   7
ATOM      7  C   UNL     1      21.653  -2.182   0.532  1.00  0.00     0.000 C 
BRANCH   7   8
ATOM      8  C   UNL     1      21.212  -3.581   0.990  1.00  0.00     0.006 C 
BRANCH   8   9
ATOM      9  C   UNL     1      21.997  -4.074   2.212  1.00  0.00     0.053 C 
BRANCH   9  10
ATOM     10  C   UNL     1      21.064  -4.606   3.253  1.00  0.00     0.041 C 
ATOM     11  O   UNL     1      21.227  -5.765   3.717  1.00  0.00    -0.550 OA
ATOM     12  O   UNL     1      20.040  -3.806   3.745  1.00  0.00    -0.550 OA
ENDBRANCH   9  10
ENDBRANCH   8   9
ENDBRANCH   7   8
ENDBRANCH   6   7
ENDBRANCH   5   6
ENDBRANCH   4   5
ENDBRANCH   3   4
ENDBRANCH   1   3
BRANCH   2  13
ATOM     13  C   UNL     1      21.493  -2.116  -3.086  1.00  0.00     0.027 C 
BRANCH  13  14
ATOM     14  C   UNL     1      21.716  -3.623  -2.888  1.00  0.00     0.004 C 
BRANCH  14  15
ATOM     15  C   UNL     1      23.199  -3.965  -2.678  1.00  0.00     0.000 C 
BRANCH  15  16
ATOM     16  C   UNL     1      23.377  -4.946  -1.508  1.00  0.00     0.000 C 
BRANCH  16  17
ATOM     17  C   UNL     1      24.779  -4.875  -0.881  1.00  0.00    -0.000 C 
BRANCH  17  18
ATOM     18  C   UNL     1      25.578  -3.647  -1.354  1.00  0.00    -0.000 C 
BRANCH  18  19
ATOM     19  C   UNL     1      26.593  -3.167  -0.306  1.00  0.00    -0.003 C 
ATOM     20  C   UNL     1      26.358  -3.781   1.075  1.00  0.00     0.004 C 
ENDBRANCH  18  19
ENDBRANCH  17  18
ENDBRANCH  16  17
ENDBRANCH  15  16
ENDBRANCH  14  15
ENDBRANCH  13  14
ENDBRANCH   2  13
TORSDOF 15
ENDMDL
MODEL 8
REMARK VINA RESULT:    -6.015      1.714      2.731
REMARK INTER + INTRA:         -14.000
REMARK INTER:                 -11.189
REMARK INTRA:                  -2.812
REMARK UNBOUND:                -2.711
REMARK SMILES CCCCCCCCC=CCCCCCCCC(=O)[O-]
REMARK SMILES IDX 10 1 9 2 11 3 12 4 13 5 14 6 15 7 16 8 17 9 18 10 19 11
REMARK SMILES IDX 20 12 8 13 7 14 6 15 5 16 4 17 3 18 2 19 1 20
REMARK H PARENT
REMARK Flexibility Score: inf
ROOT
ATOM      1  C   UNL     1      25.007  -1.291  -0.672  1.00  0.00    -0.031 C 
ATOM      2  C   UNL     1      24.081  -0.328  -0.512  1.00  0.00    -0.031 C 
ENDROOT
BRANCH   1   3
ATOM      3  C   UNL     1      24.992  -2.342  -1.759  1.00  0.00     0.027 C 
BRANCH   3   4
ATOM      4  C   UNL     1      25.758  -3.599  -1.329  1.00  0.00     0.004 C 
BRANCH   4   5
ATOM      5  C   UNL     1      26.860  -3.281  -0.304  1.00  0.00     0.000 C 
BRANCH   5   6
ATOM      6  C   UNL     1      26.605  -3.942   1.060  1.00  0.00     0.000 C 
BRANCH   6   7
ATOM      7  C   UNL     1      25.202  -4.566   1.159  1.00  0.00     0.000 C 
BRANCH   7   8
ATOM      8  C   UNL     1      24.243  -3.727   2.016  1.00  0.00     0.006 C 
BRANCH   8   9
ATOM      9  C   UNL     1      22.903  -3.466   1.316  1.00  0.00     0.053 C 
BRANCH   9  10
ATOM     10  C   UNL     1      21.777  -4.059   2.102  1.00  0.00     0.041 C 
ATOM     11  O   UNL     1      20.647  -3.503   2.108  1.00  0.00    -0.550 OA
ATOM     12  O   UNL     1      21.962  -5.250   2.793  1.00  0.00    -0.550 OA
ENDBRANCH   9  10
ENDBRANCH   8   9
ENDBRANCH   7   8
ENDBRANCH   6   7
ENDBRANCH   5   6
ENDBRANCH   4   5
ENDBRANCH   3   4
ENDBRANCH   1   3
BRANCH   2  13
ATOM     13  C   UNL     1      22.839  -0.176  -1.352  1.00  0.00     0.027 C 
BRANCH  13  14
ATOM     14  C   UNL     1      21.580  -0.662  -0.618  1.00  0.00     0.004 C 
BRANCH  14  15
ATOM     15  C   UNL     1      20.701  -1.556  -1.506  1.00  0.00     0.000 C 
BRANCH  15  16
ATOM     16  C   UNL     1      21.369  -1.801  -2.869  1.00  0.00     0.000 C 
BRANCH  16  17
ATOM     17  C   UNL     1      21.389  -3.287  -3.262  1.00  0.00    -0.000 C 
BRANCH  17  18
ATOM     18  C   UNL     1      21.588  -4.216  -2.051  1.00  0.00    -0.000 C 
BRANCH  18  19
ATOM     19  C   UNL     1      22.669  -5.279  -2.296  1.00  0.00    -0.003 C 
ATOM     20  C   UNL     1      22.478  -6.030  -3.614  1.00  0.00     0.004 C 
ENDBRANCH  18  19
ENDBRANCH  17  18
ENDBRANCH  16  17
ENDBRANCH  15  16
ENDBRANCH  14  15
ENDBRANCH  13  14
ENDBRANCH   2  13
TORSDOF 15
ENDMDL
MODEL 9
REMARK VINA RESULT:    -6.012      1.215      3.253
REMARK INTER + INTRA:         -13.995
REMARK INTER:                 -11.496
REMARK INTRA:                  -2.499
REMARK UNBOUND:                -2.711
REMARK SMILES CCCCCCCCC=CCCCCCCCC(=O)[O-]
REMARK SMILES IDX 10 1 9 2 11 3 12 4 13 5 14 6 15 7 16 8 17 9 18 10 19 11
REMARK SMILES IDX 20 12 8 13 7 14 6 15 5 16 4 17 3 18 2 19 1 20
REMARK H PARENT
REMARK Flexibility Score: inf
ROOT
ATOM      1  C   UNL     1      22.522  -2.537  -3.633  1.00  0.00    -0.031 C 
ATOM      2  C   UNL     1      22.841  -1.247  -3.422  1.00  0.00    -0.031 C 
ENDROOT
BRANCH   1   3
ATOM      3  C   UNL     1      21.351  -3.259  -3.006  1.00  0.00     0.027 C 
BRANCH   3   4
ATOM      4  C   UNL     1      21.807  -4.167  -1.858  1.00  0.00     0.004 C 
BRANCH   4   5
ATOM      5  C   UNL     1      21.354  -3.638  -0.487  1.00  0.00     0.000 C 
BRANCH   5   6
ATOM      6  C   UNL     1      21.500  -4.687   0.627  1.00  0.00     0.000 C 
BRANCH   6   7
ATOM      7  C   UNL     1      22.084  -4.094   1.922  1.00  0.00     0.000 C 
BRANCH   7   8
ATOM      8  C   UNL     1      21.185  -4.342   3.142  1.00  0.00     0.006 C 
BRANCH   8   9
ATOM      9  C   UNL     1      19.762  -3.806   2.942  1.00  0.00     0.053 C 
BRANCH   9  10
ATOM     10  C   UNL     1      18.935  -4.049   4.165  1.00  0.00     0.041 C 
ATOM     11  O   UNL     1      19.023  -3.273   5.153  1.00  0.00    -0.550 OA
ATOM     12  O   UNL     1      18.034  -5.106   4.198  1.00  0.00    -0.550 OA
ENDBRANCH   9  10
ENDBRANCH   8   9
ENDBRANCH   7   8
ENDBRANCH   6   7
ENDBRANCH   5   6
ENDBRANCH   4   5
ENDBRANCH   3   4
ENDBRANCH   1   3
BRANCH   2  13
ATOM     13  C   UNL     1      22.119  -0.323  -2.474  1.00  0.00     0.027 C 
BRANCH  13  14
ATOM     14  C   UNL     1      23.065   0.294  -1.433  1.00  0.00     0.004 C 
BRANCH  14  15
ATOM     15  C   UNL     1      22.735  -0.169  -0.006  1.00  0.00     0.000 C 
BRANCH  15  16
ATOM     16  C   UNL     1      23.815  -1.124   0.525  1.00  0.00     0.000 C 
BRANCH  16  17
ATOM     17  C   UNL     1      24.956  -1.349  -0.480  1.00  0.00    -0.000 C 
BRANCH  17  18
ATOM     18  C   UNL     1      25.104  -2.826  -0.887  1.00  0.00    -0.000 C 
BRANCH  18  19
ATOM     19  C   UNL     1      25.306  -3.752   0.322  1.00  0.00    -0.003 C 
ATOM     20  C   UNL     1      26.738  -3.728   0.856  1.00  0.00     0.004 C 
ENDBRANCH  18  19
ENDBRANCH  17  18
ENDBRANCH  16  17
ENDBRANCH  15  16
ENDBRANCH  14  15
ENDBRANCH  13  14
ENDBRANCH   2  13
TORSDOF 15
ENDMDL
