MODEL 1
REMARK VINA RESULT:     8.834      0.000      0.000
REMARK INTER + INTRA:          11.954
REMARK INTER:                  12.708
REMARK INTRA:                  -0.754
REMARK UNBOUND:                -0.754
REMARK SMILES O=c1c(O[C@H]2O[C@H](CO)[C@@H](O)[C@H](O)[C@H]2O)c(-c2ccc(O)cc2)oc2cc(O)cc(O)c12
REMARK SMILES IDX 4 1 3 2 16 3 24 4 2 5 25 6 1 7 32 8 26 9 30 10 27 11 29 12
REMARK SMILES IDX 17 13 18 14 19 15 20 16 23 17 22 18 21 19 31 21 28 23 5 25
REMARK SMILES IDX 14 26 6 27 12 28 7 29 10 30 15 31 13 33 8 35 9 36 11 38
REMARK H PARENT 21 20 31 22 28 24 15 32 13 34 9 37 11 39
REMARK Flexibility Score: inf
ROOT
ATOM      1  O   UNL     1      14.700  -2.043  27.869  1.00  0.00    -0.454 OA
ENDROOT
BRANCH   1   2
ATOM      2  C   UNL     1      14.771  -3.270  27.197  1.00  0.00     0.214 A 
ATOM      3  C   UNL     1      15.965  -3.717  26.591  1.00  0.00     0.180 A 
ATOM      4  O   UNL     1      15.991  -4.892  25.969  1.00  0.00    -0.452 OA
ATOM      5  C   UNL     1      13.626  -4.067  27.100  1.00  0.00     0.239 A 
ATOM      6  C   UNL     1      14.930  -5.685  25.865  1.00  0.00     0.146 A 
ATOM      7  O   UNL     1      12.546  -3.655  27.604  1.00  0.00    -0.285 OA
ATOM      8  C   UNL     1      13.695  -5.314  26.447  1.00  0.00     0.111 A 
ATOM      9  C   UNL     1      15.041  -6.885  25.158  1.00  0.00     0.094 A 
ATOM     10  C   UNL     1      12.592  -6.196  26.343  1.00  0.00     0.134 A 
ATOM     11  C   UNL     1      13.944  -7.743  25.044  1.00  0.00     0.123 A 
ATOM     12  C   UNL     1      12.730  -7.406  25.651  1.00  0.00     0.093 A 
BRANCH   3  13
ATOM     13  C   UNL     1      17.200  -2.909  26.593  1.00  0.00     0.021 A 
ATOM     14  C   UNL     1      18.292  -3.258  27.404  1.00  0.00     0.016 A 
ATOM     15  C   UNL     1      19.451  -2.477  27.399  1.00  0.00     0.047 A 
ATOM     16  C   UNL     1      19.531  -1.341  26.585  1.00  0.00     0.115 A 
ATOM     17  C   UNL     1      17.275  -1.753  25.801  1.00  0.00     0.016 A 
ATOM     18  C   UNL     1      18.440  -0.979  25.790  1.00  0.00     0.047 A 
BRANCH  16  19
ATOM     19  O   UNL     1      20.688  -0.564  26.562  1.00  0.00    -0.508 OA
ATOM     20  H   UNL     1      20.662   0.427  26.785  1.00  0.00     0.293 HD
ENDBRANCH  16  19
ENDBRANCH   3  13
BRANCH  10  21
ATOM     21  O   UNL     1      11.361  -5.874  26.918  1.00  0.00    -0.507 OA
ATOM     22  H   UNL     1      11.295  -5.443  27.833  1.00  0.00     0.293 HD
ENDBRANCH  10  21
BRANCH  11  23
ATOM     23  O   UNL     1      14.073  -8.937  24.336  1.00  0.00    -0.508 OA
ATOM     24  H   UNL     1      13.370  -9.237  23.673  1.00  0.00     0.293 HD
ENDBRANCH  11  23
ENDBRANCH   1   2
BRANCH   1  25
ATOM     25  C   UNL     1      14.695  -0.781  27.202  1.00  0.00     0.339 C 
ATOM     26  C   UNL     1      14.722   0.376  28.229  1.00  0.00     0.214 C 
ATOM     27  O   UNL     1      13.531  -0.703  26.399  1.00  0.00    -0.332 OA
ATOM     28  C   UNL     1      14.151   1.683  27.616  1.00  0.00     0.180 C 
ATOM     29  C   UNL     1      13.566   0.405  25.499  1.00  0.00     0.179 C 
ATOM     30  C   UNL     1      14.276   1.668  26.078  1.00  0.00     0.177 C 
BRANCH  26  31
ATOM     31  O   UNL     1      13.969   0.027  29.362  1.00  0.00    -0.384 OA
ATOM     32  H   UNL     1      13.020   0.227  29.148  1.00  0.00     0.211 HD
ENDBRANCH  26  31
BRANCH  28  33
ATOM     33  O   UNL     1      14.779   2.813  28.168  1.00  0.00    -0.387 OA
ATOM     34  H   UNL     1      14.619   2.798  29.150  1.00  0.00     0.211 HD
ENDBRANCH  28  33
BRANCH  29  35
ATOM     35  C   UNL     1      14.167  -0.014  24.149  1.00  0.00     0.191 C 
BRANCH  35  36
ATOM     36  O   UNL     1      13.552   0.702  23.113  1.00  0.00    -0.394 OA
ATOM     37  H   UNL     1      14.286   1.079  22.562  1.00  0.00     0.210 HD
ENDBRANCH  35  36
ENDBRANCH  29  35
BRANCH  30  38
ATOM     38  O   UNL     1      13.752   2.844  25.511  1.00  0.00    -0.387 OA
ATOM     39  H   UNL     1      13.751   2.731  24.525  1.00  0.00     0.211 HD
ENDBRANCH  30  38
ENDBRANCH   1  25
TORSDOF 11
ENDMDL
MODEL 2
REMARK VINA RESULT:     9.911      0.823      2.044
REMARK INTER + INTRA:          13.503
REMARK INTER:                  11.186
REMARK INTRA:                   2.317
REMARK UNBOUND:                -0.754
REMARK SMILES O=c1c(O[C@H]2O[C@H](CO)[C@@H](O)[C@H](O)[C@H]2O)c(-c2ccc(O)cc2)oc2cc(O)cc(O)c12
REMARK SMILES IDX 4 1 3 2 16 3 24 4 2 5 25 6 1 7 32 8 26 9 30 10 27 11 29 12
REMARK SMILES IDX 17 13 18 14 19 15 20 16 23 17 22 18 21 19 31 21 28 23 5 25
REMARK SMILES IDX 14 26 6 27 12 28 7 29 10 30 15 31 13 33 8 35 9 36 11 38
REMARK H PARENT 21 20 31 22 28 24 15 32 13 34 9 37 11 39
REMARK Flexibility Score: inf
ROOT
ATOM      1  O   UNL     1      14.987  -2.174  28.019  1.00  0.00    -0.454 OA
ENDROOT
BRANCH   1   2
ATOM      2  C   UNL     1      14.987  -3.384  27.312  1.00  0.00     0.214 A 
ATOM      3  C   UNL     1      16.162  -3.899  26.722  1.00  0.00     0.180 A 
ATOM      4  O   UNL     1      16.120  -5.056  26.067  1.00  0.00    -0.452 OA
ATOM      5  C   UNL     1      13.791  -4.093  27.164  1.00  0.00     0.239 A 
ATOM      6  C   UNL     1      15.008  -5.767  25.913  1.00  0.00     0.146 A 
ATOM      7  O   UNL     1      12.731  -3.618  27.653  1.00  0.00    -0.285 OA
ATOM      8  C   UNL     1      13.788  -5.323  26.475  1.00  0.00     0.111 A 
ATOM      9  C   UNL     1      15.051  -6.951  25.173  1.00  0.00     0.094 A 
ATOM     10  C   UNL     1      12.627  -6.119  26.319  1.00  0.00     0.134 A 
ATOM     11  C   UNL     1      13.899  -7.723  25.008  1.00  0.00     0.123 A 
ATOM     12  C   UNL     1      12.696  -7.316  25.595  1.00  0.00     0.093 A 
BRANCH   3  13
ATOM     13  C   UNL     1      17.451  -3.183  26.779  1.00  0.00     0.021 A 
ATOM     14  C   UNL     1      18.463  -3.584  27.666  1.00  0.00     0.016 A 
ATOM     15  C   UNL     1      19.676  -2.890  27.711  1.00  0.00     0.047 A 
ATOM     16  C   UNL     1      19.889  -1.789  26.871  1.00  0.00     0.115 A 
ATOM     17  C   UNL     1      17.660  -2.063  25.960  1.00  0.00     0.016 A 
ATOM     18  C   UNL     1      18.877  -1.376  26.000  1.00  0.00     0.047 A 
BRANCH  16  19
ATOM     19  O   UNL     1      21.100  -1.099  26.898  1.00  0.00    -0.508 OA
ATOM     20  H   UNL     1      21.987  -1.593  26.940  1.00  0.00     0.293 HD
ENDBRANCH  16  19
ENDBRANCH   3  13
BRANCH  10  21
ATOM     21  O   UNL     1      11.408  -5.725  26.873  1.00  0.00    -0.507 OA
ATOM     22  H   UNL     1      10.921  -6.296  27.555  1.00  0.00     0.293 HD
ENDBRANCH  10  21
BRANCH  11  23
ATOM     23  O   UNL     1      13.960  -8.904  24.268  1.00  0.00    -0.508 OA
ATOM     24  H   UNL     1      14.285  -8.912  23.310  1.00  0.00     0.293 HD
ENDBRANCH  11  23
ENDBRANCH   1   2
BRANCH   1  25
ATOM     25  C   UNL     1      14.549  -0.937  27.457  1.00  0.00     0.339 C 
ATOM     26  C   UNL     1      14.123  -1.131  25.982  1.00  0.00     0.214 C 
ATOM     27  O   UNL     1      15.611  -0.004  27.547  1.00  0.00    -0.332 OA
ATOM     28  C   UNL     1      14.200   0.205  25.196  1.00  0.00     0.180 C 
ATOM     29  C   UNL     1      15.189   1.328  27.250  1.00  0.00     0.179 C 
ATOM     30  C   UNL     1      14.084   1.411  26.151  1.00  0.00     0.177 C 
BRANCH  26  31
ATOM     31  O   UNL     1      14.954  -2.082  25.366  1.00  0.00    -0.384 OA
ATOM     32  H   UNL     1      15.610  -2.376  26.052  1.00  0.00     0.211 HD
ENDBRANCH  26  31
BRANCH  28  33
ATOM     33  O   UNL     1      13.219   0.253  24.190  1.00  0.00    -0.387 OA
ATOM     34  H   UNL     1      13.374  -0.517  23.580  1.00  0.00     0.211 HD
ENDBRANCH  28  33
BRANCH  29  35
ATOM     35  C   UNL     1      14.767   2.060  28.533  1.00  0.00     0.191 C 
BRANCH  35  36
ATOM     36  O   UNL     1      13.914   3.124  28.213  1.00  0.00    -0.394 OA
ATOM     37  H   UNL     1      13.555   2.931  27.308  1.00  0.00     0.210 HD
ENDBRANCH  35  36
ENDBRANCH  29  35
BRANCH  30  38
ATOM     38  O   UNL     1      14.163   2.628  25.450  1.00  0.00    -0.387 OA
ATOM     39  H   UNL     1      14.465   2.427  24.526  1.00  0.00     0.211 HD
ENDBRANCH  30  38
ENDBRANCH   1  25
TORSDOF 11
ENDMDL
