MODEL 1
REMARK VINA RESULT:    -4.156      0.000      0.000
REMARK INTER + INTRA:          -4.565
REMARK INTER:                  -4.520
REMARK INTRA:                  -0.045
REMARK UNBOUND:                -0.045
REMARK SMILES COc1cc2ccc(=O)oc2cc1O
REMARK SMILES IDX 3 1 13 2 12 3 11 4 5 5 4 6 6 7 7 8 8 9 9 10 10 11 2 12 1 13
REMARK SMILES IDX 14 14
REMARK H PARENT 14 15
REMARK Flexibility Score: inf
ROOT
ATOM      1  C   UNL     1      11.344  42.039 153.406  1.00  0.00     0.161 A 
ATOM      2  C   UNL     1      10.082  41.538 153.763  1.00  0.00     0.161 A 
ATOM      3  C   UNL     1       9.519  40.468 153.053  1.00  0.00     0.098 A 
ATOM      4  C   UNL     1      10.209  39.891 151.984  1.00  0.00     0.142 A 
ATOM      5  C   UNL     1      11.478  40.388 151.619  1.00  0.00     0.022 A 
ATOM      6  C   UNL     1      12.042  41.457 152.329  1.00  0.00     0.062 A 
ATOM      7  C   UNL     1      12.145  39.790 150.545  1.00  0.00     0.019 A 
ATOM      8  C   UNL     1      11.542  38.728 149.871  1.00  0.00     0.094 A 
ATOM      9  C   UNL     1      10.281  38.288 150.289  1.00  0.00     0.336 A 
ATOM     10  O   UNL     1       9.720  37.332 149.694  1.00  0.00    -0.246 OA
ATOM     11  O   UNL     1       9.669  38.876 151.314  1.00  0.00    -0.423 OA
ENDROOT
BRANCH   1  12
ATOM     12  O   UNL     1      11.869  43.111 154.146  1.00  0.00    -0.493 OA
ATOM     13  C   UNL     1      13.077  43.795 153.827  1.00  0.00     0.278 C 
ENDBRANCH   1  12
BRANCH   2  14
ATOM     14  O   UNL     1       9.391  42.112 154.828  1.00  0.00    -0.504 OA
ATOM     15  H   UNL     1       9.270  41.623 155.708  1.00  0.00     0.293 HD
ENDBRANCH   2  14
TORSDOF 2
ENDMDL
MODEL 2
REMARK VINA RESULT:    -4.109     13.669     14.176
REMARK INTER + INTRA:          -4.515
REMARK INTER:                  -4.463
REMARK INTRA:                  -0.052
REMARK UNBOUND:                -0.045
REMARK SMILES COc1cc2ccc(=O)oc2cc1O
REMARK SMILES IDX 3 1 13 2 12 3 11 4 5 5 4 6 6 7 7 8 8 9 9 10 10 11 2 12 1 13
REMARK SMILES IDX 14 14
REMARK H PARENT 14 15
REMARK Flexibility Score: inf
ROOT
ATOM      1  C   UNL     1       8.409  38.805 138.469  1.00  0.00     0.161 A 
ATOM      2  C   UNL     1       9.639  39.461 138.298  1.00  0.00     0.161 A 
ATOM      3  C   UNL     1      10.840  38.797 138.587  1.00  0.00     0.098 A 
ATOM      4  C   UNL     1      10.823  37.478 139.046  1.00  0.00     0.142 A 
ATOM      5  C   UNL     1       9.592  36.812 139.220  1.00  0.00     0.022 A 
ATOM      6  C   UNL     1       8.390  37.474 138.932  1.00  0.00     0.062 A 
ATOM      7  C   UNL     1       9.607  35.492 139.682  1.00  0.00     0.019 A 
ATOM      8  C   UNL     1      10.828  34.876 139.955  1.00  0.00     0.094 A 
ATOM      9  C   UNL     1      12.010  35.599 139.759  1.00  0.00     0.336 A 
ATOM     10  O   UNL     1      13.122  35.061 140.000  1.00  0.00    -0.246 OA
ATOM     11  O   UNL     1      11.967  36.854 139.319  1.00  0.00    -0.423 OA
ENDROOT
BRANCH   1  12
ATOM     12  O   UNL     1       7.232  39.508 138.166  1.00  0.00    -0.493 OA
ATOM     13  C   UNL     1       6.123  38.959 137.461  1.00  0.00     0.278 C 
ENDBRANCH   1  12
BRANCH   2  14
ATOM     14  O   UNL     1       9.659  40.776 137.840  1.00  0.00    -0.504 OA
ATOM     15  H   UNL     1       9.102  41.500 138.278  1.00  0.00     0.293 HD
ENDBRANCH   2  14
TORSDOF 2
ENDMDL
MODEL 3
REMARK VINA RESULT:    -4.091      1.283      4.788
REMARK INTER + INTRA:          -4.495
REMARK INTER:                  -4.438
REMARK INTRA:                  -0.057
REMARK UNBOUND:                -0.045
REMARK SMILES COc1cc2ccc(=O)oc2cc1O
REMARK SMILES IDX 3 1 13 2 12 3 11 4 5 5 4 6 6 7 7 8 8 9 9 10 10 11 2 12 1 13
REMARK SMILES IDX 14 14
REMARK H PARENT 14 15
REMARK Flexibility Score: inf
ROOT
ATOM      1  C   UNL     1      11.486  39.781 150.722  1.00  0.00     0.161 A 
ATOM      2  C   UNL     1      10.224  39.319 151.129  1.00  0.00     0.161 A 
ATOM      3  C   UNL     1       9.593  39.880 152.248  1.00  0.00     0.098 A 
ATOM      4  C   UNL     1      10.213  40.903 152.968  1.00  0.00     0.142 A 
ATOM      5  C   UNL     1      11.481  41.374 152.566  1.00  0.00     0.022 A 
ATOM      6  C   UNL     1      12.113  40.814 151.447  1.00  0.00     0.062 A 
ATOM      7  C   UNL     1      12.077  42.400 153.307  1.00  0.00     0.019 A 
ATOM      8  C   UNL     1      11.408  42.924 154.412  1.00  0.00     0.094 A 
ATOM      9  C   UNL     1      10.152  42.407 154.752  1.00  0.00     0.336 A 
ATOM     10  O   UNL     1       9.532  42.867 155.746  1.00  0.00    -0.246 OA
ATOM     11  O   UNL     1       9.608  41.431 154.030  1.00  0.00    -0.423 OA
ENDROOT
BRANCH   1  12
ATOM     12  O   UNL     1      12.081  39.191 149.596  1.00  0.00    -0.493 OA
ATOM     13  C   UNL     1      13.020  38.121 149.647  1.00  0.00     0.278 C 
ENDBRANCH   1  12
BRANCH   2  14
ATOM     14  O   UNL     1       9.603  38.298 150.413  1.00  0.00    -0.504 OA
ATOM     15  H   UNL     1       8.939  37.671 150.851  1.00  0.00     0.293 HD
ENDBRANCH   2  14
TORSDOF 2
ENDMDL
MODEL 4
REMARK VINA RESULT:    -4.061      1.855      2.806
REMARK INTER + INTRA:          -4.462
REMARK INTER:                  -4.415
REMARK INTRA:                  -0.047
REMARK UNBOUND:                -0.045
REMARK SMILES COc1cc2ccc(=O)oc2cc1O
REMARK SMILES IDX 3 1 13 2 12 3 11 4 5 5 4 6 6 7 7 8 8 9 9 10 10 11 2 12 1 13
REMARK SMILES IDX 14 14
REMARK H PARENT 14 15
REMARK Flexibility Score: inf
ROOT
ATOM      1  C   UNL     1      10.797  42.795 154.024  1.00  0.00     0.161 A 
ATOM      2  C   UNL     1      11.790  43.471 153.297  1.00  0.00     0.161 A 
ATOM      3  C   UNL     1      12.315  42.906 152.125  1.00  0.00     0.098 A 
ATOM      4  C   UNL     1      11.856  41.668 151.672  1.00  0.00     0.142 A 
ATOM      5  C   UNL     1      10.858  40.982 152.397  1.00  0.00     0.022 A 
ATOM      6  C   UNL     1      10.332  41.545 153.568  1.00  0.00     0.062 A 
ATOM      7  C   UNL     1      10.418  39.744 151.918  1.00  0.00     0.019 A 
ATOM      8  C   UNL     1      10.973  39.226 150.748  1.00  0.00     0.094 A 
ATOM      9  C   UNL     1      11.959  39.962 150.081  1.00  0.00     0.336 A 
ATOM     10  O   UNL     1      12.472  39.513 149.024  1.00  0.00    -0.246 OA
ATOM     11  O   UNL     1      12.359  41.138 150.559  1.00  0.00    -0.423 OA
ENDROOT
BRANCH   1  12
ATOM     12  O   UNL     1      10.300  43.397 155.191  1.00  0.00    -0.493 OA
ATOM     13  C   UNL     1       9.752  42.684 156.296  1.00  0.00     0.278 C 
ENDBRANCH   1  12
BRANCH   2  14
ATOM     14  O   UNL     1      12.251  44.706 153.746  1.00  0.00    -0.504 OA
ATOM     15  H   UNL     1      11.735  45.561 153.570  1.00  0.00     0.293 HD
ENDBRANCH   2  14
TORSDOF 2
ENDMDL
MODEL 5
REMARK VINA RESULT:    -3.919     13.616     14.194
REMARK INTER + INTRA:          -4.307
REMARK INTER:                  -4.245
REMARK INTRA:                  -0.062
REMARK UNBOUND:                -0.045
REMARK SMILES COc1cc2ccc(=O)oc2cc1O
REMARK SMILES IDX 3 1 13 2 12 3 11 4 5 5 4 6 6 7 7 8 8 9 9 10 10 11 2 12 1 13
REMARK SMILES IDX 14 14
REMARK H PARENT 14 15
REMARK Flexibility Score: inf
ROOT
ATOM      1  C   UNL     1      11.131  36.577 138.866  1.00  0.00     0.161 A 
ATOM      2  C   UNL     1       9.773  36.234 138.973  1.00  0.00     0.161 A 
ATOM      3  C   UNL     1       8.789  37.232 138.962  1.00  0.00     0.098 A 
ATOM      4  C   UNL     1       9.149  38.576 138.844  1.00  0.00     0.142 A 
ATOM      5  C   UNL     1      10.511  38.930 138.735  1.00  0.00     0.022 A 
ATOM      6  C   UNL     1      11.496  37.933 138.746  1.00  0.00     0.062 A 
ATOM      7  C   UNL     1      10.841  40.284 138.618  1.00  0.00     0.019 A 
ATOM      8  C   UNL     1       9.825  41.238 138.613  1.00  0.00     0.094 A 
ATOM      9  C   UNL     1       8.495  40.814 138.725  1.00  0.00     0.336 A 
ATOM     10  O   UNL     1       7.564  41.659 138.722  1.00  0.00    -0.246 OA
ATOM     11  O   UNL     1       8.209  39.519 138.835  1.00  0.00    -0.423 OA
ENDROOT
BRANCH   1  12
ATOM     12  O   UNL     1      12.082  35.544 138.880  1.00  0.00    -0.493 OA
ATOM     13  C   UNL     1      12.819  35.144 140.032  1.00  0.00     0.278 C 
ENDBRANCH   1  12
BRANCH   2  14
ATOM     14  O   UNL     1       9.410  34.894 139.092  1.00  0.00    -0.504 OA
ATOM     15  H   UNL     1       8.652  34.601 139.697  1.00  0.00     0.293 HD
ENDBRANCH   2  14
TORSDOF 2
ENDMDL
MODEL 6
REMARK VINA RESULT:    -3.839      1.428      5.384
REMARK INTER + INTRA:          -4.221
REMARK INTER:                  -4.157
REMARK INTRA:                  -0.064
REMARK UNBOUND:                -0.045
REMARK SMILES COc1cc2ccc(=O)oc2cc1O
REMARK SMILES IDX 3 1 13 2 12 3 11 4 5 5 4 6 6 7 7 8 8 9 9 10 10 11 2 12 1 13
REMARK SMILES IDX 14 14
REMARK H PARENT 14 15
REMARK Flexibility Score: inf
ROOT
ATOM      1  C   UNL     1      10.327  39.277 150.908  1.00  0.00     0.161 A 
ATOM      2  C   UNL     1      11.416  39.823 150.210  1.00  0.00     0.161 A 
ATOM      3  C   UNL     1      12.116  40.919 150.735  1.00  0.00     0.098 A 
ATOM      4  C   UNL     1      11.736  41.477 151.958  1.00  0.00     0.142 A 
ATOM      5  C   UNL     1      10.643  40.934 152.667  1.00  0.00     0.022 A 
ATOM      6  C   UNL     1       9.943  39.838 152.143  1.00  0.00     0.062 A 
ATOM      7  C   UNL     1      10.287  41.514 153.889  1.00  0.00     0.019 A 
ATOM      8  C   UNL     1      11.015  42.603 154.368  1.00  0.00     0.094 A 
ATOM      9  C   UNL     1      12.087  43.088 153.610  1.00  0.00     0.336 A 
ATOM     10  O   UNL     1      12.757  44.069 154.026  1.00  0.00    -0.246 OA
ATOM     11  O   UNL     1      12.405  42.517 152.451  1.00  0.00    -0.423 OA
ENDROOT
BRANCH   1  12
ATOM     12  O   UNL     1       9.656  38.180 150.345  1.00  0.00    -0.493 OA
ATOM     13  C   UNL     1       8.426  38.267 149.632  1.00  0.00     0.278 C 
ENDBRANCH   1  12
BRANCH   2  14
ATOM     14  O   UNL     1      11.797  39.269 148.990  1.00  0.00    -0.504 OA
ATOM     15  H   UNL     1      12.254  38.366 148.936  1.00  0.00     0.293 HD
ENDBRANCH   2  14
TORSDOF 2
ENDMDL
MODEL 7
REMARK VINA RESULT:    -3.813     18.992     20.377
REMARK INTER + INTRA:          -4.192
REMARK INTER:                  -4.131
REMARK INTRA:                  -0.062
REMARK UNBOUND:                -0.045
REMARK SMILES COc1cc2ccc(=O)oc2cc1O
REMARK SMILES IDX 3 1 13 2 12 3 11 4 5 5 4 6 6 7 7 8 8 9 9 10 10 11 2 12 1 13
REMARK SMILES IDX 14 14
REMARK H PARENT 14 15
REMARK Flexibility Score: inf
ROOT
ATOM      1  C   UNL     1      -6.606  40.224 143.236  1.00  0.00     0.161 A 
ATOM      2  C   UNL     1      -5.591  39.529 142.559  1.00  0.00     0.161 A 
ATOM      3  C   UNL     1      -5.097  40.012 141.339  1.00  0.00     0.098 A 
ATOM      4  C   UNL     1      -5.608  41.189 140.787  1.00  0.00     0.142 A 
ATOM      5  C   UNL     1      -6.628  41.894 141.461  1.00  0.00     0.022 A 
ATOM      6  C   UNL     1      -7.123  41.411 142.681  1.00  0.00     0.062 A 
ATOM      7  C   UNL     1      -7.121  43.068 140.884  1.00  0.00     0.019 A 
ATOM      8  C   UNL     1      -6.595  43.506 139.669  1.00  0.00     0.094 A 
ATOM      9  C   UNL     1      -5.584  42.756 139.057  1.00  0.00     0.336 A 
ATOM     10  O   UNL     1      -5.097  43.135 137.961  1.00  0.00    -0.246 OA
ATOM     11  O   UNL     1      -5.134  41.642 139.629  1.00  0.00    -0.423 OA
ENDROOT
BRANCH   1  12
ATOM     12  O   UNL     1      -7.071  39.704 144.455  1.00  0.00    -0.493 OA
ATOM     13  C   UNL     1      -6.943  40.360 145.712  1.00  0.00     0.278 C 
ENDBRANCH   1  12
BRANCH   2  14
ATOM     14  O   UNL     1      -5.079  38.355 143.107  1.00  0.00    -0.504 OA
ATOM     15  H   UNL     1      -5.643  37.518 143.191  1.00  0.00     0.293 HD
ENDBRANCH   2  14
TORSDOF 2
ENDMDL
MODEL 8
REMARK VINA RESULT:    -3.795      1.520      2.129
REMARK INTER + INTRA:          -4.173
REMARK INTER:                  -4.118
REMARK INTRA:                  -0.055
REMARK UNBOUND:                -0.045
REMARK SMILES COc1cc2ccc(=O)oc2cc1O
REMARK SMILES IDX 3 1 13 2 12 3 11 4 5 5 4 6 6 7 7 8 8 9 9 10 10 11 2 12 1 13
REMARK SMILES IDX 14 14
REMARK H PARENT 14 15
REMARK Flexibility Score: inf
ROOT
ATOM      1  C   UNL     1       9.281  42.306 154.147  1.00  0.00     0.161 A 
ATOM      2  C   UNL     1       8.157  41.582 153.717  1.00  0.00     0.161 A 
ATOM      3  C   UNL     1       8.290  40.583 152.743  1.00  0.00     0.098 A 
ATOM      4  C   UNL     1       9.542  40.298 152.191  1.00  0.00     0.142 A 
ATOM      5  C   UNL     1      10.676  41.021 152.618  1.00  0.00     0.022 A 
ATOM      6  C   UNL     1      10.544  42.020 153.593  1.00  0.00     0.062 A 
ATOM      7  C   UNL     1      11.916  40.714 152.048  1.00  0.00     0.019 A 
ATOM      8  C   UNL     1      11.995  39.711 151.082  1.00  0.00     0.094 A 
ATOM      9  C   UNL     1      10.827  39.036 150.707  1.00  0.00     0.336 A 
ATOM     10  O   UNL     1      10.878  38.128 149.838  1.00  0.00    -0.246 OA
ATOM     11  O   UNL     1       9.661  39.349 151.266  1.00  0.00    -0.423 OA
ENDROOT
BRANCH   1  12
ATOM     12  O   UNL     1       9.101  43.297 155.125  1.00  0.00    -0.493 OA
ATOM     13  C   UNL     1       9.283  43.092 156.523  1.00  0.00     0.278 C 
ENDBRANCH   1  12
BRANCH   2  14
ATOM     14  O   UNL     1       6.908  41.864 154.265  1.00  0.00    -0.504 OA
ATOM     15  H   UNL     1       6.063  41.833 153.706  1.00  0.00     0.293 HD
ENDBRANCH   2  14
TORSDOF 2
ENDMDL
MODEL 9
REMARK VINA RESULT:    -3.612      1.872      3.351
REMARK INTER + INTRA:          -3.974
REMARK INTER:                  -3.926
REMARK INTRA:                  -0.048
REMARK UNBOUND:                -0.045
REMARK SMILES COc1cc2ccc(=O)oc2cc1O
REMARK SMILES IDX 3 1 13 2 12 3 11 4 5 5 4 6 6 7 7 8 8 9 9 10 10 11 2 12 1 13
REMARK SMILES IDX 14 14
REMARK H PARENT 14 15
REMARK Flexibility Score: inf
ROOT
ATOM      1  C   UNL     1       8.053  40.987 153.183  1.00  0.00     0.161 A 
ATOM      2  C   UNL     1       9.296  41.345 153.729  1.00  0.00     0.161 A 
ATOM      3  C   UNL     1      10.484  40.893 153.137  1.00  0.00     0.098 A 
ATOM      4  C   UNL     1      10.442  40.084 151.999  1.00  0.00     0.142 A 
ATOM      5  C   UNL     1       9.196  39.720 151.443  1.00  0.00     0.022 A 
ATOM      6  C   UNL     1       8.008  40.171 152.034  1.00  0.00     0.062 A 
ATOM      7  C   UNL     1       9.185  38.910 150.304  1.00  0.00     0.019 A 
ATOM      8  C   UNL     1      10.395  38.487 149.753  1.00  0.00     0.094 A 
ATOM      9  C   UNL     1      11.592  38.887 150.358  1.00  0.00     0.336 A 
ATOM     10  O   UNL     1      12.694  38.516 149.876  1.00  0.00    -0.246 OA
ATOM     11  O   UNL     1      11.573  39.659 151.442  1.00  0.00    -0.423 OA
ENDROOT
BRANCH   1  12
ATOM     12  O   UNL     1       6.889  41.462 153.808  1.00  0.00    -0.493 OA
ATOM     13  C   UNL     1       5.644  40.770 153.828  1.00  0.00     0.278 C 
ENDBRANCH   1  12
BRANCH   2  14
ATOM     14  O   UNL     1       9.342  42.151 154.864  1.00  0.00    -0.504 OA
ATOM     15  H   UNL     1       9.011  41.821 155.763  1.00  0.00     0.293 HD
ENDBRANCH   2  14
TORSDOF 2
ENDMDL
