MODEL 1
REMARK VINA RESULT:    -7.245      0.000      0.000
REMARK INTER + INTRA:         -10.371
REMARK INTER:                  -9.574
REMARK INTRA:                  -0.797
REMARK UNBOUND:                -0.797
REMARK SMILES CC[C@@H](C=C[C@@H](C)[C@@H]1CC[C@H]2[C@H]3CC=C4C[C@H](O)CC[C@]4(C)[C@H]3CC[C@]21C)C(C)C
REMARK SMILES IDX 6 1 7 2 5 3 4 4 3 5 2 6 1 7 28 8 29 9 30 10 8 11 9 12 26 13
REMARK SMILES IDX 10 14 11 15 25 16 27 17 12 18 24 19 23 20 13 21 21 22 14 23
REMARK SMILES IDX 15 24 20 25 22 26 16 27 19 28 17 29 18 30
REMARK H PARENT 18 31
REMARK Flexibility Score: inf
ROOT
ATOM      1  C   UNL     1     174.405 169.947 172.103  1.00  0.00     0.012 C 
ATOM      2  C   UNL     1     173.613 170.235 173.396  1.00  0.00     0.012 C 
ENDROOT
BRANCH   1   3
ATOM      3  C   UNL     1     175.815 170.500 172.170  1.00  0.00    -0.028 C 
ATOM      4  C   UNL     1     176.062 171.819 172.109  1.00  0.00    -0.027 C 
BRANCH   4   5
ATOM      5  C   UNL     1     177.477 172.362 172.165  1.00  0.00     0.014 C 
BRANCH   5   6
ATOM      6  C   UNL     1     178.484 171.310 171.633  1.00  0.00     0.004 C 
ATOM      7  C   UNL     1     179.881 171.899 171.424  1.00  0.00     0.004 C 
ENDBRANCH   5   6
BRANCH   5   8
ATOM      8  C   UNL     1     177.816 172.860 173.607  1.00  0.00    -0.011 C 
ATOM      9  C   UNL     1     176.607 173.466 174.338  1.00  0.00     0.008 C 
ATOM     10  C   UNL     1     178.470 171.765 174.464  1.00  0.00     0.008 C 
ENDBRANCH   5   8
ENDBRANCH   4   5
ENDBRANCH   1   3
BRANCH   1  11
ATOM     11  C   UNL     1     173.622 170.342 170.803  1.00  0.00     0.002 C 
ATOM     12  C   UNL     1     172.120 170.010 170.939  1.00  0.00     0.005 C 
ATOM     13  C   UNL     1     174.063 169.780 169.394  1.00  0.00    -0.026 C 
ATOM     14  C   UNL     1     171.692 169.320 169.652  1.00  0.00     0.005 C 
ATOM     15  C   UNL     1     172.972 168.755 169.033  1.00  0.00    -0.001 C 
ATOM     16  C   UNL     1     174.003 170.956 168.381  1.00  0.00     0.007 C 
ATOM     17  C   UNL     1     175.467 169.125 169.355  1.00  0.00     0.012 C 
ATOM     18  C   UNL     1     172.908 168.327 167.522  1.00  0.00     0.000 C 
ATOM     19  C   UNL     1     174.225 170.536 166.933  1.00  0.00     0.005 C 
ATOM     20  C   UNL     1     173.291 169.398 166.430  1.00  0.00     0.003 C 
ATOM     21  C   UNL     1     171.613 167.544 167.196  1.00  0.00     0.031 C 
ATOM     22  C   UNL     1     172.128 169.826 165.443  1.00  0.00    -0.008 C 
ATOM     23  C   UNL     1     171.306 167.475 165.731  1.00  0.00    -0.027 C 
ATOM     24  C   UNL     1     171.454 168.543 164.922  1.00  0.00    -0.065 C 
ATOM     25  C   UNL     1     172.743 170.638 164.246  1.00  0.00     0.014 C 
ATOM     26  C   UNL     1     171.067 170.703 166.141  1.00  0.00     0.016 C 
ATOM     27  C   UNL     1     170.745 168.514 163.583  1.00  0.00     0.063 C 
ATOM     28  C   UNL     1     171.877 170.684 162.982  1.00  0.00     0.033 C 
ATOM     29  C   UNL     1     171.500 169.284 162.495  1.00  0.00     0.118 C 
BRANCH  29  30
ATOM     30  O   UNL     1     172.628 168.578 162.032  1.00  0.00    -0.393 OA
ATOM     31  H   UNL     1     173.420 168.869 162.553  1.00  0.00     0.210 HD
ENDBRANCH  29  30
ENDBRANCH   1  11
TORSDOF 6
ENDMDL
MODEL 2
REMARK VINA RESULT:    -7.125      3.732      8.651
REMARK INTER + INTRA:         -10.213
REMARK INTER:                  -8.755
REMARK INTRA:                  -1.457
REMARK UNBOUND:                -0.797
REMARK SMILES CC[C@@H](C=C[C@@H](C)[C@@H]1CC[C@H]2[C@H]3CC=C4C[C@H](O)CC[C@]4(C)[C@H]3CC[C@]21C)C(C)C
REMARK SMILES IDX 6 1 7 2 5 3 4 4 3 5 2 6 1 7 28 8 29 9 30 10 8 11 9 12 26 13
REMARK SMILES IDX 10 14 11 15 25 16 27 17 12 18 24 19 23 20 13 21 21 22 14 23
REMARK SMILES IDX 15 24 20 25 22 26 16 27 19 28 17 29 18 30
REMARK H PARENT 18 31
REMARK Flexibility Score: inf
ROOT
ATOM      1  C   UNL     1     170.762 167.825 169.699  1.00  0.00     0.012 C 
ATOM      2  C   UNL     1     170.810 167.413 168.213  1.00  0.00     0.012 C 
ENDROOT
BRANCH   1   3
ATOM      3  C   UNL     1     169.338 167.981 170.196  1.00  0.00    -0.028 C 
ATOM      4  C   UNL     1     169.006 168.900 171.118  1.00  0.00    -0.027 C 
BRANCH   4   5
ATOM      5  C   UNL     1     167.581 169.042 171.617  1.00  0.00     0.014 C 
BRANCH   5   6
ATOM      6  C   UNL     1     166.578 168.885 170.446  1.00  0.00     0.004 C 
ATOM      7  C   UNL     1     166.231 170.227 169.796  1.00  0.00     0.004 C 
ENDBRANCH   5   6
BRANCH   5   8
ATOM      8  C   UNL     1     167.405 170.383 172.398  1.00  0.00    -0.011 C 
ATOM      9  C   UNL     1     166.382 170.289 173.543  1.00  0.00     0.008 C 
ATOM     10  C   UNL     1     168.741 170.937 172.916  1.00  0.00     0.008 C 
ENDBRANCH   5   8
ENDBRANCH   4   5
ENDBRANCH   1   3
BRANCH   1  11
ATOM     11  C   UNL     1     171.693 169.042 170.029  1.00  0.00     0.002 C 
ATOM     12  C   UNL     1     172.450 169.518 168.770  1.00  0.00     0.005 C 
ATOM     13  C   UNL     1     172.778 168.940 171.172  1.00  0.00    -0.026 C 
ATOM     14  C   UNL     1     173.904 169.723 169.167  1.00  0.00     0.005 C 
ATOM     15  C   UNL     1     174.121 168.871 170.420  1.00  0.00    -0.001 C 
ATOM     16  C   UNL     1     172.727 170.261 171.988  1.00  0.00     0.007 C 
ATOM     17  C   UNL     1     172.622 167.728 172.125  1.00  0.00     0.012 C 
ATOM     18  C   UNL     1     175.403 169.174 171.277  1.00  0.00     0.000 C 
ATOM     19  C   UNL     1     173.841 170.395 173.018  1.00  0.00     0.005 C 
ATOM     20  C   UNL     1     175.280 170.216 172.454  1.00  0.00     0.003 C 
ATOM     21  C   UNL     1     176.656 169.381 170.393  1.00  0.00     0.031 C 
ATOM     22  C   UNL     1     176.149 171.532 172.305  1.00  0.00    -0.008 C 
ATOM     23  C   UNL     1     177.786 170.064 171.103  1.00  0.00    -0.027 C 
ATOM     24  C   UNL     1     177.579 171.115 171.921  1.00  0.00    -0.065 C 
ATOM     25  C   UNL     1     176.159 172.299 173.677  1.00  0.00     0.014 C 
ATOM     26  C   UNL     1     175.591 172.475 171.218  1.00  0.00     0.016 C 
ATOM     27  C   UNL     1     178.772 171.987 172.259  1.00  0.00     0.063 C 
ATOM     28  C   UNL     1     177.321 173.281 173.862  1.00  0.00     0.033 C 
ATOM     29  C   UNL     1     178.678 172.606 173.656  1.00  0.00     0.118 C 
BRANCH  29  30
ATOM     30  O   UNL     1     178.946 171.665 174.671  1.00  0.00    -0.393 OA
ATOM     31  H   UNL     1     179.777 171.935 175.141  1.00  0.00     0.210 HD
ENDBRANCH  29  30
ENDBRANCH   1  11
TORSDOF 6
ENDMDL
MODEL 3
REMARK VINA RESULT:    -7.047      4.570      6.144
REMARK INTER + INTRA:         -10.110
REMARK INTER:                  -9.245
REMARK INTRA:                  -0.864
REMARK UNBOUND:                -0.797
REMARK SMILES CC[C@@H](C=C[C@@H](C)[C@@H]1CC[C@H]2[C@H]3CC=C4C[C@H](O)CC[C@]4(C)[C@H]3CC[C@]21C)C(C)C
REMARK SMILES IDX 6 1 7 2 5 3 4 4 3 5 2 6 1 7 28 8 29 9 30 10 8 11 9 12 26 13
REMARK SMILES IDX 10 14 11 15 25 16 27 17 12 18 24 19 23 20 13 21 21 22 14 23
REMARK SMILES IDX 15 24 20 25 22 26 16 27 19 28 17 29 18 30
REMARK H PARENT 18 31
REMARK Flexibility Score: inf
ROOT
ATOM      1  C   UNL     1     175.208 168.950 172.455  1.00  0.00     0.012 C 
ATOM      2  C   UNL     1     176.095 167.972 173.254  1.00  0.00     0.012 C 
ENDROOT
BRANCH   1   3
ATOM      3  C   UNL     1     175.896 170.282 172.230  1.00  0.00    -0.028 C 
ATOM      4  C   UNL     1     176.247 171.080 173.252  1.00  0.00    -0.027 C 
BRANCH   4   5
ATOM      5  C   UNL     1     176.925 172.416 173.017  1.00  0.00     0.014 C 
BRANCH   5   6
ATOM      6  C   UNL     1     176.691 172.893 171.560  1.00  0.00     0.004 C 
ATOM      7  C   UNL     1     177.010 174.379 171.379  1.00  0.00     0.004 C 
ENDBRANCH   5   6
BRANCH   5   8
ATOM      8  C   UNL     1     178.437 172.337 173.400  1.00  0.00    -0.011 C 
ATOM      9  C   UNL     1     178.706 171.452 174.628  1.00  0.00     0.008 C 
ATOM     10  C   UNL     1     179.318 171.901 172.219  1.00  0.00     0.008 C 
ENDBRANCH   5   8
ENDBRANCH   4   5
ENDBRANCH   1   3
BRANCH   1  11
ATOM     11  C   UNL     1     173.755 169.068 173.031  1.00  0.00     0.002 C 
ATOM     12  C   UNL     1     173.259 167.708 173.570  1.00  0.00     0.005 C 
ATOM     13  C   UNL     1     172.579 169.635 172.142  1.00  0.00    -0.026 C 
ATOM     14  C   UNL     1     171.843 167.505 173.052  1.00  0.00     0.005 C 
ATOM     15  C   UNL     1     171.716 168.400 171.817  1.00  0.00    -0.001 C 
ATOM     16  C   UNL     1     171.749 170.608 173.024  1.00  0.00     0.007 C 
ATOM     17  C   UNL     1     173.021 170.353 170.842  1.00  0.00     0.012 C 
ATOM     18  C   UNL     1     170.264 168.698 171.295  1.00  0.00     0.000 C 
ATOM     19  C   UNL     1     170.467 171.100 172.365  1.00  0.00     0.005 C 
ATOM     20  C   UNL     1     169.525 169.977 171.843  1.00  0.00     0.003 C 
ATOM     21  C   UNL     1     169.381 167.427 171.285  1.00  0.00     0.031 C 
ATOM     22  C   UNL     1     168.213 169.708 172.690  1.00  0.00    -0.008 C 
ATOM     23  C   UNL     1     167.913 167.717 171.198  1.00  0.00    -0.027 C 
ATOM     24  C   UNL     1     167.341 168.710 171.907  1.00  0.00    -0.065 C 
ATOM     25  C   UNL     1     167.441 171.063 172.885  1.00  0.00     0.014 C 
ATOM     26  C   UNL     1     168.530 169.117 174.079  1.00  0.00     0.016 C 
ATOM     27  C   UNL     1     165.836 168.672 172.083  1.00  0.00     0.063 C 
ATOM     28  C   UNL     1     165.952 170.919 173.218  1.00  0.00     0.033 C 
ATOM     29  C   UNL     1     165.215 170.068 172.183  1.00  0.00     0.118 C 
BRANCH  29  30
ATOM     30  O   UNL     1     165.157 170.713 170.932  1.00  0.00    -0.393 OA
ATOM     31  H   UNL     1     166.043 170.635 170.494  1.00  0.00     0.210 HD
ENDBRANCH  29  30
ENDBRANCH   1  11
TORSDOF 6
ENDMDL
MODEL 4
REMARK VINA RESULT:    -6.978      5.706      8.523
REMARK INTER + INTRA:         -10.018
REMARK INTER:                  -8.626
REMARK INTRA:                  -1.393
REMARK UNBOUND:                -0.797
REMARK SMILES CC[C@@H](C=C[C@@H](C)[C@@H]1CC[C@H]2[C@H]3CC=C4C[C@H](O)CC[C@]4(C)[C@H]3CC[C@]21C)C(C)C
REMARK SMILES IDX 6 1 7 2 5 3 4 4 3 5 2 6 1 7 28 8 29 9 30 10 8 11 9 12 26 13
REMARK SMILES IDX 10 14 11 15 25 16 27 17 12 18 24 19 23 20 13 21 21 22 14 23
REMARK SMILES IDX 15 24 20 25 22 26 16 27 19 28 17 29 18 30
REMARK H PARENT 18 31
REMARK Flexibility Score: inf
ROOT
ATOM      1  C   UNL     1     175.950 168.584 170.729  1.00  0.00     0.012 C 
ATOM      2  C   UNL     1     176.727 168.184 169.456  1.00  0.00     0.012 C 
ENDROOT
BRANCH   1   3
ATOM      3  C   UNL     1     176.438 169.902 171.297  1.00  0.00    -0.028 C 
ATOM      4  C   UNL     1     176.623 170.080 172.616  1.00  0.00    -0.027 C 
BRANCH   4   5
ATOM      5  C   UNL     1     177.100 171.406 173.176  1.00  0.00     0.014 C 
BRANCH   5   6
ATOM      6  C   UNL     1     175.909 172.208 173.760  1.00  0.00     0.004 C 
ATOM      7  C   UNL     1     174.654 171.345 173.922  1.00  0.00     0.004 C 
ENDBRANCH   5   6
BRANCH   5   8
ATOM      8  C   UNL     1     177.902 172.200 172.096  1.00  0.00    -0.011 C 
ATOM      9  C   UNL     1     177.476 173.673 171.985  1.00  0.00     0.008 C 
ATOM     10  C   UNL     1     179.422 172.094 172.302  1.00  0.00     0.008 C 
ENDBRANCH   5   8
ENDBRANCH   4   5
ENDBRANCH   1   3
BRANCH   1  11
ATOM     11  C   UNL     1     175.861 167.425 171.781  1.00  0.00     0.002 C 
ATOM     12  C   UNL     1     176.320 166.084 171.169  1.00  0.00     0.005 C 
ATOM     13  C   UNL     1     174.504 167.117 172.528  1.00  0.00    -0.026 C 
ATOM     14  C   UNL     1     175.299 165.030 171.572  1.00  0.00     0.005 C 
ATOM     15  C   UNL     1     174.016 165.795 171.906  1.00  0.00    -0.001 C 
ATOM     16  C   UNL     1     174.837 166.874 174.026  1.00  0.00     0.007 C 
ATOM     17  C   UNL     1     173.418 168.216 172.404  1.00  0.00     0.012 C 
ATOM     18  C   UNL     1     172.913 165.023 172.715  1.00  0.00     0.000 C 
ATOM     19  C   UNL     1     173.654 166.383 174.851  1.00  0.00     0.005 C 
ATOM     20  C   UNL     1     172.942 165.119 174.288  1.00  0.00     0.003 C 
ATOM     21  C   UNL     1     172.706 163.584 172.185  1.00  0.00     0.031 C 
ATOM     22  C   UNL     1     173.205 163.761 175.060  1.00  0.00    -0.008 C 
ATOM     23  C   UNL     1     171.990 162.686 173.148  1.00  0.00    -0.027 C 
ATOM     24  C   UNL     1     172.270 162.692 174.467  1.00  0.00    -0.065 C 
ATOM     25  C   UNL     1     172.892 163.968 176.586  1.00  0.00     0.014 C 
ATOM     26  C   UNL     1     174.666 163.285 174.916  1.00  0.00     0.016 C 
ATOM     27  C   UNL     1     171.818 161.498 175.286  1.00  0.00     0.063 C 
ATOM     28  C   UNL     1     172.603 162.681 177.368  1.00  0.00     0.033 C 
ATOM     29  C   UNL     1     171.475 161.867 176.732  1.00  0.00     0.118 C 
BRANCH  29  30
ATOM     30  O   UNL     1     170.238 162.534 176.829  1.00  0.00    -0.393 OA
ATOM     31  H   UNL     1     170.146 162.898 177.747  1.00  0.00     0.210 HD
ENDBRANCH  29  30
ENDBRANCH   1  11
TORSDOF 6
ENDMDL
MODEL 5
REMARK VINA RESULT:    -6.941      4.707      8.718
REMARK INTER + INTRA:          -9.970
REMARK INTER:                  -8.491
REMARK INTRA:                  -1.479
REMARK UNBOUND:                -0.797
REMARK SMILES CC[C@@H](C=C[C@@H](C)[C@@H]1CC[C@H]2[C@H]3CC=C4C[C@H](O)CC[C@]4(C)[C@H]3CC[C@]21C)C(C)C
REMARK SMILES IDX 6 1 7 2 5 3 4 4 3 5 2 6 1 7 28 8 29 9 30 10 8 11 9 12 26 13
REMARK SMILES IDX 10 14 11 15 25 16 27 17 12 18 24 19 23 20 13 21 21 22 14 23
REMARK SMILES IDX 15 24 20 25 22 26 16 27 19 28 17 29 18 30
REMARK H PARENT 18 31
REMARK Flexibility Score: inf
ROOT
ATOM      1  C   UNL     1     173.750 164.511 170.660  1.00  0.00     0.012 C 
ATOM      2  C   UNL     1     172.717 163.929 171.648  1.00  0.00     0.012 C 
ENDROOT
BRANCH   1   3
ATOM      3  C   UNL     1     174.419 163.427 169.839  1.00  0.00    -0.028 C 
ATOM      4  C   UNL     1     175.529 163.666 169.120  1.00  0.00    -0.027 C 
BRANCH   4   5
ATOM      5  C   UNL     1     176.185 162.578 168.292  1.00  0.00     0.014 C 
BRANCH   5   6
ATOM      6  C   UNL     1     175.694 161.180 168.748  1.00  0.00     0.004 C 
ATOM      7  C   UNL     1     176.742 160.442 169.586  1.00  0.00     0.004 C 
ENDBRANCH   5   6
BRANCH   5   8
ATOM      8  C   UNL     1     177.740 162.723 168.331  1.00  0.00    -0.011 C 
ATOM      9  C   UNL     1     178.404 162.499 166.962  1.00  0.00     0.008 C 
ATOM     10  C   UNL     1     178.187 164.065 168.932  1.00  0.00     0.008 C 
ENDBRANCH   5   8
ENDBRANCH   4   5
ENDBRANCH   1   3
BRANCH   1  11
ATOM     11  C   UNL     1     174.748 165.512 171.337  1.00  0.00     0.002 C 
ATOM     12  C   UNL     1     174.466 165.640 172.850  1.00  0.00     0.005 C 
ATOM     13  C   UNL     1     174.898 166.990 170.800  1.00  0.00    -0.026 C 
ATOM     14  C   UNL     1     174.487 167.122 173.191  1.00  0.00     0.005 C 
ATOM     15  C   UNL     1     174.219 167.858 171.876  1.00  0.00    -0.001 C 
ATOM     16  C   UNL     1     176.414 167.326 170.766  1.00  0.00     0.007 C 
ATOM     17  C   UNL     1     174.271 167.252 169.407  1.00  0.00     0.012 C 
ATOM     18  C   UNL     1     174.559 169.392 171.832  1.00  0.00     0.000 C 
ATOM     19  C   UNL     1     176.717 168.784 170.442  1.00  0.00     0.005 C 
ATOM     20  C   UNL     1     175.998 169.821 171.353  1.00  0.00     0.003 C 
ATOM     21  C   UNL     1     174.086 170.127 173.110  1.00  0.00     0.031 C 
ATOM     22  C   UNL     1     176.897 170.554 172.431  1.00  0.00    -0.008 C 
ATOM     23  C   UNL     1     174.732 171.465 173.307  1.00  0.00    -0.027 C 
ATOM     24  C   UNL     1     176.047 171.659 173.084  1.00  0.00    -0.065 C 
ATOM     25  C   UNL     1     178.147 171.184 171.717  1.00  0.00     0.014 C 
ATOM     26  C   UNL     1     177.392 169.588 173.529  1.00  0.00     0.016 C 
ATOM     27  C   UNL     1     176.688 172.892 173.689  1.00  0.00     0.063 C 
ATOM     28  C   UNL     1     178.827 172.323 172.484  1.00  0.00     0.033 C 
ATOM     29  C   UNL     1     177.843 173.437 172.844  1.00  0.00     0.118 C 
BRANCH  29  30
ATOM     30  O   UNL     1     177.384 174.112 171.695  1.00  0.00    -0.393 OA
ATOM     31  H   UNL     1     176.464 173.804 171.493  1.00  0.00     0.210 HD
ENDBRANCH  29  30
ENDBRANCH   1  11
TORSDOF 6
ENDMDL
MODEL 6
REMARK VINA RESULT:    -6.896      4.807      8.659
REMARK INTER + INTRA:          -9.910
REMARK INTER:                  -8.447
REMARK INTRA:                  -1.463
REMARK UNBOUND:                -0.797
REMARK SMILES CC[C@@H](C=C[C@@H](C)[C@@H]1CC[C@H]2[C@H]3CC=C4C[C@H](O)CC[C@]4(C)[C@H]3CC[C@]21C)C(C)C
REMARK SMILES IDX 6 1 7 2 5 3 4 4 3 5 2 6 1 7 28 8 29 9 30 10 8 11 9 12 26 13
REMARK SMILES IDX 10 14 11 15 25 16 27 17 12 18 24 19 23 20 13 21 21 22 14 23
REMARK SMILES IDX 15 24 20 25 22 26 16 27 19 28 17 29 18 30
REMARK H PARENT 18 31
REMARK Flexibility Score: inf
ROOT
ATOM      1  C   UNL     1     171.233 166.249 172.221  1.00  0.00     0.012 C 
ATOM      2  C   UNL     1     169.897 166.737 171.621  1.00  0.00     0.012 C 
ENDROOT
BRANCH   1   3
ATOM      3  C   UNL     1     171.036 165.075 173.159  1.00  0.00    -0.028 C 
ATOM      4  C   UNL     1     171.989 164.692 174.025  1.00  0.00    -0.027 C 
BRANCH   4   5
ATOM      5  C   UNL     1     171.787 163.508 174.952  1.00  0.00     0.014 C 
BRANCH   5   6
ATOM      6  C   UNL     1     170.279 163.305 175.249  1.00  0.00     0.004 C 
ATOM      7  C   UNL     1     169.875 163.875 176.612  1.00  0.00     0.004 C 
ENDBRANCH   5   6
BRANCH   5   8
ATOM      8  C   UNL     1     172.649 163.671 176.243  1.00  0.00    -0.011 C 
ATOM      9  C   UNL     1     173.275 162.351 176.725  1.00  0.00     0.008 C 
ATOM     10  C   UNL     1     173.729 164.754 176.093  1.00  0.00     0.008 C 
ENDBRANCH   5   8
ENDBRANCH   4   5
ENDBRANCH   1   3
BRANCH   1  11
ATOM     11  C   UNL     1     172.096 167.412 172.821  1.00  0.00     0.002 C 
ATOM     12  C   UNL     1     171.350 168.762 172.726  1.00  0.00     0.005 C 
ATOM     13  C   UNL     1     173.558 167.689 172.292  1.00  0.00    -0.026 C 
ATOM     14  C   UNL     1     172.341 169.790 172.202  1.00  0.00     0.005 C 
ATOM     15  C   UNL     1     173.431 168.992 171.481  1.00  0.00    -0.001 C 
ATOM     16  C   UNL     1     174.463 167.952 173.526  1.00  0.00     0.007 C 
ATOM     17  C   UNL     1     174.170 166.560 171.424  1.00  0.00     0.012 C 
ATOM     18  C   UNL     1     174.778 169.740 171.171  1.00  0.00     0.000 C 
ATOM     19  C   UNL     1     175.871 168.416 173.174  1.00  0.00     0.005 C 
ATOM     20  C   UNL     1     175.936 169.656 172.237  1.00  0.00     0.003 C 
ATOM     21  C   UNL     1     174.536 171.169 170.629  1.00  0.00     0.031 C 
ATOM     22  C   UNL     1     176.358 171.026 172.910  1.00  0.00    -0.008 C 
ATOM     23  C   UNL     1     175.743 172.054 170.708  1.00  0.00    -0.027 C 
ATOM     24  C   UNL     1     176.546 172.065 171.790  1.00  0.00    -0.065 C 
ATOM     25  C   UNL     1     177.706 170.822 173.691  1.00  0.00     0.014 C 
ATOM     26  C   UNL     1     175.289 171.540 173.897  1.00  0.00     0.016 C 
ATOM     27  C   UNL     1     177.474 173.251 171.964  1.00  0.00     0.063 C 
ATOM     28  C   UNL     1     178.500 172.105 173.960  1.00  0.00     0.033 C 
ATOM     29  C   UNL     1     178.780 172.884 172.674  1.00  0.00     0.118 C 
BRANCH  29  30
ATOM     30  O   UNL     1     179.664 172.184 171.828  1.00  0.00    -0.393 OA
ATOM     31  H   UNL     1     179.131 171.694 171.150  1.00  0.00     0.210 HD
ENDBRANCH  29  30
ENDBRANCH   1  11
TORSDOF 6
ENDMDL
MODEL 7
REMARK VINA RESULT:    -6.870      2.959      8.590
REMARK INTER + INTRA:          -9.875
REMARK INTER:                  -8.394
REMARK INTRA:                  -1.482
REMARK UNBOUND:                -0.797
REMARK SMILES CC[C@@H](C=C[C@@H](C)[C@@H]1CC[C@H]2[C@H]3CC=C4C[C@H](O)CC[C@]4(C)[C@H]3CC[C@]21C)C(C)C
REMARK SMILES IDX 6 1 7 2 5 3 4 4 3 5 2 6 1 7 28 8 29 9 30 10 8 11 9 12 26 13
REMARK SMILES IDX 10 14 11 15 25 16 27 17 12 18 24 19 23 20 13 21 21 22 14 23
REMARK SMILES IDX 15 24 20 25 22 26 16 27 19 28 17 29 18 30
REMARK H PARENT 18 31
REMARK Flexibility Score: inf
ROOT
ATOM      1  C   UNL     1     172.802 166.596 168.046  1.00  0.00     0.012 C 
ATOM      2  C   UNL     1     173.251 165.141 167.795  1.00  0.00     0.012 C 
ENDROOT
BRANCH   1   3
ATOM      3  C   UNL     1     171.937 167.123 166.917  1.00  0.00    -0.028 C 
ATOM      4  C   UNL     1     172.393 168.035 166.042  1.00  0.00    -0.027 C 
BRANCH   4   5
ATOM      5  C   UNL     1     171.516 168.564 164.923  1.00  0.00     0.014 C 
BRANCH   5   6
ATOM      6  C   UNL     1     172.157 168.263 163.544  1.00  0.00     0.004 C 
ATOM      7  C   UNL     1     173.320 167.272 163.650  1.00  0.00     0.004 C 
ENDBRANCH   5   6
BRANCH   5   8
ATOM      8  C   UNL     1     171.210 170.080 165.138  1.00  0.00    -0.011 C 
ATOM      9  C   UNL     1     172.065 170.721 166.244  1.00  0.00     0.008 C 
ATOM     10  C   UNL     1     171.321 170.890 163.836  1.00  0.00     0.008 C 
ENDBRANCH   5   8
ENDBRANCH   4   5
ENDBRANCH   1   3
BRANCH   1  11
ATOM     11  C   UNL     1     173.986 167.543 168.442  1.00  0.00     0.002 C 
ATOM     12  C   UNL     1     175.248 166.731 168.806  1.00  0.00     0.005 C 
ATOM     13  C   UNL     1     173.814 168.612 169.592  1.00  0.00    -0.026 C 
ATOM     14  C   UNL     1     175.811 167.321 170.090  1.00  0.00     0.005 C 
ATOM     15  C   UNL     1     174.646 168.053 170.762  1.00  0.00    -0.001 C 
ATOM     16  C   UNL     1     174.461 169.937 169.104  1.00  0.00     0.007 C 
ATOM     17  C   UNL     1     172.353 168.875 170.036  1.00  0.00     0.012 C 
ATOM     18  C   UNL     1     175.005 169.077 171.899  1.00  0.00     0.000 C 
ATOM     19  C   UNL     1     174.540 171.018 170.174  1.00  0.00     0.005 C 
ATOM     20  C   UNL     1     175.236 170.583 171.496  1.00  0.00     0.003 C 
ATOM     21  C   UNL     1     176.080 168.520 172.862  1.00  0.00     0.031 C 
ATOM     22  C   UNL     1     176.695 171.149 171.743  1.00  0.00    -0.008 C 
ATOM     23  C   UNL     1     176.746 169.574 173.693  1.00  0.00    -0.027 C 
ATOM     24  C   UNL     1     177.117 170.761 173.172  1.00  0.00    -0.065 C 
ATOM     25  C   UNL     1     176.672 172.713 171.592  1.00  0.00     0.014 C 
ATOM     26  C   UNL     1     177.719 170.572 170.743  1.00  0.00     0.016 C 
ATOM     27  C   UNL     1     178.130 171.582 173.945  1.00  0.00     0.063 C 
ATOM     28  C   UNL     1     177.830 173.447 172.277  1.00  0.00     0.033 C 
ATOM     29  C   UNL     1     177.936 173.090 173.760  1.00  0.00     0.118 C 
BRANCH  29  30
ATOM     30  O   UNL     1     176.832 173.575 174.489  1.00  0.00    -0.393 OA
ATOM     31  H   UNL     1     176.255 172.807 174.738  1.00  0.00     0.210 HD
ENDBRANCH  29  30
ENDBRANCH   1  11
TORSDOF 6
ENDMDL
MODEL 8
REMARK VINA RESULT:    -6.798      4.723      6.196
REMARK INTER + INTRA:          -9.781
REMARK INTER:                  -8.668
REMARK INTRA:                  -1.113
REMARK UNBOUND:                -0.797
REMARK SMILES CC[C@@H](C=C[C@@H](C)[C@@H]1CC[C@H]2[C@H]3CC=C4C[C@H](O)CC[C@]4(C)[C@H]3CC[C@]21C)C(C)C
REMARK SMILES IDX 6 1 7 2 5 3 4 4 3 5 2 6 1 7 28 8 29 9 30 10 8 11 9 12 26 13
REMARK SMILES IDX 10 14 11 15 25 16 27 17 12 18 24 19 23 20 13 21 21 22 14 23
REMARK SMILES IDX 15 24 20 25 22 26 16 27 19 28 17 29 18 30
REMARK H PARENT 18 31
REMARK Flexibility Score: inf
ROOT
ATOM      1  C   UNL     1     175.198 169.701 171.068  1.00  0.00     0.012 C 
ATOM      2  C   UNL     1     174.153 170.650 170.443  1.00  0.00     0.012 C 
ENDROOT
BRANCH   1   3
ATOM      3  C   UNL     1     176.223 170.455 171.892  1.00  0.00    -0.028 C 
ATOM      4  C   UNL     1     176.096 171.766 172.155  1.00  0.00    -0.027 C 
BRANCH   4   5
ATOM      5  C   UNL     1     177.134 172.514 172.970  1.00  0.00     0.014 C 
BRANCH   5   6
ATOM      6  C   UNL     1     177.405 173.910 172.353  1.00  0.00     0.004 C 
ATOM      7  C   UNL     1     176.644 174.121 171.042  1.00  0.00     0.004 C 
ENDBRANCH   5   6
BRANCH   5   8
ATOM      8  C   UNL     1     178.428 171.654 173.131  1.00  0.00    -0.011 C 
ATOM      9  C   UNL     1     179.557 172.073 172.175  1.00  0.00     0.008 C 
ATOM     10  C   UNL     1     178.935 171.626 174.581  1.00  0.00     0.008 C 
ENDBRANCH   5   8
ENDBRANCH   4   5
ENDBRANCH   1   3
BRANCH   1  11
ATOM     11  C   UNL     1     175.816 168.702 170.031  1.00  0.00     0.002 C 
ATOM     12  C   UNL     1     174.996 168.682 168.723  1.00  0.00     0.005 C 
ATOM     13  C   UNL     1     176.056 167.189 170.413  1.00  0.00    -0.026 C 
ATOM     14  C   UNL     1     174.797 167.225 168.335  1.00  0.00     0.005 C 
ATOM     15  C   UNL     1     174.978 166.420 169.625  1.00  0.00    -0.001 C 
ATOM     16  C   UNL     1     177.456 166.784 169.875  1.00  0.00     0.007 C 
ATOM     17  C   UNL     1     175.962 166.867 171.926  1.00  0.00     0.012 C 
ATOM     18  C   UNL     1     175.212 164.873 169.475  1.00  0.00     0.000 C 
ATOM     19  C   UNL     1     177.762 165.297 170.004  1.00  0.00     0.005 C 
ATOM     20  C   UNL     1     176.697 164.352 169.377  1.00  0.00     0.003 C 
ATOM     21  C   UNL     1     174.262 164.242 168.429  1.00  0.00     0.031 C 
ATOM     22  C   UNL     1     177.094 163.649 168.014  1.00  0.00    -0.008 C 
ATOM     23  C   UNL     1     174.705 162.892 167.953  1.00  0.00    -0.027 C 
ATOM     24  C   UNL     1     175.996 162.626 167.672  1.00  0.00    -0.065 C 
ATOM     25  C   UNL     1     178.475 162.921 168.194  1.00  0.00     0.014 C 
ATOM     26  C   UNL     1     177.217 164.660 166.854  1.00  0.00     0.016 C 
ATOM     27  C   UNL     1     176.293 161.406 166.822  1.00  0.00     0.063 C 
ATOM     28  C   UNL     1     178.755 161.803 167.184  1.00  0.00     0.033 C 
ATOM     29  C   UNL     1     177.638 160.759 167.162  1.00  0.00     0.118 C 
BRANCH  29  30
ATOM     30  O   UNL     1     177.586 160.034 168.369  1.00  0.00    -0.393 OA
ATOM     31  H   UNL     1     176.666 159.686 168.490  1.00  0.00     0.210 HD
ENDBRANCH  29  30
ENDBRANCH   1  11
TORSDOF 6
ENDMDL
MODEL 9
REMARK VINA RESULT:    -6.716      5.472      8.475
REMARK INTER + INTRA:          -9.672
REMARK INTER:                  -8.963
REMARK INTRA:                  -0.709
REMARK UNBOUND:                -0.797
REMARK SMILES CC[C@@H](C=C[C@@H](C)[C@@H]1CC[C@H]2[C@H]3CC=C4C[C@H](O)CC[C@]4(C)[C@H]3CC[C@]21C)C(C)C
REMARK SMILES IDX 6 1 7 2 5 3 4 4 3 5 2 6 1 7 28 8 29 9 30 10 8 11 9 12 26 13
REMARK SMILES IDX 10 14 11 15 25 16 27 17 12 18 24 19 23 20 13 21 21 22 14 23
REMARK SMILES IDX 15 24 20 25 22 26 16 27 19 28 17 29 18 30
REMARK H PARENT 18 31
REMARK Flexibility Score: inf
ROOT
ATOM      1  C   UNL     1     175.054 169.000 170.273  1.00  0.00     0.012 C 
ATOM      2  C   UNL     1     175.781 168.315 169.097  1.00  0.00     0.012 C 
ENDROOT
BRANCH   1   3
ATOM      3  C   UNL     1     176.009 169.793 171.143  1.00  0.00    -0.028 C 
ATOM      4  C   UNL     1     175.898 171.124 171.286  1.00  0.00    -0.027 C 
BRANCH   4   5
ATOM      5  C   UNL     1     176.866 171.911 172.149  1.00  0.00     0.014 C 
BRANCH   5   6
ATOM      6  C   UNL     1     178.298 171.329 172.026  1.00  0.00     0.004 C 
ATOM      7  C   UNL     1     179.376 172.395 172.241  1.00  0.00     0.004 C 
ENDBRANCH   5   6
BRANCH   5   8
ATOM      8  C   UNL     1     176.356 171.976 173.624  1.00  0.00    -0.011 C 
ATOM      9  C   UNL     1     176.630 173.328 174.302  1.00  0.00     0.008 C 
ATOM     10  C   UNL     1     174.870 171.605 173.745  1.00  0.00     0.008 C 
ENDBRANCH   5   8
ENDBRANCH   4   5
ENDBRANCH   1   3
BRANCH   1  11
ATOM     11  C   UNL     1     174.122 168.023 171.070  1.00  0.00     0.002 C 
ATOM     12  C   UNL     1     173.211 168.799 172.047  1.00  0.00     0.005 C 
ATOM     13  C   UNL     1     174.731 166.828 171.904  1.00  0.00    -0.026 C 
ATOM     14  C   UNL     1     173.254 168.070 173.381  1.00  0.00     0.005 C 
ATOM     15  C   UNL     1     174.551 167.257 173.373  1.00  0.00    -0.001 C 
ATOM     16  C   UNL     1     173.856 165.574 171.637  1.00  0.00     0.007 C 
ATOM     17  C   UNL     1     176.217 166.505 171.606  1.00  0.00     0.012 C 
ATOM     18  C   UNL     1     174.685 166.112 174.442  1.00  0.00     0.000 C 
ATOM     19  C   UNL     1     174.205 164.377 172.513  1.00  0.00     0.005 C 
ATOM     20  C   UNL     1     174.208 164.664 174.043  1.00  0.00     0.003 C 
ATOM     21  C   UNL     1     174.195 166.564 175.839  1.00  0.00     0.031 C 
ATOM     22  C   UNL     1     172.987 164.085 174.870  1.00  0.00    -0.008 C 
ATOM     23  C   UNL     1     173.915 165.427 176.774  1.00  0.00    -0.027 C 
ATOM     24  C   UNL     1     173.279 164.311 176.364  1.00  0.00    -0.065 C 
ATOM     25  C   UNL     1     172.847 162.549 174.572  1.00  0.00     0.014 C 
ATOM     26  C   UNL     1     171.658 164.781 174.508  1.00  0.00     0.016 C 
ATOM     27  C   UNL     1     172.677 163.415 177.429  1.00  0.00     0.063 C 
ATOM     28  C   UNL     1     172.081 161.750 175.633  1.00  0.00     0.033 C 
ATOM     29  C   UNL     1     172.677 161.936 177.029  1.00  0.00     0.118 C 
BRANCH  29  30
ATOM     30  O   UNL     1     173.960 161.363 177.123  1.00  0.00    -0.393 OA
ATOM     31  H   UNL     1     173.930 160.626 177.787  1.00  0.00     0.210 HD
ENDBRANCH  29  30
ENDBRANCH   1  11
TORSDOF 6
ENDMDL
