MODEL 1
REMARK VINA RESULT:    -5.898      0.000      0.000
REMARK INTER + INTRA:          -7.462
REMARK INTER:                  -7.277
REMARK INTRA:                  -0.186
REMARK UNBOUND:                -0.186
REMARK SMILES Oc1cc(O)c2cc(O)c(-c3cc(O)c(O)c(O)c3)[o+]c2c1
REMARK SMILES IDX 10 1 20 2 21 3 22 4 2 5 3 6 4 7 6 8 7 9 8 10 11 11 12 12
REMARK SMILES IDX 13 13 19 14 15 15 17 16 14 17 16 19 18 21 9 23 1 25 5 27
REMARK H PARENT 14 18 16 20 18 22 9 24 1 26 5 28
REMARK Flexibility Score: inf
ROOT
ATOM      1  C   UNL     1      -9.355   7.710  15.905  1.00  0.00     0.402 A 
ATOM      2  O   UNL     1      -8.389   8.242  16.649  1.00  0.00    -0.202 OA
ATOM      3  C   UNL     1      -8.596   8.751  17.858  1.00  0.00     0.368 A 
ATOM      4  C   UNL     1      -7.515   9.286  18.565  1.00  0.00     0.162 A 
ATOM      5  C   UNL     1      -7.702   9.825  19.837  1.00  0.00     0.128 A 
ATOM      6  C   UNL     1      -8.978   9.831  20.412  1.00  0.00     0.093 A 
ATOM      7  C   UNL     1     -10.077   9.301  19.725  1.00  0.00     0.136 A 
ATOM      8  C   UNL     1      -9.891   8.754  18.428  1.00  0.00     0.125 A 
ATOM      9  C   UNL     1     -10.937   8.213  17.662  1.00  0.00     0.078 A 
ATOM     10  C   UNL     1     -10.677   7.697  16.388  1.00  0.00     0.223 A 
ENDROOT
BRANCH   1  11
ATOM     11  C   UNL     1      -8.997   7.164  14.576  1.00  0.00     0.091 A 
ATOM     12  C   UNL     1      -8.140   6.056  14.493  1.00  0.00     0.068 A 
ATOM     13  C   UNL     1      -7.796   5.503  13.254  1.00  0.00     0.162 A 
ATOM     14  C   UNL     1      -9.542   7.695  13.396  1.00  0.00     0.068 A 
ATOM     15  C   UNL     1      -8.331   6.058  12.068  1.00  0.00     0.200 A 
ATOM     16  C   UNL     1      -9.207   7.150  12.150  1.00  0.00     0.162 A 
BRANCH  13  17
ATOM     17  O   UNL     1      -6.928   4.408  13.250  1.00  0.00    -0.504 OA
ATOM     18  H   UNL     1      -6.852   3.750  12.489  1.00  0.00     0.293 HD
ENDBRANCH  13  17
BRANCH  15  19
ATOM     19  O   UNL     1      -8.025   5.558  10.800  1.00  0.00    -0.502 OA
ATOM     20  H   UNL     1      -7.089   5.346  10.486  1.00  0.00     0.293 HD
ENDBRANCH  15  19
BRANCH  16  21
ATOM     21  O   UNL     1      -9.747   7.688  10.983  1.00  0.00    -0.504 OA
ATOM     22  H   UNL     1     -10.618   8.205  10.990  1.00  0.00     0.293 HD
ENDBRANCH  16  21
ENDBRANCH   1  11
BRANCH  10  23
ATOM     23  O   UNL     1     -11.722   7.205  15.606  1.00  0.00    -0.500 OA
ATOM     24  H   UNL     1     -12.322   7.821  15.070  1.00  0.00     0.294 HD
ENDBRANCH  10  23
BRANCH   5  25
ATOM     25  O   UNL     1      -6.612  10.354  20.526  1.00  0.00    -0.507 OA
ATOM     26  H   UNL     1      -6.446  10.136  21.502  1.00  0.00     0.293 HD
ENDBRANCH   5  25
BRANCH   7  27
ATOM     27  O   UNL     1     -11.318   9.341  20.367  1.00  0.00    -0.507 OA
ATOM     28  H   UNL     1     -11.821  10.189  20.584  1.00  0.00     0.293 HD
ENDBRANCH   7  27
TORSDOF 7
ENDMDL
MODEL 2
REMARK VINA RESULT:    -5.821      0.396      1.824
REMARK INTER + INTRA:          -7.368
REMARK INTER:                  -7.054
REMARK INTRA:                  -0.314
REMARK UNBOUND:                -0.186
REMARK SMILES Oc1cc(O)c2cc(O)c(-c3cc(O)c(O)c(O)c3)[o+]c2c1
REMARK SMILES IDX 10 1 20 2 21 3 22 4 2 5 3 6 4 7 6 8 7 9 8 10 11 11 12 12
REMARK SMILES IDX 13 13 19 14 15 15 17 16 14 17 16 19 18 21 9 23 1 25 5 27
REMARK H PARENT 14 18 16 20 18 22 9 24 1 26 5 28
REMARK Flexibility Score: inf
ROOT
ATOM      1  C   UNL     1      -9.325   7.857  16.149  1.00  0.00     0.402 A 
ATOM      2  O   UNL     1      -8.389   8.408  16.918  1.00  0.00    -0.202 OA
ATOM      3  C   UNL     1      -8.642   8.933  18.112  1.00  0.00     0.368 A 
ATOM      4  C   UNL     1      -7.591   9.487  18.849  1.00  0.00     0.162 A 
ATOM      5  C   UNL     1      -7.826  10.042  20.106  1.00  0.00     0.128 A 
ATOM      6  C   UNL     1      -9.121  10.044  20.636  1.00  0.00     0.093 A 
ATOM      7  C   UNL     1     -10.191   9.496  19.919  1.00  0.00     0.136 A 
ATOM      8  C   UNL     1      -9.956   8.933  18.638  1.00  0.00     0.125 A 
ATOM      9  C   UNL     1     -10.970   8.372  17.843  1.00  0.00     0.078 A 
ATOM     10  C   UNL     1     -10.662   7.840  16.587  1.00  0.00     0.223 A 
ENDROOT
BRANCH   1  11
ATOM     11  C   UNL     1      -8.917   7.297  14.842  1.00  0.00     0.091 A 
ATOM     12  C   UNL     1      -9.194   8.012  13.667  1.00  0.00     0.068 A 
ATOM     13  C   UNL     1      -8.805   7.521  12.415  1.00  0.00     0.162 A 
ATOM     14  C   UNL     1      -8.205   6.090  14.753  1.00  0.00     0.068 A 
ATOM     15  C   UNL     1      -8.108   6.292  12.332  1.00  0.00     0.200 A 
ATOM     16  C   UNL     1      -7.808   5.588  13.507  1.00  0.00     0.162 A 
BRANCH  13  17
ATOM     17  O   UNL     1      -9.127   8.283  11.290  1.00  0.00    -0.504 OA
ATOM     18  H   UNL     1      -9.710   9.107  11.313  1.00  0.00     0.293 HD
ENDBRANCH  13  17
BRANCH  15  19
ATOM     19  O   UNL     1      -7.695   5.744  11.116  1.00  0.00    -0.502 OA
ATOM     20  H   UNL     1      -6.729   5.625  10.847  1.00  0.00     0.293 HD
ENDBRANCH  15  19
BRANCH  16  21
ATOM     21  O   UNL     1      -7.108   4.385  13.428  1.00  0.00    -0.504 OA
ATOM     22  H   UNL     1      -6.679   4.076  12.564  1.00  0.00     0.293 HD
ENDBRANCH  16  21
ENDBRANCH   1  11
BRANCH  10  23
ATOM     23  O   UNL     1     -11.675   7.329  15.777  1.00  0.00    -0.500 OA
ATOM     24  H   UNL     1     -12.630   7.242  16.107  1.00  0.00     0.294 HD
ENDBRANCH  10  23
BRANCH   5  25
ATOM     25  O   UNL     1      -6.764  10.589  20.824  1.00  0.00    -0.507 OA
ATOM     26  H   UNL     1      -6.564  11.582  20.798  1.00  0.00     0.293 HD
ENDBRANCH   5  25
BRANCH   7  27
ATOM     27  O   UNL     1     -11.454   9.534  20.518  1.00  0.00    -0.507 OA
ATOM     28  H   UNL     1     -12.254  10.013  20.131  1.00  0.00     0.293 HD
ENDBRANCH   7  27
TORSDOF 7
ENDMDL
MODEL 3
REMARK VINA RESULT:    -5.788      4.224      8.205
REMARK INTER + INTRA:          -7.327
REMARK INTER:                  -7.695
REMARK INTRA:                   0.367
REMARK UNBOUND:                -0.186
REMARK SMILES Oc1cc(O)c2cc(O)c(-c3cc(O)c(O)c(O)c3)[o+]c2c1
REMARK SMILES IDX 10 1 20 2 21 3 22 4 2 5 3 6 4 7 6 8 7 9 8 10 11 11 12 12
REMARK SMILES IDX 13 13 19 14 15 15 17 16 14 17 16 19 18 21 9 23 1 25 5 27
REMARK H PARENT 14 18 16 20 18 22 9 24 1 26 5 28
REMARK Flexibility Score: inf
ROOT
ATOM      1  C   UNL     1      -5.287  10.222  16.975  1.00  0.00     0.402 A 
ATOM      2  O   UNL     1      -5.738  10.148  15.725  1.00  0.00    -0.202 OA
ATOM      3  C   UNL     1      -4.960  10.306  14.659  1.00  0.00     0.368 A 
ATOM      4  C   UNL     1      -5.525  10.208  13.384  1.00  0.00     0.162 A 
ATOM      5  C   UNL     1      -4.733  10.366  12.248  1.00  0.00     0.128 A 
ATOM      6  C   UNL     1      -3.364  10.623  12.382  1.00  0.00     0.093 A 
ATOM      7  C   UNL     1      -2.773  10.726  13.648  1.00  0.00     0.136 A 
ATOM      8  C   UNL     1      -3.577  10.569  14.807  1.00  0.00     0.125 A 
ATOM      9  C   UNL     1      -3.074  10.668  16.114  1.00  0.00     0.078 A 
ATOM     10  C   UNL     1      -3.930  10.506  17.209  1.00  0.00     0.223 A 
ENDROOT
BRANCH   1  11
ATOM     11  C   UNL     1      -6.251  10.018  18.080  1.00  0.00     0.091 A 
ATOM     12  C   UNL     1      -7.508   9.458  17.805  1.00  0.00     0.068 A 
ATOM     13  C   UNL     1      -8.437   9.233  18.828  1.00  0.00     0.162 A 
ATOM     14  C   UNL     1      -5.915  10.318  19.409  1.00  0.00     0.068 A 
ATOM     15  C   UNL     1      -8.099   9.560  20.162  1.00  0.00     0.200 A 
ATOM     16  C   UNL     1      -6.834  10.097  20.443  1.00  0.00     0.162 A 
BRANCH  13  17
ATOM     17  O   UNL     1      -9.672   8.685  18.475  1.00  0.00    -0.504 OA
ATOM     18  H   UNL     1     -10.288   8.217  19.123  1.00  0.00     0.293 HD
ENDBRANCH  13  17
BRANCH  15  19
ATOM     19  O   UNL     1      -8.979   9.366  21.229  1.00  0.00    -0.502 OA
ATOM     20  H   UNL     1      -9.779   9.953  21.417  1.00  0.00     0.293 HD
ENDBRANCH  15  19
BRANCH  16  21
ATOM     21  O   UNL     1      -6.494  10.405  21.759  1.00  0.00    -0.504 OA
ATOM     22  H   UNL     1      -7.195  10.470  22.487  1.00  0.00     0.293 HD
ENDBRANCH  16  21
ENDBRANCH   1  11
BRANCH  10  23
ATOM     23  O   UNL     1      -3.441  10.654  18.506  1.00  0.00    -0.500 OA
ATOM     24  H   UNL     1      -3.922  10.259  19.306  1.00  0.00     0.294 HD
ENDBRANCH  10  23
BRANCH   5  25
ATOM     25  O   UNL     1      -5.315  10.264  10.985  1.00  0.00    -0.507 OA
ATOM     26  H   UNL     1      -5.470  11.082  10.407  1.00  0.00     0.293 HD
ENDBRANCH   5  25
BRANCH   7  27
ATOM     27  O   UNL     1      -1.400  10.983  13.698  1.00  0.00    -0.507 OA
ATOM     28  H   UNL     1      -0.712  10.519  13.124  1.00  0.00     0.293 HD
ENDBRANCH   7  27
TORSDOF 7
ENDMDL
MODEL 4
REMARK VINA RESULT:    -5.680      2.372      7.793
REMARK INTER + INTRA:          -7.193
REMARK INTER:                  -7.071
REMARK INTRA:                  -0.122
REMARK UNBOUND:                -0.186
REMARK SMILES Oc1cc(O)c2cc(O)c(-c3cc(O)c(O)c(O)c3)[o+]c2c1
REMARK SMILES IDX 10 1 20 2 21 3 22 4 2 5 3 6 4 7 6 8 7 9 8 10 11 11 12 12
REMARK SMILES IDX 13 13 19 14 15 15 17 16 14 17 16 19 18 21 9 23 1 25 5 27
REMARK H PARENT 14 18 16 20 18 22 9 24 1 26 5 28
REMARK Flexibility Score: inf
ROOT
ATOM      1  C   UNL     1      -9.497   7.226  13.564  1.00  0.00     0.402 A 
ATOM      2  O   UNL     1     -10.450   6.873  12.705  1.00  0.00    -0.202 OA
ATOM      3  C   UNL     1     -10.202   6.490  11.457  1.00  0.00     0.368 A 
ATOM      4  C   UNL     1     -11.271   6.133  10.630  1.00  0.00     0.162 A 
ATOM      5  C   UNL     1     -11.040   5.725   9.317  1.00  0.00     0.128 A 
ATOM      6  C   UNL     1      -9.732   5.670   8.822  1.00  0.00     0.093 A 
ATOM      7  C   UNL     1      -8.644   6.022   9.631  1.00  0.00     0.136 A 
ATOM      8  C   UNL     1      -8.875   6.441  10.967  1.00  0.00     0.125 A 
ATOM      9  C   UNL     1      -7.847   6.823  11.844  1.00  0.00     0.078 A 
ATOM     10  C   UNL     1      -8.153   7.230  13.147  1.00  0.00     0.223 A 
ENDROOT
BRANCH   1  11
ATOM     11  C   UNL     1      -9.899   7.624  14.931  1.00  0.00     0.091 A 
ATOM     12  C   UNL     1      -9.327   6.974  16.036  1.00  0.00     0.068 A 
ATOM     13  C   UNL     1      -9.669   7.338  17.343  1.00  0.00     0.162 A 
ATOM     14  C   UNL     1     -10.798   8.680  15.152  1.00  0.00     0.068 A 
ATOM     15  C   UNL     1     -10.594   8.388  17.557  1.00  0.00     0.200 A 
ATOM     16  C   UNL     1     -11.148   9.055  16.455  1.00  0.00     0.162 A 
BRANCH  13  17
ATOM     17  O   UNL     1      -9.068   6.637  18.391  1.00  0.00    -0.504 OA
ATOM     18  H   UNL     1      -9.454   5.801  18.806  1.00  0.00     0.293 HD
ENDBRANCH  13  17
BRANCH  15  19
ATOM     19  O   UNL     1     -10.983   8.798  18.835  1.00  0.00    -0.502 OA
ATOM     20  H   UNL     1     -11.785   9.382  19.022  1.00  0.00     0.293 HD
ENDBRANCH  15  19
BRANCH  16  21
ATOM     21  O   UNL     1     -12.047  10.100  16.664  1.00  0.00    -0.504 OA
ATOM     22  H   UNL     1     -13.046   9.938  16.714  1.00  0.00     0.293 HD
ENDBRANCH  16  21
ENDBRANCH   1  11
BRANCH  10  23
ATOM     23  O   UNL     1      -7.138   7.657  14.003  1.00  0.00    -0.500 OA
ATOM     24  H   UNL     1      -6.563   7.001  14.518  1.00  0.00     0.294 HD
ENDBRANCH  10  23
BRANCH   5  25
ATOM     25  O   UNL     1     -12.120   5.374   8.508  1.00  0.00    -0.507 OA
ATOM     26  H   UNL     1     -12.624   4.506   8.646  1.00  0.00     0.293 HD
ENDBRANCH   5  25
BRANCH   7  27
ATOM     27  O   UNL     1      -7.369   5.938   9.065  1.00  0.00    -0.507 OA
ATOM     28  H   UNL     1      -6.525   5.748   9.586  1.00  0.00     0.293 HD
ENDBRANCH   7  27
TORSDOF 7
ENDMDL
MODEL 5
REMARK VINA RESULT:    -5.598      2.071      7.102
REMARK INTER + INTRA:          -7.093
REMARK INTER:                  -6.750
REMARK INTRA:                  -0.343
REMARK UNBOUND:                -0.186
REMARK SMILES Oc1cc(O)c2cc(O)c(-c3cc(O)c(O)c(O)c3)[o+]c2c1
REMARK SMILES IDX 10 1 20 2 21 3 22 4 2 5 3 6 4 7 6 8 7 9 8 10 11 11 12 12
REMARK SMILES IDX 13 13 19 14 15 15 17 16 14 17 16 19 18 21 9 23 1 25 5 27
REMARK H PARENT 14 18 16 20 18 22 9 24 1 26 5 28
REMARK Flexibility Score: inf
ROOT
ATOM      1  C   UNL     1      -9.212   8.509  16.952  1.00  0.00     0.402 A 
ATOM      2  O   UNL     1      -9.399   9.374  15.958  1.00  0.00    -0.202 OA
ATOM      3  C   UNL     1      -9.836   9.018  14.755  1.00  0.00     0.368 A 
ATOM      4  C   UNL     1     -10.005  10.000  13.774  1.00  0.00     0.162 A 
ATOM      5  C   UNL     1     -10.465   9.656  12.503  1.00  0.00     0.128 A 
ATOM      6  C   UNL     1     -10.761   8.321  12.206  1.00  0.00     0.093 A 
ATOM      7  C   UNL     1     -10.601   7.318  13.171  1.00  0.00     0.136 A 
ATOM      8  C   UNL     1     -10.130   7.664  14.464  1.00  0.00     0.125 A 
ATOM      9  C   UNL     1      -9.928   6.724  15.489  1.00  0.00     0.078 A 
ATOM     10  C   UNL     1      -9.456   7.140  16.738  1.00  0.00     0.223 A 
ENDROOT
BRANCH   1  11
ATOM     11  C   UNL     1      -8.731   9.030  18.252  1.00  0.00     0.091 A 
ATOM     12  C   UNL     1      -9.634   9.172  19.316  1.00  0.00     0.068 A 
ATOM     13  C   UNL     1      -9.209   9.642  20.564  1.00  0.00     0.162 A 
ATOM     14  C   UNL     1      -7.376   9.332  18.462  1.00  0.00     0.068 A 
ATOM     15  C   UNL     1      -7.846   9.966  20.762  1.00  0.00     0.200 A 
ATOM     16  C   UNL     1      -6.937   9.802  19.706  1.00  0.00     0.162 A 
BRANCH  13  17
ATOM     17  O   UNL     1     -10.169   9.768  21.571  1.00  0.00    -0.504 OA
ATOM     18  H   UNL     1     -10.048  10.331  22.400  1.00  0.00     0.293 HD
ENDBRANCH  13  17
BRANCH  15  19
ATOM     19  O   UNL     1      -7.357  10.445  21.979  1.00  0.00    -0.502 OA
ATOM     20  H   UNL     1      -6.959  11.365  22.107  1.00  0.00     0.293 HD
ENDBRANCH  15  19
BRANCH  16  21
ATOM     21  O   UNL     1      -5.592  10.107  19.904  1.00  0.00    -0.504 OA
ATOM     22  H   UNL     1      -5.232  10.355  20.819  1.00  0.00     0.293 HD
ENDBRANCH  16  21
ENDBRANCH   1  11
BRANCH  10  23
ATOM     23  O   UNL     1      -9.207   6.202  17.739  1.00  0.00    -0.500 OA
ATOM     24  H   UNL     1      -9.642   6.269  18.652  1.00  0.00     0.294 HD
ENDBRANCH  10  23
BRANCH   5  25
ATOM     25  O   UNL     1     -10.626  10.650  11.540  1.00  0.00    -0.507 OA
ATOM     26  H   UNL     1     -11.405  11.297  11.573  1.00  0.00     0.293 HD
ENDBRANCH   5  25
BRANCH   7  27
ATOM     27  O   UNL     1     -10.920   6.010  12.798  1.00  0.00    -0.507 OA
ATOM     28  H   UNL     1     -11.847   5.699  12.544  1.00  0.00     0.293 HD
ENDBRANCH   7  27
TORSDOF 7
ENDMDL
MODEL 6
REMARK VINA RESULT:    -5.561      2.140      7.018
REMARK INTER + INTRA:          -7.047
REMARK INTER:                  -6.679
REMARK INTRA:                  -0.368
REMARK UNBOUND:                -0.186
REMARK SMILES Oc1cc(O)c2cc(O)c(-c3cc(O)c(O)c(O)c3)[o+]c2c1
REMARK SMILES IDX 10 1 20 2 21 3 22 4 2 5 3 6 4 7 6 8 7 9 8 10 11 11 12 12
REMARK SMILES IDX 13 13 19 14 15 15 17 16 14 17 16 19 18 21 9 23 1 25 5 27
REMARK H PARENT 14 18 16 20 18 22 9 24 1 26 5 28
REMARK Flexibility Score: inf
ROOT
ATOM      1  C   UNL     1      -9.163   8.537  17.039  1.00  0.00     0.402 A 
ATOM      2  O   UNL     1      -9.343   9.389  16.033  1.00  0.00    -0.202 OA
ATOM      3  C   UNL     1      -9.808   9.025  14.843  1.00  0.00     0.368 A 
ATOM      4  C   UNL     1      -9.966   9.994  13.848  1.00  0.00     0.162 A 
ATOM      5  C   UNL     1     -10.455   9.642  12.591  1.00  0.00     0.128 A 
ATOM      6  C   UNL     1     -10.791   8.310  12.321  1.00  0.00     0.093 A 
ATOM      7  C   UNL     1     -10.642   7.320  13.301  1.00  0.00     0.136 A 
ATOM      8  C   UNL     1     -10.142   7.675  14.581  1.00  0.00     0.125 A 
ATOM      9  C   UNL     1      -9.949   6.748  15.618  1.00  0.00     0.078 A 
ATOM     10  C   UNL     1      -9.446   7.172  16.852  1.00  0.00     0.223 A 
ENDROOT
BRANCH   1  11
ATOM     11  C   UNL     1      -8.647   9.067  18.322  1.00  0.00     0.091 A 
ATOM     12  C   UNL     1      -7.283   9.370  18.445  1.00  0.00     0.068 A 
ATOM     13  C   UNL     1      -6.765   9.891  19.636  1.00  0.00     0.162 A 
ATOM     14  C   UNL     1      -9.504   9.327  19.403  1.00  0.00     0.068 A 
ATOM     15  C   UNL     1      -7.631  10.129  20.730  1.00  0.00     0.200 A 
ATOM     16  C   UNL     1      -8.999   9.849  20.601  1.00  0.00     0.162 A 
BRANCH  13  17
ATOM     17  O   UNL     1      -5.395  10.156  19.687  1.00  0.00    -0.504 OA
ATOM     18  H   UNL     1      -5.002  11.080  19.796  1.00  0.00     0.293 HD
ENDBRANCH  13  17
BRANCH  15  19
ATOM     19  O   UNL     1      -7.179  10.642  21.948  1.00  0.00    -0.502 OA
ATOM     20  H   UNL     1      -7.411  10.248  22.849  1.00  0.00     0.293 HD
ENDBRANCH  15  19
BRANCH  16  21
ATOM     21  O   UNL     1      -9.856  10.098  21.671  1.00  0.00    -0.504 OA
ATOM     22  H   UNL     1     -10.462   9.377  22.045  1.00  0.00     0.293 HD
ENDBRANCH  16  21
ENDBRANCH   1  11
BRANCH  10  23
ATOM     23  O   UNL     1      -9.207   6.244  17.866  1.00  0.00    -0.500 OA
ATOM     24  H   UNL     1      -8.298   5.816  17.993  1.00  0.00     0.294 HD
ENDBRANCH  10  23
BRANCH   5  25
ATOM     25  O   UNL     1     -10.605  10.623  11.613  1.00  0.00    -0.507 OA
ATOM     26  H   UNL     1     -10.382  11.594  11.799  1.00  0.00     0.293 HD
ENDBRANCH   5  25
BRANCH   7  27
ATOM     27  O   UNL     1     -11.002   6.014  12.955  1.00  0.00    -0.507 OA
ATOM     28  H   UNL     1     -11.954   5.692  12.857  1.00  0.00     0.293 HD
ENDBRANCH   7  27
TORSDOF 7
ENDMDL
MODEL 7
REMARK VINA RESULT:    -5.444      1.868      3.437
REMARK INTER + INTRA:          -6.903
REMARK INTER:                  -6.644
REMARK INTRA:                  -0.258
REMARK UNBOUND:                -0.186
REMARK SMILES Oc1cc(O)c2cc(O)c(-c3cc(O)c(O)c(O)c3)[o+]c2c1
REMARK SMILES IDX 10 1 20 2 21 3 22 4 2 5 3 6 4 7 6 8 7 9 8 10 11 11 12 12
REMARK SMILES IDX 13 13 19 14 15 15 17 16 14 17 16 19 18 21 9 23 1 25 5 27
REMARK H PARENT 14 18 16 20 18 22 9 24 1 26 5 28
REMARK Flexibility Score: inf
ROOT
ATOM      1  C   UNL     1      -8.081   9.437  17.069  1.00  0.00     0.402 A 
ATOM      2  O   UNL     1      -9.161   9.463  17.846  1.00  0.00    -0.202 OA
ATOM      3  C   UNL     1      -9.120   9.756  19.141  1.00  0.00     0.368 A 
ATOM      4  C   UNL     1     -10.309   9.761  19.876  1.00  0.00     0.162 A 
ATOM      5  C   UNL     1     -10.297  10.067  21.236  1.00  0.00     0.128 A 
ATOM      6  C   UNL     1      -9.089  10.372  21.872  1.00  0.00     0.093 A 
ATOM      7  C   UNL     1      -7.883  10.374  21.159  1.00  0.00     0.136 A 
ATOM      8  C   UNL     1      -7.891  10.060  19.775  1.00  0.00     0.125 A 
ATOM      9  C   UNL     1      -6.731  10.025  18.984  1.00  0.00     0.078 A 
ATOM     10  C   UNL     1      -6.817   9.702  17.627  1.00  0.00     0.223 A 
ENDROOT
BRANCH   1  11
ATOM     11  C   UNL     1      -8.257   9.106  15.637  1.00  0.00     0.091 A 
ATOM     12  C   UNL     1      -8.768   7.851  15.275  1.00  0.00     0.068 A 
ATOM     13  C   UNL     1      -8.966   7.512  13.932  1.00  0.00     0.162 A 
ATOM     14  C   UNL     1      -7.977  10.044  14.630  1.00  0.00     0.068 A 
ATOM     15  C   UNL     1      -8.660   8.454  12.921  1.00  0.00     0.200 A 
ATOM     16  C   UNL     1      -8.171   9.719  13.281  1.00  0.00     0.162 A 
BRANCH  13  17
ATOM     17  O   UNL     1      -9.468   6.239  13.650  1.00  0.00    -0.504 OA
ATOM     18  H   UNL     1     -10.352   6.068  13.194  1.00  0.00     0.293 HD
ENDBRANCH  13  17
BRANCH  15  19
ATOM     19  O   UNL     1      -8.829   8.180  11.562  1.00  0.00    -0.502 OA
ATOM     20  H   UNL     1      -8.070   7.978  10.927  1.00  0.00     0.293 HD
ENDBRANCH  15  19
BRANCH  16  21
ATOM     21  O   UNL     1      -7.884  10.653  12.288  1.00  0.00    -0.504 OA
ATOM     22  H   UNL     1      -7.270  10.433  11.512  1.00  0.00     0.293 HD
ENDBRANCH  16  21
ENDBRANCH   1  11
BRANCH  10  23
ATOM     23  O   UNL     1      -5.660   9.618  16.853  1.00  0.00    -0.500 OA
ATOM     24  H   UNL     1      -5.285   8.727  16.548  1.00  0.00     0.294 HD
ENDBRANCH  10  23
BRANCH   5  25
ATOM     25  O   UNL     1     -11.494  10.067  21.950  1.00  0.00    -0.507 OA
ATOM     26  H   UNL     1     -11.710   9.339  22.621  1.00  0.00     0.293 HD
ENDBRANCH   5  25
BRANCH   7  27
ATOM     27  O   UNL     1      -6.719  10.691  21.864  1.00  0.00    -0.507 OA
ATOM     28  H   UNL     1      -6.234  11.574  21.797  1.00  0.00     0.293 HD
ENDBRANCH   7  27
TORSDOF 7
ENDMDL
MODEL 8
REMARK VINA RESULT:    -5.418      2.571      3.770
REMARK INTER + INTRA:          -6.871
REMARK INTER:                  -6.646
REMARK INTRA:                  -0.225
REMARK UNBOUND:                -0.186
REMARK SMILES Oc1cc(O)c2cc(O)c(-c3cc(O)c(O)c(O)c3)[o+]c2c1
REMARK SMILES IDX 10 1 20 2 21 3 22 4 2 5 3 6 4 7 6 8 7 9 8 10 11 11 12 12
REMARK SMILES IDX 13 13 19 14 15 15 17 16 14 17 16 19 18 21 9 23 1 25 5 27
REMARK H PARENT 14 18 16 20 18 22 9 24 1 26 5 28
REMARK Flexibility Score: inf
ROOT
ATOM      1  C   UNL     1     -10.608   7.402  12.728  1.00  0.00     0.402 A 
ATOM      2  O   UNL     1     -10.014   6.918  13.816  1.00  0.00    -0.202 OA
ATOM      3  C   UNL     1     -10.189   7.427  15.031  1.00  0.00     0.368 A 
ATOM      4  C   UNL     1      -9.524   6.848  16.115  1.00  0.00     0.162 A 
ATOM      5  C   UNL     1      -9.691   7.359  17.401  1.00  0.00     0.128 A 
ATOM      6  C   UNL     1     -10.531   8.459  17.611  1.00  0.00     0.093 A 
ATOM      7  C   UNL     1     -11.210   9.058  16.542  1.00  0.00     0.136 A 
ATOM      8  C   UNL     1     -11.039   8.542  15.231  1.00  0.00     0.125 A 
ATOM      9  C   UNL     1     -11.669   9.086  14.100  1.00  0.00     0.078 A 
ATOM     10  C   UNL     1     -11.448   8.526  12.837  1.00  0.00     0.223 A 
ENDROOT
BRANCH   1  11
ATOM     11  C   UNL     1     -10.340   6.741  11.431  1.00  0.00     0.091 A 
ATOM     12  C   UNL     1      -9.021   6.652  10.961  1.00  0.00     0.068 A 
ATOM     13  C   UNL     1      -8.729   6.016   9.749  1.00  0.00     0.162 A 
ATOM     14  C   UNL     1     -11.372   6.149  10.686  1.00  0.00     0.068 A 
ATOM     15  C   UNL     1      -9.777   5.442   8.991  1.00  0.00     0.200 A 
ATOM     16  C   UNL     1     -11.093   5.509   9.471  1.00  0.00     0.162 A 
BRANCH  13  17
ATOM     17  O   UNL     1      -7.394   5.977   9.341  1.00  0.00    -0.504 OA
ATOM     18  H   UNL     1      -7.099   5.847   8.384  1.00  0.00     0.293 HD
ENDBRANCH  13  17
BRANCH  15  19
ATOM     19  O   UNL     1      -9.557   4.798   7.772  1.00  0.00    -0.502 OA
ATOM     20  H   UNL     1      -8.707   4.884   7.231  1.00  0.00     0.293 HD
ENDBRANCH  15  19
BRANCH  16  21
ATOM     21  O   UNL     1     -12.125   4.930   8.733  1.00  0.00    -0.504 OA
ATOM     22  H   UNL     1     -12.684   4.171   9.106  1.00  0.00     0.293 HD
ENDBRANCH  16  21
ENDBRANCH   1  11
BRANCH  10  23
ATOM     23  O   UNL     1     -12.034   9.095  11.707  1.00  0.00    -0.500 OA
ATOM     24  H   UNL     1     -11.591   9.854  11.202  1.00  0.00     0.294 HD
ENDBRANCH  10  23
BRANCH   5  25
ATOM     25  O   UNL     1      -9.018   6.767  18.468  1.00  0.00    -0.507 OA
ATOM     26  H   UNL     1      -8.046   6.490  18.392  1.00  0.00     0.293 HD
ENDBRANCH   5  25
BRANCH   7  27
ATOM     27  O   UNL     1     -12.032  10.150  16.833  1.00  0.00    -0.507 OA
ATOM     28  H   UNL     1     -11.745  10.951  17.377  1.00  0.00     0.293 HD
ENDBRANCH   7  27
TORSDOF 7
ENDMDL
