MODEL 1
REMARK VINA RESULT:    -7.162      0.000      0.000
REMARK INTER + INTRA:          -8.799
REMARK INTER:                  -8.627
REMARK INTRA:                  -0.172
REMARK UNBOUND:                -0.172
REMARK SMILES O=c1c(O)c(-c2ccc(O)c(O)c2)oc2cc(O)cc(O)c12
REMARK SMILES IDX 5 1 3 2 2 3 1 4 22 5 20 6 19 7 17 8 16 9 15 10 14 11 6 12
REMARK SMILES IDX 7 13 8 14 9 15 13 16 11 17 10 18 12 20 4 22 21 24 18 26
REMARK H PARENT 10 19 12 21 4 23 21 25 18 27
REMARK Flexibility Score: inf
ROOT
ATOM      1  C   UNL     1      31.361 -91.846  37.706  1.00  0.00     0.180 A 
ATOM      2  C   UNL     1      30.120 -92.444  37.429  1.00  0.00     0.208 A 
ATOM      3  C   UNL     1      29.977 -93.830  37.610  1.00  0.00     0.238 A 
ATOM      4  O   UNL     1      28.886 -94.370  37.289  1.00  0.00    -0.285 OA
ATOM      5  C   UNL     1      31.058 -94.590  38.118  1.00  0.00     0.111 A 
ATOM      6  C   UNL     1      31.011 -95.993  38.384  1.00  0.00     0.134 A 
ATOM      7  C   UNL     1      32.176 -96.659  38.785  1.00  0.00     0.093 A 
ATOM      8  C   UNL     1      33.369 -95.963  38.993  1.00  0.00     0.123 A 
ATOM      9  C   UNL     1      33.410 -94.585  38.790  1.00  0.00     0.094 A 
ATOM     10  C   UNL     1      32.275 -93.898  38.352  1.00  0.00     0.146 A 
ATOM     11  O   UNL     1      32.367 -92.590  38.150  1.00  0.00    -0.452 OA
ENDROOT
BRANCH   1  12
ATOM     12  C   UNL     1      31.593 -90.394  37.526  1.00  0.00     0.025 A 
ATOM     13  C   UNL     1      32.512 -89.912  36.577  1.00  0.00     0.016 A 
ATOM     14  C   UNL     1      32.732 -88.539  36.442  1.00  0.00     0.051 A 
ATOM     15  C   UNL     1      32.051 -87.629  37.260  1.00  0.00     0.157 A 
ATOM     16  C   UNL     1      30.928 -89.480  38.359  1.00  0.00     0.062 A 
ATOM     17  C   UNL     1      31.147 -88.104  38.226  1.00  0.00     0.158 A 
BRANCH  15  18
ATOM     18  O   UNL     1      32.272 -86.260  37.123  1.00  0.00    -0.504 OA
ATOM     19  H   UNL     1      33.206 -85.867  37.150  1.00  0.00     0.293 HD
ENDBRANCH  15  18
BRANCH  17  20
ATOM     20  O   UNL     1      30.458 -87.225  39.062  1.00  0.00    -0.504 OA
ATOM     21  H   UNL     1      29.741 -86.601  38.712  1.00  0.00     0.293 HD
ENDBRANCH  17  20
ENDBRANCH   1  12
BRANCH   2  22
ATOM     22  O   UNL     1      29.042 -91.665  37.001  1.00  0.00    -0.502 OA
ATOM     23  H   UNL     1      29.161 -90.740  36.606  1.00  0.00     0.293 HD
ENDBRANCH   2  22
BRANCH   6  24
ATOM     24  O   UNL     1      29.851 -96.768  38.295  1.00  0.00    -0.507 OA
ATOM     25  H   UNL     1      29.079 -96.731  38.943  1.00  0.00     0.293 HD
ENDBRANCH   6  24
BRANCH   8  26
ATOM     26  O   UNL     1      34.519 -96.631  39.410  1.00  0.00    -0.508 OA
ATOM     27  H   UNL     1      34.476 -97.563  39.806  1.00  0.00     0.293 HD
ENDBRANCH   8  26
TORSDOF 6
ENDMDL
MODEL 2
REMARK VINA RESULT:    -6.760      1.237      3.032
REMARK INTER + INTRA:          -8.315
REMARK INTER:                  -8.186
REMARK INTRA:                  -0.129
REMARK UNBOUND:                -0.172
REMARK SMILES O=c1c(O)c(-c2ccc(O)c(O)c2)oc2cc(O)cc(O)c12
REMARK SMILES IDX 5 1 3 2 2 3 1 4 22 5 20 6 19 7 17 8 16 9 15 10 14 11 6 12
REMARK SMILES IDX 7 13 8 14 9 15 13 16 11 17 10 18 12 20 4 22 21 24 18 26
REMARK H PARENT 10 19 12 21 4 23 21 25 18 27
REMARK Flexibility Score: inf
ROOT
ATOM      1  C   UNL     1      31.301 -91.991  37.713  1.00  0.00     0.180 A 
ATOM      2  C   UNL     1      32.324 -92.859  38.131  1.00  0.00     0.208 A 
ATOM      3  C   UNL     1      32.028 -94.220  38.314  1.00  0.00     0.238 A 
ATOM      4  O   UNL     1      32.929 -94.977  38.761  1.00  0.00    -0.285 OA
ATOM      5  C   UNL     1      30.731 -94.705  38.023  1.00  0.00     0.111 A 
ATOM      6  C   UNL     1      30.331 -96.073  38.129  1.00  0.00     0.134 A 
ATOM      7  C   UNL     1      28.991 -96.420  37.918  1.00  0.00     0.093 A 
ATOM      8  C   UNL     1      28.049 -95.460  37.540  1.00  0.00     0.123 A 
ATOM      9  C   UNL     1      28.440 -94.132  37.380  1.00  0.00     0.094 A 
ATOM     10  C   UNL     1      29.762 -93.748  37.622  1.00  0.00     0.146 A 
ATOM     11  O   UNL     1      30.085 -92.469  37.479  1.00  0.00    -0.452 OA
ENDROOT
BRANCH   1  12
ATOM     12  C   UNL     1      31.531 -90.541  37.512  1.00  0.00     0.025 A 
ATOM     13  C   UNL     1      32.458 -90.071  36.565  1.00  0.00     0.016 A 
ATOM     14  C   UNL     1      32.675 -88.699  36.411  1.00  0.00     0.051 A 
ATOM     15  C   UNL     1      31.982 -87.779  37.207  1.00  0.00     0.157 A 
ATOM     16  C   UNL     1      30.854 -89.616  38.323  1.00  0.00     0.062 A 
ATOM     17  C   UNL     1      31.069 -88.242  38.171  1.00  0.00     0.158 A 
BRANCH  15  18
ATOM     18  O   UNL     1      32.199 -86.412  37.050  1.00  0.00    -0.504 OA
ATOM     19  H   UNL     1      32.677 -85.865  37.758  1.00  0.00     0.293 HD
ENDBRANCH  15  18
BRANCH  17  20
ATOM     20  O   UNL     1      30.369 -87.353  38.986  1.00  0.00    -0.504 OA
ATOM     21  H   UNL     1      29.967 -86.495  38.626  1.00  0.00     0.293 HD
ENDBRANCH  17  20
ENDBRANCH   1  12
BRANCH   2  22
ATOM     22  O   UNL     1      33.618 -92.375  38.340  1.00  0.00    -0.502 OA
ATOM     23  H   UNL     1      33.935 -91.490  37.964  1.00  0.00     0.293 HD
ENDBRANCH   2  22
BRANCH   6  24
ATOM     24  O   UNL     1      31.208 -97.125  38.413  1.00  0.00    -0.507 OA
ATOM     25  H   UNL     1      31.338 -97.942  37.837  1.00  0.00     0.293 HD
ENDBRANCH   6  24
BRANCH   8  26
ATOM     26  O   UNL     1      26.721 -95.817  37.314  1.00  0.00    -0.508 OA
ATOM     27  H   UNL     1      25.976 -95.500  37.923  1.00  0.00     0.293 HD
ENDBRANCH   8  26
TORSDOF 6
ENDMDL
MODEL 3
REMARK VINA RESULT:    -5.703      9.496     10.971
REMARK INTER + INTRA:          -7.042
REMARK INTER:                  -6.716
REMARK INTRA:                  -0.326
REMARK UNBOUND:                -0.172
REMARK SMILES O=c1c(O)c(-c2ccc(O)c(O)c2)oc2cc(O)cc(O)c12
REMARK SMILES IDX 5 1 3 2 2 3 1 4 22 5 20 6 19 7 17 8 16 9 15 10 14 11 6 12
REMARK SMILES IDX 7 13 8 14 9 15 13 16 11 17 10 18 12 20 4 22 21 24 18 26
REMARK H PARENT 10 19 12 21 4 23 21 25 18 27
REMARK Flexibility Score: inf
ROOT
ATOM      1  C   UNL     1      36.579 -94.902  29.914  1.00  0.00     0.180 A 
ATOM      2  C   UNL     1      37.660 -95.238  29.081  1.00  0.00     0.208 A 
ATOM      3  C   UNL     1      38.961 -95.215  29.610  1.00  0.00     0.238 A 
ATOM      4  O   UNL     1      39.929 -95.444  28.838  1.00  0.00    -0.285 OA
ATOM      5  C   UNL     1      39.160 -94.911  30.978  1.00  0.00     0.111 A 
ATOM      6  C   UNL     1      40.430 -94.903  31.632  1.00  0.00     0.134 A 
ATOM      7  C   UNL     1      40.518 -94.483  32.965  1.00  0.00     0.093 A 
ATOM      8  C   UNL     1      39.374 -94.134  33.687  1.00  0.00     0.123 A 
ATOM      9  C   UNL     1      38.124 -94.192  33.075  1.00  0.00     0.094 A 
ATOM     10  C   UNL     1      38.008 -94.570  31.735  1.00  0.00     0.146 A 
ATOM     11  O   UNL     1      36.800 -94.590  31.186  1.00  0.00    -0.452 OA
ENDROOT
BRANCH   1  12
ATOM     12  C   UNL     1      35.181 -94.890  29.426  1.00  0.00     0.025 A 
ATOM     13  C   UNL     1      34.645 -93.768  28.769  1.00  0.00     0.016 A 
ATOM     14  C   UNL     1      33.315 -93.771  28.339  1.00  0.00     0.051 A 
ATOM     15  C   UNL     1      32.499 -94.885  28.570  1.00  0.00     0.157 A 
ATOM     16  C   UNL     1      34.353 -95.996  29.675  1.00  0.00     0.062 A 
ATOM     17  C   UNL     1      33.021 -96.002  29.245  1.00  0.00     0.158 A 
BRANCH  15  18
ATOM     18  O   UNL     1      31.174 -94.885  28.139  1.00  0.00    -0.504 OA
ATOM     19  H   UNL     1      30.614 -95.730  28.143  1.00  0.00     0.293 HD
ENDBRANCH  15  18
BRANCH  17  20
ATOM     20  O   UNL     1      32.233 -97.125  29.498  1.00  0.00    -0.504 OA
ATOM     21  H   UNL     1      32.637 -98.035  29.683  1.00  0.00     0.293 HD
ENDBRANCH  17  20
ENDBRANCH   1  12
BRANCH   2  22
ATOM     22  O   UNL     1      37.435 -95.609  27.752  1.00  0.00    -0.502 OA
ATOM     23  H   UNL     1      36.512 -95.616  27.337  1.00  0.00     0.293 HD
ENDBRANCH   2  22
BRANCH   6  24
ATOM     24  O   UNL     1      41.623 -95.317  31.031  1.00  0.00    -0.507 OA
ATOM     25  H   UNL     1      42.422 -95.684  31.524  1.00  0.00     0.293 HD
ENDBRANCH   6  24
BRANCH   8  26
ATOM     26  O   UNL     1      39.468 -93.734  35.019  1.00  0.00    -0.508 OA
ATOM     27  H   UNL     1      39.538 -92.756  35.275  1.00  0.00     0.293 HD
ENDBRANCH   8  26
TORSDOF 6
ENDMDL
MODEL 4
REMARK VINA RESULT:    -5.561      9.211     10.957
REMARK INTER + INTRA:          -6.872
REMARK INTER:                  -6.671
REMARK INTRA:                  -0.201
REMARK UNBOUND:                -0.172
REMARK SMILES O=c1c(O)c(-c2ccc(O)c(O)c2)oc2cc(O)cc(O)c12
REMARK SMILES IDX 5 1 3 2 2 3 1 4 22 5 20 6 19 7 17 8 16 9 15 10 14 11 6 12
REMARK SMILES IDX 7 13 8 14 9 15 13 16 11 17 10 18 12 20 4 22 21 24 18 26
REMARK H PARENT 10 19 12 21 4 23 21 25 18 27
REMARK Flexibility Score: inf
ROOT
ATOM      1  C   UNL     1      37.890 -94.946  31.243  1.00  0.00     0.180 A 
ATOM      2  C   UNL     1      38.474 -95.754  30.253  1.00  0.00     0.208 A 
ATOM      3  C   UNL     1      37.784 -95.958  29.047  1.00  0.00     0.238 A 
ATOM      4  O   UNL     1      38.279 -96.742  28.195  1.00  0.00    -0.285 OA
ATOM      5  C   UNL     1      36.547 -95.308  28.824  1.00  0.00     0.111 A 
ATOM      6  C   UNL     1      35.782 -95.406  27.621  1.00  0.00     0.134 A 
ATOM      7  C   UNL     1      34.519 -94.804  27.554  1.00  0.00     0.093 A 
ATOM      8  C   UNL     1      34.022 -94.053  28.621  1.00  0.00     0.123 A 
ATOM      9  C   UNL     1      34.784 -93.905  29.778  1.00  0.00     0.094 A 
ATOM     10  C   UNL     1      36.030 -94.526  29.890  1.00  0.00     0.146 A 
ATOM     11  O   UNL     1      36.712 -94.376  31.019  1.00  0.00    -0.452 OA
ENDROOT
BRANCH   1  12
ATOM     12  C   UNL     1      38.549 -94.695  32.546  1.00  0.00     0.025 A 
ATOM     13  C   UNL     1      39.732 -93.942  32.636  1.00  0.00     0.016 A 
ATOM     14  C   UNL     1      40.348 -93.739  33.874  1.00  0.00     0.051 A 
ATOM     15  C   UNL     1      39.801 -94.297  35.036  1.00  0.00     0.157 A 
ATOM     16  C   UNL     1      38.015 -95.271  33.711  1.00  0.00     0.062 A 
ATOM     17  C   UNL     1      38.629 -95.069  34.952  1.00  0.00     0.158 A 
BRANCH  15  18
ATOM     18  O   UNL     1      40.416 -94.092  36.269  1.00  0.00    -0.504 OA
ATOM     19  H   UNL     1      40.227 -94.692  37.064  1.00  0.00     0.293 HD
ENDBRANCH  15  18
BRANCH  17  20
ATOM     20  O   UNL     1      38.063 -95.646  36.090  1.00  0.00    -0.504 OA
ATOM     21  H   UNL     1      37.286 -96.293  36.034  1.00  0.00     0.293 HD
ENDBRANCH  17  20
ENDBRANCH   1  12
BRANCH   2  22
ATOM     22  O   UNL     1      39.732 -96.325  30.462  1.00  0.00    -0.502 OA
ATOM     23  H   UNL     1      40.430 -95.901  31.060  1.00  0.00     0.293 HD
ENDBRANCH   2  22
BRANCH   6  24
ATOM     24  O   UNL     1      36.223 -96.057  26.464  1.00  0.00    -0.507 OA
ATOM     25  H   UNL     1      37.189 -96.198  26.212  1.00  0.00     0.293 HD
ENDBRANCH   6  24
BRANCH   8  26
ATOM     26  O   UNL     1      32.771 -93.442  28.539  1.00  0.00    -0.508 OA
ATOM     27  H   UNL     1      32.584 -92.708  27.866  1.00  0.00     0.293 HD
ENDBRANCH   8  26
TORSDOF 6
ENDMDL
MODEL 5
REMARK VINA RESULT:    -5.472      8.841     10.958
REMARK INTER + INTRA:          -6.764
REMARK INTER:                  -6.435
REMARK INTRA:                  -0.329
REMARK UNBOUND:                -0.172
REMARK SMILES O=c1c(O)c(-c2ccc(O)c(O)c2)oc2cc(O)cc(O)c12
REMARK SMILES IDX 5 1 3 2 2 3 1 4 22 5 20 6 19 7 17 8 16 9 15 10 14 11 6 12
REMARK SMILES IDX 7 13 8 14 9 15 13 16 11 17 10 18 12 20 4 22 21 24 18 26
REMARK H PARENT 10 19 12 21 4 23 21 25 18 27
REMARK Flexibility Score: inf
ROOT
ATOM      1  C   UNL     1      40.270 -95.207  35.950  1.00  0.00     0.180 A 
ATOM      2  C   UNL     1      41.484 -95.166  35.243  1.00  0.00     0.208 A 
ATOM      3  C   UNL     1      41.455 -94.993  33.850  1.00  0.00     0.238 A 
ATOM      4  O   UNL     1      42.542 -95.033  33.215  1.00  0.00    -0.285 OA
ATOM      5  C   UNL     1      40.218 -94.807  33.188  1.00  0.00     0.111 A 
ATOM      6  C   UNL     1      40.073 -94.578  31.785  1.00  0.00     0.134 A 
ATOM      7  C   UNL     1      38.791 -94.514  31.224  1.00  0.00     0.093 A 
ATOM      8  C   UNL     1      37.649 -94.606  32.024  1.00  0.00     0.123 A 
ATOM      9  C   UNL     1      37.781 -94.774  33.401  1.00  0.00     0.094 A 
ATOM     10  C   UNL     1      39.045 -94.880  33.985  1.00  0.00     0.146 A 
ATOM     11  O   UNL     1      39.122 -95.062  35.297  1.00  0.00    -0.452 OA
ENDROOT
BRANCH   1  12
ATOM     12  C   UNL     1      40.217 -95.400  37.417  1.00  0.00     0.025 A 
ATOM     13  C   UNL     1      40.091 -96.681  37.983  1.00  0.00     0.016 A 
ATOM     14  C   UNL     1      40.020 -96.836  39.370  1.00  0.00     0.051 A 
ATOM     15  C   UNL     1      40.059 -95.717  40.210  1.00  0.00     0.157 A 
ATOM     16  C   UNL     1      40.234 -94.279  38.263  1.00  0.00     0.062 A 
ATOM     17  C   UNL     1      40.163 -94.431  39.652  1.00  0.00     0.158 A 
BRANCH  15  18
ATOM     18  O   UNL     1      39.989 -95.875  41.593  1.00  0.00    -0.504 OA
ATOM     19  H   UNL     1      39.912 -95.078  42.215  1.00  0.00     0.293 HD
ENDBRANCH  15  18
BRANCH  17  20
ATOM     20  O   UNL     1      40.196 -93.295  40.460  1.00  0.00    -0.504 OA
ATOM     21  H   UNL     1      40.281 -93.354  41.468  1.00  0.00     0.293 HD
ENDBRANCH  17  20
ENDBRANCH   1  12
BRANCH   2  22
ATOM     22  O   UNL     1      42.699 -95.275  35.925  1.00  0.00    -0.502 OA
ATOM     23  H   UNL     1      42.803 -95.015  36.898  1.00  0.00     0.293 HD
ENDBRANCH   2  22
BRANCH   6  24
ATOM     24  O   UNL     1      41.145 -94.383  30.909  1.00  0.00    -0.507 OA
ATOM     25  H   UNL     1      41.628 -93.508  30.771  1.00  0.00     0.293 HD
ENDBRANCH   6  24
BRANCH   8  26
ATOM     26  O   UNL     1      36.377 -94.523  31.460  1.00  0.00    -0.508 OA
ATOM     27  H   UNL     1      35.874 -95.352  31.166  1.00  0.00     0.293 HD
ENDBRANCH   8  26
TORSDOF 6
ENDMDL
MODEL 6
REMARK VINA RESULT:    -5.340      9.049     10.452
REMARK INTER + INTRA:          -6.604
REMARK INTER:                  -6.276
REMARK INTRA:                  -0.328
REMARK UNBOUND:                -0.172
REMARK SMILES O=c1c(O)c(-c2ccc(O)c(O)c2)oc2cc(O)cc(O)c12
REMARK SMILES IDX 5 1 3 2 2 3 1 4 22 5 20 6 19 7 17 8 16 9 15 10 14 11 6 12
REMARK SMILES IDX 7 13 8 14 9 15 13 16 11 17 10 18 12 20 4 22 21 24 18 26
REMARK H PARENT 10 19 12 21 4 23 21 25 18 27
REMARK Flexibility Score: inf
ROOT
ATOM      1  C   UNL     1      35.990 -95.245  30.221  1.00  0.00     0.180 A 
ATOM      2  C   UNL     1      35.872 -94.850  28.878  1.00  0.00     0.208 A 
ATOM      3  C   UNL     1      34.600 -94.835  28.282  1.00  0.00     0.238 A 
ATOM      4  O   UNL     1      34.511 -94.552  27.059  1.00  0.00    -0.285 OA
ATOM      5  C   UNL     1      33.457 -95.160  29.051  1.00  0.00     0.111 A 
ATOM      6  C   UNL     1      32.114 -95.134  28.563  1.00  0.00     0.134 A 
ATOM      7  C   UNL     1      31.072 -95.579  29.386  1.00  0.00     0.093 A 
ATOM      8  C   UNL     1      31.314 -95.987  30.699  1.00  0.00     0.123 A 
ATOM      9  C   UNL     1      32.613 -95.964  31.202  1.00  0.00     0.094 A 
ATOM     10  C   UNL     1      33.680 -95.562  30.394  1.00  0.00     0.146 A 
ATOM     11  O   UNL     1      34.903 -95.577  30.909  1.00  0.00    -0.452 OA
ENDROOT
BRANCH   1  12
ATOM     12  C   UNL     1      37.297 -95.302  30.915  1.00  0.00     0.025 A 
ATOM     13  C   UNL     1      38.124 -96.436  30.829  1.00  0.00     0.016 A 
ATOM     14  C   UNL     1      39.342 -96.474  31.512  1.00  0.00     0.051 A 
ATOM     15  C   UNL     1      39.746 -95.390  32.300  1.00  0.00     0.157 A 
ATOM     16  C   UNL     1      37.696 -94.225  31.724  1.00  0.00     0.062 A 
ATOM     17  C   UNL     1      38.916 -94.261  32.408  1.00  0.00     0.158 A 
BRANCH  15  18
ATOM     18  O   UNL     1      40.963 -95.431  32.979  1.00  0.00    -0.504 OA
ATOM     19  H   UNL     1      41.032 -95.186  33.960  1.00  0.00     0.293 HD
ENDBRANCH  15  18
BRANCH  17  20
ATOM     20  O   UNL     1      39.285 -93.167  33.192  1.00  0.00    -0.504 OA
ATOM     21  H   UNL     1      40.249 -92.992  33.450  1.00  0.00     0.293 HD
ENDBRANCH  17  20
ENDBRANCH   1  12
BRANCH   2  22
ATOM     22  O   UNL     1      37.003 -94.459  28.157  1.00  0.00    -0.502 OA
ATOM     23  H   UNL     1      36.943 -93.947  27.285  1.00  0.00     0.293 HD
ENDBRANCH   2  22
BRANCH   6  24
ATOM     24  O   UNL     1      31.750 -94.661  27.299  1.00  0.00    -0.507 OA
ATOM     25  H   UNL     1      31.803 -95.193  26.445  1.00  0.00     0.293 HD
ENDBRANCH   6  24
BRANCH   8  26
ATOM     26  O   UNL     1      30.268 -96.412  31.517  1.00  0.00    -0.508 OA
ATOM     27  H   UNL     1      30.346 -97.246  32.086  1.00  0.00     0.293 HD
ENDBRANCH   8  26
TORSDOF 6
ENDMDL
MODEL 7
REMARK VINA RESULT:    -5.336      9.399     10.634
REMARK INTER + INTRA:          -6.600
REMARK INTER:                  -6.307
REMARK INTRA:                  -0.293
REMARK UNBOUND:                -0.172
REMARK SMILES O=c1c(O)c(-c2ccc(O)c(O)c2)oc2cc(O)cc(O)c12
REMARK SMILES IDX 5 1 3 2 2 3 1 4 22 5 20 6 19 7 17 8 16 9 15 10 14 11 6 12
REMARK SMILES IDX 7 13 8 14 9 15 13 16 11 17 10 18 12 20 4 22 21 24 18 26
REMARK H PARENT 10 19 12 21 4 23 21 25 18 27
REMARK Flexibility Score: inf
ROOT
ATOM      1  C   UNL     1      30.896 -95.597  28.443  1.00  0.00     0.180 A 
ATOM      2  C   UNL     1      29.988 -95.608  27.371  1.00  0.00     0.208 A 
ATOM      3  C   UNL     1      28.643 -95.929  27.621  1.00  0.00     0.238 A 
ATOM      4  O   UNL     1      27.852 -96.009  26.645  1.00  0.00    -0.285 OA
ATOM      5  C   UNL     1      28.213 -96.182  28.945  1.00  0.00     0.111 A 
ATOM      6  C   UNL     1      26.865 -96.473  29.321  1.00  0.00     0.134 A 
ATOM      7  C   UNL     1      26.576 -96.811  30.648  1.00  0.00     0.093 A 
ATOM      8  C   UNL     1      27.573 -96.805  31.627  1.00  0.00     0.123 A 
ATOM      9  C   UNL     1      28.879 -96.468  31.282  1.00  0.00     0.094 A 
ATOM     10  C   UNL     1      29.207 -96.164  29.958  1.00  0.00     0.146 A 
ATOM     11  O   UNL     1      30.469 -95.871  29.671  1.00  0.00    -0.452 OA
ENDROOT
BRANCH   1  12
ATOM     12  C   UNL     1      32.331 -95.283  28.258  1.00  0.00     0.025 A 
ATOM     13  C   UNL     1      33.225 -96.227  27.723  1.00  0.00     0.016 A 
ATOM     14  C   UNL     1      34.580 -95.915  27.580  1.00  0.00     0.051 A 
ATOM     15  C   UNL     1      35.064 -94.664  27.982  1.00  0.00     0.157 A 
ATOM     16  C   UNL     1      32.825 -94.037  28.680  1.00  0.00     0.062 A 
ATOM     17  C   UNL     1      34.181 -93.722  28.538  1.00  0.00     0.158 A 
BRANCH  15  18
ATOM     18  O   UNL     1      36.415 -94.355  27.837  1.00  0.00    -0.504 OA
ATOM     19  H   UNL     1      37.017 -94.213  28.640  1.00  0.00     0.293 HD
ENDBRANCH  15  18
BRANCH  17  20
ATOM     20  O   UNL     1      34.632 -92.470  28.956  1.00  0.00    -0.504 OA
ATOM     21  H   UNL     1      34.016 -91.667  29.010  1.00  0.00     0.293 HD
ENDBRANCH  17  20
ENDBRANCH   1  12
BRANCH   2  22
ATOM     22  O   UNL     1      30.417 -95.281  26.082  1.00  0.00    -0.502 OA
ATOM     23  H   UNL     1      31.396 -95.201  25.838  1.00  0.00     0.293 HD
ENDBRANCH   2  22
BRANCH   6  24
ATOM     24  O   UNL     1      25.780 -96.420  28.441  1.00  0.00    -0.507 OA
ATOM     25  H   UNL     1      24.865 -96.065  28.672  1.00  0.00     0.293 HD
ENDBRANCH   6  24
BRANCH   8  26
ATOM     26  O   UNL     1      27.272 -97.125  32.950  1.00  0.00    -0.508 OA
ATOM     27  H   UNL     1      26.717 -97.940  33.185  1.00  0.00     0.293 HD
ENDBRANCH   8  26
TORSDOF 6
ENDMDL
MODEL 8
REMARK VINA RESULT:    -5.286      7.770     10.433
REMARK INTER + INTRA:          -6.540
REMARK INTER:                  -6.272
REMARK INTRA:                  -0.268
REMARK UNBOUND:                -0.172
REMARK SMILES O=c1c(O)c(-c2ccc(O)c(O)c2)oc2cc(O)cc(O)c12
REMARK SMILES IDX 5 1 3 2 2 3 1 4 22 5 20 6 19 7 17 8 16 9 15 10 14 11 6 12
REMARK SMILES IDX 7 13 8 14 9 15 13 16 11 17 10 18 12 20 4 22 21 24 18 26
REMARK H PARENT 10 19 12 21 4 23 21 25 18 27
REMARK Flexibility Score: inf
ROOT
ATOM      1  C   UNL     1      40.084 -94.907  35.531  1.00  0.00     0.180 A 
ATOM      2  C   UNL     1      41.099 -94.538  36.431  1.00  0.00     0.208 A 
ATOM      3  C   UNL     1      40.853 -94.636  37.811  1.00  0.00     0.238 A 
ATOM      4  O   UNL     1      41.739 -94.233  38.610  1.00  0.00    -0.285 OA
ATOM      5  C   UNL     1      39.620 -95.153  38.272  1.00  0.00     0.111 A 
ATOM      6  C   UNL     1      39.280 -95.339  39.648  1.00  0.00     0.134 A 
ATOM      7  C   UNL     1      37.988 -95.759  39.990  1.00  0.00     0.093 A 
ATOM      8  C   UNL     1      37.045 -96.062  39.005  1.00  0.00     0.123 A 
ATOM      9  C   UNL     1      37.384 -95.937  37.660  1.00  0.00     0.094 A 
ATOM     10  C   UNL     1      38.652 -95.483  37.288  1.00  0.00     0.146 A 
ATOM     11  O   UNL     1      38.924 -95.358  35.995  1.00  0.00    -0.452 OA
ENDROOT
BRANCH   1  12
ATOM     12  C   UNL     1      40.261 -94.818  34.063  1.00  0.00     0.025 A 
ATOM     13  C   UNL     1      39.637 -93.808  33.310  1.00  0.00     0.016 A 
ATOM     14  C   UNL     1      39.800 -93.759  31.923  1.00  0.00     0.051 A 
ATOM     15  C   UNL     1      40.575 -94.724  31.267  1.00  0.00     0.157 A 
ATOM     16  C   UNL     1      41.020 -95.796  33.399  1.00  0.00     0.062 A 
ATOM     17  C   UNL     1      41.185 -95.749  32.011  1.00  0.00     0.158 A 
BRANCH  15  18
ATOM     18  O   UNL     1      40.736 -94.672  29.884  1.00  0.00    -0.504 OA
ATOM     19  H   UNL     1      41.578 -95.014  29.435  1.00  0.00     0.293 HD
ENDBRANCH  15  18
BRANCH  17  20
ATOM     20  O   UNL     1      41.956 -96.731  31.387  1.00  0.00    -0.504 OA
ATOM     21  H   UNL     1      42.948 -96.610  31.223  1.00  0.00     0.293 HD
ENDBRANCH  17  20
ENDBRANCH   1  12
BRANCH   2  22
ATOM     22  O   UNL     1      42.338 -94.102  35.955  1.00  0.00    -0.502 OA
ATOM     23  H   UNL     1      42.969 -93.540  36.513  1.00  0.00     0.293 HD
ENDBRANCH   2  22
BRANCH   6  24
ATOM     24  O   UNL     1      40.174 -95.152  40.707  1.00  0.00    -0.507 OA
ATOM     25  H   UNL     1      40.079 -94.453  41.427  1.00  0.00     0.293 HD
ENDBRANCH   6  24
BRANCH   8  26
ATOM     26  O   UNL     1      35.767 -96.496  39.354  1.00  0.00    -0.508 OA
ATOM     27  H   UNL     1      35.265 -97.172  38.790  1.00  0.00     0.293 HD
ENDBRANCH   8  26
TORSDOF 6
ENDMDL
MODEL 9
REMARK VINA RESULT:    -5.218      9.455     10.910
REMARK INTER + INTRA:          -6.457
REMARK INTER:                  -6.160
REMARK INTRA:                  -0.297
REMARK UNBOUND:                -0.172
REMARK SMILES O=c1c(O)c(-c2ccc(O)c(O)c2)oc2cc(O)cc(O)c12
REMARK SMILES IDX 5 1 3 2 2 3 1 4 22 5 20 6 19 7 17 8 16 9 15 10 14 11 6 12
REMARK SMILES IDX 7 13 8 14 9 15 13 16 11 17 10 18 12 20 4 22 21 24 18 26
REMARK H PARENT 10 19 12 21 4 23 21 25 18 27
REMARK Flexibility Score: inf
ROOT
ATOM      1  C   UNL     1      31.008 -95.636  28.930  1.00  0.00     0.180 A 
ATOM      2  C   UNL     1      30.565 -96.019  30.208  1.00  0.00     0.208 A 
ATOM      3  C   UNL     1      29.203 -96.307  30.397  1.00  0.00     0.238 A 
ATOM      4  O   UNL     1      28.800 -96.576  31.559  1.00  0.00    -0.285 OA
ATOM      5  C   UNL     1      28.313 -96.263  29.297  1.00  0.00     0.111 A 
ATOM      6  C   UNL     1      26.921 -96.579  29.364  1.00  0.00     0.134 A 
ATOM      7  C   UNL     1      26.117 -96.398  28.233  1.00  0.00     0.093 A 
ATOM      8  C   UNL     1      26.664 -95.973  27.020  1.00  0.00     0.123 A 
ATOM      9  C   UNL     1      28.030 -95.715  26.929  1.00  0.00     0.094 A 
ATOM     10  C   UNL     1      28.852 -95.850  28.051  1.00  0.00     0.146 A 
ATOM     11  O   UNL     1      30.144 -95.572  27.924  1.00  0.00    -0.452 OA
ENDROOT
BRANCH   1  12
ATOM     12  C   UNL     1      32.425 -95.303  28.655  1.00  0.00     0.025 A 
ATOM     13  C   UNL     1      33.308 -96.251  28.109  1.00  0.00     0.016 A 
ATOM     14  C   UNL     1      34.646 -95.920  27.880  1.00  0.00     0.051 A 
ATOM     15  C   UNL     1      35.125 -94.645  28.206  1.00  0.00     0.157 A 
ATOM     16  C   UNL     1      32.915 -94.032  29.000  1.00  0.00     0.062 A 
ATOM     17  C   UNL     1      34.254 -93.698  28.772  1.00  0.00     0.158 A 
BRANCH  15  18
ATOM     18  O   UNL     1      36.460 -94.317  27.976  1.00  0.00    -0.504 OA
ATOM     19  H   UNL     1      36.725 -93.435  27.553  1.00  0.00     0.293 HD
ENDBRANCH  15  18
BRANCH  17  20
ATOM     20  O   UNL     1      34.701 -92.422  29.115  1.00  0.00    -0.504 OA
ATOM     21  H   UNL     1      35.006 -91.754  28.418  1.00  0.00     0.293 HD
ENDBRANCH  17  20
ENDBRANCH   1  12
BRANCH   2  22
ATOM     22  O   UNL     1      31.472 -96.130  31.264  1.00  0.00    -0.502 OA
ATOM     23  H   UNL     1      32.030 -95.350  31.588  1.00  0.00     0.293 HD
ENDBRANCH   2  22
BRANCH   6  24
ATOM     24  O   UNL     1      26.290 -97.095  30.500  1.00  0.00    -0.507 OA
ATOM     25  H   UNL     1      26.127 -98.074  30.678  1.00  0.00     0.293 HD
ENDBRANCH   6  24
BRANCH   8  26
ATOM     26  O   UNL     1      25.858 -95.812  25.894  1.00  0.00    -0.508 OA
ATOM     27  H   UNL     1      26.249 -95.810  24.959  1.00  0.00     0.293 HD
ENDBRANCH   8  26
TORSDOF 6
ENDMDL
