MODEL 1
REMARK VINA RESULT:    -4.844      0.000      0.000
REMARK INTER + INTRA:         -13.772
REMARK INTER:                 -10.507
REMARK INTRA:                  -3.265
REMARK UNBOUND:                -3.265
REMARK SMILES CCCCCCCCCCCCCCCCCCCCCC(=O)[O-]
REMARK SMILES IDX 12 1 11 2 10 3 9 4 8 5 7 6 6 7 5 8 4 9 3 10 2 11 1 12 13 13
REMARK SMILES IDX 14 14 15 15 16 16 17 17 18 18 19 19 20 20 21 21 22 22 23 23
REMARK SMILES IDX 24 24
REMARK H PARENT
REMARK Flexibility Score: inf
ROOT
ATOM      1  C   UNL     1      24.141  11.721  31.872  1.00  0.00     0.000 C 
ENDROOT
BRANCH   1   2
ATOM      2  C   UNL     1      25.207  10.612  31.806  1.00  0.00     0.000 C 
BRANCH   2   3
ATOM      3  C   UNL     1      25.833  10.476  30.410  1.00  0.00     0.000 C 
BRANCH   3   4
ATOM      4  C   UNL     1      27.366  10.408  30.454  1.00  0.00    -0.000 C 
BRANCH   4   5
ATOM      5  C   UNL     1      27.989  11.495  29.567  1.00  0.00    -0.000 C 
BRANCH   5   6
ATOM      6  C   UNL     1      27.854  12.880  30.218  1.00  0.00    -0.000 C 
BRANCH   6   7
ATOM      7  C   UNL     1      28.719  13.036  31.481  1.00  0.00    -0.000 C 
BRANCH   7   8
ATOM      8  C   UNL     1      27.938  13.058  32.812  1.00  0.00    -0.000 C 
BRANCH   8   9
ATOM      9  C   UNL     1      28.310  11.943  33.805  1.00  0.00    -0.000 C 
BRANCH   9  10
ATOM     10  C   UNL     1      27.121  11.497  34.673  1.00  0.00    -0.000 C 
BRANCH  10  11
ATOM     11  C   UNL     1      26.254  12.679  35.135  1.00  0.00    -0.003 C 
ATOM     12  C   UNL     1      24.836  12.257  35.523  1.00  0.00     0.004 C 
ENDBRANCH  10  11
ENDBRANCH   9  10
ENDBRANCH   8   9
ENDBRANCH   7   8
ENDBRANCH   6   7
ENDBRANCH   5   6
ENDBRANCH   4   5
ENDBRANCH   3   4
ENDBRANCH   2   3
ENDBRANCH   1   2
BRANCH   1  13
ATOM     13  C   UNL     1      24.010  12.486  30.537  1.00  0.00     0.000 C 
BRANCH  13  14
ATOM     14  C   UNL     1      22.556  12.666  30.069  1.00  0.00     0.000 C 
BRANCH  14  15
ATOM     15  C   UNL     1      22.195  14.131  29.784  1.00  0.00     0.000 C 
BRANCH  15  16
ATOM     16  C   UNL     1      20.858  14.509  30.439  1.00  0.00     0.000 C 
BRANCH  16  17
ATOM     17  C   UNL     1      20.557  13.681  31.699  1.00  0.00     0.000 C 
BRANCH  17  18
ATOM     18  C   UNL     1      20.997  14.390  32.991  1.00  0.00     0.000 C 
BRANCH  18  19
ATOM     19  C   UNL     1      21.668  13.440  33.999  1.00  0.00     0.000 C 
BRANCH  19  20
ATOM     20  C   UNL     1      21.031  12.038  34.107  1.00  0.00     0.006 C 
BRANCH  20  21
ATOM     21  C   UNL     1      20.581  11.650  35.525  1.00  0.00     0.053 C 
BRANCH  21  22
ATOM     22  C   UNL     1      19.162  12.048  35.794  1.00  0.00     0.041 C 
ATOM     23  O   UNL     1      18.731  12.097  36.976  1.00  0.00    -0.550 OA
ATOM     24  O   UNL     1      18.327  12.396  34.741  1.00  0.00    -0.550 OA
ENDBRANCH  21  22
ENDBRANCH  20  21
ENDBRANCH  19  20
ENDBRANCH  18  19
ENDBRANCH  17  18
ENDBRANCH  16  17
ENDBRANCH  15  16
ENDBRANCH  14  15
ENDBRANCH  13  14
ENDBRANCH   1  13
TORSDOF 20
ENDMDL
MODEL 2
REMARK VINA RESULT:    -4.802      1.353      1.934
REMARK INTER + INTRA:         -13.681
REMARK INTER:                 -10.373
REMARK INTRA:                  -3.308
REMARK UNBOUND:                -3.265
REMARK SMILES CCCCCCCCCCCCCCCCCCCCCC(=O)[O-]
REMARK SMILES IDX 12 1 11 2 10 3 9 4 8 5 7 6 6 7 5 8 4 9 3 10 2 11 1 12 13 13
REMARK SMILES IDX 14 14 15 15 16 16 17 17 18 18 19 19 20 20 21 21 22 22 23 23
REMARK SMILES IDX 24 24
REMARK H PARENT
REMARK Flexibility Score: inf
ROOT
ATOM      1  C   UNL     1      24.723  10.774  31.872  1.00  0.00     0.000 C 
ENDROOT
BRANCH   1   2
ATOM      2  C   UNL     1      25.662  10.231  30.781  1.00  0.00     0.000 C 
BRANCH   2   3
ATOM      3  C   UNL     1      26.341  11.348  29.974  1.00  0.00     0.000 C 
BRANCH   3   4
ATOM      4  C   UNL     1      27.846  11.109  29.784  1.00  0.00    -0.000 C 
BRANCH   4   5
ATOM      5  C   UNL     1      28.668  12.026  30.700  1.00  0.00    -0.000 C 
BRANCH   5   6
ATOM      6  C   UNL     1      27.830  13.225  31.172  1.00  0.00    -0.000 C 
BRANCH   6   7
ATOM      7  C   UNL     1      27.813  13.379  32.703  1.00  0.00    -0.000 C 
BRANCH   7   8
ATOM      8  C   UNL     1      28.294  12.143  33.492  1.00  0.00    -0.000 C 
BRANCH   8   9
ATOM      9  C   UNL     1      27.227  11.480  34.380  1.00  0.00    -0.000 C 
BRANCH   9  10
ATOM     10  C   UNL     1      26.319  12.501  35.084  1.00  0.00    -0.000 C 
BRANCH  10  11
ATOM     11  C   UNL     1      25.047  11.858  35.661  1.00  0.00    -0.003 C 
ATOM     12  C   UNL     1      23.770  12.575  35.219  1.00  0.00     0.004 C 
ENDBRANCH  10  11
ENDBRANCH   9  10
ENDBRANCH   8   9
ENDBRANCH   7   8
ENDBRANCH   6   7
ENDBRANCH   5   6
ENDBRANCH   4   5
ENDBRANCH   3   4
ENDBRANCH   2   3
ENDBRANCH   1   2
BRANCH   1  13
ATOM     13  C   UNL     1      24.323  12.244  31.619  1.00  0.00     0.000 C 
BRANCH  13  14
ATOM     14  C   UNL     1      22.851  12.421  31.207  1.00  0.00     0.000 C 
BRANCH  14  15
ATOM     15  C   UNL     1      21.874  11.712  32.155  1.00  0.00     0.000 C 
BRANCH  15  16
ATOM     16  C   UNL     1      20.651  12.594  32.450  1.00  0.00     0.000 C 
BRANCH  16  17
ATOM     17  C   UNL     1      21.036  13.981  32.992  1.00  0.00     0.000 C 
BRANCH  17  18
ATOM     18  C   UNL     1      20.592  14.190  34.450  1.00  0.00     0.000 C 
BRANCH  18  19
ATOM     19  C   UNL     1      19.337  13.378  34.817  1.00  0.00     0.000 C 
BRANCH  19  20
ATOM     20  C   UNL     1      19.496  12.428  36.023  1.00  0.00     0.006 C 
BRANCH  20  21
ATOM     21  C   UNL     1      20.250  11.125  35.714  1.00  0.00     0.053 C 
BRANCH  21  22
ATOM     22  C   UNL     1      19.330   9.944  35.651  1.00  0.00     0.041 C 
ATOM     23  O   UNL     1      18.900   9.535  34.541  1.00  0.00    -0.550 OA
ATOM     24  O   UNL     1      18.975   9.277  36.816  1.00  0.00    -0.550 OA
ENDBRANCH  21  22
ENDBRANCH  20  21
ENDBRANCH  19  20
ENDBRANCH  18  19
ENDBRANCH  17  18
ENDBRANCH  16  17
ENDBRANCH  15  16
ENDBRANCH  14  15
ENDBRANCH  13  14
ENDBRANCH   1  13
TORSDOF 20
ENDMDL
MODEL 3
REMARK VINA RESULT:    -4.754      1.753      3.922
REMARK INTER + INTRA:         -13.577
REMARK INTER:                 -10.739
REMARK INTRA:                  -2.838
REMARK UNBOUND:                -3.265
REMARK SMILES CCCCCCCCCCCCCCCCCCCCCC(=O)[O-]
REMARK SMILES IDX 12 1 11 2 10 3 9 4 8 5 7 6 6 7 5 8 4 9 3 10 2 11 1 12 13 13
REMARK SMILES IDX 14 14 15 15 16 16 17 17 18 18 19 19 20 20 21 21 22 22 23 23
REMARK SMILES IDX 24 24
REMARK H PARENT
REMARK Flexibility Score: inf
ROOT
ATOM      1  C   UNL     1      25.139  11.987  35.008  1.00  0.00     0.000 C 
ENDROOT
BRANCH   1   2
ATOM      2  C   UNL     1      26.324  12.968  34.956  1.00  0.00     0.000 C 
BRANCH   2   3
ATOM      3  C   UNL     1      27.680  12.253  34.869  1.00  0.00     0.000 C 
BRANCH   3   4
ATOM      4  C   UNL     1      28.080  11.917  33.425  1.00  0.00    -0.000 C 
BRANCH   4   5
ATOM      5  C   UNL     1      27.898  13.133  32.507  1.00  0.00    -0.000 C 
BRANCH   5   6
ATOM      6  C   UNL     1      28.240  12.780  31.051  1.00  0.00    -0.000 C 
BRANCH   6   7
ATOM      7  C   UNL     1      28.037  11.288  30.732  1.00  0.00    -0.000 C 
BRANCH   7   8
ATOM      8  C   UNL     1      26.669  10.930  30.114  1.00  0.00    -0.000 C 
BRANCH   8   9
ATOM      9  C   UNL     1      25.730  10.124  31.028  1.00  0.00    -0.000 C 
BRANCH   9  10
ATOM     10  C   UNL     1      24.733  11.013  31.791  1.00  0.00    -0.000 C 
BRANCH  10  11
ATOM     11  C   UNL     1      24.499  12.363  31.096  1.00  0.00    -0.003 C 
ATOM     12  C   UNL     1      23.122  12.458  30.436  1.00  0.00     0.004 C 
ENDBRANCH  10  11
ENDBRANCH   9  10
ENDBRANCH   8   9
ENDBRANCH   7   8
ENDBRANCH   6   7
ENDBRANCH   5   6
ENDBRANCH   4   5
ENDBRANCH   3   4
ENDBRANCH   2   3
ENDBRANCH   1   2
BRANCH   1  13
ATOM     13  C   UNL     1      23.873  12.631  35.613  1.00  0.00     0.000 C 
BRANCH  13  14
ATOM     14  C   UNL     1      22.570  12.215  34.908  1.00  0.00     0.000 C 
BRANCH  14  15
ATOM     15  C   UNL     1      22.094  13.242  33.872  1.00  0.00     0.000 C 
BRANCH  15  16
ATOM     16  C   UNL     1      20.641  13.664  34.138  1.00  0.00     0.000 C 
BRANCH  16  17
ATOM     17  C   UNL     1      20.215  13.442  35.598  1.00  0.00     0.000 C 
BRANCH  17  18
ATOM     18  C   UNL     1      18.907  12.641  35.717  1.00  0.00     0.000 C 
BRANCH  18  19
ATOM     19  C   UNL     1      18.625  11.765  34.483  1.00  0.00     0.000 C 
BRANCH  19  20
ATOM     20  C   UNL     1      19.189  10.330  34.550  1.00  0.00     0.006 C 
BRANCH  20  21
ATOM     21  C   UNL     1      19.705   9.912  35.937  1.00  0.00     0.053 C 
BRANCH  21  22
ATOM     22  C   UNL     1      19.105   8.618  36.394  1.00  0.00     0.041 C 
ATOM     23  O   UNL     1      18.434   7.914  35.595  1.00  0.00    -0.550 OA
ATOM     24  O   UNL     1      19.316   8.174  37.693  1.00  0.00    -0.550 OA
ENDBRANCH  21  22
ENDBRANCH  20  21
ENDBRANCH  19  20
ENDBRANCH  18  19
ENDBRANCH  17  18
ENDBRANCH  16  17
ENDBRANCH  15  16
ENDBRANCH  14  15
ENDBRANCH  13  14
ENDBRANCH   1  13
TORSDOF 20
ENDMDL
MODEL 4
REMARK VINA RESULT:    -4.695      1.529      2.024
REMARK INTER + INTRA:         -13.450
REMARK INTER:                 -10.759
REMARK INTRA:                  -2.691
REMARK UNBOUND:                -3.265
REMARK SMILES CCCCCCCCCCCCCCCCCCCCCC(=O)[O-]
REMARK SMILES IDX 12 1 11 2 10 3 9 4 8 5 7 6 6 7 5 8 4 9 3 10 2 11 1 12 13 13
REMARK SMILES IDX 14 14 15 15 16 16 17 17 18 18 19 19 20 20 21 21 22 22 23 23
REMARK SMILES IDX 24 24
REMARK H PARENT
REMARK Flexibility Score: inf
ROOT
ATOM      1  C   UNL     1      24.446  10.389  31.228  1.00  0.00     0.000 C 
ENDROOT
BRANCH   1   2
ATOM      2  C   UNL     1      25.589  11.308  30.761  1.00  0.00     0.000 C 
BRANCH   2   3
ATOM      3  C   UNL     1      26.973  10.667  30.942  1.00  0.00     0.000 C 
BRANCH   3   4
ATOM      4  C   UNL     1      28.055  11.347  30.090  1.00  0.00    -0.000 C 
BRANCH   4   5
ATOM      5  C   UNL     1      28.459  12.700  30.692  1.00  0.00    -0.000 C 
BRANCH   5   6
ATOM      6  C   UNL     1      28.628  12.595  32.215  1.00  0.00    -0.000 C 
BRANCH   6   7
ATOM      7  C   UNL     1      27.826  13.661  32.983  1.00  0.00    -0.000 C 
BRANCH   7   8
ATOM      8  C   UNL     1      27.655  13.393  34.493  1.00  0.00    -0.000 C 
BRANCH   8   9
ATOM      9  C   UNL     1      27.590  11.907  34.887  1.00  0.00    -0.000 C 
BRANCH   9  10
ATOM     10  C   UNL     1      26.243  11.254  34.531  1.00  0.00    -0.000 C 
BRANCH  10  11
ATOM     11  C   UNL     1      25.080  12.258  34.551  1.00  0.00    -0.003 C 
ATOM     12  C   UNL     1      24.473  12.433  35.944  1.00  0.00     0.004 C 
ENDBRANCH  10  11
ENDBRANCH   9  10
ENDBRANCH   8   9
ENDBRANCH   7   8
ENDBRANCH   6   7
ENDBRANCH   5   6
ENDBRANCH   4   5
ENDBRANCH   3   4
ENDBRANCH   2   3
ENDBRANCH   1   2
BRANCH   1  13
ATOM     13  C   UNL     1      23.690   9.748  30.044  1.00  0.00     0.000 C 
BRANCH  13  14
ATOM     14  C   UNL     1      22.339   9.126  30.438  1.00  0.00     0.000 C 
BRANCH  14  15
ATOM     15  C   UNL     1      21.165  10.104  30.296  1.00  0.00     0.000 C 
BRANCH  15  16
ATOM     16  C   UNL     1      20.826  10.760  31.643  1.00  0.00     0.000 C 
BRANCH  16  17
ATOM     17  C   UNL     1      21.076  12.278  31.645  1.00  0.00     0.000 C 
BRANCH  17  18
ATOM     18  C   UNL     1      21.902  12.739  32.858  1.00  0.00     0.000 C 
BRANCH  18  19
ATOM     19  C   UNL     1      21.211  13.852  33.667  1.00  0.00     0.000 C 
BRANCH  19  20
ATOM     20  C   UNL     1      20.842  13.478  35.118  1.00  0.00     0.006 C 
BRANCH  20  21
ATOM     21  C   UNL     1      20.875  11.971  35.417  1.00  0.00     0.053 C 
BRANCH  21  22
ATOM     22  C   UNL     1      19.549  11.463  35.896  1.00  0.00     0.041 C 
ATOM     23  O   UNL     1      19.235  10.256  35.727  1.00  0.00    -0.550 OA
ATOM     24  O   UNL     1      18.677  12.316  36.559  1.00  0.00    -0.550 OA
ENDBRANCH  21  22
ENDBRANCH  20  21
ENDBRANCH  19  20
ENDBRANCH  18  19
ENDBRANCH  17  18
ENDBRANCH  16  17
ENDBRANCH  15  16
ENDBRANCH  14  15
ENDBRANCH  13  14
ENDBRANCH   1  13
TORSDOF 20
ENDMDL
MODEL 5
REMARK VINA RESULT:    -4.688      2.507      6.279
REMARK INTER + INTRA:         -13.435
REMARK INTER:                 -10.107
REMARK INTRA:                  -3.327
REMARK UNBOUND:                -3.265
REMARK SMILES CCCCCCCCCCCCCCCCCCCCCC(=O)[O-]
REMARK SMILES IDX 12 1 11 2 10 3 9 4 8 5 7 6 6 7 5 8 4 9 3 10 2 11 1 12 13 13
REMARK SMILES IDX 14 14 15 15 16 16 17 17 18 18 19 19 20 20 21 21 22 22 23 23
REMARK SMILES IDX 24 24
REMARK H PARENT
REMARK Flexibility Score: inf
ROOT
ATOM      1  C   UNL     1      24.438  10.768  31.863  1.00  0.00     0.000 C 
ENDROOT
BRANCH   1   2
ATOM      2  C   UNL     1      23.841  10.120  30.601  1.00  0.00     0.000 C 
BRANCH   2   3
ATOM      3  C   UNL     1      22.347   9.793  30.755  1.00  0.00     0.000 C 
BRANCH   3   4
ATOM      4  C   UNL     1      21.442  10.968  30.357  1.00  0.00    -0.000 C 
BRANCH   4   5
ATOM      5  C   UNL     1      20.931  11.712  31.598  1.00  0.00    -0.000 C 
BRANCH   5   6
ATOM      6  C   UNL     1      21.098  13.231  31.435  1.00  0.00    -0.000 C 
BRANCH   6   7
ATOM      7  C   UNL     1      21.217  13.970  32.780  1.00  0.00    -0.000 C 
BRANCH   7   8
ATOM      8  C   UNL     1      21.894  13.168  33.911  1.00  0.00    -0.000 C 
BRANCH   8   9
ATOM      9  C   UNL     1      21.070  13.040  35.203  1.00  0.00    -0.000 C 
BRANCH   9  10
ATOM     10  C   UNL     1      20.803  11.577  35.598  1.00  0.00    -0.000 C 
BRANCH  10  11
ATOM     11  C   UNL     1      19.306  11.227  35.579  1.00  0.00    -0.003 C 
ATOM     12  C   UNL     1      18.936  10.274  34.441  1.00  0.00     0.004 C 
ENDBRANCH  10  11
ENDBRANCH   9  10
ENDBRANCH   8   9
ENDBRANCH   7   8
ENDBRANCH   6   7
ENDBRANCH   5   6
ENDBRANCH   4   5
ENDBRANCH   3   4
ENDBRANCH   2   3
ENDBRANCH   1   2
BRANCH   1  13
ATOM     13  C   UNL     1      24.750  12.266  31.658  1.00  0.00     0.000 C 
BRANCH  13  14
ATOM     14  C   UNL     1      24.725  12.706  30.183  1.00  0.00     0.000 C 
BRANCH  14  15
ATOM     15  C   UNL     1      26.117  13.054  29.638  1.00  0.00     0.000 C 
BRANCH  15  16
ATOM     16  C   UNL     1      26.914  11.784  29.303  1.00  0.00     0.000 C 
BRANCH  16  17
ATOM     17  C   UNL     1      28.151  11.605  30.198  1.00  0.00     0.000 C 
BRANCH  17  18
ATOM     18  C   UNL     1      28.469  12.862  31.025  1.00  0.00     0.000 C 
BRANCH  18  19
ATOM     19  C   UNL     1      28.485  12.594  32.541  1.00  0.00     0.000 C 
BRANCH  19  20
ATOM     20  C   UNL     1      27.692  13.604  33.397  1.00  0.00     0.006 C 
BRANCH  20  21
ATOM     21  C   UNL     1      27.495  13.182  34.863  1.00  0.00     0.053 C 
BRANCH  21  22
ATOM     22  C   UNL     1      26.381  12.193  35.019  1.00  0.00     0.041 C 
ATOM     23  O   UNL     1      26.605  10.961  34.888  1.00  0.00    -0.550 OA
ATOM     24  O   UNL     1      25.103  12.631  35.342  1.00  0.00    -0.550 OA
ENDBRANCH  21  22
ENDBRANCH  20  21
ENDBRANCH  19  20
ENDBRANCH  18  19
ENDBRANCH  17  18
ENDBRANCH  16  17
ENDBRANCH  15  16
ENDBRANCH  14  15
ENDBRANCH  13  14
ENDBRANCH   1  13
TORSDOF 20
ENDMDL
MODEL 6
REMARK VINA RESULT:    -4.648      2.261      6.557
REMARK INTER + INTRA:         -13.346
REMARK INTER:                 -10.639
REMARK INTRA:                  -2.707
REMARK UNBOUND:                -3.265
REMARK SMILES CCCCCCCCCCCCCCCCCCCCCC(=O)[O-]
REMARK SMILES IDX 12 1 11 2 10 3 9 4 8 5 7 6 6 7 5 8 4 9 3 10 2 11 1 12 13 13
REMARK SMILES IDX 14 14 15 15 16 16 17 17 18 18 19 19 20 20 21 21 22 22 23 23
REMARK SMILES IDX 24 24
REMARK H PARENT
REMARK Flexibility Score: inf
ROOT
ATOM      1  C   UNL     1      23.127  10.717  31.163  1.00  0.00     0.000 C 
ENDROOT
BRANCH   1   2
ATOM      2  C   UNL     1      21.619  10.751  31.469  1.00  0.00     0.000 C 
BRANCH   2   3
ATOM      3  C   UNL     1      20.892  11.889  30.737  1.00  0.00     0.000 C 
BRANCH   3   4
ATOM      4  C   UNL     1      20.049  12.757  31.682  1.00  0.00    -0.000 C 
BRANCH   4   5
ATOM      5  C   UNL     1      20.786  14.055  32.040  1.00  0.00    -0.000 C 
BRANCH   5   6
ATOM      6  C   UNL     1      20.918  14.209  33.564  1.00  0.00    -0.000 C 
BRANCH   6   7
ATOM      7  C   UNL     1      21.916  13.215  34.184  1.00  0.00    -0.000 C 
BRANCH   7   8
ATOM      8  C   UNL     1      21.358  12.363  35.343  1.00  0.00    -0.000 C 
BRANCH   8   9
ATOM      9  C   UNL     1      19.934  12.729  35.794  1.00  0.00    -0.000 C 
BRANCH   9  10
ATOM     10  C   UNL     1      19.048  11.494  36.030  1.00  0.00    -0.000 C 
BRANCH  10  11
ATOM     11  C   UNL     1      19.773  10.179  35.704  1.00  0.00    -0.003 C 
ATOM     12  C   UNL     1      19.207   8.984  36.474  1.00  0.00     0.004 C 
ENDBRANCH  10  11
ENDBRANCH   9  10
ENDBRANCH   8   9
ENDBRANCH   7   8
ENDBRANCH   6   7
ENDBRANCH   5   6
ENDBRANCH   4   5
ENDBRANCH   3   4
ENDBRANCH   2   3
ENDBRANCH   1   2
BRANCH   1  13
ATOM     13  C   UNL     1      23.654  12.084  30.674  1.00  0.00     0.000 C 
BRANCH  13  14
ATOM     14  C   UNL     1      25.168  12.098  30.398  1.00  0.00     0.000 C 
BRANCH  14  15
ATOM     15  C   UNL     1      25.861  10.786  30.791  1.00  0.00     0.000 C 
BRANCH  15  16
ATOM     16  C   UNL     1      27.370  10.995  30.987  1.00  0.00     0.000 C 
BRANCH  16  17
ATOM     17  C   UNL     1      27.775  12.478  30.954  1.00  0.00     0.000 C 
BRANCH  17  18
ATOM     18  C   UNL     1      28.575  12.901  32.199  1.00  0.00     0.000 C 
BRANCH  18  19
ATOM     19  C   UNL     1      27.739  13.717  33.201  1.00  0.00     0.000 C 
BRANCH  19  20
ATOM     20  C   UNL     1      27.809  13.232  34.665  1.00  0.00     0.006 C 
BRANCH  20  21
ATOM     21  C   UNL     1      27.085  11.902  34.932  1.00  0.00     0.053 C 
BRANCH  21  22
ATOM     22  C   UNL     1      25.596  12.063  34.936  1.00  0.00     0.041 C 
ATOM     23  O   UNL     1      24.919  11.720  33.932  1.00  0.00    -0.550 OA
ATOM     24  O   UNL     1      24.953  12.561  36.062  1.00  0.00    -0.550 OA
ENDBRANCH  21  22
ENDBRANCH  20  21
ENDBRANCH  19  20
ENDBRANCH  18  19
ENDBRANCH  17  18
ENDBRANCH  16  17
ENDBRANCH  15  16
ENDBRANCH  14  15
ENDBRANCH  13  14
ENDBRANCH   1  13
TORSDOF 20
ENDMDL
MODEL 7
REMARK VINA RESULT:    -4.572      2.236      6.513
REMARK INTER + INTRA:         -13.183
REMARK INTER:                 -10.115
REMARK INTRA:                  -3.067
REMARK UNBOUND:                -3.265
REMARK SMILES CCCCCCCCCCCCCCCCCCCCCC(=O)[O-]
REMARK SMILES IDX 12 1 11 2 10 3 9 4 8 5 7 6 6 7 5 8 4 9 3 10 2 11 1 12 13 13
REMARK SMILES IDX 14 14 15 15 16 16 17 17 18 18 19 19 20 20 21 21 22 22 23 23
REMARK SMILES IDX 24 24
REMARK H PARENT
REMARK Flexibility Score: inf
ROOT
ATOM      1  C   UNL     1      25.090  11.792  31.873  1.00  0.00     0.000 C 
ENDROOT
BRANCH   1   2
ATOM      2  C   UNL     1      23.555  11.756  31.974  1.00  0.00     0.000 C 
BRANCH   2   3
ATOM      3  C   UNL     1      22.872  11.722  30.598  1.00  0.00     0.000 C 
BRANCH   3   4
ATOM      4  C   UNL     1      21.545  10.951  30.616  1.00  0.00    -0.000 C 
BRANCH   4   5
ATOM      5  C   UNL     1      20.857  11.072  31.982  1.00  0.00    -0.000 C 
BRANCH   5   6
ATOM      6  C   UNL     1      19.433  11.632  31.832  1.00  0.00    -0.000 C 
BRANCH   6   7
ATOM      7  C   UNL     1      19.303  13.081  32.333  1.00  0.00    -0.000 C 
BRANCH   7   8
ATOM      8  C   UNL     1      20.613  13.722  32.837  1.00  0.00    -0.000 C 
BRANCH   8   9
ATOM      9  C   UNL     1      20.636  14.066  34.336  1.00  0.00    -0.000 C 
BRANCH   9  10
ATOM     10  C   UNL     1      21.038  12.870  35.216  1.00  0.00    -0.000 C 
BRANCH  10  11
ATOM     11  C   UNL     1      19.831  12.221  35.912  1.00  0.00    -0.003 C 
ATOM     12  C   UNL     1      19.616  10.766  35.491  1.00  0.00     0.004 C 
ENDBRANCH  10  11
ENDBRANCH   9  10
ENDBRANCH   8   9
ENDBRANCH   7   8
ENDBRANCH   6   7
ENDBRANCH   5   6
ENDBRANCH   4   5
ENDBRANCH   3   4
ENDBRANCH   2   3
ENDBRANCH   1   2
BRANCH   1  13
ATOM     13  C   UNL     1      25.683  10.416  31.495  1.00  0.00     0.000 C 
BRANCH  13  14
ATOM     14  C   UNL     1      26.313  10.380  30.092  1.00  0.00     0.000 C 
BRANCH  14  15
ATOM     15  C   UNL     1      27.045  11.680  29.730  1.00  0.00     0.000 C 
BRANCH  15  16
ATOM     16  C   UNL     1      28.422  11.747  30.408  1.00  0.00     0.000 C 
BRANCH  16  17
ATOM     17  C   UNL     1      28.755  13.150  30.941  1.00  0.00     0.000 C 
BRANCH  17  18
ATOM     18  C   UNL     1      28.346  13.335  32.413  1.00  0.00     0.000 C 
BRANCH  18  19
ATOM     19  C   UNL     1      28.466  12.040  33.237  1.00  0.00     0.000 C 
BRANCH  19  20
ATOM     20  C   UNL     1      28.035  12.157  34.714  1.00  0.00     0.006 C 
BRANCH  20  21
ATOM     21  C   UNL     1      26.803  13.046  34.951  1.00  0.00     0.053 C 
BRANCH  21  22
ATOM     22  C   UNL     1      25.611  12.251  35.388  1.00  0.00     0.041 C 
ATOM     23  O   UNL     1      24.557  12.837  35.749  1.00  0.00    -0.550 OA
ATOM     24  O   UNL     1      25.654  10.863  35.364  1.00  0.00    -0.550 OA
ENDBRANCH  21  22
ENDBRANCH  20  21
ENDBRANCH  19  20
ENDBRANCH  18  19
ENDBRANCH  17  18
ENDBRANCH  16  17
ENDBRANCH  15  16
ENDBRANCH  14  15
ENDBRANCH  13  14
ENDBRANCH   1  13
TORSDOF 20
ENDMDL
MODEL 8
REMARK VINA RESULT:    -4.571      3.224      7.613
REMARK INTER + INTRA:         -13.180
REMARK INTER:                 -11.072
REMARK INTRA:                  -2.109
REMARK UNBOUND:                -3.265
REMARK SMILES CCCCCCCCCCCCCCCCCCCCCC(=O)[O-]
REMARK SMILES IDX 12 1 11 2 10 3 9 4 8 5 7 6 6 7 5 8 4 9 3 10 2 11 1 12 13 13
REMARK SMILES IDX 14 14 15 15 16 16 17 17 18 18 19 19 20 20 21 21 22 22 23 23
REMARK SMILES IDX 24 24
REMARK H PARENT
REMARK Flexibility Score: inf
ROOT
ATOM      1  C   UNL     1      23.379  11.503  31.787  1.00  0.00     0.000 C 
ENDROOT
BRANCH   1   2
ATOM      2  C   UNL     1      23.297  12.579  30.689  1.00  0.00     0.000 C 
BRANCH   2   3
ATOM      3  C   UNL     1      22.014  13.419  30.779  1.00  0.00     0.000 C 
BRANCH   3   4
ATOM      4  C   UNL     1      21.082  12.956  31.907  1.00  0.00    -0.000 C 
BRANCH   4   5
ATOM      5  C   UNL     1      20.855  14.079  32.928  1.00  0.00    -0.000 C 
BRANCH   5   6
ATOM      6  C   UNL     1      20.004  13.584  34.109  1.00  0.00    -0.000 C 
BRANCH   6   7
ATOM      7  C   UNL     1      20.852  13.128  35.310  1.00  0.00    -0.000 C 
BRANCH   7   8
ATOM      8  C   UNL     1      20.734  11.631  35.664  1.00  0.00    -0.000 C 
BRANCH   8   9
ATOM      9  C   UNL     1      19.295  11.093  35.755  1.00  0.00    -0.000 C 
BRANCH   9  10
ATOM     10  C   UNL     1      19.225   9.559  35.667  1.00  0.00    -0.000 C 
BRANCH  10  11
ATOM     11  C   UNL     1      19.050   8.899  37.044  1.00  0.00    -0.003 C 
ATOM     12  C   UNL     1      18.883   7.381  36.955  1.00  0.00     0.004 C 
ENDBRANCH  10  11
ENDBRANCH   9  10
ENDBRANCH   8   9
ENDBRANCH   7   8
ENDBRANCH   6   7
ENDBRANCH   5   6
ENDBRANCH   4   5
ENDBRANCH   3   4
ENDBRANCH   2   3
ENDBRANCH   1   2
BRANCH   1  13
ATOM     13  C   UNL     1      24.551  11.752  32.762  1.00  0.00     0.000 C 
BRANCH  13  14
ATOM     14  C   UNL     1      24.114  12.340  34.115  1.00  0.00     0.000 C 
BRANCH  14  15
ATOM     15  C   UNL     1      25.111  12.049  35.245  1.00  0.00     0.000 C 
BRANCH  15  16
ATOM     16  C   UNL     1      26.552  12.002  34.713  1.00  0.00     0.000 C 
BRANCH  16  17
ATOM     17  C   UNL     1      27.259  13.365  34.790  1.00  0.00     0.000 C 
BRANCH  17  18
ATOM     18  C   UNL     1      28.092  13.671  33.534  1.00  0.00     0.000 C 
BRANCH  18  19
ATOM     19  C   UNL     1      27.942  12.599  32.439  1.00  0.00     0.000 C 
BRANCH  19  20
ATOM     20  C   UNL     1      28.676  12.902  31.116  1.00  0.00     0.006 C 
BRANCH  20  21
ATOM     21  C   UNL     1      28.589  11.781  30.067  1.00  0.00     0.053 C 
BRANCH  21  22
ATOM     22  C   UNL     1      27.184  11.299  29.873  1.00  0.00     0.041 C 
ATOM     23  O   UNL     1      26.813  10.210  30.384  1.00  0.00    -0.550 OA
ATOM     24  O   UNL     1      26.277  12.069  29.158  1.00  0.00    -0.550 OA
ENDBRANCH  21  22
ENDBRANCH  20  21
ENDBRANCH  19  20
ENDBRANCH  18  19
ENDBRANCH  17  18
ENDBRANCH  16  17
ENDBRANCH  15  16
ENDBRANCH  14  15
ENDBRANCH  13  14
ENDBRANCH   1  13
TORSDOF 20
ENDMDL
MODEL 9
REMARK VINA RESULT:    -4.488      2.630      7.212
REMARK INTER + INTRA:         -13.000
REMARK INTER:                 -10.300
REMARK INTRA:                  -2.700
REMARK UNBOUND:                -3.265
REMARK SMILES CCCCCCCCCCCCCCCCCCCCCC(=O)[O-]
REMARK SMILES IDX 12 1 11 2 10 3 9 4 8 5 7 6 6 7 5 8 4 9 3 10 2 11 1 12 13 13
REMARK SMILES IDX 14 14 15 15 16 16 17 17 18 18 19 19 20 20 21 21 22 22 23 23
REMARK SMILES IDX 24 24
REMARK H PARENT
REMARK Flexibility Score: inf
ROOT
ATOM      1  C   UNL     1      24.099  11.604  32.277  1.00  0.00     0.000 C 
ENDROOT
BRANCH   1   2
ATOM      2  C   UNL     1      22.952  11.991  31.326  1.00  0.00     0.000 C 
BRANCH   2   3
ATOM      3  C   UNL     1      21.996  13.024  31.941  1.00  0.00     0.000 C 
BRANCH   3   4
ATOM      4  C   UNL     1      22.047  13.036  33.476  1.00  0.00    -0.000 C 
BRANCH   4   5
ATOM      5  C   UNL     1      21.031  14.032  34.051  1.00  0.00    -0.000 C 
BRANCH   5   6
ATOM      6  C   UNL     1      20.329  13.448  35.287  1.00  0.00    -0.000 C 
BRANCH   6   7
ATOM      7  C   UNL     1      20.612  11.948  35.486  1.00  0.00    -0.000 C 
BRANCH   7   8
ATOM      8  C   UNL     1      19.419  11.012  35.199  1.00  0.00    -0.000 C 
BRANCH   8   9
ATOM      9  C   UNL     1      18.324  11.609  34.298  1.00  0.00    -0.000 C 
BRANCH   9  10
ATOM     10  C   UNL     1      18.241  10.921  32.925  1.00  0.00    -0.000 C 
BRANCH  10  11
ATOM     11  C   UNL     1      19.606  10.404  32.443  1.00  0.00    -0.003 C 
ATOM     12  C   UNL     1      19.630  10.106  30.943  1.00  0.00     0.004 C 
ENDBRANCH  10  11
ENDBRANCH   9  10
ENDBRANCH   8   9
ENDBRANCH   7   8
ENDBRANCH   6   7
ENDBRANCH   5   6
ENDBRANCH   4   5
ENDBRANCH   3   4
ENDBRANCH   2   3
ENDBRANCH   1   2
BRANCH   1  13
ATOM     13  C   UNL     1      25.066  10.583  31.640  1.00  0.00     0.000 C 
BRANCH  13  14
ATOM     14  C   UNL     1      24.965  10.510  30.106  1.00  0.00     0.000 C 
BRANCH  14  15
ATOM     15  C   UNL     1      26.322  10.677  29.408  1.00  0.00     0.000 C 
BRANCH  15  16
ATOM     16  C   UNL     1      27.459  10.813  30.432  1.00  0.00     0.000 C 
BRANCH  16  17
ATOM     17  C   UNL     1      28.561  11.780  29.972  1.00  0.00     0.000 C 
BRANCH  17  18
ATOM     18  C   UNL     1      28.781  12.940  30.959  1.00  0.00     0.000 C 
BRANCH  18  19
ATOM     19  C   UNL     1      27.785  12.924  32.133  1.00  0.00     0.000 C 
BRANCH  19  20
ATOM     20  C   UNL     1      28.399  12.610  33.514  1.00  0.00     0.006 C 
BRANCH  20  21
ATOM     21  C   UNL     1      27.605  13.166  34.707  1.00  0.00     0.053 C 
BRANCH  21  22
ATOM     22  C   UNL     1      26.442  12.293  35.065  1.00  0.00     0.041 C 
ATOM     23  O   UNL     1      25.381  12.803  35.510  1.00  0.00    -0.550 OA
ATOM     24  O   UNL     1      26.520  10.919  34.876  1.00  0.00    -0.550 OA
ENDBRANCH  21  22
ENDBRANCH  20  21
ENDBRANCH  19  20
ENDBRANCH  18  19
ENDBRANCH  17  18
ENDBRANCH  16  17
ENDBRANCH  15  16
ENDBRANCH  14  15
ENDBRANCH  13  14
ENDBRANCH   1  13
TORSDOF 20
ENDMDL
