MODEL 1
REMARK VINA RESULT:    -4.116      0.000      0.000
REMARK INTER + INTRA:          -4.282
REMARK INTER:                  -4.477
REMARK INTRA:                   0.195
REMARK UNBOUND:                 0.195
REMARK SMILES CC1(C)CC[C@@]2(C(=O)[O-])CC[C@]3(C)C(=CC[C@H]4[C@]5(C)CC[C@@H](O)C(C)(C)[C@@H]5CC[C@]43C)[C@@H]2C1
REMARK SMILES IDX 6 1 5 2 10 3 32 4 4 5 11 6 14 7 33 8 2 9 12 10 15 11 1 12
REMARK SMILES IDX 3 13 13 14 30 15 16 16 17 17 29 18 31 19 18 20 28 21 27 22
REMARK SMILES IDX 20 23 19 24 24 25 21 26 22 27 25 28 26 29 7 30 8 31 9 32
REMARK SMILES IDX 23 33
REMARK H PARENT 23 34
REMARK Flexibility Score: inf
ROOT
ATOM      1  C   UNL     1       0.203 -33.786 -19.456  1.00  0.00     0.017 C 
ATOM      2  C   UNL     1       0.731 -32.988 -20.700  1.00  0.00     0.014 C 
ATOM      3  C   UNL     1       1.401 -34.390 -18.698  1.00  0.00     0.014 C 
ATOM      4  C   UNL     1      -0.521 -32.835 -18.455  1.00  0.00     0.028 C 
ATOM      5  C   UNL     1       0.217 -31.542 -20.802  1.00  0.00     0.007 C 
ATOM      6  C   UNL     1       0.951 -35.331 -17.575  1.00  0.00     0.013 C 
ATOM      7  C   UNL     1      -0.849 -33.484 -17.091  1.00  0.00    -0.064 C 
ATOM      8  C   UNL     1      -1.705 -32.087 -19.153  1.00  0.00     0.015 C 
ATOM      9  C   UNL     1      -1.307 -31.403 -20.513  1.00  0.00    -0.035 C 
ATOM     10  C   UNL     1      -0.127 -34.763 -16.559  1.00  0.00    -0.006 C 
ATOM     11  C   UNL     1      -1.535 -32.737 -16.194  1.00  0.00    -0.027 C 
ATOM     12  C   UNL     1      -2.118 -32.016 -21.680  1.00  0.00     0.011 C 
ATOM     13  C   UNL     1      -1.639 -29.892 -20.455  1.00  0.00     0.011 C 
ATOM     14  C   UNL     1      -1.199 -35.890 -16.427  1.00  0.00     0.017 C 
ATOM     15  C   UNL     1       0.535 -34.412 -15.123  1.00  0.00    -0.020 C 
ATOM     16  C   UNL     1      -1.792 -33.201 -14.800  1.00  0.00     0.032 C 
ATOM     17  C   UNL     1      -0.500 -33.722 -14.097  1.00  0.00     0.006 C 
ATOM     18  C   UNL     1       1.178 -35.664 -14.463  1.00  0.00     0.008 C 
ATOM     19  C   UNL     1       1.700 -33.385 -15.391  1.00  0.00     0.012 C 
ATOM     20  C   UNL     1      -0.787 -34.386 -12.641  1.00  0.00    -0.025 C 
ATOM     21  C   UNL     1       1.582 -35.409 -13.015  1.00  0.00     0.005 C 
ATOM     22  C   UNL     1       0.339 -35.394 -12.104  1.00  0.00     0.003 C 
ATOM     23  C   UNL     1      -0.977 -33.210 -11.614  1.00  0.00     0.010 C 
ATOM     24  C   UNL     1      -2.125 -35.179 -12.652  1.00  0.00     0.012 C 
ATOM     25  C   UNL     1       0.712 -35.265 -10.555  1.00  0.00    -0.006 C 
ATOM     26  C   UNL     1       0.351 -32.720 -11.049  1.00  0.00     0.033 C 
ATOM     27  C   UNL     1       1.016 -33.772 -10.146  1.00  0.00     0.120 C 
ATOM     28  C   UNL     1       1.960 -36.124 -10.197  1.00  0.00     0.014 C 
ATOM     29  C   UNL     1      -0.432 -35.876  -9.685  1.00  0.00     0.014 C 
ENDROOT
BRANCH   1  30
ATOM     30  C   UNL     1      -0.681 -34.925 -19.969  1.00  0.00     0.048 C 
ATOM     31  O   UNL     1      -1.891 -35.043 -19.620  1.00  0.00    -0.550 OA
ATOM     32  O   UNL     1      -0.135 -35.873 -20.830  1.00  0.00    -0.550 OA
ENDBRANCH   1  30
BRANCH  27  33
ATOM     33  O   UNL     1       0.654 -33.515  -8.810  1.00  0.00    -0.393 OA
ATOM     34  H   UNL     1      -0.332 -33.568  -8.762  1.00  0.00     0.210 HD
ENDBRANCH  27  33
TORSDOF 2
ENDMDL
MODEL 2
REMARK VINA RESULT:    -3.949      1.514      8.402
REMARK INTER + INTRA:          -4.101
REMARK INTER:                  -4.377
REMARK INTRA:                   0.277
REMARK UNBOUND:                 0.195
REMARK SMILES CC1(C)CC[C@@]2(C(=O)[O-])CC[C@]3(C)C(=CC[C@H]4[C@]5(C)CC[C@@H](O)C(C)(C)[C@@H]5CC[C@]43C)[C@@H]2C1
REMARK SMILES IDX 6 1 5 2 10 3 32 4 4 5 11 6 14 7 33 8 2 9 12 10 15 11 1 12
REMARK SMILES IDX 3 13 13 14 30 15 16 16 17 17 29 18 31 19 18 20 28 21 27 22
REMARK SMILES IDX 20 23 19 24 24 25 21 26 22 27 25 28 26 29 7 30 8 31 9 32
REMARK SMILES IDX 23 33
REMARK H PARENT 23 34
REMARK Flexibility Score: inf
ROOT
ATOM      1  C   UNL     1       0.049 -33.420 -11.322  1.00  0.00     0.017 C 
ATOM      2  C   UNL     1       0.862 -32.977 -10.055  1.00  0.00     0.014 C 
ATOM      3  C   UNL     1      -0.122 -32.208 -12.260  1.00  0.00     0.014 C 
ATOM      4  C   UNL     1       0.830 -34.500 -12.132  1.00  0.00     0.028 C 
ATOM      5  C   UNL     1       2.086 -33.853  -9.737  1.00  0.00     0.007 C 
ATOM      6  C   UNL     1      -1.058 -32.521 -13.432  1.00  0.00     0.013 C 
ATOM      7  C   UNL     1       0.227 -34.808 -13.521  1.00  0.00    -0.064 C 
ATOM      8  C   UNL     1       1.148 -35.745 -11.238  1.00  0.00     0.015 C 
ATOM      9  C   UNL     1       1.805 -35.380  -9.855  1.00  0.00    -0.035 C 
ATOM     10  C   UNL     1      -0.743 -33.835 -14.264  1.00  0.00    -0.006 C 
ATOM     11  C   UNL     1       0.815 -35.783 -14.253  1.00  0.00    -0.027 C 
ATOM     12  C   UNL     1       0.892 -35.834  -8.691  1.00  0.00     0.011 C 
ATOM     13  C   UNL     1       3.156 -36.121  -9.708  1.00  0.00     0.011 C 
ATOM     14  C   UNL     1      -2.117 -34.562 -14.416  1.00  0.00     0.017 C 
ATOM     15  C   UNL     1      -0.102 -33.485 -15.710  1.00  0.00    -0.020 C 
ATOM     16  C   UNL     1       0.411 -36.077 -15.659  1.00  0.00     0.032 C 
ATOM     17  C   UNL     1       0.342 -34.792 -16.542  1.00  0.00     0.006 C 
ATOM     18  C   UNL     1      -1.059 -32.612 -16.568  1.00  0.00     0.008 C 
ATOM     19  C   UNL     1       1.191 -32.624 -15.444  1.00  0.00     0.012 C 
ATOM     20  C   UNL     1      -0.256 -35.069 -18.029  1.00  0.00    -0.025 C 
ATOM     21  C   UNL     1      -0.583 -32.483 -18.012  1.00  0.00     0.005 C 
ATOM     22  C   UNL     1      -0.852 -33.787 -18.786  1.00  0.00     0.003 C 
ATOM     23  C   UNL     1       0.895 -35.706 -18.891  1.00  0.00     0.010 C 
ATOM     24  C   UNL     1      -1.398 -36.124 -17.974  1.00  0.00     0.012 C 
ATOM     25  C   UNL     1      -0.496 -33.666 -20.340  1.00  0.00    -0.006 C 
ATOM     26  C   UNL     1       1.789 -34.648 -19.526  1.00  0.00     0.033 C 
ATOM     27  C   UNL     1       1.049 -33.840 -20.605  1.00  0.00     0.120 C 
ATOM     28  C   UNL     1      -0.929 -32.286 -20.916  1.00  0.00     0.014 C 
ATOM     29  C   UNL     1      -1.337 -34.698 -21.156  1.00  0.00     0.014 C 
ENDROOT
BRANCH   1  30
ATOM     30  C   UNL     1      -1.333 -33.882 -10.856  1.00  0.00     0.048 C 
ATOM     31  O   UNL     1      -2.099 -33.131 -10.186  1.00  0.00    -0.550 OA
ATOM     32  O   UNL     1      -1.756 -35.172 -11.160  1.00  0.00    -0.550 OA
ENDBRANCH   1  30
BRANCH  27  33
ATOM     33  O   UNL     1       1.299 -34.427 -21.860  1.00  0.00    -0.393 OA
ATOM     34  H   UNL     1       1.151 -33.726 -22.541  1.00  0.00     0.210 HD
ENDBRANCH  27  33
TORSDOF 2
ENDMDL
MODEL 3
REMARK VINA RESULT:    -3.387      1.970      3.362
REMARK INTER + INTRA:          -3.489
REMARK INTER:                  -3.671
REMARK INTRA:                   0.182
REMARK UNBOUND:                 0.195
REMARK SMILES CC1(C)CC[C@@]2(C(=O)[O-])CC[C@]3(C)C(=CC[C@H]4[C@]5(C)CC[C@@H](O)C(C)(C)[C@@H]5CC[C@]43C)[C@@H]2C1
REMARK SMILES IDX 6 1 5 2 10 3 32 4 4 5 11 6 14 7 33 8 2 9 12 10 15 11 1 12
REMARK SMILES IDX 3 13 13 14 30 15 16 16 17 17 29 18 31 19 18 20 28 21 27 22
REMARK SMILES IDX 20 23 19 24 24 25 21 26 22 27 25 28 26 29 7 30 8 31 9 32
REMARK SMILES IDX 23 33
REMARK H PARENT 23 34
REMARK Flexibility Score: inf
ROOT
ATOM      1  C   UNL     1       0.523 -33.265 -22.681  1.00  0.00     0.017 C 
ATOM      2  C   UNL     1       0.973 -32.283 -23.821  1.00  0.00     0.014 C 
ATOM      3  C   UNL     1       1.742 -33.612 -21.806  1.00  0.00     0.014 C 
ATOM      4  C   UNL     1      -0.518 -32.582 -21.742  1.00  0.00     0.028 C 
ATOM      5  C   UNL     1       0.134 -30.999 -23.932  1.00  0.00     0.007 C 
ATOM      6  C   UNL     1       1.416 -34.705 -20.781  1.00  0.00     0.013 C 
ATOM      7  C   UNL     1      -0.824 -33.378 -20.453  1.00  0.00    -0.064 C 
ATOM      8  C   UNL     1      -1.764 -32.094 -22.552  1.00  0.00     0.015 C 
ATOM      9  C   UNL     1      -1.400 -31.247 -23.827  1.00  0.00    -0.035 C 
ATOM     10  C   UNL     1       0.127 -34.479 -19.884  1.00  0.00    -0.006 C 
ATOM     11  C   UNL     1      -1.767 -32.877 -19.621  1.00  0.00    -0.027 C 
ATOM     12  C   UNL     1      -1.902 -31.959 -25.106  1.00  0.00     0.011 C 
ATOM     13  C   UNL     1      -2.096 -29.867 -23.754  1.00  0.00     0.011 C 
ATOM     14  C   UNL     1      -0.644 -35.837 -19.927  1.00  0.00     0.017 C 
ATOM     15  C   UNL     1       0.521 -34.075 -18.366  1.00  0.00    -0.020 C 
ATOM     16  C   UNL     1      -2.053 -33.480 -18.286  1.00  0.00     0.032 C 
ATOM     17  C   UNL     1      -0.758 -33.722 -17.450  1.00  0.00     0.006 C 
ATOM     18  C   UNL     1       1.375 -35.177 -17.680  1.00  0.00     0.008 C 
ATOM     19  C   UNL     1       1.421 -32.784 -18.452  1.00  0.00     0.012 C 
ATOM     20  C   UNL     1      -1.031 -34.529 -16.065  1.00  0.00    -0.025 C 
ATOM     21  C   UNL     1       1.542 -34.929 -16.184  1.00  0.00     0.005 C 
ATOM     22  C   UNL     1       0.241 -35.271 -15.432  1.00  0.00     0.003 C 
ATOM     23  C   UNL     1      -1.615 -33.502 -15.027  1.00  0.00     0.010 C 
ATOM     24  C   UNL     1      -2.125 -35.616 -16.270  1.00  0.00     0.012 C 
ATOM     25  C   UNL     1       0.399 -35.158 -13.846  1.00  0.00    -0.006 C 
ATOM     26  C   UNL     1      -0.519 -32.747 -14.286  1.00  0.00     0.033 C 
ATOM     27  C   UNL     1       0.281 -33.666 -13.348  1.00  0.00     0.120 C 
ATOM     28  C   UNL     1       1.772 -35.716 -13.369  1.00  0.00     0.014 C 
ATOM     29  C   UNL     1      -0.649 -36.081 -13.145  1.00  0.00     0.014 C 
ENDROOT
BRANCH   1  30
ATOM     30  C   UNL     1       0.007 -34.546 -23.341  1.00  0.00     0.048 C 
ATOM     31  O   UNL     1      -1.182 -34.946 -23.185  1.00  0.00    -0.550 OA
ATOM     32  O   UNL     1       0.875 -35.306 -24.118  1.00  0.00    -0.550 OA
ENDBRANCH   1  30
BRANCH  27  33
ATOM     33  O   UNL     1      -0.277 -33.591 -12.057  1.00  0.00    -0.393 OA
ATOM     34  H   UNL     1       0.410 -33.195 -11.467  1.00  0.00     0.210 HD
ENDBRANCH  27  33
TORSDOF 2
ENDMDL
MODEL 4
REMARK VINA RESULT:    -2.472      1.642      8.108
REMARK INTER + INTRA:          -2.494
REMARK INTER:                  -2.748
REMARK INTRA:                   0.254
REMARK UNBOUND:                 0.195
REMARK SMILES CC1(C)CC[C@@]2(C(=O)[O-])CC[C@]3(C)C(=CC[C@H]4[C@]5(C)CC[C@@H](O)C(C)(C)[C@@H]5CC[C@]43C)[C@@H]2C1
REMARK SMILES IDX 6 1 5 2 10 3 32 4 4 5 11 6 14 7 33 8 2 9 12 10 15 11 1 12
REMARK SMILES IDX 3 13 13 14 30 15 16 16 17 17 29 18 31 19 18 20 28 21 27 22
REMARK SMILES IDX 20 23 19 24 24 25 21 26 22 27 25 28 26 29 7 30 8 31 9 32
REMARK SMILES IDX 23 33
REMARK H PARENT 23 34
REMARK Flexibility Score: inf
ROOT
ATOM      1  C   UNL     1      -1.001 -34.140 -11.297  1.00  0.00     0.017 C 
ATOM      2  C   UNL     1      -1.942 -33.764 -10.098  1.00  0.00     0.014 C 
ATOM      3  C   UNL     1      -1.739 -35.124 -12.227  1.00  0.00     0.014 C 
ATOM      4  C   UNL     1      -0.670 -32.882 -12.157  1.00  0.00     0.028 C 
ATOM      5  C   UNL     1      -2.120 -32.254  -9.869  1.00  0.00     0.007 C 
ATOM      6  C   UNL     1      -0.819 -35.673 -13.323  1.00  0.00     0.013 C 
ATOM      7  C   UNL     1       0.037 -33.198 -13.494  1.00  0.00    -0.064 C 
ATOM      8  C   UNL     1      -0.003 -31.769 -11.281  1.00  0.00     0.015 C 
ATOM      9  C   UNL     1      -0.788 -31.451  -9.955  1.00  0.00    -0.035 C 
ATOM     10  C   UNL     1      -0.002 -34.606 -14.168  1.00  0.00    -0.006 C 
ATOM     11  C   UNL     1       0.413 -32.149 -14.263  1.00  0.00    -0.027 C 
ATOM     12  C   UNL     1       0.092 -31.766  -8.722  1.00  0.00     0.011 C 
ATOM     13  C   UNL     1      -1.142 -29.945  -9.906  1.00  0.00     0.011 C 
ATOM     14  C   UNL     1       1.461 -35.151 -14.210  1.00  0.00     0.017 C 
ATOM     15  C   UNL     1      -0.609 -34.439 -15.661  1.00  0.00    -0.020 C 
ATOM     16  C   UNL     1       0.980 -32.326 -15.631  1.00  0.00     0.032 C 
ATOM     17  C   UNL     1       0.117 -33.281 -16.515  1.00  0.00     0.006 C 
ATOM     18  C   UNL     1      -0.577 -35.777 -16.449  1.00  0.00     0.008 C 
ATOM     19  C   UNL     1      -2.124 -34.037 -15.499  1.00  0.00     0.012 C 
ATOM     20  C   UNL     1       0.803 -33.619 -17.950  1.00  0.00    -0.025 C 
ATOM     21  C   UNL     1      -0.909 -35.584 -17.925  1.00  0.00     0.005 C 
ATOM     22  C   UNL     1       0.285 -34.956 -18.669  1.00  0.00     0.003 C 
ATOM     23  C   UNL     1       0.561 -32.383 -18.893  1.00  0.00     0.010 C 
ATOM     24  C   UNL     1       2.345 -33.762 -17.802  1.00  0.00     0.012 C 
ATOM     25  C   UNL     1       0.045 -34.853 -20.246  1.00  0.00    -0.006 C 
ATOM     26  C   UNL     1      -0.786 -32.456 -19.602  1.00  0.00     0.033 C 
ATOM     27  C   UNL     1      -0.837 -33.602 -20.626  1.00  0.00     0.120 C 
ATOM     28  C   UNL     1      -0.665 -36.125 -20.797  1.00  0.00     0.014 C 
ATOM     29  C   UNL     1       1.418 -34.833 -20.988  1.00  0.00     0.014 C 
ENDROOT
BRANCH   1  30
ATOM     30  C   UNL     1       0.235 -34.836 -10.725  1.00  0.00     0.048 C 
ATOM     31  O   UNL     1       0.154 -35.918 -10.075  1.00  0.00    -0.550 OA
ATOM     32  O   UNL     1       1.486 -34.254 -10.905  1.00  0.00    -0.550 OA
ENDBRANCH   1  30
BRANCH  27  33
ATOM     33  O   UNL     1      -0.496 -33.091 -21.893  1.00  0.00    -0.393 OA
ATOM     34  H   UNL     1       0.420 -33.404 -22.094  1.00  0.00     0.210 HD
ENDBRANCH  27  33
TORSDOF 2
ENDMDL
MODEL 5
REMARK VINA RESULT:    -1.225      5.752      9.448
REMARK INTER + INTRA:          -1.137
REMARK INTER:                  -1.352
REMARK INTRA:                   0.215
REMARK UNBOUND:                 0.195
REMARK SMILES CC1(C)CC[C@@]2(C(=O)[O-])CC[C@]3(C)C(=CC[C@H]4[C@]5(C)CC[C@@H](O)C(C)(C)[C@@H]5CC[C@]43C)[C@@H]2C1
REMARK SMILES IDX 6 1 5 2 10 3 32 4 4 5 11 6 14 7 33 8 2 9 12 10 15 11 1 12
REMARK SMILES IDX 3 13 13 14 30 15 16 16 17 17 29 18 31 19 18 20 28 21 27 22
REMARK SMILES IDX 20 23 19 24 24 25 21 26 22 27 25 28 26 29 7 30 8 31 9 32
REMARK SMILES IDX 23 33
REMARK H PARENT 23 34
REMARK Flexibility Score: inf
ROOT
ATOM      1  C   UNL     1       0.911 -33.293 -10.177  1.00  0.00     0.017 C 
ATOM      2  C   UNL     1       1.343 -34.525 -11.049  1.00  0.00     0.014 C 
ATOM      3  C   UNL     1       2.051 -32.257 -10.169  1.00  0.00     0.014 C 
ATOM      4  C   UNL     1      -0.330 -32.582 -10.800  1.00  0.00     0.028 C 
ATOM      5  C   UNL     1       0.339 -34.923 -12.144  1.00  0.00     0.007 C 
ATOM      6  C   UNL     1       1.772 -31.108  -9.193  1.00  0.00     0.013 C 
ATOM      7  C   UNL     1      -0.668 -31.220 -10.155  1.00  0.00    -0.064 C 
ATOM      8  C   UNL     1      -1.527 -33.579 -10.950  1.00  0.00     0.015 C 
ATOM      9  C   UNL     1      -1.140 -34.931 -11.657  1.00  0.00    -0.035 C 
ATOM     10  C   UNL     1       0.362 -30.391  -9.323  1.00  0.00    -0.006 C 
ATOM     11  C   UNL     1      -1.771 -30.575 -10.602  1.00  0.00    -0.027 C 
ATOM     12  C   UNL     1      -1.367 -36.122 -10.696  1.00  0.00     0.011 C 
ATOM     13  C   UNL     1      -2.043 -35.149 -12.896  1.00  0.00     0.011 C 
ATOM     14  C   UNL     1      -0.182 -30.291  -7.862  1.00  0.00     0.017 C 
ATOM     15  C   UNL     1       0.500 -28.925  -9.999  1.00  0.00    -0.020 C 
ATOM     16  C   UNL     1      -2.125 -29.196 -10.156  1.00  0.00     0.032 C 
ATOM     17  C   UNL     1      -0.921 -28.208 -10.257  1.00  0.00     0.006 C 
ATOM     18  C   UNL     1       1.420 -27.990  -9.166  1.00  0.00     0.008 C 
ATOM     19  C   UNL     1       1.196 -29.127 -11.398  1.00  0.00     0.012 C 
ATOM     20  C   UNL     1      -1.237 -26.746  -9.621  1.00  0.00    -0.025 C 
ATOM     21  C   UNL     1       1.362 -26.545  -9.649  1.00  0.00     0.005 C 
ATOM     22  C   UNL     1       0.046 -25.880  -9.202  1.00  0.00     0.003 C 
ATOM     23  C   UNL     1      -2.094 -25.948 -10.671  1.00  0.00     0.010 C 
ATOM     24  C   UNL     1      -2.119 -26.881  -8.347  1.00  0.00     0.012 C 
ATOM     25  C   UNL     1      -0.013 -24.324  -9.564  1.00  0.00    -0.006 C 
ATOM     26  C   UNL     1      -1.225 -25.233 -11.698  1.00  0.00     0.033 C 
ATOM     27  C   UNL     1      -0.417 -24.085 -11.070  1.00  0.00     0.120 C 
ATOM     28  C   UNL     1       1.360 -23.631  -9.320  1.00  0.00     0.014 C 
ATOM     29  C   UNL     1      -0.986 -23.591  -8.586  1.00  0.00     0.014 C 
ENDROOT
BRANCH   1  30
ATOM     30  C   UNL     1       0.681 -33.786  -8.747  1.00  0.00     0.048 C 
ATOM     31  O   UNL     1      -0.415 -33.604  -8.144  1.00  0.00    -0.550 OA
ATOM     32  O   UNL     1       1.714 -34.438  -8.080  1.00  0.00    -0.550 OA
ENDBRANCH   1  30
BRANCH  27  33
ATOM     33  O   UNL     1      -1.135 -22.885 -11.232  1.00  0.00    -0.393 OA
ATOM     34  H   UNL     1      -1.102 -22.409 -10.366  1.00  0.00     0.210 HD
ENDBRANCH  27  33
TORSDOF 2
ENDMDL
