MODEL 1
REMARK VINA RESULT:    -6.033      0.000      0.000
REMARK INTER + INTRA:         -15.490
REMARK INTER:                 -13.792
REMARK INTRA:                  -1.698
REMARK UNBOUND:                -1.698
REMARK SMILES CCCCCCCCCCCCCCCCCCCCCCCC(=O)[O-]
REMARK SMILES IDX 13 1 14 2 15 3 16 4 17 5 18 6 19 7 20 8 21 9 22 10 23 11
REMARK SMILES IDX 24 12 25 13 26 14 12 15 11 16 10 17 9 18 8 19 7 20 6 21 5 22
REMARK SMILES IDX 4 23 3 24 2 25 1 26
REMARK H PARENT
REMARK Flexibility Score: inf
ROOT
ATOM      1  C   UNL     1      97.901 125.550 126.855  1.00  0.00     0.000 C 
ENDROOT
BRANCH   1   2
ATOM      2  C   UNL     1      98.391 126.779 126.066  1.00  0.00     0.000 C 
BRANCH   2   3
ATOM      3  C   UNL     1      99.917 127.008 126.095  1.00  0.00     0.000 C 
BRANCH   3   4
ATOM      4  C   UNL     1     100.380 128.343 125.483  1.00  0.00     0.000 C 
BRANCH   4   5
ATOM      5  C   UNL     1     100.385 129.534 126.461  1.00  0.00     0.000 C 
BRANCH   5   6
ATOM      6  C   UNL     1     101.746 129.751 127.160  1.00  0.00     0.000 C 
BRANCH   6   7
ATOM      7  C   UNL     1     101.792 129.109 128.558  1.00  0.00     0.000 C 
BRANCH   7   8
ATOM      8  C   UNL     1     101.540 130.124 129.684  1.00  0.00     0.000 C 
BRANCH   8   9
ATOM      9  C   UNL     1     100.358 129.728 130.581  1.00  0.00     0.000 C 
BRANCH   9  10
ATOM     10  C   UNL     1      99.084 129.523 129.748  1.00  0.00     0.006 C 
BRANCH  10  11
ATOM     11  C   UNL     1      98.599 128.066 129.779  1.00  0.00     0.053 C 
BRANCH  11  12
ATOM     12  C   UNL     1      97.146 127.956 129.423  1.00  0.00     0.041 C 
ATOM     13  O   UNL     1      96.603 128.830 128.698  1.00  0.00    -0.550 OA
ATOM     14  O   UNL     1      96.399 126.880 129.885  1.00  0.00    -0.550 OA
ENDBRANCH  11  12
ENDBRANCH  10  11
ENDBRANCH   9  10
ENDBRANCH   8   9
ENDBRANCH   7   8
ENDBRANCH   6   7
ENDBRANCH   5   6
ENDBRANCH   4   5
ENDBRANCH   3   4
ENDBRANCH   2   3
ENDBRANCH   1   2
BRANCH   1  15
ATOM     15  C   UNL     1      97.351 124.394 125.995  1.00  0.00     0.000 C 
BRANCH  15  16
ATOM     16  C   UNL     1      96.626 124.831 124.708  1.00  0.00     0.000 C 
BRANCH  16  17
ATOM     17  C   UNL     1      95.733 123.725 124.120  1.00  0.00     0.000 C 
BRANCH  17  18
ATOM     18  C   UNL     1      96.563 122.568 123.522  1.00  0.00    -0.000 C 
BRANCH  18  19
ATOM     19  C   UNL     1      95.960 121.974 122.238  1.00  0.00    -0.000 C 
BRANCH  19  20
ATOM     20  C   UNL     1      94.426 121.882 122.290  1.00  0.00    -0.000 C 
BRANCH  20  21
ATOM     21  C   UNL     1      93.824 121.159 121.070  1.00  0.00    -0.000 C 
BRANCH  21  22
ATOM     22  C   UNL     1      94.721 121.123 119.818  1.00  0.00    -0.000 C 
BRANCH  22  23
ATOM     23  C   UNL     1      93.922 120.988 118.510  1.00  0.00    -0.000 C 
BRANCH  23  24
ATOM     24  C   UNL     1      92.718 121.941 118.452  1.00  0.00    -0.000 C 
BRANCH  24  25
ATOM     25  C   UNL     1      92.378 122.382 117.020  1.00  0.00    -0.003 C 
ATOM     26  C   UNL     1      92.620 123.877 116.835  1.00  0.00     0.004 C 
ENDBRANCH  24  25
ENDBRANCH  23  24
ENDBRANCH  22  23
ENDBRANCH  21  22
ENDBRANCH  20  21
ENDBRANCH  19  20
ENDBRANCH  18  19
ENDBRANCH  17  18
ENDBRANCH  16  17
ENDBRANCH  15  16
ENDBRANCH   1  15
TORSDOF 22
ENDMDL
MODEL 2
REMARK VINA RESULT:    -5.967      1.708      2.695
REMARK INTER + INTRA:         -15.339
REMARK INTER:                 -13.165
REMARK INTRA:                  -2.173
REMARK UNBOUND:                -1.698
REMARK SMILES CCCCCCCCCCCCCCCCCCCCCCCC(=O)[O-]
REMARK SMILES IDX 13 1 14 2 15 3 16 4 17 5 18 6 19 7 20 8 21 9 22 10 23 11
REMARK SMILES IDX 24 12 25 13 26 14 12 15 11 16 10 17 9 18 8 19 7 20 6 21 5 22
REMARK SMILES IDX 4 23 3 24 2 25 1 26
REMARK H PARENT
REMARK Flexibility Score: inf
ROOT
ATOM      1  C   UNL     1      97.930 123.794 126.279  1.00  0.00     0.000 C 
ENDROOT
BRANCH   1   2
ATOM      2  C   UNL     1      98.163 124.167 127.756  1.00  0.00     0.000 C 
BRANCH   2   3
ATOM      3  C   UNL     1      99.633 124.440 128.137  1.00  0.00     0.000 C 
BRANCH   3   4
ATOM      4  C   UNL     1     100.671 123.790 127.204  1.00  0.00     0.000 C 
BRANCH   4   5
ATOM      5  C   UNL     1     101.795 124.734 126.732  1.00  0.00     0.000 C 
BRANCH   5   6
ATOM      6  C   UNL     1     101.364 126.215 126.657  1.00  0.00     0.000 C 
BRANCH   6   7
ATOM      7  C   UNL     1     100.601 126.536 125.360  1.00  0.00     0.000 C 
BRANCH   7   8
ATOM      8  C   UNL     1     100.235 128.024 125.239  1.00  0.00     0.000 C 
BRANCH   8   9
ATOM      9  C   UNL     1      99.538 128.565 126.495  1.00  0.00     0.000 C 
BRANCH   9  10
ATOM     10  C   UNL     1      98.107 128.016 126.604  1.00  0.00     0.006 C 
BRANCH  10  11
ATOM     11  C   UNL     1      97.714 127.705 128.056  1.00  0.00     0.053 C 
BRANCH  11  12
ATOM     12  C   UNL     1      97.093 128.892 128.731  1.00  0.00     0.041 C 
ATOM     13  O   UNL     1      97.753 129.953 128.881  1.00  0.00    -0.550 OA
ATOM     14  O   UNL     1      95.780 128.825 129.182  1.00  0.00    -0.550 OA
ENDBRANCH  11  12
ENDBRANCH  10  11
ENDBRANCH   9  10
ENDBRANCH   8   9
ENDBRANCH   7   8
ENDBRANCH   6   7
ENDBRANCH   5   6
ENDBRANCH   4   5
ENDBRANCH   3   4
ENDBRANCH   2   3
ENDBRANCH   1   2
BRANCH   1  15
ATOM     15  C   UNL     1      97.131 124.827 125.459  1.00  0.00     0.000 C 
BRANCH  15  16
ATOM     16  C   UNL     1      96.108 124.224 124.478  1.00  0.00     0.000 C 
BRANCH  16  17
ATOM     17  C   UNL     1      96.508 122.823 123.983  1.00  0.00     0.000 C 
BRANCH  17  18
ATOM     18  C   UNL     1      95.954 122.527 122.572  1.00  0.00    -0.000 C 
BRANCH  18  19
ATOM     19  C   UNL     1      94.442 122.249 122.547  1.00  0.00    -0.000 C 
BRANCH  19  20
ATOM     20  C   UNL     1      94.052 121.178 121.515  1.00  0.00    -0.000 C 
BRANCH  20  21
ATOM     21  C   UNL     1      94.914 121.229 120.239  1.00  0.00    -0.000 C 
BRANCH  21  22
ATOM     22  C   UNL     1      94.173 120.897 118.930  1.00  0.00    -0.000 C 
BRANCH  22  23
ATOM     23  C   UNL     1      92.807 121.594 118.818  1.00  0.00    -0.000 C 
BRANCH  23  24
ATOM     24  C   UNL     1      92.080 121.265 117.505  1.00  0.00    -0.000 C 
BRANCH  24  25
ATOM     25  C   UNL     1      92.437 122.235 116.369  1.00  0.00    -0.003 C 
ATOM     26  C   UNL     1      92.702 123.638 116.908  1.00  0.00     0.004 C 
ENDBRANCH  24  25
ENDBRANCH  23  24
ENDBRANCH  22  23
ENDBRANCH  21  22
ENDBRANCH  20  21
ENDBRANCH  19  20
ENDBRANCH  18  19
ENDBRANCH  17  18
ENDBRANCH  16  17
ENDBRANCH  15  16
ENDBRANCH   1  15
TORSDOF 22
ENDMDL
MODEL 3
REMARK VINA RESULT:    -5.894      4.192     11.113
REMARK INTER + INTRA:         -15.172
REMARK INTER:                 -12.799
REMARK INTRA:                  -2.372
REMARK UNBOUND:                -1.698
REMARK SMILES CCCCCCCCCCCCCCCCCCCCCCCC(=O)[O-]
REMARK SMILES IDX 13 1 14 2 15 3 16 4 17 5 18 6 19 7 20 8 21 9 22 10 23 11
REMARK SMILES IDX 24 12 25 13 26 14 12 15 11 16 10 17 9 18 8 19 7 20 6 21 5 22
REMARK SMILES IDX 4 23 3 24 2 25 1 26
REMARK H PARENT
REMARK Flexibility Score: inf
ROOT
ATOM      1  C   UNL     1      97.729 125.762 127.408  1.00  0.00     0.000 C 
ENDROOT
BRANCH   1   2
ATOM      2  C   UNL     1      97.725 125.256 125.953  1.00  0.00     0.000 C 
BRANCH   2   3
ATOM      3  C   UNL     1      96.977 123.926 125.726  1.00  0.00     0.000 C 
BRANCH   3   4
ATOM      4  C   UNL     1      96.188 123.847 124.407  1.00  0.00     0.000 C 
BRANCH   4   5
ATOM      5  C   UNL     1      96.378 122.537 123.618  1.00  0.00     0.000 C 
BRANCH   5   6
ATOM      6  C   UNL     1      95.655 122.529 122.253  1.00  0.00     0.000 C 
BRANCH   6   7
ATOM      7  C   UNL     1      94.250 121.907 122.341  1.00  0.00     0.000 C 
BRANCH   7   8
ATOM      8  C   UNL     1      93.932 120.989 121.150  1.00  0.00     0.000 C 
BRANCH   8   9
ATOM      9  C   UNL     1      94.911 121.176 119.982  1.00  0.00     0.000 C 
BRANCH   9  10
ATOM     10  C   UNL     1      94.206 120.945 118.637  1.00  0.00     0.006 C 
BRANCH  10  11
ATOM     11  C   UNL     1      92.858 121.674 118.556  1.00  0.00     0.053 C 
BRANCH  11  12
ATOM     12  C   UNL     1      92.573 122.166 117.168  1.00  0.00     0.041 C 
ATOM     13  O   UNL     1      92.449 123.399 116.946  1.00  0.00    -0.550 OA
ATOM     14  O   UNL     1      92.457 121.260 116.121  1.00  0.00    -0.550 OA
ENDBRANCH  11  12
ENDBRANCH  10  11
ENDBRANCH   9  10
ENDBRANCH   8   9
ENDBRANCH   7   8
ENDBRANCH   6   7
ENDBRANCH   5   6
ENDBRANCH   4   5
ENDBRANCH   3   4
ENDBRANCH   2   3
ENDBRANCH   1   2
BRANCH   1  15
ATOM     15  C   UNL     1      99.069 125.605 128.154  1.00  0.00     0.000 C 
BRANCH  15  16
ATOM     16  C   UNL     1      99.850 124.319 127.822  1.00  0.00     0.000 C 
BRANCH  16  17
ATOM     17  C   UNL     1     101.221 124.600 127.184  1.00  0.00     0.000 C 
BRANCH  17  18
ATOM     18  C   UNL     1     101.589 126.099 127.238  1.00  0.00    -0.000 C 
BRANCH  18  19
ATOM     19  C   UNL     1     102.032 126.677 125.884  1.00  0.00    -0.000 C 
BRANCH  19  20
ATOM     20  C   UNL     1     100.846 127.072 124.989  1.00  0.00    -0.000 C 
BRANCH  20  21
ATOM     21  C   UNL     1     100.040 128.259 125.547  1.00  0.00    -0.000 C 
BRANCH  21  22
ATOM     22  C   UNL     1     100.877 129.372 126.208  1.00  0.00    -0.000 C 
BRANCH  22  23
ATOM     23  C   UNL     1     100.132 130.088 127.348  1.00  0.00    -0.000 C 
BRANCH  23  24
ATOM     24  C   UNL     1      99.443 129.109 128.312  1.00  0.00    -0.000 C 
BRANCH  24  25
ATOM     25  C   UNL     1      98.285 129.755 129.087  1.00  0.00    -0.003 C 
ATOM     26  C   UNL     1      96.958 129.079 128.755  1.00  0.00     0.004 C 
ENDBRANCH  24  25
ENDBRANCH  23  24
ENDBRANCH  22  23
ENDBRANCH  21  22
ENDBRANCH  20  21
ENDBRANCH  19  20
ENDBRANCH  18  19
ENDBRANCH  17  18
ENDBRANCH  16  17
ENDBRANCH  15  16
ENDBRANCH   1  15
TORSDOF 22
ENDMDL
MODEL 4
REMARK VINA RESULT:    -5.788      1.391      2.146
REMARK INTER + INTRA:         -14.929
REMARK INTER:                 -13.181
REMARK INTRA:                  -1.748
REMARK UNBOUND:                -1.698
REMARK SMILES CCCCCCCCCCCCCCCCCCCCCCCC(=O)[O-]
REMARK SMILES IDX 13 1 14 2 15 3 16 4 17 5 18 6 19 7 20 8 21 9 22 10 23 11
REMARK SMILES IDX 24 12 25 13 26 14 12 15 11 16 10 17 9 18 8 19 7 20 6 21 5 22
REMARK SMILES IDX 4 23 3 24 2 25 1 26
REMARK H PARENT
REMARK Flexibility Score: inf
ROOT
ATOM      1  C   UNL     1      99.705 127.177 125.244  1.00  0.00     0.000 C 
ENDROOT
BRANCH   1   2
ATOM      2  C   UNL     1     101.210 126.851 125.177  1.00  0.00     0.000 C 
BRANCH   2   3
ATOM      3  C   UNL     1     102.084 127.936 124.514  1.00  0.00     0.000 C 
BRANCH   3   4
ATOM      4  C   UNL     1     101.466 129.346 124.508  1.00  0.00     0.000 C 
BRANCH   4   5
ATOM      5  C   UNL     1     101.879 130.237 125.695  1.00  0.00     0.000 C 
BRANCH   5   6
ATOM      6  C   UNL     1     100.843 130.256 126.841  1.00  0.00     0.000 C 
BRANCH   6   7
ATOM      7  C   UNL     1     101.454 129.827 128.187  1.00  0.00     0.000 C 
BRANCH   7   8
ATOM      8  C   UNL     1     101.194 128.348 128.512  1.00  0.00     0.000 C 
BRANCH   8   9
ATOM      9  C   UNL     1     100.190 128.163 129.659  1.00  0.00     0.000 C 
BRANCH   9  10
ATOM     10  C   UNL     1      99.678 129.521 130.162  1.00  0.00     0.006 C 
BRANCH  10  11
ATOM     11  C   UNL     1      98.232 129.444 130.670  1.00  0.00     0.053 C 
BRANCH  11  12
ATOM     12  C   UNL     1      97.266 130.045 129.693  1.00  0.00     0.041 C 
ATOM     13  O   UNL     1      97.592 130.188 128.485  1.00  0.00    -0.550 OA
ATOM     14  O   UNL     1      96.002 130.437 130.119  1.00  0.00    -0.550 OA
ENDBRANCH  11  12
ENDBRANCH  10  11
ENDBRANCH   9  10
ENDBRANCH   8   9
ENDBRANCH   7   8
ENDBRANCH   6   7
ENDBRANCH   5   6
ENDBRANCH   4   5
ENDBRANCH   3   4
ENDBRANCH   2   3
ENDBRANCH   1   2
BRANCH   1  15
ATOM     15  C   UNL     1      98.875 126.258 126.164  1.00  0.00     0.000 C 
BRANCH  15  16
ATOM     16  C   UNL     1      97.576 125.717 125.537  1.00  0.00     0.000 C 
BRANCH  16  17
ATOM     17  C   UNL     1      97.240 124.288 125.998  1.00  0.00     0.000 C 
BRANCH  17  18
ATOM     18  C   UNL     1      96.639 123.438 124.857  1.00  0.00    -0.000 C 
BRANCH  18  19
ATOM     19  C   UNL     1      95.508 124.144 124.090  1.00  0.00    -0.000 C 
BRANCH  19  20
ATOM     20  C   UNL     1      94.276 123.247 123.891  1.00  0.00    -0.000 C 
BRANCH  20  21
ATOM     21  C   UNL     1      94.538 122.066 122.937  1.00  0.00    -0.000 C 
BRANCH  21  22
ATOM     22  C   UNL     1      93.382 121.726 121.977  1.00  0.00    -0.000 C 
BRANCH  22  23
ATOM     23  C   UNL     1      93.865 121.312 120.577  1.00  0.00    -0.000 C 
BRANCH  23  24
ATOM     24  C   UNL     1      92.885 121.726 119.467  1.00  0.00    -0.000 C 
BRANCH  24  25
ATOM     25  C   UNL     1      93.461 121.517 118.058  1.00  0.00    -0.003 C 
ATOM     26  C   UNL     1      92.387 121.715 116.992  1.00  0.00     0.004 C 
ENDBRANCH  24  25
ENDBRANCH  23  24
ENDBRANCH  22  23
ENDBRANCH  21  22
ENDBRANCH  20  21
ENDBRANCH  19  20
ENDBRANCH  18  19
ENDBRANCH  17  18
ENDBRANCH  16  17
ENDBRANCH  15  16
ENDBRANCH   1  15
TORSDOF 22
ENDMDL
MODEL 5
REMARK VINA RESULT:    -5.739      3.910     11.058
REMARK INTER + INTRA:         -14.818
REMARK INTER:                 -12.828
REMARK INTRA:                  -1.989
REMARK UNBOUND:                -1.698
REMARK SMILES CCCCCCCCCCCCCCCCCCCCCCCC(=O)[O-]
REMARK SMILES IDX 13 1 14 2 15 3 16 4 17 5 18 6 19 7 20 8 21 9 22 10 23 11
REMARK SMILES IDX 24 12 25 13 26 14 12 15 11 16 10 17 9 18 8 19 7 20 6 21 5 22
REMARK SMILES IDX 4 23 3 24 2 25 1 26
REMARK H PARENT
REMARK Flexibility Score: inf
ROOT
ATOM      1  C   UNL     1      99.383 127.642 125.525  1.00  0.00     0.000 C 
ENDROOT
BRANCH   1   2
ATOM      2  C   UNL     1      98.932 126.230 125.945  1.00  0.00     0.000 C 
BRANCH   2   3
ATOM      3  C   UNL     1      97.651 125.721 125.252  1.00  0.00     0.000 C 
BRANCH   3   4
ATOM      4  C   UNL     1      97.065 124.430 125.851  1.00  0.00     0.000 C 
BRANCH   4   5
ATOM      5  C   UNL     1      96.647 123.369 124.814  1.00  0.00     0.000 C 
BRANCH   5   6
ATOM      6  C   UNL     1      95.595 123.876 123.803  1.00  0.00     0.000 C 
BRANCH   6   7
ATOM      7  C   UNL     1      94.172 123.410 124.157  1.00  0.00     0.000 C 
BRANCH   7   8
ATOM      8  C   UNL     1      93.665 122.295 123.229  1.00  0.00     0.000 C 
BRANCH   8   9
ATOM      9  C   UNL     1      94.657 121.967 122.104  1.00  0.00     0.000 C 
BRANCH   9  10
ATOM     10  C   UNL     1      93.981 121.129 121.007  1.00  0.00     0.006 C 
BRANCH  10  11
ATOM     11  C   UNL     1      92.911 121.926 120.246  1.00  0.00     0.053 C 
BRANCH  11  12
ATOM     12  C   UNL     1      92.920 121.609 118.780  1.00  0.00     0.041 C 
ATOM     13  O   UNL     1      94.000 121.321 118.200  1.00  0.00    -0.550 OA
ATOM     14  O   UNL     1      91.731 121.623 118.060  1.00  0.00    -0.550 OA
ENDBRANCH  11  12
ENDBRANCH  10  11
ENDBRANCH   9  10
ENDBRANCH   8   9
ENDBRANCH   7   8
ENDBRANCH   6   7
ENDBRANCH   5   6
ENDBRANCH   4   5
ENDBRANCH   3   4
ENDBRANCH   2   3
ENDBRANCH   1   2
BRANCH   1  15
ATOM     15  C   UNL     1     100.647 127.693 124.644  1.00  0.00     0.000 C 
BRANCH  15  16
ATOM     16  C   UNL     1     101.639 128.818 124.996  1.00  0.00     0.000 C 
BRANCH  16  17
ATOM     17  C   UNL     1     100.995 129.943 125.825  1.00  0.00     0.000 C 
BRANCH  17  18
ATOM     18  C   UNL     1     101.711 130.147 127.179  1.00  0.00    -0.000 C 
BRANCH  18  19
ATOM     19  C   UNL     1     102.123 128.834 127.864  1.00  0.00    -0.000 C 
BRANCH  19  20
ATOM     20  C   UNL     1     101.695 128.773 129.339  1.00  0.00    -0.000 C 
BRANCH  20  21
ATOM     21  C   UNL     1     100.357 129.487 129.607  1.00  0.00    -0.000 C 
BRANCH  21  22
ATOM     22  C   UNL     1      99.337 128.685 130.439  1.00  0.00    -0.000 C 
BRANCH  22  23
ATOM     23  C   UNL     1      98.105 128.254 129.625  1.00  0.00    -0.000 C 
BRANCH  23  24
ATOM     24  C   UNL     1      97.797 129.212 128.464  1.00  0.00    -0.000 C 
BRANCH  24  25
ATOM     25  C   UNL     1      96.963 130.426 128.900  1.00  0.00    -0.003 C 
ATOM     26  C   UNL     1      95.828 130.006 129.830  1.00  0.00     0.004 C 
ENDBRANCH  24  25
ENDBRANCH  23  24
ENDBRANCH  22  23
ENDBRANCH  21  22
ENDBRANCH  20  21
ENDBRANCH  19  20
ENDBRANCH  18  19
ENDBRANCH  17  18
ENDBRANCH  16  17
ENDBRANCH  15  16
ENDBRANCH   1  15
TORSDOF 22
ENDMDL
MODEL 6
REMARK VINA RESULT:    -5.630      3.595     10.289
REMARK INTER + INTRA:         -14.568
REMARK INTER:                 -11.620
REMARK INTRA:                  -2.948
REMARK UNBOUND:                -1.698
REMARK SMILES CCCCCCCCCCCCCCCCCCCCCCCC(=O)[O-]
REMARK SMILES IDX 13 1 14 2 15 3 16 4 17 5 18 6 19 7 20 8 21 9 22 10 23 11
REMARK SMILES IDX 24 12 25 13 26 14 12 15 11 16 10 17 9 18 8 19 7 20 6 21 5 22
REMARK SMILES IDX 4 23 3 24 2 25 1 26
REMARK H PARENT
REMARK Flexibility Score: inf
ROOT
ATOM      1  C   UNL     1      99.481 128.931 126.628  1.00  0.00     0.000 C 
ENDROOT
BRANCH   1   2
ATOM      2  C   UNL     1     100.373 127.941 125.855  1.00  0.00     0.000 C 
BRANCH   2   3
ATOM      3  C   UNL     1      99.990 126.455 126.013  1.00  0.00     0.000 C 
BRANCH   3   4
ATOM      4  C   UNL     1      98.477 126.173 125.973  1.00  0.00     0.000 C 
BRANCH   4   5
ATOM      5  C   UNL     1      98.035 124.915 126.748  1.00  0.00     0.000 C 
BRANCH   5   6
ATOM      6  C   UNL     1      97.227 123.916 125.890  1.00  0.00     0.000 C 
BRANCH   6   7
ATOM      7  C   UNL     1      96.522 124.600 124.706  1.00  0.00     0.000 C 
BRANCH   7   8
ATOM      8  C   UNL     1      95.330 123.786 124.176  1.00  0.00     0.000 C 
BRANCH   8   9
ATOM      9  C   UNL     1      95.667 123.016 122.891  1.00  0.00     0.000 C 
BRANCH   9  10
ATOM     10  C   UNL     1      94.933 121.667 122.855  1.00  0.00     0.006 C 
BRANCH  10  11
ATOM     11  C   UNL     1      93.544 121.779 122.212  1.00  0.00     0.053 C 
BRANCH  11  12
ATOM     12  C   UNL     1      93.589 121.506 120.738  1.00  0.00     0.041 C 
ATOM     13  O   UNL     1      94.563 120.883 120.238  1.00  0.00    -0.550 OA
ATOM     14  O   UNL     1      92.549 121.932 119.921  1.00  0.00    -0.550 OA
ENDBRANCH  11  12
ENDBRANCH  10  11
ENDBRANCH   9  10
ENDBRANCH   8   9
ENDBRANCH   7   8
ENDBRANCH   6   7
ENDBRANCH   5   6
ENDBRANCH   4   5
ENDBRANCH   3   4
ENDBRANCH   2   3
ENDBRANCH   1   2
BRANCH   1  15
ATOM     15  C   UNL     1     100.221 130.126 127.262  1.00  0.00     0.000 C 
BRANCH  15  16
ATOM     16  C   UNL     1     101.597 129.789 127.867  1.00  0.00     0.000 C 
BRANCH  16  17
ATOM     17  C   UNL     1     101.746 130.277 129.319  1.00  0.00     0.000 C 
BRANCH  17  18
ATOM     18  C   UNL     1     100.564 129.826 130.205  1.00  0.00    -0.000 C 
BRANCH  18  19
ATOM     19  C   UNL     1     100.898 128.640 131.125  1.00  0.00    -0.000 C 
BRANCH  19  20
ATOM     20  C   UNL     1     100.649 127.279 130.453  1.00  0.00    -0.000 C 
BRANCH  20  21
ATOM     21  C   UNL     1      99.342 127.239 129.640  1.00  0.00    -0.000 C 
BRANCH  21  22
ATOM     22  C   UNL     1      98.077 126.882 130.444  1.00  0.00    -0.000 C 
BRANCH  22  23
ATOM     23  C   UNL     1      96.797 126.898 129.589  1.00  0.00    -0.000 C 
BRANCH  23  24
ATOM     24  C   UNL     1      96.601 128.227 128.843  1.00  0.00    -0.000 C 
BRANCH  24  25
ATOM     25  C   UNL     1      95.948 129.308 129.717  1.00  0.00    -0.003 C 
ATOM     26  C   UNL     1      96.923 130.448 129.999  1.00  0.00     0.004 C 
ENDBRANCH  24  25
ENDBRANCH  23  24
ENDBRANCH  22  23
ENDBRANCH  21  22
ENDBRANCH  20  21
ENDBRANCH  19  20
ENDBRANCH  18  19
ENDBRANCH  17  18
ENDBRANCH  16  17
ENDBRANCH  15  16
ENDBRANCH   1  15
TORSDOF 22
ENDMDL
MODEL 7
REMARK VINA RESULT:    -5.628      4.267     10.837
REMARK INTER + INTRA:         -14.565
REMARK INTER:                 -12.638
REMARK INTRA:                  -1.927
REMARK UNBOUND:                -1.698
REMARK SMILES CCCCCCCCCCCCCCCCCCCCCCCC(=O)[O-]
REMARK SMILES IDX 13 1 14 2 15 3 16 4 17 5 18 6 19 7 20 8 21 9 22 10 23 11
REMARK SMILES IDX 24 12 25 13 26 14 12 15 11 16 10 17 9 18 8 19 7 20 6 21 5 22
REMARK SMILES IDX 4 23 3 24 2 25 1 26
REMARK H PARENT
REMARK Flexibility Score: inf
ROOT
ATOM      1  C   UNL     1      97.624 123.873 127.268  1.00  0.00     0.000 C 
ENDROOT
BRANCH   1   2
ATOM      2  C   UNL     1      97.300 124.402 125.858  1.00  0.00     0.000 C 
BRANCH   2   3
ATOM      3  C   UNL     1      96.792 123.339 124.862  1.00  0.00     0.000 C 
BRANCH   3   4
ATOM      4  C   UNL     1      95.749 123.849 123.851  1.00  0.00     0.000 C 
BRANCH   4   5
ATOM      5  C   UNL     1      94.289 123.495 124.196  1.00  0.00     0.000 C 
BRANCH   5   6
ATOM      6  C   UNL     1      93.662 122.463 123.233  1.00  0.00     0.000 C 
BRANCH   6   7
ATOM      7  C   UNL     1      94.723 121.721 122.401  1.00  0.00     0.000 C 
BRANCH   7   8
ATOM      8  C   UNL     1      94.147 121.110 121.114  1.00  0.00     0.000 C 
BRANCH   8   9
ATOM      9  C   UNL     1      95.002 121.421 119.878  1.00  0.00     0.000 C 
BRANCH   9  10
ATOM     10  C   UNL     1      94.333 120.887 118.602  1.00  0.00     0.006 C 
BRANCH  10  11
ATOM     11  C   UNL     1      92.864 121.318 118.494  1.00  0.00     0.053 C 
BRANCH  11  12
ATOM     12  C   UNL     1      92.600 122.086 117.234  1.00  0.00     0.041 C 
ATOM     13  O   UNL     1      92.703 123.341 117.223  1.00  0.00    -0.550 OA
ATOM     14  O   UNL     1      92.251 121.412 116.070  1.00  0.00    -0.550 OA
ENDBRANCH  11  12
ENDBRANCH  10  11
ENDBRANCH   9  10
ENDBRANCH   8   9
ENDBRANCH   7   8
ENDBRANCH   6   7
ENDBRANCH   5   6
ENDBRANCH   4   5
ENDBRANCH   3   4
ENDBRANCH   2   3
ENDBRANCH   1   2
BRANCH   1  15
ATOM     15  C   UNL     1      99.094 123.465 127.494  1.00  0.00     0.000 C 
BRANCH  15  16
ATOM     16  C   UNL     1     100.125 124.574 127.211  1.00  0.00     0.000 C 
BRANCH  16  17
ATOM     17  C   UNL     1     100.840 125.064 128.482  1.00  0.00     0.000 C 
BRANCH  17  18
ATOM     18  C   UNL     1      99.889 125.117 129.698  1.00  0.00    -0.000 C 
BRANCH  18  19
ATOM     19  C   UNL     1      98.882 126.278 129.644  1.00  0.00    -0.000 C 
BRANCH  19  20
ATOM     20  C   UNL     1      99.287 127.371 128.642  1.00  0.00    -0.000 C 
BRANCH  20  21
ATOM     21  C   UNL     1      98.176 127.701 127.628  1.00  0.00    -0.000 C 
BRANCH  21  22
ATOM     22  C   UNL     1      98.660 128.025 126.202  1.00  0.00    -0.000 C 
BRANCH  22  23
ATOM     23  C   UNL     1     100.193 128.078 126.084  1.00  0.00    -0.000 C 
BRANCH  23  24
ATOM     24  C   UNL     1     100.700 127.567 124.727  1.00  0.00    -0.000 C 
BRANCH  24  25
ATOM     25  C   UNL     1     101.480 128.635 123.944  1.00  0.00    -0.003 C 
ATOM     26  C   UNL     1     102.122 129.648 124.888  1.00  0.00     0.004 C 
ENDBRANCH  24  25
ENDBRANCH  23  24
ENDBRANCH  22  23
ENDBRANCH  21  22
ENDBRANCH  20  21
ENDBRANCH  19  20
ENDBRANCH  18  19
ENDBRANCH  17  18
ENDBRANCH  16  17
ENDBRANCH  15  16
ENDBRANCH   1  15
TORSDOF 22
ENDMDL
MODEL 8
REMARK VINA RESULT:    -5.628      2.390      3.804
REMARK INTER + INTRA:         -14.563
REMARK INTER:                 -12.744
REMARK INTRA:                  -1.819
REMARK UNBOUND:                -1.698
REMARK SMILES CCCCCCCCCCCCCCCCCCCCCCCC(=O)[O-]
REMARK SMILES IDX 13 1 14 2 15 3 16 4 17 5 18 6 19 7 20 8 21 9 22 10 23 11
REMARK SMILES IDX 24 12 25 13 26 14 12 15 11 16 10 17 9 18 8 19 7 20 6 21 5 22
REMARK SMILES IDX 4 23 3 24 2 25 1 26
REMARK H PARENT
REMARK Flexibility Score: inf
ROOT
ATOM      1  C   UNL     1      98.359 123.636 127.352  1.00  0.00     0.000 C 
ENDROOT
BRANCH   1   2
ATOM      2  C   UNL     1      97.841 124.005 128.756  1.00  0.00     0.000 C 
BRANCH   2   3
ATOM      3  C   UNL     1      98.330 125.366 129.296  1.00  0.00     0.000 C 
BRANCH   3   4
ATOM      4  C   UNL     1      97.225 126.258 129.889  1.00  0.00     0.000 C 
BRANCH   4   5
ATOM      5  C   UNL     1      96.842 127.474 129.022  1.00  0.00     0.000 C 
BRANCH   5   6
ATOM      6  C   UNL     1      97.993 127.975 128.122  1.00  0.00     0.000 C 
BRANCH   6   7
ATOM      7  C   UNL     1      98.320 129.459 128.366  1.00  0.00     0.000 C 
BRANCH   7   8
ATOM      8  C   UNL     1      99.819 129.766 128.229  1.00  0.00     0.000 C 
BRANCH   8   9
ATOM      9  C   UNL     1     100.608 128.601 127.616  1.00  0.00     0.000 C 
BRANCH   9  10
ATOM     10  C   UNL     1     101.716 129.120 126.686  1.00  0.00     0.006 C 
BRANCH  10  11
ATOM     11  C   UNL     1     101.149 129.832 125.450  1.00  0.00     0.053 C 
BRANCH  11  12
ATOM     12  C   UNL     1     101.361 129.032 124.200  1.00  0.00     0.041 C 
ATOM     13  O   UNL     1     101.740 129.599 123.141  1.00  0.00    -0.550 OA
ATOM     14  O   UNL     1     101.151 127.659 124.211  1.00  0.00    -0.550 OA
ENDBRANCH  11  12
ENDBRANCH  10  11
ENDBRANCH   9  10
ENDBRANCH   8   9
ENDBRANCH   7   8
ENDBRANCH   6   7
ENDBRANCH   5   6
ENDBRANCH   4   5
ENDBRANCH   3   4
ENDBRANCH   2   3
ENDBRANCH   1   2
BRANCH   1  15
ATOM     15  C   UNL     1      98.505 124.819 126.374  1.00  0.00     0.000 C 
BRANCH  15  16
ATOM     16  C   UNL     1      97.260 125.107 125.514  1.00  0.00     0.000 C 
BRANCH  16  17
ATOM     17  C   UNL     1      96.431 123.844 125.221  1.00  0.00     0.000 C 
BRANCH  17  18
ATOM     18  C   UNL     1      95.540 124.014 123.971  1.00  0.00    -0.000 C 
BRANCH  18  19
ATOM     19  C   UNL     1      94.153 123.364 124.108  1.00  0.00    -0.000 C 
BRANCH  19  20
ATOM     20  C   UNL     1      93.892 122.291 123.038  1.00  0.00    -0.000 C 
BRANCH  20  21
ATOM     21  C   UNL     1      95.104 122.047 122.120  1.00  0.00    -0.000 C 
BRANCH  21  22
ATOM     22  C   UNL     1      94.825 121.183 120.875  1.00  0.00    -0.000 C 
BRANCH  22  23
ATOM     23  C   UNL     1      93.563 121.619 120.112  1.00  0.00    -0.000 C 
BRANCH  23  24
ATOM     24  C   UNL     1      93.606 121.229 118.626  1.00  0.00    -0.000 C 
BRANCH  24  25
ATOM     25  C   UNL     1      92.436 121.817 117.823  1.00  0.00    -0.003 C 
ATOM     26  C   UNL     1      92.443 121.301 116.387  1.00  0.00     0.004 C 
ENDBRANCH  24  25
ENDBRANCH  23  24
ENDBRANCH  22  23
ENDBRANCH  21  22
ENDBRANCH  20  21
ENDBRANCH  19  20
ENDBRANCH  18  19
ENDBRANCH  17  18
ENDBRANCH  16  17
ENDBRANCH  15  16
ENDBRANCH   1  15
TORSDOF 22
ENDMDL
MODEL 9
REMARK VINA RESULT:    -5.533      4.123     11.301
REMARK INTER + INTRA:         -14.347
REMARK INTER:                 -11.854
REMARK INTRA:                  -2.493
REMARK UNBOUND:                -1.698
REMARK SMILES CCCCCCCCCCCCCCCCCCCCCCCC(=O)[O-]
REMARK SMILES IDX 13 1 14 2 15 3 16 4 17 5 18 6 19 7 20 8 21 9 22 10 23 11
REMARK SMILES IDX 24 12 25 13 26 14 12 15 11 16 10 17 9 18 8 19 7 20 6 21 5 22
REMARK SMILES IDX 4 23 3 24 2 25 1 26
REMARK H PARENT
REMARK Flexibility Score: inf
ROOT
ATOM      1  C   UNL     1      99.106 125.665 126.219  1.00  0.00     0.000 C 
ENDROOT
BRANCH   1   2
ATOM      2  C   UNL     1      97.590 125.389 126.239  1.00  0.00     0.000 C 
BRANCH   2   3
ATOM      3  C   UNL     1      97.185 123.944 125.879  1.00  0.00     0.000 C 
BRANCH   3   4
ATOM      4  C   UNL     1      96.440 123.799 124.540  1.00  0.00     0.000 C 
BRANCH   4   5
ATOM      5  C   UNL     1      96.658 122.453 123.822  1.00  0.00     0.000 C 
BRANCH   5   6
ATOM      6  C   UNL     1      95.972 122.373 122.440  1.00  0.00     0.000 C 
BRANCH   6   7
ATOM      7  C   UNL     1      94.467 122.074 122.552  1.00  0.00     0.000 C 
BRANCH   7   8
ATOM      8  C   UNL     1      93.878 121.500 121.254  1.00  0.00     0.000 C 
BRANCH   8   9
ATOM      9  C   UNL     1      94.947 121.250 120.180  1.00  0.00     0.000 C 
BRANCH   9  10
ATOM     10  C   UNL     1      94.318 121.228 118.778  1.00  0.00     0.006 C 
BRANCH  10  11
ATOM     11  C   UNL     1      92.845 121.657 118.797  1.00  0.00     0.053 C 
BRANCH  11  12
ATOM     12  C   UNL     1      92.440 122.315 117.512  1.00  0.00     0.041 C 
ATOM     13  O   UNL     1      91.774 121.677 116.655  1.00  0.00    -0.550 OA
ATOM     14  O   UNL     1      92.792 123.637 117.268  1.00  0.00    -0.550 OA
ENDBRANCH  11  12
ENDBRANCH  10  11
ENDBRANCH   9  10
ENDBRANCH   8   9
ENDBRANCH   7   8
ENDBRANCH   6   7
ENDBRANCH   5   6
ENDBRANCH   4   5
ENDBRANCH   3   4
ENDBRANCH   2   3
ENDBRANCH   1   2
BRANCH   1  15
ATOM     15  C   UNL     1      99.962 124.694 127.057  1.00  0.00     0.000 C 
BRANCH  15  16
ATOM     16  C   UNL     1     100.739 125.349 128.215  1.00  0.00     0.000 C 
BRANCH  16  17
ATOM     17  C   UNL     1      99.822 125.842 129.347  1.00  0.00     0.000 C 
BRANCH  17  18
ATOM     18  C   UNL     1      98.821 124.755 129.797  1.00  0.00    -0.000 C 
BRANCH  18  19
ATOM     19  C   UNL     1      97.385 125.273 129.977  1.00  0.00    -0.000 C 
BRANCH  19  20
ATOM     20  C   UNL     1      97.331 126.776 130.295  1.00  0.00    -0.000 C 
BRANCH  20  21
ATOM     21  C   UNL     1      96.464 127.571 129.300  1.00  0.00    -0.000 C 
BRANCH  21  22
ATOM     22  C   UNL     1      97.245 128.398 128.260  1.00  0.00    -0.000 C 
BRANCH  22  23
ATOM     23  C   UNL     1      98.021 129.571 128.884  1.00  0.00    -0.000 C 
BRANCH  23  24
ATOM     24  C   UNL     1      99.529 129.501 128.597  1.00  0.00    -0.000 C 
BRANCH  24  25
ATOM     25  C   UNL     1     100.378 129.497 129.878  1.00  0.00    -0.003 C 
ATOM     26  C   UNL     1     101.660 130.304 129.689  1.00  0.00     0.004 C 
ENDBRANCH  24  25
ENDBRANCH  23  24
ENDBRANCH  22  23
ENDBRANCH  21  22
ENDBRANCH  20  21
ENDBRANCH  19  20
ENDBRANCH  18  19
ENDBRANCH  17  18
ENDBRANCH  16  17
ENDBRANCH  15  16
ENDBRANCH   1  15
TORSDOF 22
ENDMDL
