MODEL 1
REMARK VINA RESULT:    -4.686      0.000      0.000
REMARK INTER + INTRA:          -8.058
REMARK INTER:                  -7.425
REMARK INTRA:                  -0.633
REMARK UNBOUND:                -0.633
REMARK SMILES CCCCCCCCCCCC(=O)[O-]
REMARK SMILES IDX 7 1 8 2 9 3 10 4 11 5 12 6 13 7 14 8 6 9 5 10 4 11 3 12 2 13
REMARK SMILES IDX 1 14
REMARK H PARENT
REMARK Flexibility Score: inf
ROOT
ATOM      1  C   UNL     1    -129.712 109.871  40.917  1.00  0.00     0.000 C 
ENDROOT
BRANCH   1   2
ATOM      2  C   UNL     1    -129.726 109.437  39.443  1.00  0.00     0.000 C 
BRANCH   2   3
ATOM      3  C   UNL     1    -130.522 108.140  39.213  1.00  0.00     0.000 C 
BRANCH   3   4
ATOM      4  C   UNL     1    -129.627 106.966  38.786  1.00  0.00     0.006 C 
BRANCH   4   5
ATOM      5  C   UNL     1    -129.527 105.879  39.863  1.00  0.00     0.053 C 
BRANCH   5   6
ATOM      6  C   UNL     1    -129.456 104.524  39.231  1.00  0.00     0.041 C 
ATOM      7  O   UNL     1    -129.082 103.529  39.906  1.00  0.00    -0.550 OA
ATOM      8  O   UNL     1    -129.757 104.367  37.884  1.00  0.00    -0.550 OA
ENDBRANCH   5   6
ENDBRANCH   4   5
ENDBRANCH   3   4
ENDBRANCH   2   3
ENDBRANCH   1   2
BRANCH   1   9
ATOM      9  C   UNL     1    -128.879 108.927  41.802  1.00  0.00     0.000 C 
BRANCH   9  10
ATOM     10  C   UNL     1    -129.736 108.169  42.828  1.00  0.00    -0.000 C 
BRANCH  10  11
ATOM     11  C   UNL     1    -130.202 109.063  43.993  1.00  0.00    -0.000 C 
BRANCH  11  12
ATOM     12  C   UNL     1    -131.344 108.415  44.802  1.00  0.00    -0.000 C 
BRANCH  12  13
ATOM     13  C   UNL     1    -131.454 108.942  46.243  1.00  0.00    -0.003 C 
ATOM     14  C   UNL     1    -130.630 108.130  47.240  1.00  0.00     0.004 C 
ENDBRANCH  12  13
ENDBRANCH  11  12
ENDBRANCH  10  11
ENDBRANCH   9  10
ENDBRANCH   1   9
TORSDOF 10
ENDMDL
MODEL 2
REMARK VINA RESULT:    -4.660      3.117      5.962
REMARK INTER + INTRA:          -8.016
REMARK INTER:                  -6.894
REMARK INTRA:                  -1.122
REMARK UNBOUND:                -0.633
REMARK SMILES CCCCCCCCCCCC(=O)[O-]
REMARK SMILES IDX 7 1 8 2 9 3 10 4 11 5 12 6 13 7 14 8 6 9 5 10 4 11 3 12 2 13
REMARK SMILES IDX 1 14
REMARK H PARENT
REMARK Flexibility Score: inf
ROOT
ATOM      1  C   UNL     1    -129.272 106.356  41.379  1.00  0.00     0.000 C 
ENDROOT
BRANCH   1   2
ATOM      2  C   UNL     1    -127.993 107.090  41.813  1.00  0.00     0.000 C 
BRANCH   2   3
ATOM      3  C   UNL     1    -128.282 108.459  42.456  1.00  0.00     0.000 C 
BRANCH   3   4
ATOM      4  C   UNL     1    -129.761 108.631  42.836  1.00  0.00     0.006 C 
BRANCH   4   5
ATOM      5  C   UNL     1    -129.944 109.330  44.189  1.00  0.00     0.053 C 
BRANCH   5   6
ATOM      6  C   UNL     1    -131.039 108.674  44.971  1.00  0.00     0.041 C 
ATOM      7  O   UNL     1    -132.039 108.191  44.378  1.00  0.00    -0.550 OA
ATOM      8  O   UNL     1    -130.978 108.638  46.358  1.00  0.00    -0.550 OA
ENDBRANCH   5   6
ENDBRANCH   4   5
ENDBRANCH   3   4
ENDBRANCH   2   3
ENDBRANCH   1   2
BRANCH   1   9
ATOM      9  C   UNL     1    -129.055 105.479  40.134  1.00  0.00     0.000 C 
BRANCH   9  10
ATOM     10  C   UNL     1    -129.833 105.986  38.910  1.00  0.00    -0.000 C 
BRANCH  10  11
ATOM     11  C   UNL     1    -129.822 107.522  38.791  1.00  0.00    -0.000 C 
BRANCH  11  12
ATOM     12  C   UNL     1    -131.247 108.115  38.795  1.00  0.00    -0.000 C 
BRANCH  12  13
ATOM     13  C   UNL     1    -131.355 109.450  39.551  1.00  0.00    -0.003 C 
ATOM     14  C   UNL     1    -130.068 110.271  39.503  1.00  0.00     0.004 C 
ENDBRANCH  12  13
ENDBRANCH  11  12
ENDBRANCH  10  11
ENDBRANCH   9  10
ENDBRANCH   1   9
TORSDOF 10
ENDMDL
MODEL 3
REMARK VINA RESULT:    -4.435      5.794      6.911
REMARK INTER + INTRA:          -7.660
REMARK INTER:                  -7.118
REMARK INTRA:                  -0.541
REMARK UNBOUND:                -0.633
REMARK SMILES CCCCCCCCCCCC(=O)[O-]
REMARK SMILES IDX 7 1 8 2 9 3 10 4 11 5 12 6 13 7 14 8 6 9 5 10 4 11 3 12 2 13
REMARK SMILES IDX 1 14
REMARK H PARENT
REMARK Flexibility Score: inf
ROOT
ATOM      1  C   UNL     1    -129.981 113.885  42.672  1.00  0.00     0.000 C 
ENDROOT
BRANCH   1   2
ATOM      2  C   UNL     1    -129.037 113.311  43.740  1.00  0.00     0.000 C 
BRANCH   2   3
ATOM      3  C   UNL     1    -129.313 111.827  44.042  1.00  0.00     0.000 C 
BRANCH   3   4
ATOM      4  C   UNL     1    -129.370 110.967  42.770  1.00  0.00     0.006 C 
BRANCH   4   5
ATOM      5  C   UNL     1    -129.355 109.464  43.073  1.00  0.00     0.053 C 
BRANCH   5   6
ATOM      6  C   UNL     1    -129.402 108.674  41.803  1.00  0.00     0.041 C 
ATOM      7  O   UNL     1    -129.660 109.247  40.711  1.00  0.00    -0.550 OA
ATOM      8  O   UNL     1    -129.210 107.299  41.830  1.00  0.00    -0.550 OA
ENDBRANCH   5   6
ENDBRANCH   4   5
ENDBRANCH   3   4
ENDBRANCH   2   3
ENDBRANCH   1   2
BRANCH   1   9
ATOM      9  C   UNL     1    -129.494 115.236  42.119  1.00  0.00     0.000 C 
BRANCH   9  10
ATOM     10  C   UNL     1    -130.185 116.433  42.791  1.00  0.00    -0.000 C 
BRANCH  10  11
ATOM     11  C   UNL     1    -129.205 117.566  43.147  1.00  0.00    -0.000 C 
BRANCH  11  12
ATOM     12  C   UNL     1    -129.252 117.926  44.646  1.00  0.00    -0.000 C 
BRANCH  12  13
ATOM     13  C   UNL     1    -130.256 117.085  45.451  1.00  0.00    -0.003 C 
ATOM     14  C   UNL     1    -130.786 117.806  46.688  1.00  0.00     0.004 C 
ENDBRANCH  12  13
ENDBRANCH  11  12
ENDBRANCH  10  11
ENDBRANCH   9  10
ENDBRANCH   1   9
TORSDOF 10
ENDMDL
MODEL 4
REMARK VINA RESULT:    -4.424     14.543     16.536
REMARK INTER + INTRA:          -7.642
REMARK INTER:                  -6.785
REMARK INTRA:                  -0.857
REMARK UNBOUND:                -0.633
REMARK SMILES CCCCCCCCCCCC(=O)[O-]
REMARK SMILES IDX 7 1 8 2 9 3 10 4 11 5 12 6 13 7 14 8 6 9 5 10 4 11 3 12 2 13
REMARK SMILES IDX 1 14
REMARK H PARENT
REMARK Flexibility Score: inf
ROOT
ATOM      1  C   UNL     1    -143.232 101.400  31.739  1.00  0.00     0.000 C 
ENDROOT
BRANCH   1   2
ATOM      2  C   UNL     1    -143.354 102.489  32.817  1.00  0.00     0.000 C 
BRANCH   2   3
ATOM      3  C   UNL     1    -143.253 103.912  32.239  1.00  0.00     0.000 C 
BRANCH   3   4
ATOM      4  C   UNL     1    -143.058 104.978  33.328  1.00  0.00     0.006 C 
BRANCH   4   5
ATOM      5  C   UNL     1    -142.165 104.492  34.477  1.00  0.00     0.053 C 
BRANCH   5   6
ATOM      6  C   UNL     1    -142.152 105.494  35.588  1.00  0.00     0.041 C 
ATOM      7  O   UNL     1    -141.770 106.674  35.371  1.00  0.00    -0.550 OA
ATOM      8  O   UNL     1    -142.516 105.113  36.874  1.00  0.00    -0.550 OA
ENDBRANCH   5   6
ENDBRANCH   4   5
ENDBRANCH   3   4
ENDBRANCH   2   3
ENDBRANCH   1   2
BRANCH   1   9
ATOM      9  C   UNL     1    -143.224  99.980  32.333  1.00  0.00     0.000 C 
BRANCH   9  10
ATOM     10  C   UNL     1    -141.851  99.584  32.897  1.00  0.00    -0.000 C 
BRANCH  10  11
ATOM     11  C   UNL     1    -141.941  98.955  34.300  1.00  0.00    -0.000 C 
BRANCH  11  12
ATOM     12  C   UNL     1    -143.396  98.875  34.809  1.00  0.00    -0.000 C 
BRANCH  12  13
ATOM     13  C   UNL     1    -143.626  99.620  36.135  1.00  0.00    -0.003 C 
ATOM     14  C   UNL     1    -143.632 101.139  35.974  1.00  0.00     0.004 C 
ENDBRANCH  12  13
ENDBRANCH  11  12
ENDBRANCH  10  11
ENDBRANCH   9  10
ENDBRANCH   1   9
TORSDOF 10
ENDMDL
MODEL 5
REMARK VINA RESULT:    -4.394     14.573     16.337
REMARK INTER + INTRA:          -7.595
REMARK INTER:                  -6.921
REMARK INTRA:                  -0.674
REMARK UNBOUND:                -0.633
REMARK SMILES CCCCCCCCCCCC(=O)[O-]
REMARK SMILES IDX 7 1 8 2 9 3 10 4 11 5 12 6 13 7 14 8 6 9 5 10 4 11 3 12 2 13
REMARK SMILES IDX 1 14
REMARK H PARENT
REMARK Flexibility Score: inf
ROOT
ATOM      1  C   UNL     1    -143.678 101.054  31.965  1.00  0.00     0.000 C 
ENDROOT
BRANCH   1   2
ATOM      2  C   UNL     1    -142.513 100.231  31.393  1.00  0.00     0.000 C 
BRANCH   2   3
ATOM      3  C   UNL     1    -141.901  99.268  32.426  1.00  0.00     0.000 C 
BRANCH   3   4
ATOM      4  C   UNL     1    -142.856  98.972  33.593  1.00  0.00     0.006 C 
BRANCH   4   5
ATOM      5  C   UNL     1    -142.129  98.876  34.941  1.00  0.00     0.053 C 
BRANCH   5   6
ATOM      6  C   UNL     1    -143.050  99.254  36.058  1.00  0.00     0.041 C 
ATOM      7  O   UNL     1    -144.072  99.953  35.828  1.00  0.00    -0.550 OA
ATOM      8  O   UNL     1    -142.754  98.875  37.362  1.00  0.00    -0.550 OA
ENDBRANCH   5   6
ENDBRANCH   4   5
ENDBRANCH   3   4
ENDBRANCH   2   3
ENDBRANCH   1   2
BRANCH   1   9
ATOM      9  C   UNL     1    -143.239 102.454  32.429  1.00  0.00     0.000 C 
BRANCH   9  10
ATOM     10  C   UNL     1    -142.769 102.473  33.891  1.00  0.00    -0.000 C 
BRANCH  10  11
ATOM     11  C   UNL     1    -143.081 103.803  34.602  1.00  0.00    -0.000 C 
BRANCH  11  12
ATOM     12  C   UNL     1    -142.200 104.959  34.085  1.00  0.00    -0.000 C 
BRANCH  12  13
ATOM     13  C   UNL     1    -141.778 105.950  35.183  1.00  0.00    -0.003 C 
ATOM     14  C   UNL     1    -142.428 105.657  36.534  1.00  0.00     0.004 C 
ENDBRANCH  12  13
ENDBRANCH  11  12
ENDBRANCH  10  11
ENDBRANCH   9  10
ENDBRANCH   1   9
TORSDOF 10
ENDMDL
MODEL 6
REMARK VINA RESULT:    -4.351      4.840      5.844
REMARK INTER + INTRA:          -7.527
REMARK INTER:                  -7.114
REMARK INTRA:                  -0.412
REMARK UNBOUND:                -0.633
REMARK SMILES CCCCCCCCCCCC(=O)[O-]
REMARK SMILES IDX 7 1 8 2 9 3 10 4 11 5 12 6 13 7 14 8 6 9 5 10 4 11 3 12 2 13
REMARK SMILES IDX 1 14
REMARK H PARENT
REMARK Flexibility Score: inf
ROOT
ATOM      1  C   UNL     1    -129.346 111.740  44.076  1.00  0.00     0.000 C 
ENDROOT
BRANCH   1   2
ATOM      2  C   UNL     1    -129.337 110.929  42.770  1.00  0.00     0.000 C 
BRANCH   2   3
ATOM      3  C   UNL     1    -129.240 109.412  43.013  1.00  0.00     0.000 C 
BRANCH   3   4
ATOM      4  C   UNL     1    -129.627 108.591  41.773  1.00  0.00     0.006 C 
BRANCH   4   5
ATOM      5  C   UNL     1    -129.917 109.470  40.550  1.00  0.00     0.053 C 
BRANCH   5   6
ATOM      6  C   UNL     1    -130.460 108.641  39.428  1.00  0.00     0.041 C 
ATOM      7  O   UNL     1    -129.776 107.699  38.949  1.00  0.00    -0.550 OA
ATOM      8  O   UNL     1    -131.701 108.939  38.880  1.00  0.00    -0.550 OA
ENDBRANCH   5   6
ENDBRANCH   4   5
ENDBRANCH   3   4
ENDBRANCH   2   3
ENDBRANCH   1   2
BRANCH   1   9
ATOM      9  C   UNL     1    -128.886 113.194  43.871  1.00  0.00     0.000 C 
BRANCH   9  10
ATOM     10  C   UNL     1    -129.835 113.991  42.962  1.00  0.00    -0.000 C 
BRANCH  10  11
ATOM     11  C   UNL     1    -129.780 115.507  43.225  1.00  0.00    -0.000 C 
BRANCH  11  12
ATOM     12  C   UNL     1    -129.591 115.832  44.721  1.00  0.00    -0.000 C 
BRANCH  12  13
ATOM     13  C   UNL     1    -129.806 117.316  45.061  1.00  0.00    -0.003 C 
ATOM     14  C   UNL     1    -129.039 118.259  44.135  1.00  0.00     0.004 C 
ENDBRANCH  12  13
ENDBRANCH  11  12
ENDBRANCH  10  11
ENDBRANCH   9  10
ENDBRANCH   1   9
TORSDOF 10
ENDMDL
MODEL 7
REMARK VINA RESULT:    -4.286      5.021      5.859
REMARK INTER + INTRA:          -7.425
REMARK INTER:                  -7.057
REMARK INTRA:                  -0.368
REMARK UNBOUND:                -0.633
REMARK SMILES CCCCCCCCCCCC(=O)[O-]
REMARK SMILES IDX 7 1 8 2 9 3 10 4 11 5 12 6 13 7 14 8 6 9 5 10 4 11 3 12 2 13
REMARK SMILES IDX 1 14
REMARK H PARENT
REMARK Flexibility Score: inf
ROOT
ATOM      1  C   UNL     1    -129.348 111.898  44.023  1.00  0.00     0.000 C 
ENDROOT
BRANCH   1   2
ATOM      2  C   UNL     1    -129.355 110.798  42.950  1.00  0.00     0.000 C 
BRANCH   2   3
ATOM      3  C   UNL     1    -129.713 109.414  43.520  1.00  0.00     0.000 C 
BRANCH   3   4
ATOM      4  C   UNL     1    -129.733 108.319  42.442  1.00  0.00     0.006 C 
BRANCH   4   5
ATOM      5  C   UNL     1    -129.065 108.765  41.135  1.00  0.00     0.053 C 
BRANCH   5   6
ATOM      6  C   UNL     1    -130.009 108.604  39.985  1.00  0.00     0.041 C 
ATOM      7  O   UNL     1    -129.777 107.749  39.091  1.00  0.00    -0.550 OA
ATOM      8  O   UNL     1    -131.120 109.432  39.875  1.00  0.00    -0.550 OA
ENDBRANCH   5   6
ENDBRANCH   4   5
ENDBRANCH   3   4
ENDBRANCH   2   3
ENDBRANCH   1   2
BRANCH   1   9
ATOM      9  C   UNL     1    -129.410 113.312  43.418  1.00  0.00     0.000 C 
BRANCH   9  10
ATOM     10  C   UNL     1    -129.726 114.390  44.466  1.00  0.00    -0.000 C 
BRANCH  10  11
ATOM     11  C   UNL     1    -129.727 115.813  43.878  1.00  0.00    -0.000 C 
BRANCH  11  12
ATOM     12  C   UNL     1    -129.590 116.894  44.970  1.00  0.00    -0.000 C 
BRANCH  12  13
ATOM     13  C   UNL     1    -130.402 116.592  46.240  1.00  0.00    -0.003 C 
ATOM     14  C   UNL     1    -131.101 117.824  46.811  1.00  0.00     0.004 C 
ENDBRANCH  12  13
ENDBRANCH  11  12
ENDBRANCH  10  11
ENDBRANCH   9  10
ENDBRANCH   1   9
TORSDOF 10
ENDMDL
MODEL 8
REMARK VINA RESULT:    -4.285      4.846      5.751
REMARK INTER + INTRA:          -7.422
REMARK INTER:                  -7.143
REMARK INTRA:                  -0.279
REMARK UNBOUND:                -0.633
REMARK SMILES CCCCCCCCCCCC(=O)[O-]
REMARK SMILES IDX 7 1 8 2 9 3 10 4 11 5 12 6 13 7 14 8 6 9 5 10 4 11 3 12 2 13
REMARK SMILES IDX 1 14
REMARK H PARENT
REMARK Flexibility Score: inf
ROOT
ATOM      1  C   UNL     1    -129.385 112.147  42.886  1.00  0.00     0.000 C 
ENDROOT
BRANCH   1   2
ATOM      2  C   UNL     1    -129.373 110.662  43.283  1.00  0.00     0.000 C 
BRANCH   2   3
ATOM      3  C   UNL     1    -129.371 109.721  42.065  1.00  0.00     0.000 C 
BRANCH   3   4
ATOM      4  C   UNL     1    -129.625 108.256  42.452  1.00  0.00     0.006 C 
BRANCH   4   5
ATOM      5  C   UNL     1    -128.646 107.289  41.773  1.00  0.00     0.053 C 
BRANCH   5   6
ATOM      6  C   UNL     1    -129.317 106.578  40.639  1.00  0.00     0.041 C 
ATOM      7  O   UNL     1    -129.472 105.329  40.679  1.00  0.00    -0.550 OA
ATOM      8  O   UNL     1    -129.727 107.287  39.518  1.00  0.00    -0.550 OA
ENDBRANCH   5   6
ENDBRANCH   4   5
ENDBRANCH   3   4
ENDBRANCH   2   3
ENDBRANCH   1   2
BRANCH   1   9
ATOM      9  C   UNL     1    -129.008 113.073  44.056  1.00  0.00     0.000 C 
BRANCH   9  10
ATOM     10  C   UNL     1    -129.692 114.446  43.967  1.00  0.00    -0.000 C 
BRANCH  10  11
ATOM     11  C   UNL     1    -129.578 115.256  45.271  1.00  0.00    -0.000 C 
BRANCH  11  12
ATOM     12  C   UNL     1    -129.822 116.763  45.044  1.00  0.00    -0.000 C 
BRANCH  12  13
ATOM     13  C   UNL     1    -129.374 117.256  43.658  1.00  0.00    -0.003 C 
ATOM     14  C   UNL     1    -128.793 118.668  43.685  1.00  0.00     0.004 C 
ENDBRANCH  12  13
ENDBRANCH  11  12
ENDBRANCH  10  11
ENDBRANCH   9  10
ENDBRANCH   1   9
TORSDOF 10
ENDMDL
MODEL 9
REMARK VINA RESULT:    -4.260      6.876      8.891
REMARK INTER + INTRA:          -7.383
REMARK INTER:                  -6.936
REMARK INTRA:                  -0.447
REMARK UNBOUND:                -0.633
REMARK SMILES CCCCCCCCCCCC(=O)[O-]
REMARK SMILES IDX 7 1 8 2 9 3 10 4 11 5 12 6 13 7 14 8 6 9 5 10 4 11 3 12 2 13
REMARK SMILES IDX 1 14
REMARK H PARENT
REMARK Flexibility Score: inf
ROOT
ATOM      1  C   UNL     1    -129.380 111.601  43.962  1.00  0.00     0.000 C 
ENDROOT
BRANCH   1   2
ATOM      2  C   UNL     1    -128.941 113.056  43.731  1.00  0.00     0.000 C 
BRANCH   2   3
ATOM      3  C   UNL     1    -129.957 113.857  42.897  1.00  0.00     0.000 C 
BRANCH   3   4
ATOM      4  C   UNL     1    -129.875 115.369  43.162  1.00  0.00     0.006 C 
BRANCH   4   5
ATOM      5  C   UNL     1    -129.675 115.697  44.647  1.00  0.00     0.053 C 
BRANCH   5   6
ATOM      6  C   UNL     1    -129.741 117.176  44.869  1.00  0.00     0.041 C 
ATOM      7  O   UNL     1    -130.414 117.643  45.826  1.00  0.00    -0.550 OA
ATOM      8  O   UNL     1    -129.101 118.041  43.990  1.00  0.00    -0.550 OA
ENDBRANCH   5   6
ENDBRANCH   4   5
ENDBRANCH   3   4
ENDBRANCH   2   3
ENDBRANCH   1   2
BRANCH   1   9
ATOM      9  C   UNL     1    -129.402 110.778  42.661  1.00  0.00     0.000 C 
BRANCH   9  10
ATOM     10  C   UNL     1    -129.408 109.263  42.920  1.00  0.00    -0.000 C 
BRANCH  10  11
ATOM     11  C   UNL     1    -129.299 108.436  41.626  1.00  0.00    -0.000 C 
BRANCH  11  12
ATOM     12  C   UNL     1    -129.510 109.299  40.364  1.00  0.00    -0.000 C 
BRANCH  12  13
ATOM     13  C   UNL     1    -130.459 108.661  39.335  1.00  0.00    -0.003 C 
ATOM     14  C   UNL     1    -131.741 109.464  39.126  1.00  0.00     0.004 C 
ENDBRANCH  12  13
ENDBRANCH  11  12
ENDBRANCH  10  11
ENDBRANCH   9  10
ENDBRANCH   1   9
TORSDOF 10
ENDMDL
