MODEL 1
REMARK VINA RESULT:    -4.565      0.000      0.000
REMARK INTER + INTRA:         -13.816
REMARK INTER:                 -10.437
REMARK INTRA:                  -3.379
REMARK UNBOUND:                -3.379
REMARK SMILES CCCCCCCCCCCCCCCCCCCCCCCC(=O)[O-]
REMARK SMILES IDX 13 1 14 2 15 3 16 4 17 5 18 6 19 7 20 8 21 9 22 10 23 11
REMARK SMILES IDX 24 12 25 13 26 14 12 15 11 16 10 17 9 18 8 19 7 20 6 21 5 22
REMARK SMILES IDX 4 23 3 24 2 25 1 26
REMARK H PARENT
REMARK Flexibility Score: inf
ROOT
ATOM      1  C   UNL     1      11.694  -4.992  38.572  1.00  0.00     0.000 C 
ENDROOT
BRANCH   1   2
ATOM      2  C   UNL     1      12.251  -4.016  39.619  1.00  0.00     0.000 C 
BRANCH   2   3
ATOM      3  C   UNL     1      13.778  -3.912  39.513  1.00  0.00     0.000 C 
BRANCH   3   4
ATOM      4  C   UNL     1      14.343  -2.991  40.601  1.00  0.00     0.000 C 
BRANCH   4   5
ATOM      5  C   UNL     1      14.041  -1.520  40.291  1.00  0.00     0.000 C 
BRANCH   5   6
ATOM      6  C   UNL     1      13.485  -0.799  41.528  1.00  0.00     0.000 C 
BRANCH   6   7
ATOM      7  C   UNL     1      12.253   0.061  41.208  1.00  0.00     0.000 C 
BRANCH   7   8
ATOM      8  C   UNL     1      11.778  -0.105  39.754  1.00  0.00     0.000 C 
BRANCH   8   9
ATOM      9  C   UNL     1      10.269  -0.385  39.653  1.00  0.00     0.000 C 
BRANCH   9  10
ATOM     10  C   UNL     1       9.854  -1.657  40.413  1.00  0.00     0.006 C 
BRANCH  10  11
ATOM     11  C   UNL     1       8.340  -1.718  40.655  1.00  0.00     0.053 C 
BRANCH  11  12
ATOM     12  C   UNL     1       7.973  -1.214  42.017  1.00  0.00     0.041 C 
ATOM     13  O   UNL     1       7.291  -0.163  42.143  1.00  0.00    -0.550 OA
ATOM     14  O   UNL     1       8.405  -1.894  43.149  1.00  0.00    -0.550 OA
ENDBRANCH  11  12
ENDBRANCH  10  11
ENDBRANCH   9  10
ENDBRANCH   8   9
ENDBRANCH   7   8
ENDBRANCH   6   7
ENDBRANCH   5   6
ENDBRANCH   4   5
ENDBRANCH   3   4
ENDBRANCH   2   3
ENDBRANCH   1   2
BRANCH   1  15
ATOM     15  C   UNL     1      10.190  -4.797  38.321  1.00  0.00     0.000 C 
BRANCH  15  16
ATOM     16  C   UNL     1       9.720  -5.441  37.009  1.00  0.00     0.000 C 
BRANCH  16  17
ATOM     17  C   UNL     1       8.792  -4.497  36.234  1.00  0.00     0.000 C 
BRANCH  17  18
ATOM     18  C   UNL     1       8.405  -3.282  37.089  1.00  0.00    -0.000 C 
BRANCH  18  19
ATOM     19  C   UNL     1       8.646  -1.941  36.373  1.00  0.00    -0.000 C 
BRANCH  19  20
ATOM     20  C   UNL     1       8.022  -0.711  37.058  1.00  0.00    -0.000 C 
BRANCH  20  21
ATOM     21  C   UNL     1       8.530   0.620  36.475  1.00  0.00    -0.000 C 
BRANCH  21  22
ATOM     22  C   UNL     1       9.869   0.469  35.734  1.00  0.00    -0.000 C 
BRANCH  22  23
ATOM     23  C   UNL     1      10.936   1.455  36.231  1.00  0.00    -0.000 C 
BRANCH  23  24
ATOM     24  C   UNL     1      10.297   2.587  37.050  1.00  0.00    -0.000 C 
BRANCH  24  25
ATOM     25  C   UNL     1      10.422   3.956  36.363  1.00  0.00    -0.003 C 
ATOM     26  C   UNL     1       9.603   4.049  35.075  1.00  0.00     0.004 C 
ENDBRANCH  24  25
ENDBRANCH  23  24
ENDBRANCH  22  23
ENDBRANCH  21  22
ENDBRANCH  20  21
ENDBRANCH  19  20
ENDBRANCH  18  19
ENDBRANCH  17  18
ENDBRANCH  16  17
ENDBRANCH  15  16
ENDBRANCH   1  15
TORSDOF 22
ENDMDL
MODEL 2
REMARK VINA RESULT:    -4.488      2.593      6.310
REMARK INTER + INTRA:         -13.640
REMARK INTER:                 -10.136
REMARK INTRA:                  -3.504
REMARK UNBOUND:                -3.379
REMARK SMILES CCCCCCCCCCCCCCCCCCCCCCCC(=O)[O-]
REMARK SMILES IDX 13 1 14 2 15 3 16 4 17 5 18 6 19 7 20 8 21 9 22 10 23 11
REMARK SMILES IDX 24 12 25 13 26 14 12 15 11 16 10 17 9 18 8 19 7 20 6 21 5 22
REMARK SMILES IDX 4 23 3 24 2 25 1 26
REMARK H PARENT
REMARK Flexibility Score: inf
ROOT
ATOM      1  C   UNL     1      10.771  -5.094  38.044  1.00  0.00     0.000 C 
ENDROOT
BRANCH   1   2
ATOM      2  C   UNL     1       9.433  -5.316  37.323  1.00  0.00     0.000 C 
BRANCH   2   3
ATOM      3  C   UNL     1       9.499  -4.811  35.877  1.00  0.00     0.000 C 
BRANCH   3   4
ATOM      4  C   UNL     1       8.946  -3.384  35.766  1.00  0.00     0.000 C 
BRANCH   4   5
ATOM      5  C   UNL     1       7.705  -3.204  36.648  1.00  0.00     0.000 C 
BRANCH   5   6
ATOM      6  C   UNL     1       7.597  -1.760  37.159  1.00  0.00     0.000 C 
BRANCH   6   7
ATOM      7  C   UNL     1       8.875  -0.946  36.903  1.00  0.00     0.000 C 
BRANCH   7   8
ATOM      8  C   UNL     1       8.833   0.444  37.564  1.00  0.00     0.000 C 
BRANCH   8   9
ATOM      9  C   UNL     1      10.191   1.162  37.515  1.00  0.00     0.000 C 
BRANCH   9  10
ATOM     10  C   UNL     1      10.586   1.582  36.089  1.00  0.00     0.006 C 
BRANCH  10  11
ATOM     11  C   UNL     1      10.513   3.102  35.892  1.00  0.00     0.053 C 
BRANCH  11  12
ATOM     12  C   UNL     1       9.316   3.502  35.085  1.00  0.00     0.041 C 
ATOM     13  O   UNL     1       8.316   2.740  35.012  1.00  0.00    -0.550 OA
ATOM     14  O   UNL     1       9.315   4.706  34.393  1.00  0.00    -0.550 OA
ENDBRANCH  11  12
ENDBRANCH  10  11
ENDBRANCH   9  10
ENDBRANCH   8   9
ENDBRANCH   7   8
ENDBRANCH   6   7
ENDBRANCH   5   6
ENDBRANCH   4   5
ENDBRANCH   3   4
ENDBRANCH   2   3
ENDBRANCH   1   2
BRANCH   1  15
ATOM     15  C   UNL     1      10.593  -4.543  39.468  1.00  0.00     0.000 C 
BRANCH  15  16
ATOM     16  C   UNL     1      10.278  -3.041  39.486  1.00  0.00     0.000 C 
BRANCH  16  17
ATOM     17  C   UNL     1       9.096  -2.737  40.416  1.00  0.00     0.000 C 
BRANCH  17  18
ATOM     18  C   UNL     1       8.965  -1.228  40.664  1.00  0.00    -0.000 C 
BRANCH  18  19
ATOM     19  C   UNL     1       9.668  -0.767  41.953  1.00  0.00    -0.000 C 
BRANCH  19  20
ATOM     20  C   UNL     1      10.668   0.390  41.776  1.00  0.00    -0.000 C 
BRANCH  20  21
ATOM     21  C   UNL     1      12.101  -0.096  41.495  1.00  0.00    -0.000 C 
BRANCH  21  22
ATOM     22  C   UNL     1      12.401  -0.217  39.992  1.00  0.00    -0.000 C 
BRANCH  22  23
ATOM     23  C   UNL     1      13.797  -0.791  39.710  1.00  0.00    -0.000 C 
BRANCH  23  24
ATOM     24  C   UNL     1      14.479  -1.237  41.013  1.00  0.00    -0.000 C 
BRANCH  24  25
ATOM     25  C   UNL     1      14.655  -2.761  41.095  1.00  0.00    -0.003 C 
ATOM     26  C   UNL     1      13.994  -3.499  39.930  1.00  0.00     0.004 C 
ENDBRANCH  24  25
ENDBRANCH  23  24
ENDBRANCH  22  23
ENDBRANCH  21  22
ENDBRANCH  20  21
ENDBRANCH  19  20
ENDBRANCH  18  19
ENDBRANCH  17  18
ENDBRANCH  16  17
ENDBRANCH  15  16
ENDBRANCH   1  15
TORSDOF 22
ENDMDL
MODEL 3
REMARK VINA RESULT:    -4.264      2.918      5.876
REMARK INTER + INTRA:         -13.127
REMARK INTER:                  -9.720
REMARK INTRA:                  -3.407
REMARK UNBOUND:                -3.379
REMARK SMILES CCCCCCCCCCCCCCCCCCCCCCCC(=O)[O-]
REMARK SMILES IDX 13 1 14 2 15 3 16 4 17 5 18 6 19 7 20 8 21 9 22 10 23 11
REMARK SMILES IDX 24 12 25 13 26 14 12 15 11 16 10 17 9 18 8 19 7 20 6 21 5 22
REMARK SMILES IDX 4 23 3 24 2 25 1 26
REMARK H PARENT
REMARK Flexibility Score: inf
ROOT
ATOM      1  C   UNL     1      11.396  -4.733  38.730  1.00  0.00     0.000 C 
ENDROOT
BRANCH   1   2
ATOM      2  C   UNL     1       9.967  -4.368  39.159  1.00  0.00     0.000 C 
BRANCH   2   3
ATOM      3  C   UNL     1       9.865  -2.878  39.510  1.00  0.00     0.000 C 
BRANCH   3   4
ATOM      4  C   UNL     1       8.563  -2.274  38.969  1.00  0.00     0.000 C 
BRANCH   4   5
ATOM      5  C   UNL     1       8.592  -0.742  39.047  1.00  0.00     0.000 C 
BRANCH   5   6
ATOM      6  C   UNL     1       9.564  -0.157  38.011  1.00  0.00     0.000 C 
BRANCH   6   7
ATOM      7  C   UNL     1      10.603   0.783  38.640  1.00  0.00     0.000 C 
BRANCH   7   8
ATOM      8  C   UNL     1      10.511   0.824  40.176  1.00  0.00     0.000 C 
BRANCH   8   9
ATOM      9  C   UNL     1      11.623   0.009  40.857  1.00  0.00     0.000 C 
BRANCH   9  10
ATOM     10  C   UNL     1      12.773  -0.339  39.894  1.00  0.00     0.006 C 
BRANCH  10  11
ATOM     11  C   UNL     1      13.324  -1.750  40.138  1.00  0.00     0.053 C 
BRANCH  11  12
ATOM     12  C   UNL     1      14.630  -1.718  40.872  1.00  0.00     0.041 C 
ATOM     13  O   UNL     1      15.096  -2.771  41.382  1.00  0.00    -0.550 OA
ATOM     14  O   UNL     1      15.319  -0.521  41.013  1.00  0.00    -0.550 OA
ENDBRANCH  11  12
ENDBRANCH  10  11
ENDBRANCH   9  10
ENDBRANCH   8   9
ENDBRANCH   7   8
ENDBRANCH   6   7
ENDBRANCH   5   6
ENDBRANCH   4   5
ENDBRANCH   3   4
ENDBRANCH   2   3
ENDBRANCH   1   2
BRANCH   1  15
ATOM     15  C   UNL     1      11.429  -5.801  37.625  1.00  0.00     0.000 C 
BRANCH  15  16
ATOM     16  C   UNL     1      10.175  -6.686  37.620  1.00  0.00     0.000 C 
BRANCH  16  17
ATOM     17  C   UNL     1      10.528  -8.145  37.937  1.00  0.00     0.000 C 
BRANCH  17  18
ATOM     18  C   UNL     1       9.904  -9.098  36.908  1.00  0.00    -0.000 C 
BRANCH  18  19
ATOM     19  C   UNL     1       9.188  -8.361  35.762  1.00  0.00    -0.000 C 
BRANCH  19  20
ATOM     20  C   UNL     1       9.488  -8.897  34.350  1.00  0.00    -0.000 C 
BRANCH  20  21
ATOM     21  C   UNL     1       9.813  -7.781  33.342  1.00  0.00    -0.000 C 
BRANCH  21  22
ATOM     22  C   UNL     1      10.097  -6.433  34.024  1.00  0.00    -0.000 C 
BRANCH  22  23
ATOM     23  C   UNL     1       8.994  -5.394  33.770  1.00  0.00    -0.000 C 
BRANCH  23  24
ATOM     24  C   UNL     1       9.428  -4.004  34.261  1.00  0.00    -0.000 C 
BRANCH  24  25
ATOM     25  C   UNL     1       8.918  -3.692  35.677  1.00  0.00    -0.003 C 
ATOM     26  C   UNL     1       7.667  -4.490  36.045  1.00  0.00     0.004 C 
ENDBRANCH  24  25
ENDBRANCH  23  24
ENDBRANCH  22  23
ENDBRANCH  21  22
ENDBRANCH  20  21
ENDBRANCH  19  20
ENDBRANCH  18  19
ENDBRANCH  17  18
ENDBRANCH  16  17
ENDBRANCH  15  16
ENDBRANCH   1  15
TORSDOF 22
ENDMDL
MODEL 4
REMARK VINA RESULT:    -4.236      4.964      6.676
REMARK INTER + INTRA:         -13.063
REMARK INTER:                 -10.839
REMARK INTRA:                  -2.224
REMARK UNBOUND:                -3.379
REMARK SMILES CCCCCCCCCCCCCCCCCCCCCCCC(=O)[O-]
REMARK SMILES IDX 13 1 14 2 15 3 16 4 17 5 18 6 19 7 20 8 21 9 22 10 23 11
REMARK SMILES IDX 24 12 25 13 26 14 12 15 11 16 10 17 9 18 8 19 7 20 6 21 5 22
REMARK SMILES IDX 4 23 3 24 2 25 1 26
REMARK H PARENT
REMARK Flexibility Score: inf
ROOT
ATOM      1  C   UNL     1      11.160   1.103  41.496  1.00  0.00     0.000 C 
ENDROOT
BRANCH   1   2
ATOM      2  C   UNL     1      12.097  -0.114  41.495  1.00  0.00     0.000 C 
BRANCH   2   3
ATOM      3  C   UNL     1      12.916  -0.174  40.200  1.00  0.00     0.000 C 
BRANCH   3   4
ATOM      4  C   UNL     1      14.369  -0.575  40.485  1.00  0.00     0.000 C 
BRANCH   4   5
ATOM      5  C   UNL     1      15.079   0.489  41.331  1.00  0.00     0.000 C 
BRANCH   5   6
ATOM      6  C   UNL     1      16.268   1.094  40.569  1.00  0.00     0.000 C 
BRANCH   6   7
ATOM      7  C   UNL     1      16.881   2.303  41.294  1.00  0.00     0.000 C 
BRANCH   7   8
ATOM      8  C   UNL     1      16.576   3.634  40.585  1.00  0.00     0.000 C 
BRANCH   8   9
ATOM      9  C   UNL     1      15.274   4.284  41.083  1.00  0.00     0.000 C 
BRANCH   9  10
ATOM     10  C   UNL     1      15.331   5.821  41.048  1.00  0.00     0.006 C 
BRANCH  10  11
ATOM     11  C   UNL     1      16.729   6.340  40.686  1.00  0.00     0.053 C 
BRANCH  11  12
ATOM     12  C   UNL     1      16.782   7.837  40.677  1.00  0.00     0.041 C 
ATOM     13  O   UNL     1      15.988   8.504  41.390  1.00  0.00    -0.550 OA
ATOM     14  O   UNL     1      17.695   8.496  39.863  1.00  0.00    -0.550 OA
ENDBRANCH  11  12
ENDBRANCH  10  11
ENDBRANCH   9  10
ENDBRANCH   8   9
ENDBRANCH   7   8
ENDBRANCH   6   7
ENDBRANCH   5   6
ENDBRANCH   4   5
ENDBRANCH   3   4
ENDBRANCH   2   3
ENDBRANCH   1   2
BRANCH   1  15
ATOM     15  C   UNL     1       9.760   0.774  42.039  1.00  0.00     0.000 C 
BRANCH  15  16
ATOM     16  C   UNL     1       9.636  -0.682  42.510  1.00  0.00     0.000 C 
BRANCH  16  17
ATOM     17  C   UNL     1       8.246  -1.248  42.190  1.00  0.00     0.000 C 
BRANCH  17  18
ATOM     18  C   UNL     1       7.670  -0.604  40.921  1.00  0.00    -0.000 C 
BRANCH  18  19
ATOM     19  C   UNL     1       7.299  -1.634  39.839  1.00  0.00    -0.000 C 
BRANCH  19  20
ATOM     20  C   UNL     1       8.356  -1.837  38.738  1.00  0.00    -0.000 C 
BRANCH  20  21
ATOM     21  C   UNL     1       9.473  -0.780  38.779  1.00  0.00    -0.000 C 
BRANCH  21  22
ATOM     22  C   UNL     1       9.468   0.133  37.542  1.00  0.00    -0.000 C 
BRANCH  22  23
ATOM     23  C   UNL     1      10.608   1.162  37.560  1.00  0.00    -0.000 C 
BRANCH  23  24
ATOM     24  C   UNL     1      10.928   1.648  36.137  1.00  0.00    -0.000 C 
BRANCH  24  25
ATOM     25  C   UNL     1      10.608   3.138  35.936  1.00  0.00    -0.003 C 
ATOM     26  C   UNL     1       9.253   3.369  35.268  1.00  0.00     0.004 C 
ENDBRANCH  24  25
ENDBRANCH  23  24
ENDBRANCH  22  23
ENDBRANCH  21  22
ENDBRANCH  20  21
ENDBRANCH  19  20
ENDBRANCH  18  19
ENDBRANCH  17  18
ENDBRANCH  16  17
ENDBRANCH  15  16
ENDBRANCH   1  15
TORSDOF 22
ENDMDL
MODEL 5
REMARK VINA RESULT:    -4.235      6.161      9.508
REMARK INTER + INTRA:         -13.060
REMARK INTER:                 -10.810
REMARK INTRA:                  -2.250
REMARK UNBOUND:                -3.379
REMARK SMILES CCCCCCCCCCCCCCCCCCCCCCCC(=O)[O-]
REMARK SMILES IDX 13 1 14 2 15 3 16 4 17 5 18 6 19 7 20 8 21 9 22 10 23 11
REMARK SMILES IDX 24 12 25 13 26 14 12 15 11 16 10 17 9 18 8 19 7 20 6 21 5 22
REMARK SMILES IDX 4 23 3 24 2 25 1 26
REMARK H PARENT
REMARK Flexibility Score: inf
ROOT
ATOM      1  C   UNL     1      17.274   3.829  40.720  1.00  0.00     0.000 C 
ENDROOT
BRANCH   1   2
ATOM      2  C   UNL     1      17.092   2.536  41.528  1.00  0.00     0.000 C 
BRANCH   2   3
ATOM      3  C   UNL     1      16.637   1.384  40.623  1.00  0.00     0.000 C 
BRANCH   3   4
ATOM      4  C   UNL     1      15.221   0.922  40.990  1.00  0.00     0.000 C 
BRANCH   4   5
ATOM      5  C   UNL     1      15.109  -0.607  40.937  1.00  0.00     0.000 C 
BRANCH   5   6
ATOM      6  C   UNL     1      13.702  -1.070  41.346  1.00  0.00     0.000 C 
BRANCH   6   7
ATOM      7  C   UNL     1      12.669  -0.879  40.225  1.00  0.00     0.000 C 
BRANCH   7   8
ATOM      8  C   UNL     1      11.779   0.357  40.445  1.00  0.00     0.000 C 
BRANCH   8   9
ATOM      9  C   UNL     1      11.213   0.431  41.873  1.00  0.00     0.000 C 
BRANCH   9  10
ATOM     10  C   UNL     1       9.701   0.714  41.895  1.00  0.00     0.006 C 
BRANCH  10  11
ATOM     11  C   UNL     1       8.923  -0.225  40.964  1.00  0.00     0.053 C 
BRANCH  11  12
ATOM     12  C   UNL     1       8.836  -1.613  41.520  1.00  0.00     0.041 C 
ATOM     13  O   UNL     1       8.953  -2.610  40.759  1.00  0.00    -0.550 OA
ATOM     14  O   UNL     1       8.602  -1.806  42.875  1.00  0.00    -0.550 OA
ENDBRANCH  11  12
ENDBRANCH  10  11
ENDBRANCH   9  10
ENDBRANCH   8   9
ENDBRANCH   7   8
ENDBRANCH   6   7
ENDBRANCH   5   6
ENDBRANCH   4   5
ENDBRANCH   3   4
ENDBRANCH   2   3
ENDBRANCH   1   2
BRANCH   1  15
ATOM     15  C   UNL     1      16.019   4.716  40.729  1.00  0.00     0.000 C 
BRANCH  15  16
ATOM     16  C   UNL     1      16.352   6.215  40.689  1.00  0.00     0.000 C 
BRANCH  16  17
ATOM     17  C   UNL     1      15.204   7.049  41.272  1.00  0.00     0.000 C 
BRANCH  17  18
ATOM     18  C   UNL     1      15.669   8.478  41.587  1.00  0.00    -0.000 C 
BRANCH  18  19
ATOM     19  C   UNL     1      17.202   8.625  41.590  1.00  0.00    -0.000 C 
BRANCH  19  20
ATOM     20  C   UNL     1      17.846   8.750  42.982  1.00  0.00    -0.000 C 
BRANCH  20  21
ATOM     21  C   UNL     1      18.277   7.393  43.566  1.00  0.00    -0.000 C 
BRANCH  21  22
ATOM     22  C   UNL     1      17.783   7.185  45.007  1.00  0.00    -0.000 C 
BRANCH  22  23
ATOM     23  C   UNL     1      16.296   7.530  45.181  1.00  0.00    -0.000 C 
BRANCH  23  24
ATOM     24  C   UNL     1      15.407   6.357  44.741  1.00  0.00    -0.000 C 
BRANCH  24  25
ATOM     25  C   UNL     1      15.912   5.004  45.267  1.00  0.00    -0.003 C 
ATOM     26  C   UNL     1      15.485   4.733  46.711  1.00  0.00     0.004 C 
ENDBRANCH  24  25
ENDBRANCH  23  24
ENDBRANCH  22  23
ENDBRANCH  21  22
ENDBRANCH  20  21
ENDBRANCH  19  20
ENDBRANCH  18  19
ENDBRANCH  17  18
ENDBRANCH  16  17
ENDBRANCH  15  16
ENDBRANCH   1  15
TORSDOF 22
ENDMDL
MODEL 6
REMARK VINA RESULT:    -4.232      7.195     10.293
REMARK INTER + INTRA:         -13.053
REMARK INTER:                 -10.310
REMARK INTRA:                  -2.742
REMARK UNBOUND:                -3.379
REMARK SMILES CCCCCCCCCCCCCCCCCCCCCCCC(=O)[O-]
REMARK SMILES IDX 13 1 14 2 15 3 16 4 17 5 18 6 19 7 20 8 21 9 22 10 23 11
REMARK SMILES IDX 24 12 25 13 26 14 12 15 11 16 10 17 9 18 8 19 7 20 6 21 5 22
REMARK SMILES IDX 4 23 3 24 2 25 1 26
REMARK H PARENT
REMARK Flexibility Score: inf
ROOT
ATOM      1  C   UNL     1      14.589   7.404  41.450  1.00  0.00     0.000 C 
ENDROOT
BRANCH   1   2
ATOM      2  C   UNL     1      15.700   6.772  40.598  1.00  0.00     0.000 C 
BRANCH   2   3
ATOM      3  C   UNL     1      17.030   6.750  41.362  1.00  0.00     0.000 C 
BRANCH   3   4
ATOM      4  C   UNL     1      17.340   5.341  41.884  1.00  0.00     0.000 C 
BRANCH   4   5
ATOM      5  C   UNL     1      16.910   4.271  40.874  1.00  0.00     0.000 C 
BRANCH   5   6
ATOM      6  C   UNL     1      17.014   2.865  41.484  1.00  0.00     0.000 C 
BRANCH   6   7
ATOM      7  C   UNL     1      17.786   1.886  40.586  1.00  0.00     0.000 C 
BRANCH   7   8
ATOM      8  C   UNL     1      19.133   2.458  40.109  1.00  0.00     0.000 C 
BRANCH   8   9
ATOM      9  C   UNL     1      20.154   2.596  41.251  1.00  0.00     0.000 C 
BRANCH   9  10
ATOM     10  C   UNL     1      20.710   4.026  41.375  1.00  0.00     0.006 C 
BRANCH  10  11
ATOM     11  C   UNL     1      21.777   4.138  42.472  1.00  0.00     0.053 C 
BRANCH  11  12
ATOM     12  C   UNL     1      21.997   5.559  42.890  1.00  0.00     0.041 C 
ATOM     13  O   UNL     1      22.975   5.860  43.624  1.00  0.00    -0.550 OA
ATOM     14  O   UNL     1      21.108   6.548  42.489  1.00  0.00    -0.550 OA
ENDBRANCH  11  12
ENDBRANCH  10  11
ENDBRANCH   9  10
ENDBRANCH   8   9
ENDBRANCH   7   8
ENDBRANCH   6   7
ENDBRANCH   5   6
ENDBRANCH   4   5
ENDBRANCH   3   4
ENDBRANCH   2   3
ENDBRANCH   1   2
BRANCH   1  15
ATOM     15  C   UNL     1      13.599   6.364  41.999  1.00  0.00     0.000 C 
BRANCH  15  16
ATOM     16  C   UNL     1      13.364   5.199  41.027  1.00  0.00     0.000 C 
BRANCH  16  17
ATOM     17  C   UNL     1      13.043   3.905  41.786  1.00  0.00     0.000 C 
BRANCH  17  18
ATOM     18  C   UNL     1      11.684   4.004  42.492  1.00  0.00    -0.000 C 
BRANCH  18  19
ATOM     19  C   UNL     1      10.526   3.436  41.651  1.00  0.00    -0.000 C 
BRANCH  19  20
ATOM     20  C   UNL     1       9.728   2.301  42.318  1.00  0.00    -0.000 C 
BRANCH  20  21
ATOM     21  C   UNL     1      10.234   0.902  41.924  1.00  0.00    -0.000 C 
BRANCH  21  22
ATOM     22  C   UNL     1      10.277   0.696  40.401  1.00  0.00    -0.000 C 
BRANCH  22  23
ATOM     23  C   UNL     1      11.616   0.119  39.917  1.00  0.00    -0.000 C 
BRANCH  23  24
ATOM     24  C   UNL     1      12.730   0.389  40.940  1.00  0.00    -0.000 C 
BRANCH  24  25
ATOM     25  C   UNL     1      13.584  -0.856  41.226  1.00  0.00    -0.003 C 
ATOM     26  C   UNL     1      15.079  -0.611  41.016  1.00  0.00     0.004 C 
ENDBRANCH  24  25
ENDBRANCH  23  24
ENDBRANCH  22  23
ENDBRANCH  21  22
ENDBRANCH  20  21
ENDBRANCH  19  20
ENDBRANCH  18  19
ENDBRANCH  17  18
ENDBRANCH  16  17
ENDBRANCH  15  16
ENDBRANCH   1  15
TORSDOF 22
ENDMDL
MODEL 7
REMARK VINA RESULT:    -4.230      6.405      9.117
REMARK INTER + INTRA:         -13.049
REMARK INTER:                  -9.997
REMARK INTRA:                  -3.052
REMARK UNBOUND:                -3.379
REMARK SMILES CCCCCCCCCCCCCCCCCCCCCCCC(=O)[O-]
REMARK SMILES IDX 13 1 14 2 15 3 16 4 17 5 18 6 19 7 20 8 21 9 22 10 23 11
REMARK SMILES IDX 24 12 25 13 26 14 12 15 11 16 10 17 9 18 8 19 7 20 6 21 5 22
REMARK SMILES IDX 4 23 3 24 2 25 1 26
REMARK H PARENT
REMARK Flexibility Score: inf
ROOT
ATOM      1  C   UNL     1      12.568  -0.371  41.664  1.00  0.00     0.000 C 
ENDROOT
BRANCH   1   2
ATOM      2  C   UNL     1      12.892  -0.756  40.212  1.00  0.00     0.000 C 
BRANCH   2   3
ATOM      3  C   UNL     1      14.407  -0.757  39.972  1.00  0.00     0.000 C 
BRANCH   3   4
ATOM      4  C   UNL     1      15.139   0.028  41.067  1.00  0.00     0.000 C 
BRANCH   4   5
ATOM      5  C   UNL     1      15.521   1.431  40.579  1.00  0.00     0.000 C 
BRANCH   5   6
ATOM      6  C   UNL     1      17.030   1.675  40.733  1.00  0.00     0.000 C 
BRANCH   6   7
ATOM      7  C   UNL     1      17.352   2.716  41.817  1.00  0.00     0.000 C 
BRANCH   7   8
ATOM      8  C   UNL     1      16.626   4.053  41.587  1.00  0.00     0.000 C 
BRANCH   8   9
ATOM      9  C   UNL     1      16.267   4.764  42.903  1.00  0.00     0.000 C 
BRANCH   9  10
ATOM     10  C   UNL     1      15.970   6.260  42.703  1.00  0.00     0.006 C 
BRANCH  10  11
ATOM     11  C   UNL     1      15.982   6.659  41.221  1.00  0.00     0.053 C 
BRANCH  11  12
ATOM     12  C   UNL     1      16.572   8.021  41.016  1.00  0.00     0.041 C 
ATOM     13  O   UNL     1      15.915   9.050  41.325  1.00  0.00    -0.550 OA
ATOM     14  O   UNL     1      17.838   8.154  40.461  1.00  0.00    -0.550 OA
ENDBRANCH  11  12
ENDBRANCH  10  11
ENDBRANCH   9  10
ENDBRANCH   8   9
ENDBRANCH   7   8
ENDBRANCH   6   7
ENDBRANCH   5   6
ENDBRANCH   4   5
ENDBRANCH   3   4
ENDBRANCH   2   3
ENDBRANCH   1   2
BRANCH   1  15
ATOM     15  C   UNL     1      11.333   0.538  41.774  1.00  0.00     0.000 C 
BRANCH  15  16
ATOM     16  C   UNL     1      11.199   1.501  40.585  1.00  0.00     0.000 C 
BRANCH  16  17
ATOM     17  C   UNL     1      11.211   2.961  41.056  1.00  0.00     0.000 C 
BRANCH  17  18
ATOM     18  C   UNL     1      12.640   3.427  41.367  1.00  0.00    -0.000 C 
BRANCH  18  19
ATOM     19  C   UNL     1      12.743   4.947  41.589  1.00  0.00    -0.000 C 
BRANCH  19  20
ATOM     20  C   UNL     1      11.456   5.622  42.100  1.00  0.00    -0.000 C 
BRANCH  20  21
ATOM     21  C   UNL     1      11.614   6.223  43.507  1.00  0.00    -0.000 C 
BRANCH  21  22
ATOM     22  C   UNL     1      12.151   5.207  44.528  1.00  0.00    -0.000 C 
BRANCH  22  23
ATOM     23  C   UNL     1      13.181   5.818  45.489  1.00  0.00    -0.000 C 
BRANCH  23  24
ATOM     24  C   UNL     1      13.577   4.811  46.579  1.00  0.00    -0.000 C 
BRANCH  24  25
ATOM     25  C   UNL     1      14.930   5.145  47.228  1.00  0.00    -0.003 C 
ATOM     26  C   UNL     1      16.105   4.445  46.544  1.00  0.00     0.004 C 
ENDBRANCH  24  25
ENDBRANCH  23  24
ENDBRANCH  22  23
ENDBRANCH  21  22
ENDBRANCH  20  21
ENDBRANCH  19  20
ENDBRANCH  18  19
ENDBRANCH  17  18
ENDBRANCH  16  17
ENDBRANCH  15  16
ENDBRANCH   1  15
TORSDOF 22
ENDMDL
MODEL 8
REMARK VINA RESULT:    -4.220      6.338      8.235
REMARK INTER + INTRA:         -13.027
REMARK INTER:                  -9.524
REMARK INTRA:                  -3.504
REMARK UNBOUND:                -3.379
REMARK SMILES CCCCCCCCCCCCCCCCCCCCCCCC(=O)[O-]
REMARK SMILES IDX 13 1 14 2 15 3 16 4 17 5 18 6 19 7 20 8 21 9 22 10 23 11
REMARK SMILES IDX 24 12 25 13 26 14 12 15 11 16 10 17 9 18 8 19 7 20 6 21 5 22
REMARK SMILES IDX 4 23 3 24 2 25 1 26
REMARK H PARENT
REMARK Flexibility Score: inf
ROOT
ATOM      1  C   UNL     1      13.969  -0.810  40.222  1.00  0.00     0.000 C 
ENDROOT
BRANCH   1   2
ATOM      2  C   UNL     1      15.148  -0.291  41.058  1.00  0.00     0.000 C 
BRANCH   2   3
ATOM      3  C   UNL     1      15.452   1.175  40.727  1.00  0.00     0.000 C 
BRANCH   3   4
ATOM      4  C   UNL     1      16.962   1.443  40.747  1.00  0.00     0.000 C 
BRANCH   4   5
ATOM      5  C   UNL     1      17.266   2.852  41.271  1.00  0.00     0.000 C 
BRANCH   5   6
ATOM      6  C   UNL     1      16.647   3.923  40.362  1.00  0.00     0.000 C 
BRANCH   6   7
ATOM      7  C   UNL     1      16.486   5.278  41.068  1.00  0.00     0.000 C 
BRANCH   7   8
ATOM      8  C   UNL     1      16.896   5.224  42.550  1.00  0.00     0.000 C 
BRANCH   8   9
ATOM      9  C   UNL     1      15.703   5.418  43.501  1.00  0.00     0.000 C 
BRANCH   9  10
ATOM     10  C   UNL     1      15.922   6.571  44.495  1.00  0.00     0.006 C 
BRANCH  10  11
ATOM     11  C   UNL     1      15.099   6.393  45.778  1.00  0.00     0.053 C 
BRANCH  11  12
ATOM     12  C   UNL     1      15.692   5.355  46.680  1.00  0.00     0.041 C 
ATOM     13  O   UNL     1      14.988   4.397  47.094  1.00  0.00    -0.550 OA
ATOM     14  O   UNL     1      17.018   5.459  47.083  1.00  0.00    -0.550 OA
ENDBRANCH  11  12
ENDBRANCH  10  11
ENDBRANCH   9  10
ENDBRANCH   8   9
ENDBRANCH   7   8
ENDBRANCH   6   7
ENDBRANCH   5   6
ENDBRANCH   4   5
ENDBRANCH   3   4
ENDBRANCH   2   3
ENDBRANCH   1   2
BRANCH   1  15
ATOM     15  C   UNL     1      12.605  -0.409  40.807  1.00  0.00     0.000 C 
BRANCH  15  16
ATOM     16  C   UNL     1      11.684   0.246  39.769  1.00  0.00     0.000 C 
BRANCH  16  17
ATOM     17  C   UNL     1      10.922   1.430  40.378  1.00  0.00     0.000 C 
BRANCH  17  18
ATOM     18  C   UNL     1      11.377   1.694  41.820  1.00  0.00    -0.000 C 
BRANCH  18  19
ATOM     19  C   UNL     1      11.790   3.157  42.061  1.00  0.00    -0.000 C 
BRANCH  19  20
ATOM     20  C   UNL     1      12.987   3.646  41.226  1.00  0.00    -0.000 C 
BRANCH  20  21
ATOM     21  C   UNL     1      12.812   5.087  40.715  1.00  0.00    -0.000 C 
BRANCH  21  22
ATOM     22  C   UNL     1      12.563   6.092  41.852  1.00  0.00    -0.000 C 
BRANCH  22  23
ATOM     23  C   UNL     1      12.814   7.546  41.425  1.00  0.00    -0.000 C 
BRANCH  23  24
ATOM     24  C   UNL     1      13.539   8.323  42.534  1.00  0.00    -0.000 C 
BRANCH  24  25
ATOM     25  C   UNL     1      14.450   9.430  41.980  1.00  0.00    -0.003 C 
ATOM     26  C   UNL     1      15.866   8.937  41.679  1.00  0.00     0.004 C 
ENDBRANCH  24  25
ENDBRANCH  23  24
ENDBRANCH  22  23
ENDBRANCH  21  22
ENDBRANCH  20  21
ENDBRANCH  19  20
ENDBRANCH  18  19
ENDBRANCH  17  18
ENDBRANCH  16  17
ENDBRANCH  15  16
ENDBRANCH   1  15
TORSDOF 22
ENDMDL
MODEL 9
REMARK VINA RESULT:    -4.192      5.413      7.904
REMARK INTER + INTRA:         -12.962
REMARK INTER:                  -9.705
REMARK INTRA:                  -3.257
REMARK UNBOUND:                -3.379
REMARK SMILES CCCCCCCCCCCCCCCCCCCCCCCC(=O)[O-]
REMARK SMILES IDX 13 1 14 2 15 3 16 4 17 5 18 6 19 7 20 8 21 9 22 10 23 11
REMARK SMILES IDX 24 12 25 13 26 14 12 15 11 16 10 17 9 18 8 19 7 20 6 21 5 22
REMARK SMILES IDX 4 23 3 24 2 25 1 26
REMARK H PARENT
REMARK Flexibility Score: inf
ROOT
ATOM      1  C   UNL     1      11.677   1.627  40.991  1.00  0.00     0.000 C 
ENDROOT
BRANCH   1   2
ATOM      2  C   UNL     1      11.801   0.140  41.356  1.00  0.00     0.000 C 
BRANCH   2   3
ATOM      3  C   UNL     1      12.995  -0.503  40.639  1.00  0.00     0.000 C 
BRANCH   3   4
ATOM      4  C   UNL     1      14.262  -0.419  41.499  1.00  0.00     0.000 C 
BRANCH   4   5
ATOM      5  C   UNL     1      15.459   0.065  40.671  1.00  0.00     0.000 C 
BRANCH   5   6
ATOM      6  C   UNL     1      15.805   1.524  41.005  1.00  0.00     0.000 C 
BRANCH   6   7
ATOM      7  C   UNL     1      17.296   1.838  40.812  1.00  0.00     0.000 C 
BRANCH   7   8
ATOM      8  C   UNL     1      17.622   3.325  41.037  1.00  0.00     0.000 C 
BRANCH   8   9
ATOM      9  C   UNL     1      16.529   4.258  40.491  1.00  0.00     0.000 C 
BRANCH   9  10
ATOM     10  C   UNL     1      16.675   5.702  41.005  1.00  0.00     0.006 C 
BRANCH  10  11
ATOM     11  C   UNL     1      16.624   5.778  42.536  1.00  0.00     0.053 C 
BRANCH  11  12
ATOM     12  C   UNL     1      17.752   6.595  43.090  1.00  0.00     0.041 C 
ATOM     13  O   UNL     1      17.561   7.350  44.079  1.00  0.00    -0.550 OA
ATOM     14  O   UNL     1      19.007   6.539  42.498  1.00  0.00    -0.550 OA
ENDBRANCH  11  12
ENDBRANCH  10  11
ENDBRANCH   9  10
ENDBRANCH   8   9
ENDBRANCH   7   8
ENDBRANCH   6   7
ENDBRANCH   5   6
ENDBRANCH   4   5
ENDBRANCH   3   4
ENDBRANCH   2   3
ENDBRANCH   1   2
BRANCH   1  15
ATOM     15  C   UNL     1      11.057   2.465  42.121  1.00  0.00     0.000 C 
BRANCH  15  16
ATOM     16  C   UNL     1      11.635   3.885  42.191  1.00  0.00     0.000 C 
BRANCH  16  17
ATOM     17  C   UNL     1      12.959   3.979  41.421  1.00  0.00     0.000 C 
BRANCH  17  18
ATOM     18  C   UNL     1      13.101   5.346  40.737  1.00  0.00    -0.000 C 
BRANCH  18  19
ATOM     19  C   UNL     1      11.752   5.937  40.287  1.00  0.00    -0.000 C 
BRANCH  19  20
ATOM     20  C   UNL     1      11.535   5.988  38.764  1.00  0.00    -0.000 C 
BRANCH  20  21
ATOM     21  C   UNL     1      10.833   4.733  38.217  1.00  0.00    -0.000 C 
BRANCH  21  22
ATOM     22  C   UNL     1       9.499   4.444  38.926  1.00  0.00    -0.000 C 
BRANCH  22  23
ATOM     23  C   UNL     1       9.146   2.950  38.941  1.00  0.00    -0.000 C 
BRANCH  23  24
ATOM     24  C   UNL     1       9.188   2.363  37.521  1.00  0.00    -0.000 C 
BRANCH  24  25
ATOM     25  C   UNL     1      10.225   1.237  37.378  1.00  0.00    -0.003 C 
ATOM     26  C   UNL     1      11.167   1.446  36.192  1.00  0.00     0.004 C 
ENDBRANCH  24  25
ENDBRANCH  23  24
ENDBRANCH  22  23
ENDBRANCH  21  22
ENDBRANCH  20  21
ENDBRANCH  19  20
ENDBRANCH  18  19
ENDBRANCH  17  18
ENDBRANCH  16  17
ENDBRANCH  15  16
ENDBRANCH   1  15
TORSDOF 22
ENDMDL
