MODEL 1
REMARK VINA RESULT:    -3.264      0.000      0.000
REMARK INTER + INTRA:          -8.041
REMARK INTER:                  -5.936
REMARK INTRA:                  -2.105
REMARK UNBOUND:                -2.105
REMARK SMILES CCCCCCCCCCCCCCCC(=O)[O-]
REMARK SMILES IDX 9 1 10 2 11 3 12 4 13 5 14 6 15 7 16 8 17 9 18 10 8 11 7 12
REMARK SMILES IDX 6 13 5 14 4 15 3 16 2 17 1 18
REMARK H PARENT
REMARK Flexibility Score: inf
ROOT
ATOM      1  C   UNL     1      19.534   0.164  41.494  1.00  0.00     0.000 C 
ENDROOT
BRANCH   1   2
ATOM      2  C   UNL     1      18.782   1.148  40.584  1.00  0.00     0.000 C 
BRANCH   2   3
ATOM      3  C   UNL     1      17.400   1.530  41.137  1.00  0.00     0.000 C 
BRANCH   3   4
ATOM      4  C   UNL     1      17.181   3.047  41.064  1.00  0.00     0.000 C 
BRANCH   4   5
ATOM      5  C   UNL     1      15.855   3.379  40.364  1.00  0.00     0.000 C 
BRANCH   5   6
ATOM      6  C   UNL     1      15.924   3.182  38.842  1.00  0.00     0.006 C 
BRANCH   6   7
ATOM      7  C   UNL     1      14.574   2.777  38.236  1.00  0.00     0.053 C 
BRANCH   7   8
ATOM      8  C   UNL     1      14.420   1.289  38.253  1.00  0.00     0.041 C 
ATOM      9  O   UNL     1      13.273   0.771  38.259  1.00  0.00    -0.550 OA
ATOM     10  O   UNL     1      15.544   0.473  38.211  1.00  0.00    -0.550 OA
ENDBRANCH   7   8
ENDBRANCH   6   7
ENDBRANCH   5   6
ENDBRANCH   4   5
ENDBRANCH   3   4
ENDBRANCH   2   3
ENDBRANCH   1   2
BRANCH   1  11
ATOM     11  C   UNL     1      18.841  -0.031  42.853  1.00  0.00     0.000 C 
BRANCH  11  12
ATOM     12  C   UNL     1      19.647   0.558  44.025  1.00  0.00    -0.000 C 
BRANCH  12  13
ATOM     13  C   UNL     1      19.865   2.084  43.975  1.00  0.00    -0.000 C 
BRANCH  13  14
ATOM     14  C   UNL     1      18.685   2.934  44.481  1.00  0.00    -0.000 C 
BRANCH  14  15
ATOM     15  C   UNL     1      18.245   2.555  45.905  1.00  0.00    -0.000 C 
BRANCH  15  16
ATOM     16  C   UNL     1      16.751   2.201  45.987  1.00  0.00    -0.000 C 
BRANCH  16  17
ATOM     17  C   UNL     1      16.135   1.907  44.611  1.00  0.00    -0.003 C 
ATOM     18  C   UNL     1      15.628   0.470  44.532  1.00  0.00     0.004 C 
ENDBRANCH  16  17
ENDBRANCH  15  16
ENDBRANCH  14  15
ENDBRANCH  13  14
ENDBRANCH  12  13
ENDBRANCH  11  12
ENDBRANCH   1  11
TORSDOF 14
ENDMDL
MODEL 2
REMARK VINA RESULT:    -3.252      1.266      2.021
REMARK INTER + INTRA:          -8.018
REMARK INTER:                  -5.945
REMARK INTRA:                  -2.073
REMARK UNBOUND:                -2.105
REMARK SMILES CCCCCCCCCCCCCCCC(=O)[O-]
REMARK SMILES IDX 9 1 10 2 11 3 12 4 13 5 14 6 15 7 16 8 17 9 18 10 8 11 7 12
REMARK SMILES IDX 6 13 5 14 4 15 3 16 2 17 1 18
REMARK H PARENT
REMARK Flexibility Score: inf
ROOT
ATOM      1  C   UNL     1      20.211   1.596  41.593  1.00  0.00     0.000 C 
ENDROOT
BRANCH   1   2
ATOM      2  C   UNL     1      19.068   2.244  40.796  1.00  0.00     0.000 C 
BRANCH   2   3
ATOM      3  C   UNL     1      18.627   3.594  41.382  1.00  0.00     0.000 C 
BRANCH   3   4
ATOM      4  C   UNL     1      17.220   3.967  40.901  1.00  0.00     0.000 C 
BRANCH   4   5
ATOM      5  C   UNL     1      16.356   2.713  40.699  1.00  0.00     0.000 C 
BRANCH   5   6
ATOM      6  C   UNL     1      15.732   2.643  39.297  1.00  0.00     0.006 C 
BRANCH   6   7
ATOM      7  C   UNL     1      15.579   1.203  38.789  1.00  0.00     0.053 C 
BRANCH   7   8
ATOM      8  C   UNL     1      14.400   1.094  37.875  1.00  0.00     0.041 C 
ATOM      9  O   UNL     1      13.294   1.598  38.203  1.00  0.00    -0.550 OA
ATOM     10  O   UNL     1      14.536   0.479  36.636  1.00  0.00    -0.550 OA
ENDBRANCH   7   8
ENDBRANCH   6   7
ENDBRANCH   5   6
ENDBRANCH   4   5
ENDBRANCH   3   4
ENDBRANCH   2   3
ENDBRANCH   1   2
BRANCH   1  11
ATOM     11  C   UNL     1      20.377   2.210  42.993  1.00  0.00     0.000 C 
BRANCH  11  12
ATOM     12  C   UNL     1      19.795   1.322  44.108  1.00  0.00    -0.000 C 
BRANCH  12  13
ATOM     13  C   UNL     1      19.379  -0.098  43.670  1.00  0.00    -0.000 C 
BRANCH  13  14
ATOM     14  C   UNL     1      17.882  -0.422  43.827  1.00  0.00    -0.000 C 
BRANCH  14  15
ATOM     15  C   UNL     1      16.974   0.773  43.490  1.00  0.00    -0.000 C 
BRANCH  15  16
ATOM     16  C   UNL     1      16.420   1.466  44.745  1.00  0.00    -0.000 C 
BRANCH  16  17
ATOM     17  C   UNL     1      16.063   2.939  44.500  1.00  0.00    -0.003 C 
ATOM     18  C   UNL     1      17.237   3.853  44.838  1.00  0.00     0.004 C 
ENDBRANCH  16  17
ENDBRANCH  15  16
ENDBRANCH  14  15
ENDBRANCH  13  14
ENDBRANCH  12  13
ENDBRANCH  11  12
ENDBRANCH   1  11
TORSDOF 14
ENDMDL
MODEL 3
REMARK VINA RESULT:    -3.215      1.793      3.101
REMARK INTER + INTRA:          -7.951
REMARK INTER:                  -5.937
REMARK INTRA:                  -2.014
REMARK UNBOUND:                -2.105
REMARK SMILES CCCCCCCCCCCCCCCC(=O)[O-]
REMARK SMILES IDX 9 1 10 2 11 3 12 4 13 5 14 6 15 7 16 8 17 9 18 10 8 11 7 12
REMARK SMILES IDX 6 13 5 14 4 15 3 16 2 17 1 18
REMARK H PARENT
REMARK Flexibility Score: inf
ROOT
ATOM      1  C   UNL     1      19.826   1.882  40.289  1.00  0.00     0.000 C 
ENDROOT
BRANCH   1   2
ATOM      2  C   UNL     1      18.797   0.816  39.882  1.00  0.00     0.000 C 
BRANCH   2   3
ATOM      3  C   UNL     1      17.354   1.226  40.214  1.00  0.00     0.000 C 
BRANCH   3   4
ATOM      4  C   UNL     1      17.271   2.722  40.544  1.00  0.00     0.000 C 
BRANCH   4   5
ATOM      5  C   UNL     1      15.900   3.297  40.156  1.00  0.00     0.000 C 
BRANCH   5   6
ATOM      6  C   UNL     1      15.716   3.414  38.636  1.00  0.00     0.006 C 
BRANCH   6   7
ATOM      7  C   UNL     1      14.366   2.862  38.159  1.00  0.00     0.053 C 
BRANCH   7   8
ATOM      8  C   UNL     1      14.474   1.399  37.866  1.00  0.00     0.041 C 
ATOM      9  O   UNL     1      13.721   0.578  38.451  1.00  0.00    -0.550 OA
ATOM     10  O   UNL     1      15.374   0.946  36.909  1.00  0.00    -0.550 OA
ENDBRANCH   7   8
ENDBRANCH   6   7
ENDBRANCH   5   6
ENDBRANCH   4   5
ENDBRANCH   3   4
ENDBRANCH   2   3
ENDBRANCH   1   2
BRANCH   1  11
ATOM     11  C   UNL     1      20.757   1.404  41.416  1.00  0.00     0.000 C 
BRANCH  11  12
ATOM     12  C   UNL     1      20.497   2.124  42.752  1.00  0.00    -0.000 C 
BRANCH  12  13
ATOM     13  C   UNL     1      19.463   1.446  43.675  1.00  0.00    -0.000 C 
BRANCH  13  14
ATOM     14  C   UNL     1      19.652  -0.069  43.873  1.00  0.00    -0.000 C 
BRANCH  14  15
ATOM     15  C   UNL     1      18.482  -0.895  43.311  1.00  0.00    -0.000 C 
BRANCH  15  16
ATOM     16  C   UNL     1      18.912  -2.303  42.868  1.00  0.00    -0.000 C 
BRANCH  16  17
ATOM     17  C   UNL     1      19.465  -2.330  41.435  1.00  0.00    -0.003 C 
ATOM     18  C   UNL     1      20.944  -2.705  41.424  1.00  0.00     0.004 C 
ENDBRANCH  16  17
ENDBRANCH  15  16
ENDBRANCH  14  15
ENDBRANCH  13  14
ENDBRANCH  12  13
ENDBRANCH  11  12
ENDBRANCH   1  11
TORSDOF 14
ENDMDL
MODEL 4
REMARK VINA RESULT:    -3.191      1.746      2.555
REMARK INTER + INTRA:          -7.907
REMARK INTER:                  -5.468
REMARK INTRA:                  -2.439
REMARK UNBOUND:                -2.105
REMARK SMILES CCCCCCCCCCCCCCCC(=O)[O-]
REMARK SMILES IDX 9 1 10 2 11 3 12 4 13 5 14 6 15 7 16 8 17 9 18 10 8 11 7 12
REMARK SMILES IDX 6 13 5 14 4 15 3 16 2 17 1 18
REMARK H PARENT
REMARK Flexibility Score: inf
ROOT
ATOM      1  C   UNL     1      20.116   1.683  40.712  1.00  0.00     0.000 C 
ENDROOT
BRANCH   1   2
ATOM      2  C   UNL     1      19.465   2.915  40.063  1.00  0.00     0.000 C 
BRANCH   2   3
ATOM      3  C   UNL     1      18.228   2.559  39.223  1.00  0.00     0.000 C 
BRANCH   3   4
ATOM      4  C   UNL     1      17.367   1.507  39.933  1.00  0.00     0.000 C 
BRANCH   4   5
ATOM      5  C   UNL     1      15.931   2.014  40.132  1.00  0.00     0.000 C 
BRANCH   5   6
ATOM      6  C   UNL     1      15.579   3.180  39.196  1.00  0.00     0.006 C 
BRANCH   6   7
ATOM      7  C   UNL     1      14.423   2.847  38.245  1.00  0.00     0.053 C 
BRANCH   7   8
ATOM      8  C   UNL     1      14.811   1.736  37.320  1.00  0.00     0.041 C 
ATOM      9  O   UNL     1      15.705   1.917  36.452  1.00  0.00    -0.550 OA
ATOM     10  O   UNL     1      14.219   0.486  37.449  1.00  0.00    -0.550 OA
ENDBRANCH   7   8
ENDBRANCH   6   7
ENDBRANCH   5   6
ENDBRANCH   4   5
ENDBRANCH   3   4
ENDBRANCH   2   3
ENDBRANCH   1   2
BRANCH   1  11
ATOM     11  C   UNL     1      20.371   1.873  42.216  1.00  0.00     0.000 C 
BRANCH  11  12
ATOM     12  C   UNL     1      19.521   0.933  43.090  1.00  0.00    -0.000 C 
BRANCH  12  13
ATOM     13  C   UNL     1      18.580   1.637  44.091  1.00  0.00    -0.000 C 
BRANCH  13  14
ATOM     14  C   UNL     1      17.213   2.058  43.523  1.00  0.00    -0.000 C 
BRANCH  14  15
ATOM     15  C   UNL     1      16.931   3.560  43.700  1.00  0.00    -0.000 C 
BRANCH  15  16
ATOM     16  C   UNL     1      17.598   4.418  42.612  1.00  0.00    -0.000 C 
BRANCH  16  17
ATOM     17  C   UNL     1      16.612   5.370  41.920  1.00  0.00    -0.003 C 
ATOM     18  C   UNL     1      15.261   5.374  42.629  1.00  0.00     0.004 C 
ENDBRANCH  16  17
ENDBRANCH  15  16
ENDBRANCH  14  15
ENDBRANCH  13  14
ENDBRANCH  12  13
ENDBRANCH  11  12
ENDBRANCH   1  11
TORSDOF 14
ENDMDL
MODEL 5
REMARK VINA RESULT:    -3.180      8.148     10.916
REMARK INTER + INTRA:          -7.888
REMARK INTER:                  -5.577
REMARK INTRA:                  -2.311
REMARK UNBOUND:                -2.105
REMARK SMILES CCCCCCCCCCCCCCCC(=O)[O-]
REMARK SMILES IDX 9 1 10 2 11 3 12 4 13 5 14 6 15 7 16 8 17 9 18 10 8 11 7 12
REMARK SMILES IDX 6 13 5 14 4 15 3 16 2 17 1 18
REMARK H PARENT
REMARK Flexibility Score: inf
ROOT
ATOM      1  C   UNL     1       6.797   1.131  47.368  1.00  0.00     0.000 C 
ENDROOT
BRANCH   1   2
ATOM      2  C   UNL     1       7.951   0.134  47.559  1.00  0.00     0.000 C 
BRANCH   2   3
ATOM      3  C   UNL     1       9.315   0.827  47.703  1.00  0.00     0.000 C 
BRANCH   3   4
ATOM      4  C   UNL     1       9.897   1.185  46.330  1.00  0.00     0.000 C 
BRANCH   4   5
ATOM      5  C   UNL     1      10.017  -0.062  45.440  1.00  0.00     0.000 C 
BRANCH   5   6
ATOM      6  C   UNL     1      11.457  -0.320  44.973  1.00  0.00     0.006 C 
BRANCH   6   7
ATOM      7  C   UNL     1      12.410  -0.625  46.136  1.00  0.00     0.053 C 
BRANCH   7   8
ATOM      8  C   UNL     1      12.026  -1.907  46.804  1.00  0.00     0.041 C 
ATOM      9  O   UNL     1      11.761  -1.926  48.035  1.00  0.00    -0.550 OA
ATOM     10  O   UNL     1      11.911  -3.073  46.057  1.00  0.00    -0.550 OA
ENDBRANCH   7   8
ENDBRANCH   6   7
ENDBRANCH   5   6
ENDBRANCH   4   5
ENDBRANCH   3   4
ENDBRANCH   2   3
ENDBRANCH   1   2
BRANCH   1  11
ATOM     11  C   UNL     1       5.663   0.562  46.500  1.00  0.00     0.000 C 
BRANCH  11  12
ATOM     12  C   UNL     1       6.142   0.123  45.104  1.00  0.00    -0.000 C 
BRANCH  12  13
ATOM     13  C   UNL     1       6.709   1.250  44.217  1.00  0.00    -0.000 C 
BRANCH  13  14
ATOM     14  C   UNL     1       5.729   2.394  43.901  1.00  0.00    -0.000 C 
BRANCH  14  15
ATOM     15  C   UNL     1       6.162   3.738  44.512  1.00  0.00    -0.000 C 
BRANCH  15  16
ATOM     16  C   UNL     1       7.667   3.786  44.824  1.00  0.00    -0.000 C 
BRANCH  16  17
ATOM     17  C   UNL     1       7.971   4.448  46.176  1.00  0.00    -0.003 C 
ATOM     18  C   UNL     1       9.442   4.844  46.275  1.00  0.00     0.004 C 
ENDBRANCH  16  17
ENDBRANCH  15  16
ENDBRANCH  14  15
ENDBRANCH  13  14
ENDBRANCH  12  13
ENDBRANCH  11  12
ENDBRANCH   1  11
TORSDOF 14
ENDMDL
MODEL 6
REMARK VINA RESULT:    -3.171      1.479      2.815
REMARK INTER + INTRA:          -7.870
REMARK INTER:                  -6.149
REMARK INTRA:                  -1.721
REMARK UNBOUND:                -2.105
REMARK SMILES CCCCCCCCCCCCCCCC(=O)[O-]
REMARK SMILES IDX 9 1 10 2 11 3 12 4 13 5 14 6 15 7 16 8 17 9 18 10 8 11 7 12
REMARK SMILES IDX 6 13 5 14 4 15 3 16 2 17 1 18
REMARK H PARENT
REMARK Flexibility Score: inf
ROOT
ATOM      1  C   UNL     1      17.534   1.718  40.494  1.00  0.00     0.000 C 
ENDROOT
BRANCH   1   2
ATOM      2  C   UNL     1      16.266   2.470  40.925  1.00  0.00     0.000 C 
BRANCH   2   3
ATOM      3  C   UNL     1      15.899   3.614  39.966  1.00  0.00     0.000 C 
BRANCH   3   4
ATOM      4  C   UNL     1      15.627   3.080  38.555  1.00  0.00     0.000 C 
BRANCH   4   5
ATOM      5  C   UNL     1      14.169   2.618  38.412  1.00  0.00     0.000 C 
BRANCH   5   6
ATOM      6  C   UNL     1      14.053   1.161  37.940  1.00  0.00     0.006 C 
BRANCH   6   7
ATOM      7  C   UNL     1      15.391   0.587  37.457  1.00  0.00     0.053 C 
BRANCH   7   8
ATOM      8  C   UNL     1      15.419   0.515  35.963  1.00  0.00     0.041 C 
ATOM      9  O   UNL     1      15.120  -0.556  35.374  1.00  0.00    -0.550 OA
ATOM     10  O   UNL     1      15.728   1.647  35.219  1.00  0.00    -0.550 OA
ENDBRANCH   7   8
ENDBRANCH   6   7
ENDBRANCH   5   6
ENDBRANCH   4   5
ENDBRANCH   3   4
ENDBRANCH   2   3
ENDBRANCH   1   2
BRANCH   1  11
ATOM     11  C   UNL     1      18.817   2.526  40.752  1.00  0.00     0.000 C 
BRANCH  11  12
ATOM     12  C   UNL     1      20.003   1.644  41.184  1.00  0.00    -0.000 C 
BRANCH  12  13
ATOM     13  C   UNL     1      19.628   0.388  41.998  1.00  0.00    -0.000 C 
BRANCH  13  14
ATOM     14  C   UNL     1      19.432   0.618  43.508  1.00  0.00    -0.000 C 
BRANCH  14  15
ATOM     15  C   UNL     1      19.953   1.989  43.975  1.00  0.00    -0.000 C 
BRANCH  15  16
ATOM     16  C   UNL     1      18.997   2.679  44.960  1.00  0.00    -0.000 C 
BRANCH  16  17
ATOM     17  C   UNL     1      17.810   3.357  44.258  1.00  0.00    -0.003 C 
ATOM     18  C   UNL     1      16.498   2.657  44.600  1.00  0.00     0.004 C 
ENDBRANCH  16  17
ENDBRANCH  15  16
ENDBRANCH  14  15
ENDBRANCH  13  14
ENDBRANCH  12  13
ENDBRANCH  11  12
ENDBRANCH   1  11
TORSDOF 14
ENDMDL
MODEL 7
REMARK VINA RESULT:    -3.133      1.874      2.521
REMARK INTER + INTRA:          -7.802
REMARK INTER:                  -5.538
REMARK INTRA:                  -2.264
REMARK UNBOUND:                -2.105
REMARK SMILES CCCCCCCCCCCCCCCC(=O)[O-]
REMARK SMILES IDX 9 1 10 2 11 3 12 4 13 5 14 6 15 7 16 8 17 9 18 10 8 11 7 12
REMARK SMILES IDX 6 13 5 14 4 15 3 16 2 17 1 18
REMARK H PARENT
REMARK Flexibility Score: inf
ROOT
ATOM      1  C   UNL     1      19.838   0.675  42.698  1.00  0.00     0.000 C 
ENDROOT
BRANCH   1   2
ATOM      2  C   UNL     1      19.981   2.120  42.193  1.00  0.00     0.000 C 
BRANCH   2   3
ATOM      3  C   UNL     1      19.054   2.428  41.006  1.00  0.00     0.000 C 
BRANCH   3   4
ATOM      4  C   UNL     1      18.143   3.622  41.318  1.00  0.00     0.000 C 
BRANCH   4   5
ATOM      5  C   UNL     1      16.708   3.360  40.833  1.00  0.00     0.000 C 
BRANCH   5   6
ATOM      6  C   UNL     1      16.493   1.910  40.375  1.00  0.00     0.006 C 
BRANCH   6   7
ATOM      7  C   UNL     1      16.289   1.792  38.860  1.00  0.00     0.053 C 
BRANCH   7   8
ATOM      8  C   UNL     1      14.830   1.794  38.528  1.00  0.00     0.041 C 
ATOM      9  O   UNL     1      14.183   0.714  38.509  1.00  0.00    -0.550 OA
ATOM     10  O   UNL     1      14.173   2.994  38.288  1.00  0.00    -0.550 OA
ENDBRANCH   7   8
ENDBRANCH   6   7
ENDBRANCH   5   6
ENDBRANCH   4   5
ENDBRANCH   3   4
ENDBRANCH   2   3
ENDBRANCH   1   2
BRANCH   1  11
ATOM     11  C   UNL     1      18.965   0.574  43.959  1.00  0.00     0.000 C 
BRANCH  11  12
ATOM     12  C   UNL     1      17.473   0.366  43.639  1.00  0.00    -0.000 C 
BRANCH  12  13
ATOM     13  C   UNL     1      16.528   1.471  44.153  1.00  0.00    -0.000 C 
BRANCH  13  14
ATOM     14  C   UNL     1      17.127   2.404  45.222  1.00  0.00    -0.000 C 
BRANCH  14  15
ATOM     15  C   UNL     1      17.146   3.879  44.783  1.00  0.00    -0.000 C 
BRANCH  15  16
ATOM     16  C   UNL     1      15.751   4.397  44.397  1.00  0.00    -0.000 C 
BRANCH  16  17
ATOM     17  C   UNL     1      15.807   5.684  43.560  1.00  0.00    -0.003 C 
ATOM     18  C   UNL     1      14.467   5.956  42.882  1.00  0.00     0.004 C 
ENDBRANCH  16  17
ENDBRANCH  15  16
ENDBRANCH  14  15
ENDBRANCH  13  14
ENDBRANCH  12  13
ENDBRANCH  11  12
ENDBRANCH   1  11
TORSDOF 14
ENDMDL
MODEL 8
REMARK VINA RESULT:    -3.123      1.846      3.658
REMARK INTER + INTRA:          -7.783
REMARK INTER:                  -6.246
REMARK INTRA:                  -1.537
REMARK UNBOUND:                -2.105
REMARK SMILES CCCCCCCCCCCCCCCC(=O)[O-]
REMARK SMILES IDX 9 1 10 2 11 3 12 4 13 5 14 6 15 7 16 8 17 9 18 10 8 11 7 12
REMARK SMILES IDX 6 13 5 14 4 15 3 16 2 17 1 18
REMARK H PARENT
REMARK Flexibility Score: inf
ROOT
ATOM      1  C   UNL     1      16.880   2.611  43.206  1.00  0.00     0.000 C 
ENDROOT
BRANCH   1   2
ATOM      2  C   UNL     1      16.581   3.295  41.863  1.00  0.00     0.000 C 
BRANCH   2   3
ATOM      3  C   UNL     1      17.071   2.477  40.658  1.00  0.00     0.000 C 
BRANCH   3   4
ATOM      4  C   UNL     1      15.891   1.867  39.892  1.00  0.00     0.000 C 
BRANCH   4   5
ATOM      5  C   UNL     1      15.229   2.911  38.978  1.00  0.00     0.000 C 
BRANCH   5   6
ATOM      6  C   UNL     1      14.152   2.303  38.068  1.00  0.00     0.006 C 
BRANCH   6   7
ATOM      7  C   UNL     1      14.419   0.828  37.739  1.00  0.00     0.053 C 
BRANCH   7   8
ATOM      8  C   UNL     1      15.052   0.700  36.390  1.00  0.00     0.041 C 
ATOM      9  O   UNL     1      15.535   1.711  35.817  1.00  0.00    -0.550 OA
ATOM     10  O   UNL     1      15.152  -0.547  35.785  1.00  0.00    -0.550 OA
ENDBRANCH   7   8
ENDBRANCH   6   7
ENDBRANCH   5   6
ENDBRANCH   4   5
ENDBRANCH   3   4
ENDBRANCH   2   3
ENDBRANCH   1   2
BRANCH   1  11
ATOM     11  C   UNL     1      17.826   1.408  43.058  1.00  0.00     0.000 C 
BRANCH  11  12
ATOM     12  C   UNL     1      19.086   1.526  43.935  1.00  0.00    -0.000 C 
BRANCH  12  13
ATOM     13  C   UNL     1      20.368   1.956  43.191  1.00  0.00    -0.000 C 
BRANCH  13  14
ATOM     14  C   UNL     1      20.219   2.122  41.668  1.00  0.00    -0.000 C 
BRANCH  14  15
ATOM     15  C   UNL     1      21.192   1.233  40.873  1.00  0.00    -0.000 C 
BRANCH  15  16
ATOM     16  C   UNL     1      20.467   0.284  39.905  1.00  0.00    -0.000 C 
BRANCH  16  17
ATOM     17  C   UNL     1      19.461  -0.634  40.616  1.00  0.00    -0.003 C 
ATOM     18  C   UNL     1      20.172  -1.609  41.550  1.00  0.00     0.004 C 
ENDBRANCH  16  17
ENDBRANCH  15  16
ENDBRANCH  14  15
ENDBRANCH  13  14
ENDBRANCH  12  13
ENDBRANCH  11  12
ENDBRANCH   1  11
TORSDOF 14
ENDMDL
MODEL 9
REMARK VINA RESULT:    -3.065      2.799      4.722
REMARK INTER + INTRA:          -7.678
REMARK INTER:                  -6.303
REMARK INTRA:                  -1.375
REMARK UNBOUND:                -2.105
REMARK SMILES CCCCCCCCCCCCCCCC(=O)[O-]
REMARK SMILES IDX 9 1 10 2 11 3 12 4 13 5 14 6 15 7 16 8 17 9 18 10 8 11 7 12
REMARK SMILES IDX 6 13 5 14 4 15 3 16 2 17 1 18
REMARK H PARENT
REMARK Flexibility Score: inf
ROOT
ATOM      1  C   UNL     1      16.915   2.868  39.578  1.00  0.00     0.000 C 
ENDROOT
BRANCH   1   2
ATOM      2  C   UNL     1      15.614   2.637  38.793  1.00  0.00     0.000 C 
BRANCH   2   3
ATOM      3  C   UNL     1      15.196   1.159  38.759  1.00  0.00     0.000 C 
BRANCH   3   4
ATOM      4  C   UNL     1      14.402   0.842  37.486  1.00  0.00     0.000 C 
BRANCH   4   5
ATOM      5  C   UNL     1      15.311   0.878  36.247  1.00  0.00     0.000 C 
BRANCH   5   6
ATOM      6  C   UNL     1      15.119  -0.344  35.336  1.00  0.00     0.006 C 
BRANCH   6   7
ATOM      7  C   UNL     1      14.838   0.043  33.879  1.00  0.00     0.053 C 
BRANCH   7   8
ATOM      8  C   UNL     1      16.004   0.780  33.300  1.00  0.00     0.041 C 
ATOM      9  O   UNL     1      17.111   0.200  33.153  1.00  0.00    -0.550 OA
ATOM     10  O   UNL     1      15.854   2.094  32.876  1.00  0.00    -0.550 OA
ENDBRANCH   7   8
ENDBRANCH   6   7
ENDBRANCH   5   6
ENDBRANCH   4   5
ENDBRANCH   3   4
ENDBRANCH   2   3
ENDBRANCH   1   2
BRANCH   1  11
ATOM     11  C   UNL     1      16.660   3.264  41.041  1.00  0.00     0.000 C 
BRANCH  11  12
ATOM     12  C   UNL     1      16.737   2.067  42.007  1.00  0.00    -0.000 C 
BRANCH  12  13
ATOM     13  C   UNL     1      17.645   2.271  43.237  1.00  0.00    -0.000 C 
BRANCH  13  14
ATOM     14  C   UNL     1      18.865   1.335  43.316  1.00  0.00    -0.000 C 
BRANCH  14  15
ATOM     15  C   UNL     1      20.123   1.939  42.668  1.00  0.00    -0.000 C 
BRANCH  15  16
ATOM     16  C   UNL     1      20.405   1.358  41.273  1.00  0.00    -0.000 C 
BRANCH  16  17
ATOM     17  C   UNL     1      19.849  -0.064  41.099  1.00  0.00    -0.003 C 
ATOM     18  C   UNL     1      18.954  -0.156  39.867  1.00  0.00     0.004 C 
ENDBRANCH  16  17
ENDBRANCH  15  16
ENDBRANCH  14  15
ENDBRANCH  13  14
ENDBRANCH  12  13
ENDBRANCH  11  12
ENDBRANCH   1  11
TORSDOF 14
ENDMDL
