MODEL 1
REMARK VINA RESULT:    -7.003      0.000      0.000
REMARK INTER + INTRA:         -11.937
REMARK INTER:                 -10.278
REMARK INTRA:                  -1.659
REMARK UNBOUND:                -1.659
REMARK SMILES O=c1c(O[C@@H]2O[C@H](CO)[C@@H](O)[C@H](O)[C@H]2O)c(-c2ccc(O)c(O)c2)oc2cc(O)cc(O)c12
REMARK SMILES IDX 4 1 3 2 16 3 25 4 2 5 26 6 1 7 33 8 27 9 31 10 28 11 30 12
REMARK SMILES IDX 17 13 18 14 19 15 20 16 24 17 22 18 21 19 23 21 32 23 29 25
REMARK SMILES IDX 5 27 14 28 6 29 12 30 7 31 10 32 15 33 13 35 8 37 9 38 11 40
REMARK H PARENT 21 20 23 22 32 24 29 26 15 34 13 36 9 39 11 41
REMARK Flexibility Score: inf
ROOT
ATOM      1  O   UNL     1     -37.322   5.304  81.220  1.00  0.00    -0.454 OA
ENDROOT
BRANCH   1   2
ATOM      2  C   UNL     1     -38.198   4.829  80.226  1.00  0.00     0.214 A 
ATOM      3  C   UNL     1     -37.912   4.948  78.850  1.00  0.00     0.180 A 
ATOM      4  O   UNL     1     -38.694   4.354  77.958  1.00  0.00    -0.452 OA
ATOM      5  C   UNL     1     -39.398   4.211  80.606  1.00  0.00     0.239 A 
ATOM      6  C   UNL     1     -39.805   3.704  78.280  1.00  0.00     0.146 A 
ATOM      7  O   UNL     1     -39.674   4.144  81.829  1.00  0.00    -0.285 OA
ATOM      8  C   UNL     1     -40.250   3.647  79.626  1.00  0.00     0.111 A 
ATOM      9  C   UNL     1     -40.535   3.088  77.262  1.00  0.00     0.094 A 
ATOM     10  C   UNL     1     -41.491   2.998  79.903  1.00  0.00     0.134 A 
ATOM     11  C   UNL     1     -41.718   2.406  77.553  1.00  0.00     0.123 A 
ATOM     12  C   UNL     1     -42.185   2.364  78.864  1.00  0.00     0.093 A 
BRANCH   3  13
ATOM     13  C   UNL     1     -36.783   5.751  78.342  1.00  0.00     0.025 A 
ATOM     14  C   UNL     1     -35.504   5.187  78.220  1.00  0.00     0.016 A 
ATOM     15  C   UNL     1     -34.438   5.957  77.751  1.00  0.00     0.051 A 
ATOM     16  C   UNL     1     -34.633   7.302  77.413  1.00  0.00     0.157 A 
ATOM     17  C   UNL     1     -36.971   7.106  78.031  1.00  0.00     0.062 A 
ATOM     18  C   UNL     1     -35.901   7.879  77.558  1.00  0.00     0.158 A 
BRANCH  16  19
ATOM     19  O   UNL     1     -33.573   8.072  76.937  1.00  0.00    -0.504 OA
ATOM     20  H   UNL     1     -33.692   8.718  76.165  1.00  0.00     0.293 HD
ENDBRANCH  16  19
BRANCH  18  21
ATOM     21  O   UNL     1     -36.090   9.221  77.232  1.00  0.00    -0.504 OA
ATOM     22  H   UNL     1     -36.278   9.918  77.944  1.00  0.00     0.293 HD
ENDBRANCH  18  21
ENDBRANCH   3  13
BRANCH  10  23
ATOM     23  O   UNL     1     -42.095   2.965  81.164  1.00  0.00    -0.507 OA
ATOM     24  H   UNL     1     -41.686   2.558  81.992  1.00  0.00     0.293 HD
ENDBRANCH  10  23
BRANCH  11  25
ATOM     25  O   UNL     1     -42.443   1.778  76.542  1.00  0.00    -0.508 OA
ATOM     26  H   UNL     1     -42.960   0.924  76.713  1.00  0.00     0.293 HD
ENDBRANCH  11  25
ENDBRANCH   1   2
BRANCH   1  27
ATOM     27  C   UNL     1     -36.347   4.478  81.872  1.00  0.00     0.339 C 
ATOM     28  C   UNL     1     -34.920   4.817  81.401  1.00  0.00     0.214 C 
ATOM     29  O   UNL     1     -36.502   4.507  83.286  1.00  0.00    -0.332 OA
ATOM     30  C   UNL     1     -34.423   6.133  82.004  1.00  0.00     0.180 C 
ATOM     31  C   UNL     1     -36.059   5.705  83.919  1.00  0.00     0.179 C 
ATOM     32  C   UNL     1     -34.621   6.126  83.529  1.00  0.00     0.177 C 
BRANCH  28  33
ATOM     33  O   UNL     1     -34.058   3.765  81.760  1.00  0.00    -0.384 OA
ATOM     34  H   UNL     1     -34.024   3.139  80.990  1.00  0.00     0.211 HD
ENDBRANCH  28  33
BRANCH  30  35
ATOM     35  O   UNL     1     -35.105   7.211  81.416  1.00  0.00    -0.387 OA
ATOM     36  H   UNL     1     -35.968   7.302  81.899  1.00  0.00     0.211 HD
ENDBRANCH  30  35
BRANCH  31  37
ATOM     37  C   UNL     1     -37.099   6.838  83.818  1.00  0.00     0.191 C 
BRANCH  37  38
ATOM     38  O   UNL     1     -38.403   6.322  83.775  1.00  0.00    -0.394 OA
ATOM     39  H   UNL     1     -38.916   6.887  83.138  1.00  0.00     0.210 HD
ENDBRANCH  37  38
ENDBRANCH  31  37
BRANCH  32  40
ATOM     40  O   UNL     1     -33.712   5.234  84.125  1.00  0.00    -0.387 OA
ATOM     41  H   UNL     1     -34.183   4.366  84.228  1.00  0.00     0.211 HD
ENDBRANCH  32  40
ENDBRANCH   1  27
TORSDOF 12
ENDMDL
MODEL 2
REMARK VINA RESULT:    -6.733      1.948      6.134
REMARK INTER + INTRA:         -11.540
REMARK INTER:                  -9.967
REMARK INTRA:                  -1.573
REMARK UNBOUND:                -1.659
REMARK SMILES O=c1c(O[C@@H]2O[C@H](CO)[C@@H](O)[C@H](O)[C@H]2O)c(-c2ccc(O)c(O)c2)oc2cc(O)cc(O)c12
REMARK SMILES IDX 4 1 3 2 16 3 25 4 2 5 26 6 1 7 33 8 27 9 31 10 28 11 30 12
REMARK SMILES IDX 17 13 18 14 19 15 20 16 24 17 22 18 21 19 23 21 32 23 29 25
REMARK SMILES IDX 5 27 14 28 6 29 12 30 7 31 10 32 15 33 13 35 8 37 9 38 11 40
REMARK H PARENT 21 20 23 22 32 24 29 26 15 34 13 36 9 39 11 41
REMARK Flexibility Score: inf
ROOT
ATOM      1  O   UNL     1     -37.220   4.985  81.268  1.00  0.00    -0.454 OA
ENDROOT
BRANCH   1   2
ATOM      2  C   UNL     1     -36.661   5.709  80.199  1.00  0.00     0.214 A 
ATOM      3  C   UNL     1     -37.158   5.613  78.882  1.00  0.00     0.180 A 
ATOM      4  O   UNL     1     -36.696   6.425  77.940  1.00  0.00    -0.452 OA
ATOM      5  C   UNL     1     -35.575   6.563  80.441  1.00  0.00     0.239 A 
ATOM      6  C   UNL     1     -35.712   7.293  78.143  1.00  0.00     0.146 A 
ATOM      7  O   UNL     1     -35.105   6.617  81.604  1.00  0.00    -0.285 OA
ATOM      8  C   UNL     1     -35.055   7.367  79.398  1.00  0.00     0.111 A 
ATOM      9  C   UNL     1     -35.328   8.122  77.087  1.00  0.00     0.094 A 
ATOM     10  C   UNL     1     -33.956   8.266  79.535  1.00  0.00     0.134 A 
ATOM     11  C   UNL     1     -34.288   9.038  77.251  1.00  0.00     0.123 A 
ATOM     12  C   UNL     1     -33.613   9.106  78.468  1.00  0.00     0.093 A 
BRANCH   3  13
ATOM     13  C   UNL     1     -38.158   4.604  78.484  1.00  0.00     0.025 A 
ATOM     14  C   UNL     1     -39.526   4.915  78.490  1.00  0.00     0.016 A 
ATOM     15  C   UNL     1     -40.468   3.952  78.125  1.00  0.00     0.051 A 
ATOM     16  C   UNL     1     -40.057   2.662  77.765  1.00  0.00     0.157 A 
ATOM     17  C   UNL     1     -37.749   3.303  78.152  1.00  0.00     0.062 A 
ATOM     18  C   UNL     1     -38.694   2.336  77.784  1.00  0.00     0.158 A 
BRANCH  16  19
ATOM     19  O   UNL     1     -40.993   1.699  77.393  1.00  0.00    -0.504 OA
ATOM     20  H   UNL     1     -41.513   1.774  76.526  1.00  0.00     0.293 HD
ENDBRANCH  16  19
BRANCH  18  21
ATOM     21  O   UNL     1     -38.288   1.049  77.437  1.00  0.00    -0.504 OA
ATOM     22  H   UNL     1     -38.304   0.289  78.109  1.00  0.00     0.293 HD
ENDBRANCH  18  21
ENDBRANCH   3  13
BRANCH  10  23
ATOM     23  O   UNL     1     -33.157   8.360  80.679  1.00  0.00    -0.507 OA
ATOM     24  H   UNL     1     -32.947   7.595  81.304  1.00  0.00     0.293 HD
ENDBRANCH  10  23
BRANCH  11  25
ATOM     25  O   UNL     1     -33.909   9.878  76.205  1.00  0.00    -0.508 OA
ATOM     26  H   UNL     1     -34.130   9.656  75.241  1.00  0.00     0.293 HD
ENDBRANCH  11  25
ENDBRANCH   1   2
BRANCH   1  27
ATOM     27  C   UNL     1     -36.714   3.718  81.713  1.00  0.00     0.339 C 
ATOM     28  C   UNL     1     -36.296   3.769  83.195  1.00  0.00     0.214 C 
ATOM     29  O   UNL     1     -37.619   2.661  81.412  1.00  0.00    -0.332 OA
ATOM     30  C   UNL     1     -37.512   3.775  84.125  1.00  0.00     0.180 C 
ATOM     31  C   UNL     1     -38.777   2.604  82.239  1.00  0.00     0.179 C 
ATOM     32  C   UNL     1     -38.468   2.627  83.756  1.00  0.00     0.177 C 
BRANCH  28  33
ATOM     33  O   UNL     1     -35.478   2.661  83.478  1.00  0.00    -0.384 OA
ATOM     34  H   UNL     1     -35.279   2.687  84.451  1.00  0.00     0.211 HD
ENDBRANCH  28  33
BRANCH  30  35
ATOM     35  O   UNL     1     -38.166   5.016  84.042  1.00  0.00    -0.387 OA
ATOM     36  H   UNL     1     -37.742   5.609  84.718  1.00  0.00     0.211 HD
ENDBRANCH  30  35
BRANCH  31  37
ATOM     37  C   UNL     1     -39.860   3.608  81.800  1.00  0.00     0.191 C 
BRANCH  37  38
ATOM     38  O   UNL     1     -40.773   3.851  82.837  1.00  0.00    -0.394 OA
ATOM     39  H   UNL     1     -41.127   2.967  83.123  1.00  0.00     0.210 HD
ENDBRANCH  37  38
ENDBRANCH  31  37
BRANCH  32  40
ATOM     40  O   UNL     1     -37.897   1.395  84.120  1.00  0.00    -0.387 OA
ATOM     41  H   UNL     1     -37.630   1.470  85.073  1.00  0.00     0.211 HD
ENDBRANCH  32  40
ENDBRANCH   1  27
TORSDOF 12
ENDMDL
MODEL 3
REMARK VINA RESULT:    -6.620      0.875      2.142
REMARK INTER + INTRA:         -11.375
REMARK INTER:                  -9.748
REMARK INTRA:                  -1.627
REMARK UNBOUND:                -1.659
REMARK SMILES O=c1c(O[C@@H]2O[C@H](CO)[C@@H](O)[C@H](O)[C@H]2O)c(-c2ccc(O)c(O)c2)oc2cc(O)cc(O)c12
REMARK SMILES IDX 4 1 3 2 16 3 25 4 2 5 26 6 1 7 33 8 27 9 31 10 28 11 30 12
REMARK SMILES IDX 17 13 18 14 19 15 20 16 24 17 22 18 21 19 23 21 32 23 29 25
REMARK SMILES IDX 5 27 14 28 6 29 12 30 7 31 10 32 15 33 13 35 8 37 9 38 11 40
REMARK H PARENT 21 20 23 22 32 24 29 26 15 34 13 36 9 39 11 41
REMARK Flexibility Score: inf
ROOT
ATOM      1  O   UNL     1     -37.353   5.339  81.266  1.00  0.00    -0.454 OA
ENDROOT
BRANCH   1   2
ATOM      2  C   UNL     1     -38.213   4.852  80.264  1.00  0.00     0.214 A 
ATOM      3  C   UNL     1     -37.894   4.935  78.891  1.00  0.00     0.180 A 
ATOM      4  O   UNL     1     -38.663   4.329  77.996  1.00  0.00    -0.452 OA
ATOM      5  C   UNL     1     -39.428   4.256  80.630  1.00  0.00     0.239 A 
ATOM      6  C   UNL     1     -39.790   3.700  78.308  1.00  0.00     0.146 A 
ATOM      7  O   UNL     1     -39.732   4.221  81.848  1.00  0.00    -0.285 OA
ATOM      8  C   UNL     1     -40.265   3.680  79.644  1.00  0.00     0.111 A 
ATOM      9  C   UNL     1     -40.505   3.070  77.288  1.00  0.00     0.094 A 
ATOM     10  C   UNL     1     -41.519   3.052  79.908  1.00  0.00     0.134 A 
ATOM     11  C   UNL     1     -41.701   2.409  77.568  1.00  0.00     0.123 A 
ATOM     12  C   UNL     1     -42.198   2.403  78.869  1.00  0.00     0.093 A 
BRANCH   3  13
ATOM     13  C   UNL     1     -36.745   5.712  78.391  1.00  0.00     0.025 A 
ATOM     14  C   UNL     1     -35.451   5.169  78.413  1.00  0.00     0.016 A 
ATOM     15  C   UNL     1     -34.366   5.916  77.951  1.00  0.00     0.051 A 
ATOM     16  C   UNL     1     -34.558   7.219  77.473  1.00  0.00     0.157 A 
ATOM     17  C   UNL     1     -36.931   7.028  77.940  1.00  0.00     0.062 A 
ATOM     18  C   UNL     1     -35.842   7.778  77.473  1.00  0.00     0.158 A 
BRANCH  16  19
ATOM     19  O   UNL     1     -33.479   7.965  77.003  1.00  0.00    -0.504 OA
ATOM     20  H   UNL     1     -32.577   7.538  76.825  1.00  0.00     0.293 HD
ENDBRANCH  16  19
BRANCH  18  21
ATOM     21  O   UNL     1     -36.029   9.079  77.008  1.00  0.00    -0.504 OA
ATOM     22  H   UNL     1     -35.488   9.854  77.374  1.00  0.00     0.293 HD
ENDBRANCH  18  21
ENDBRANCH   3  13
BRANCH  10  23
ATOM     23  O   UNL     1     -42.151   3.056  81.155  1.00  0.00    -0.507 OA
ATOM     24  H   UNL     1     -42.134   2.293  81.816  1.00  0.00     0.293 HD
ENDBRANCH  10  23
BRANCH  11  25
ATOM     25  O   UNL     1     -42.412   1.766  76.555  1.00  0.00    -0.508 OA
ATOM     26  H   UNL     1     -42.394   0.759  76.453  1.00  0.00     0.293 HD
ENDBRANCH  11  25
ENDBRANCH   1   2
BRANCH   1  27
ATOM     27  C   UNL     1     -37.304   6.717  81.661  1.00  0.00     0.339 C 
ATOM     28  C   UNL     1     -37.794   6.903  83.110  1.00  0.00     0.214 C 
ATOM     29  O   UNL     1     -36.022   7.284  81.416  1.00  0.00    -0.332 OA
ATOM     30  C   UNL     1     -36.753   6.423  84.124  1.00  0.00     0.180 C 
ATOM     31  C   UNL     1     -35.000   6.882  82.324  1.00  0.00     0.179 C 
ATOM     32  C   UNL     1     -35.382   7.049  83.815  1.00  0.00     0.177 C 
BRANCH  28  33
ATOM     33  O   UNL     1     -38.085   8.263  83.323  1.00  0.00    -0.384 OA
ATOM     34  H   UNL     1     -37.322   8.648  83.829  1.00  0.00     0.211 HD
ENDBRANCH  28  33
BRANCH  30  35
ATOM     35  O   UNL     1     -36.680   5.021  84.101  1.00  0.00    -0.387 OA
ATOM     36  H   UNL     1     -36.615   4.721  85.046  1.00  0.00     0.211 HD
ENDBRANCH  30  35
BRANCH  31  37
ATOM     37  C   UNL     1     -34.416   5.500  81.972  1.00  0.00     0.191 C 
BRANCH  37  38
ATOM     38  O   UNL     1     -33.897   4.867  83.112  1.00  0.00    -0.394 OA
ATOM     39  H   UNL     1     -34.611   4.889  83.803  1.00  0.00     0.210 HD
ENDBRANCH  37  38
ENDBRANCH  31  37
BRANCH  32  40
ATOM     40  O   UNL     1     -35.402   8.420  84.125  1.00  0.00    -0.387 OA
ATOM     41  H   UNL     1     -35.594   8.495  85.096  1.00  0.00     0.211 HD
ENDBRANCH  32  40
ENDBRANCH   1  27
TORSDOF 12
ENDMDL
MODEL 4
REMARK VINA RESULT:    -6.471      1.743      5.706
REMARK INTER + INTRA:         -11.156
REMARK INTER:                  -9.924
REMARK INTRA:                  -1.232
REMARK UNBOUND:                -1.659
REMARK SMILES O=c1c(O[C@@H]2O[C@H](CO)[C@@H](O)[C@H](O)[C@H]2O)c(-c2ccc(O)c(O)c2)oc2cc(O)cc(O)c12
REMARK SMILES IDX 4 1 3 2 16 3 25 4 2 5 26 6 1 7 33 8 27 9 31 10 28 11 30 12
REMARK SMILES IDX 17 13 18 14 19 15 20 16 24 17 22 18 21 19 23 21 32 23 29 25
REMARK SMILES IDX 5 27 14 28 6 29 12 30 7 31 10 32 15 33 13 35 8 37 9 38 11 40
REMARK H PARENT 21 20 23 22 32 24 29 26 15 34 13 36 9 39 11 41
REMARK Flexibility Score: inf
ROOT
ATOM      1  O   UNL     1     -37.917   5.449  80.594  1.00  0.00    -0.454 OA
ENDROOT
BRANCH   1   2
ATOM      2  C   UNL     1     -38.012   6.112  79.356  1.00  0.00     0.214 A 
ATOM      3  C   UNL     1     -38.980   5.766  78.390  1.00  0.00     0.180 A 
ATOM      4  O   UNL     1     -39.127   6.515  77.305  1.00  0.00    -0.452 OA
ATOM      5  C   UNL     1     -37.122   7.155  79.065  1.00  0.00     0.239 A 
ATOM      6  C   UNL     1     -38.346   7.551  77.021  1.00  0.00     0.146 A 
ATOM      7  O   UNL     1     -36.233   7.434  79.906  1.00  0.00    -0.285 OA
ATOM      8  C   UNL     1     -37.258   7.893  77.864  1.00  0.00     0.111 A 
ATOM      9  C   UNL     1     -38.612   8.289  75.866  1.00  0.00     0.094 A 
ATOM     10  C   UNL     1     -36.408   8.970  77.471  1.00  0.00     0.134 A 
ATOM     11  C   UNL     1     -37.808   9.376  75.522  1.00  0.00     0.123 A 
ATOM     12  C   UNL     1     -36.718   9.710  76.322  1.00  0.00     0.093 A 
BRANCH   3  13
ATOM     13  C   UNL     1     -39.828   4.565  78.511  1.00  0.00     0.025 A 
ATOM     14  C   UNL     1     -39.929   3.653  77.449  1.00  0.00     0.016 A 
ATOM     15  C   UNL     1     -40.744   2.526  77.566  1.00  0.00     0.051 A 
ATOM     16  C   UNL     1     -41.478   2.303  78.737  1.00  0.00     0.157 A 
ATOM     17  C   UNL     1     -40.588   4.357  79.672  1.00  0.00     0.062 A 
ATOM     18  C   UNL     1     -41.404   3.224  79.790  1.00  0.00     0.158 A 
BRANCH  16  19
ATOM     19  O   UNL     1     -42.287   1.175  78.861  1.00  0.00    -0.504 OA
ATOM     20  H   UNL     1     -43.123   1.183  79.434  1.00  0.00     0.293 HD
ENDBRANCH  16  19
BRANCH  18  21
ATOM     21  O   UNL     1     -42.146   3.007  80.951  1.00  0.00    -0.504 OA
ATOM     22  H   UNL     1     -41.701   2.955  81.861  1.00  0.00     0.293 HD
ENDBRANCH  18  21
ENDBRANCH   3  13
BRANCH  10  23
ATOM     23  O   UNL     1     -35.243   9.339  78.151  1.00  0.00    -0.507 OA
ATOM     24  H   UNL     1     -34.546   8.696  78.498  1.00  0.00     0.293 HD
ENDBRANCH  10  23
BRANCH  11  25
ATOM     25  O   UNL     1     -38.078  10.125  74.377  1.00  0.00    -0.508 OA
ATOM     26  H   UNL     1     -38.357  11.097  74.433  1.00  0.00     0.293 HD
ENDBRANCH  11  25
ENDBRANCH   1   2
BRANCH   1  27
ATOM     27  C   UNL     1     -37.072   4.311  80.817  1.00  0.00     0.339 C 
ATOM     28  C   UNL     1     -35.736   4.722  81.466  1.00  0.00     0.214 C 
ATOM     29  O   UNL     1     -37.758   3.285  81.525  1.00  0.00    -0.332 OA
ATOM     30  C   UNL     1     -35.910   5.066  82.947  1.00  0.00     0.180 C 
ATOM     31  C   UNL     1     -37.956   3.536  82.913  1.00  0.00     0.179 C 
ATOM     32  C   UNL     1     -36.666   3.938  83.670  1.00  0.00     0.177 C 
BRANCH  28  33
ATOM     33  O   UNL     1     -34.814   3.670  81.320  1.00  0.00    -0.384 OA
ATOM     34  H   UNL     1     -34.893   3.099  82.129  1.00  0.00     0.211 HD
ENDBRANCH  28  33
BRANCH  30  35
ATOM     35  O   UNL     1     -36.594   6.287  83.073  1.00  0.00    -0.387 OA
ATOM     36  H   UNL     1     -36.069   6.963  82.569  1.00  0.00     0.211 HD
ENDBRANCH  30  35
BRANCH  31  37
ATOM     37  C   UNL     1     -39.156   4.467  83.173  1.00  0.00     0.191 C 
BRANCH  37  38
ATOM     38  O   UNL     1     -40.364   3.754  83.132  1.00  0.00    -0.394 OA
ATOM     39  H   UNL     1     -41.007   4.244  83.711  1.00  0.00     0.210 HD
ENDBRANCH  37  38
ENDBRANCH  31  37
BRANCH  32  40
ATOM     40  O   UNL     1     -35.839   2.807  83.785  1.00  0.00    -0.387 OA
ATOM     41  H   UNL     1     -36.376   2.099  84.228  1.00  0.00     0.211 HD
ENDBRANCH  32  40
ENDBRANCH   1  27
TORSDOF 12
ENDMDL
MODEL 5
REMARK VINA RESULT:    -6.345      2.522      4.596
REMARK INTER + INTRA:         -10.971
REMARK INTER:                 -10.561
REMARK INTRA:                  -0.411
REMARK UNBOUND:                -1.659
REMARK SMILES O=c1c(O[C@@H]2O[C@H](CO)[C@@H](O)[C@H](O)[C@H]2O)c(-c2ccc(O)c(O)c2)oc2cc(O)cc(O)c12
REMARK SMILES IDX 4 1 3 2 16 3 25 4 2 5 26 6 1 7 33 8 27 9 31 10 28 11 30 12
REMARK SMILES IDX 17 13 18 14 19 15 20 16 24 17 22 18 21 19 23 21 32 23 29 25
REMARK SMILES IDX 5 27 14 28 6 29 12 30 7 31 10 32 15 33 13 35 8 37 9 38 11 40
REMARK H PARENT 21 20 23 22 32 24 29 26 15 34 13 36 9 39 11 41
REMARK Flexibility Score: inf
ROOT
ATOM      1  O   UNL     1     -36.880   6.274  79.780  1.00  0.00    -0.454 OA
ENDROOT
BRANCH   1   2
ATOM      2  C   UNL     1     -37.969   5.616  80.381  1.00  0.00     0.214 A 
ATOM      3  C   UNL     1     -39.275   5.681  79.850  1.00  0.00     0.180 A 
ATOM      4  O   UNL     1     -40.236   4.925  80.364  1.00  0.00    -0.452 OA
ATOM      5  C   UNL     1     -37.760   4.863  81.546  1.00  0.00     0.239 A 
ATOM      6  C   UNL     1     -40.064   4.149  81.428  1.00  0.00     0.146 A 
ATOM      7  O   UNL     1     -36.608   4.840  82.043  1.00  0.00    -0.285 OA
ATOM      8  C   UNL     1     -38.824   4.122  82.115  1.00  0.00     0.111 A 
ATOM      9  C   UNL     1     -41.138   3.371  81.864  1.00  0.00     0.094 A 
ATOM     10  C   UNL     1     -38.720   3.327  83.295  1.00  0.00     0.134 A 
ATOM     11  C   UNL     1     -41.007   2.553  82.987  1.00  0.00     0.123 A 
ATOM     12  C   UNL     1     -39.805   2.534  83.691  1.00  0.00     0.093 A 
BRANCH   3  13
ATOM     13  C   UNL     1     -39.639   6.597  78.753  1.00  0.00     0.025 A 
ATOM     14  C   UNL     1     -40.656   7.548  78.925  1.00  0.00     0.016 A 
ATOM     15  C   UNL     1     -41.005   8.403  77.878  1.00  0.00     0.051 A 
ATOM     16  C   UNL     1     -40.353   8.308  76.642  1.00  0.00     0.157 A 
ATOM     17  C   UNL     1     -39.008   6.483  77.504  1.00  0.00     0.062 A 
ATOM     18  C   UNL     1     -39.356   7.342  76.453  1.00  0.00     0.158 A 
BRANCH  16  19
ATOM     19  O   UNL     1     -40.693   9.164  75.596  1.00  0.00    -0.504 OA
ATOM     20  H   UNL     1     -40.895  10.144  75.758  1.00  0.00     0.293 HD
ENDBRANCH  16  19
BRANCH  18  21
ATOM     21  O   UNL     1     -38.717   7.241  75.218  1.00  0.00    -0.504 OA
ATOM     22  H   UNL     1     -38.739   6.382  74.680  1.00  0.00     0.293 HD
ENDBRANCH  18  21
ENDBRANCH   3  13
BRANCH  10  23
ATOM     23  O   UNL     1     -37.594   3.295  84.124  1.00  0.00    -0.507 OA
ATOM     24  H   UNL     1     -37.247   4.076  84.660  1.00  0.00     0.293 HD
ENDBRANCH  10  23
BRANCH  11  25
ATOM     25  O   UNL     1     -42.072   1.763  83.419  1.00  0.00    -0.508 OA
ATOM     26  H   UNL     1     -42.641   2.030  84.213  1.00  0.00     0.293 HD
ENDBRANCH  11  25
ENDBRANCH   1   2
BRANCH   1  27
ATOM     27  C   UNL     1     -35.541   5.757  79.794  1.00  0.00     0.339 C 
ATOM     28  C   UNL     1     -35.135   5.214  78.410  1.00  0.00     0.214 C 
ATOM     29  O   UNL     1     -34.623   6.705  80.326  1.00  0.00    -0.332 OA
ATOM     30  C   UNL     1     -34.845   6.346  77.422  1.00  0.00     0.180 C 
ATOM     31  C   UNL     1     -34.303   7.790  79.459  1.00  0.00     0.179 C 
ATOM     32  C   UNL     1     -33.860   7.353  78.042  1.00  0.00     0.177 C 
BRANCH  28  33
ATOM     33  O   UNL     1     -34.000   4.396  78.554  1.00  0.00    -0.384 OA
ATOM     34  H   UNL     1     -33.367   4.646  77.831  1.00  0.00     0.211 HD
ENDBRANCH  28  33
BRANCH  30  35
ATOM     35  O   UNL     1     -36.045   6.980  77.060  1.00  0.00    -0.387 OA
ATOM     36  H   UNL     1     -36.157   7.753  77.674  1.00  0.00     0.211 HD
ENDBRANCH  30  35
BRANCH  31  37
ATOM     37  C   UNL     1     -35.386   8.886  79.472  1.00  0.00     0.191 C 
BRANCH  37  38
ATOM     38  O   UNL     1     -35.358   9.636  78.287  1.00  0.00    -0.394 OA
ATOM     39  H   UNL     1     -36.257  10.045  78.182  1.00  0.00     0.210 HD
ENDBRANCH  37  38
ENDBRANCH  31  37
BRANCH  32  40
ATOM     40  O   UNL     1     -32.580   6.777  78.127  1.00  0.00    -0.387 OA
ATOM     41  H   UNL     1     -31.927   7.525  78.159  1.00  0.00     0.211 HD
ENDBRANCH  32  40
ENDBRANCH   1  27
TORSDOF 12
ENDMDL
MODEL 6
REMARK VINA RESULT:    -6.323      2.031      6.513
REMARK INTER + INTRA:         -10.939
REMARK INTER:                  -9.630
REMARK INTRA:                  -1.310
REMARK UNBOUND:                -1.659
REMARK SMILES O=c1c(O[C@@H]2O[C@H](CO)[C@@H](O)[C@H](O)[C@H]2O)c(-c2ccc(O)c(O)c2)oc2cc(O)cc(O)c12
REMARK SMILES IDX 4 1 3 2 16 3 25 4 2 5 26 6 1 7 33 8 27 9 31 10 28 11 30 12
REMARK SMILES IDX 17 13 18 14 19 15 20 16 24 17 22 18 21 19 23 21 32 23 29 25
REMARK SMILES IDX 5 27 14 28 6 29 12 30 7 31 10 32 15 33 13 35 8 37 9 38 11 40
REMARK H PARENT 21 20 23 22 32 24 29 26 15 34 13 36 9 39 11 41
REMARK Flexibility Score: inf
ROOT
ATOM      1  O   UNL     1     -37.616   4.560  80.720  1.00  0.00    -0.454 OA
ENDROOT
BRANCH   1   2
ATOM      2  C   UNL     1     -36.505   5.393  80.948  1.00  0.00     0.214 A 
ATOM      3  C   UNL     1     -36.236   6.526  80.151  1.00  0.00     0.180 A 
ATOM      4  O   UNL     1     -35.266   7.362  80.496  1.00  0.00    -0.452 OA
ATOM      5  C   UNL     1     -35.630   5.099  82.004  1.00  0.00     0.239 A 
ATOM      6  C   UNL     1     -34.455   7.153  81.526  1.00  0.00     0.146 A 
ATOM      7  O   UNL     1     -35.844   4.066  82.686  1.00  0.00    -0.285 OA
ATOM      8  C   UNL     1     -34.558   5.973  82.305  1.00  0.00     0.111 A 
ATOM      9  C   UNL     1     -33.488   8.117  81.818  1.00  0.00     0.094 A 
ATOM     10  C   UNL     1     -33.612   5.767  83.355  1.00  0.00     0.134 A 
ATOM     11  C   UNL     1     -32.604   7.932  82.883  1.00  0.00     0.123 A 
ATOM     12  C   UNL     1     -32.672   6.766  83.642  1.00  0.00     0.093 A 
BRANCH   3  13
ATOM     13  C   UNL     1     -36.972   6.810  78.905  1.00  0.00     0.025 A 
ATOM     14  C   UNL     1     -36.720   6.066  77.742  1.00  0.00     0.016 A 
ATOM     15  C   UNL     1     -37.411   6.350  76.562  1.00  0.00     0.051 A 
ATOM     16  C   UNL     1     -38.349   7.390  76.525  1.00  0.00     0.157 A 
ATOM     17  C   UNL     1     -37.890   7.871  78.859  1.00  0.00     0.062 A 
ATOM     18  C   UNL     1     -38.585   8.155  77.675  1.00  0.00     0.158 A 
BRANCH  16  19
ATOM     19  O   UNL     1     -39.046   7.672  75.352  1.00  0.00    -0.504 OA
ATOM     20  H   UNL     1     -39.994   8.028  75.372  1.00  0.00     0.293 HD
ENDBRANCH  16  19
BRANCH  18  21
ATOM     21  O   UNL     1     -39.510   9.196  77.633  1.00  0.00    -0.504 OA
ATOM     22  H   UNL     1     -39.930   9.496  76.760  1.00  0.00     0.293 HD
ENDBRANCH  18  21
ENDBRANCH   3  13
BRANCH  10  23
ATOM     23  O   UNL     1     -33.535   4.603  84.125  1.00  0.00    -0.507 OA
ATOM     24  H   UNL     1     -32.753   3.965  84.133  1.00  0.00     0.293 HD
ENDBRANCH  10  23
BRANCH  11  25
ATOM     25  O   UNL     1     -31.646   8.897  83.187  1.00  0.00    -0.508 OA
ATOM     26  H   UNL     1     -31.045   9.291  82.472  1.00  0.00     0.293 HD
ENDBRANCH  11  25
ENDBRANCH   1   2
BRANCH   1  27
ATOM     27  C   UNL     1     -38.974   5.012  80.820  1.00  0.00     0.339 C 
ATOM     28  C   UNL     1     -39.826   4.494  79.645  1.00  0.00     0.214 C 
ATOM     29  O   UNL     1     -39.527   4.718  82.098  1.00  0.00    -0.332 OA
ATOM     30  C   UNL     1     -40.155   3.007  79.798  1.00  0.00     0.180 C 
ATOM     31  C   UNL     1     -39.860   3.350  82.312  1.00  0.00     0.179 C 
ATOM     32  C   UNL     1     -40.737   2.733  81.195  1.00  0.00     0.177 C 
BRANCH  28  33
ATOM     33  O   UNL     1     -41.012   5.246  79.573  1.00  0.00    -0.384 OA
ATOM     34  H   UNL     1     -40.804   6.072  79.062  1.00  0.00     0.211 HD
ENDBRANCH  28  33
BRANCH  30  35
ATOM     35  O   UNL     1     -38.998   2.240  79.579  1.00  0.00    -0.387 OA
ATOM     36  H   UNL     1     -38.946   1.582  80.322  1.00  0.00     0.211 HD
ENDBRANCH  30  35
BRANCH  31  37
ATOM     37  C   UNL     1     -38.630   2.502  82.690  1.00  0.00     0.191 C 
BRANCH  37  38
ATOM     38  O   UNL     1     -38.783   1.174  82.263  1.00  0.00    -0.394 OA
ATOM     39  H   UNL     1     -39.654   1.123  81.786  1.00  0.00     0.210 HD
ENDBRANCH  37  38
ENDBRANCH  31  37
BRANCH  32  40
ATOM     40  O   UNL     1     -42.032   3.274  81.287  1.00  0.00    -0.387 OA
ATOM     41  H   UNL     1     -42.654   2.513  81.430  1.00  0.00     0.211 HD
ENDBRANCH  32  40
ENDBRANCH   1  27
TORSDOF 12
ENDMDL
MODEL 7
REMARK VINA RESULT:    -6.252      2.382      7.166
REMARK INTER + INTRA:         -10.834
REMARK INTER:                  -9.127
REMARK INTRA:                  -1.708
REMARK UNBOUND:                -1.659
REMARK SMILES O=c1c(O[C@@H]2O[C@H](CO)[C@@H](O)[C@H](O)[C@H]2O)c(-c2ccc(O)c(O)c2)oc2cc(O)cc(O)c12
REMARK SMILES IDX 4 1 3 2 16 3 25 4 2 5 26 6 1 7 33 8 27 9 31 10 28 11 30 12
REMARK SMILES IDX 17 13 18 14 19 15 20 16 24 17 22 18 21 19 23 21 32 23 29 25
REMARK SMILES IDX 5 27 14 28 6 29 12 30 7 31 10 32 15 33 13 35 8 37 9 38 11 40
REMARK H PARENT 21 20 23 22 32 24 29 26 15 34 13 36 9 39 11 41
REMARK Flexibility Score: inf
ROOT
ATOM      1  O   UNL     1     -38.680   7.139  79.117  1.00  0.00    -0.454 OA
ENDROOT
BRANCH   1   2
ATOM      2  C   UNL     1     -37.833   6.300  79.865  1.00  0.00     0.214 A 
ATOM      3  C   UNL     1     -37.978   4.896  79.872  1.00  0.00     0.180 A 
ATOM      4  O   UNL     1     -37.066   4.140  80.470  1.00  0.00    -0.452 OA
ATOM      5  C   UNL     1     -36.804   6.867  80.630  1.00  0.00     0.239 A 
ATOM      6  C   UNL     1     -36.040   4.636  81.151  1.00  0.00     0.146 A 
ATOM      7  O   UNL     1     -36.702   8.118  80.659  1.00  0.00    -0.285 OA
ATOM      8  C   UNL     1     -35.887   6.036  81.318  1.00  0.00     0.111 A 
ATOM      9  C   UNL     1     -35.123   3.747  81.714  1.00  0.00     0.094 A 
ATOM     10  C   UNL     1     -34.807   6.509  82.122  1.00  0.00     0.134 A 
ATOM     11  C   UNL     1     -34.038   4.223  82.451  1.00  0.00     0.123 A 
ATOM     12  C   UNL     1     -33.886   5.594  82.649  1.00  0.00     0.093 A 
BRANCH   3  13
ATOM     13  C   UNL     1     -39.138   4.216  79.267  1.00  0.00     0.025 A 
ATOM     14  C   UNL     1     -39.127   3.855  77.911  1.00  0.00     0.016 A 
ATOM     15  C   UNL     1     -40.235   3.224  77.341  1.00  0.00     0.051 A 
ATOM     16  C   UNL     1     -41.372   2.959  78.115  1.00  0.00     0.157 A 
ATOM     17  C   UNL     1     -40.289   3.977  80.033  1.00  0.00     0.062 A 
ATOM     18  C   UNL     1     -41.401   3.341  79.463  1.00  0.00     0.158 A 
BRANCH  16  19
ATOM     19  O   UNL     1     -42.477   2.322  77.553  1.00  0.00    -0.504 OA
ATOM     20  H   UNL     1     -42.443   1.928  76.620  1.00  0.00     0.293 HD
ENDBRANCH  16  19
BRANCH  18  21
ATOM     21  O   UNL     1     -42.538   3.087  80.228  1.00  0.00    -0.504 OA
ATOM     22  H   UNL     1     -42.587   2.291  80.854  1.00  0.00     0.293 HD
ENDBRANCH  18  21
ENDBRANCH   3  13
BRANCH  10  23
ATOM     23  O   UNL     1     -34.605   7.852  82.454  1.00  0.00    -0.507 OA
ATOM     24  H   UNL     1     -33.798   8.214  82.942  1.00  0.00     0.293 HD
ENDBRANCH  10  23
BRANCH  11  25
ATOM     25  O   UNL     1     -33.111   3.340  83.003  1.00  0.00    -0.508 OA
ATOM     26  H   UNL     1     -33.403   2.537  83.547  1.00  0.00     0.293 HD
ENDBRANCH  11  25
ENDBRANCH   1   2
BRANCH   1  27
ATOM     27  C   UNL     1     -38.345   7.639  77.815  1.00  0.00     0.339 C 
ATOM     28  C   UNL     1     -39.437   7.294  76.784  1.00  0.00     0.214 C 
ATOM     29  O   UNL     1     -38.018   9.023  77.857  1.00  0.00    -0.332 OA
ATOM     30  C   UNL     1     -40.679   8.170  76.961  1.00  0.00     0.180 C 
ATOM     31  C   UNL     1     -39.128   9.902  78.021  1.00  0.00     0.179 C 
ATOM     32  C   UNL     1     -40.279   9.655  77.015  1.00  0.00     0.177 C 
BRANCH  28  33
ATOM     33  O   UNL     1     -38.912   7.459  75.489  1.00  0.00    -0.384 OA
ATOM     34  H   UNL     1     -39.064   6.606  75.002  1.00  0.00     0.211 HD
ENDBRANCH  28  33
BRANCH  30  35
ATOM     35  O   UNL     1     -41.361   7.794  78.131  1.00  0.00    -0.387 OA
ATOM     36  H   UNL     1     -41.351   8.583  78.735  1.00  0.00     0.211 HD
ENDBRANCH  30  35
BRANCH  31  37
ATOM     37  C   UNL     1     -39.583  10.001  79.490  1.00  0.00     0.191 C 
BRANCH  37  38
ATOM     38  O   UNL     1     -38.481  10.125  80.351  1.00  0.00    -0.394 OA
ATOM     39  H   UNL     1     -37.677   9.865  79.828  1.00  0.00     0.210 HD
ENDBRANCH  37  38
ENDBRANCH  31  37
BRANCH  32  40
ATOM     40  O   UNL     1     -39.866  10.084  75.742  1.00  0.00    -0.387 OA
ATOM     41  H   UNL     1     -39.593  11.035  75.830  1.00  0.00     0.211 HD
ENDBRANCH  32  40
ENDBRANCH   1  27
TORSDOF 12
ENDMDL
MODEL 8
REMARK VINA RESULT:    -6.094      2.556      4.680
REMARK INTER + INTRA:         -10.602
REMARK INTER:                  -9.136
REMARK INTRA:                  -1.466
REMARK UNBOUND:                -1.659
REMARK SMILES O=c1c(O[C@@H]2O[C@H](CO)[C@@H](O)[C@H](O)[C@H]2O)c(-c2ccc(O)c(O)c2)oc2cc(O)cc(O)c12
REMARK SMILES IDX 4 1 3 2 16 3 25 4 2 5 26 6 1 7 33 8 27 9 31 10 28 11 30 12
REMARK SMILES IDX 17 13 18 14 19 15 20 16 24 17 22 18 21 19 23 21 32 23 29 25
REMARK SMILES IDX 5 27 14 28 6 29 12 30 7 31 10 32 15 33 13 35 8 37 9 38 11 40
REMARK H PARENT 21 20 23 22 32 24 29 26 15 34 13 36 9 39 11 41
REMARK Flexibility Score: inf
ROOT
ATOM      1  O   UNL     1     -36.856   6.244  79.749  1.00  0.00    -0.454 OA
ENDROOT
BRANCH   1   2
ATOM      2  C   UNL     1     -37.943   5.588  80.356  1.00  0.00     0.214 A 
ATOM      3  C   UNL     1     -39.256   5.671  79.844  1.00  0.00     0.180 A 
ATOM      4  O   UNL     1     -40.216   4.917  80.361  1.00  0.00    -0.452 OA
ATOM      5  C   UNL     1     -37.726   4.818  81.508  1.00  0.00     0.239 A 
ATOM      6  C   UNL     1     -40.038   4.127  81.412  1.00  0.00     0.146 A 
ATOM      7  O   UNL     1     -36.567   4.779  81.990  1.00  0.00    -0.285 OA
ATOM      8  C   UNL     1     -38.789   4.079  82.082  1.00  0.00     0.111 A 
ATOM      9  C   UNL     1     -41.112   3.352  81.854  1.00  0.00     0.094 A 
ATOM     10  C   UNL     1     -38.676   3.268  83.251  1.00  0.00     0.134 A 
ATOM     11  C   UNL     1     -40.974   2.518  82.964  1.00  0.00     0.123 A 
ATOM     12  C   UNL     1     -39.763   2.480  83.651  1.00  0.00     0.093 A 
BRANCH   3  13
ATOM     13  C   UNL     1     -39.627   6.605  78.763  1.00  0.00     0.025 A 
ATOM     14  C   UNL     1     -40.614   7.579  78.970  1.00  0.00     0.016 A 
ATOM     15  C   UNL     1     -40.970   8.451  77.939  1.00  0.00     0.051 A 
ATOM     16  C   UNL     1     -40.355   8.350  76.685  1.00  0.00     0.157 A 
ATOM     17  C   UNL     1     -39.032   6.485  77.498  1.00  0.00     0.062 A 
ATOM     18  C   UNL     1     -39.387   7.361  76.463  1.00  0.00     0.158 A 
BRANCH  16  19
ATOM     19  O   UNL     1     -40.701   9.222  75.655  1.00  0.00    -0.504 OA
ATOM     20  H   UNL     1     -40.959   8.881  74.737  1.00  0.00     0.293 HD
ENDBRANCH  16  19
BRANCH  18  21
ATOM     21  O   UNL     1     -38.784   7.255  75.211  1.00  0.00    -0.504 OA
ATOM     22  H   UNL     1     -38.955   7.938  74.481  1.00  0.00     0.293 HD
ENDBRANCH  18  21
ENDBRANCH   3  13
BRANCH  10  23
ATOM     23  O   UNL     1     -37.539   3.215  84.063  1.00  0.00    -0.507 OA
ATOM     24  H   UNL     1     -37.544   3.259  85.072  1.00  0.00     0.293 HD
ENDBRANCH  10  23
BRANCH  11  25
ATOM     25  O   UNL     1     -42.039   1.733  83.400  1.00  0.00    -0.508 OA
ATOM     26  H   UNL     1     -41.925   1.046  84.137  1.00  0.00     0.293 HD
ENDBRANCH  11  25
ENDBRANCH   1   2
BRANCH   1  27
ATOM     27  C   UNL     1     -36.625   7.655  79.860  1.00  0.00     0.339 C 
ATOM     28  C   UNL     1     -35.915   8.005  81.182  1.00  0.00     0.214 C 
ATOM     29  O   UNL     1     -35.966   8.167  78.707  1.00  0.00    -0.332 OA
ATOM     30  C   UNL     1     -34.435   7.616  81.149  1.00  0.00     0.180 C 
ATOM     31  C   UNL     1     -34.582   7.845  78.608  1.00  0.00     0.179 C 
ATOM     32  C   UNL     1     -33.767   8.178  79.881  1.00  0.00     0.177 C 
BRANCH  28  33
ATOM     33  O   UNL     1     -36.046   9.385  81.421  1.00  0.00    -0.384 OA
ATOM     34  H   UNL     1     -36.947   9.652  81.100  1.00  0.00     0.211 HD
ENDBRANCH  28  33
BRANCH  30  35
ATOM     35  O   UNL     1     -34.310   6.218  81.201  1.00  0.00    -0.387 OA
ATOM     36  H   UNL     1     -35.071   5.843  80.683  1.00  0.00     0.211 HD
ENDBRANCH  30  35
BRANCH  31  37
ATOM     37  C   UNL     1     -34.351   6.422  78.064  1.00  0.00     0.191 C 
BRANCH  37  38
ATOM     38  O   UNL     1     -33.109   5.920  78.481  1.00  0.00    -0.394 OA
ATOM     39  H   UNL     1     -33.056   4.980  78.161  1.00  0.00     0.210 HD
ENDBRANCH  37  38
ENDBRANCH  31  37
BRANCH  32  40
ATOM     40  O   UNL     1     -33.644   9.575  79.986  1.00  0.00    -0.387 OA
ATOM     41  H   UNL     1     -34.169   9.853  80.782  1.00  0.00     0.211 HD
ENDBRANCH  32  40
ENDBRANCH   1  27
TORSDOF 12
ENDMDL
MODEL 9
REMARK VINA RESULT:    -6.052      2.672      5.102
REMARK INTER + INTRA:         -10.541
REMARK INTER:                  -8.925
REMARK INTRA:                  -1.616
REMARK UNBOUND:                -1.659
REMARK SMILES O=c1c(O[C@@H]2O[C@H](CO)[C@@H](O)[C@H](O)[C@H]2O)c(-c2ccc(O)c(O)c2)oc2cc(O)cc(O)c12
REMARK SMILES IDX 4 1 3 2 16 3 25 4 2 5 26 6 1 7 33 8 27 9 31 10 28 11 30 12
REMARK SMILES IDX 17 13 18 14 19 15 20 16 24 17 22 18 21 19 23 21 32 23 29 25
REMARK SMILES IDX 5 27 14 28 6 29 12 30 7 31 10 32 15 33 13 35 8 37 9 38 11 40
REMARK H PARENT 21 20 23 22 32 24 29 26 15 34 13 36 9 39 11 41
REMARK Flexibility Score: inf
ROOT
ATOM      1  O   UNL     1     -38.601   6.792  79.487  1.00  0.00    -0.454 OA
ENDROOT
BRANCH   1   2
ATOM      2  C   UNL     1     -38.531   5.594  80.221  1.00  0.00     0.214 A 
ATOM      3  C   UNL     1     -37.302   4.992  80.566  1.00  0.00     0.180 A 
ATOM      4  O   UNL     1     -37.284   3.948  81.384  1.00  0.00    -0.452 OA
ATOM      5  C   UNL     1     -39.717   4.970  80.635  1.00  0.00     0.239 A 
ATOM      6  C   UNL     1     -38.383   3.366  81.850  1.00  0.00     0.146 A 
ATOM      7  O   UNL     1     -40.812   5.482  80.292  1.00  0.00    -0.285 OA
ATOM      8  C   UNL     1     -39.667   3.814  81.450  1.00  0.00     0.111 A 
ATOM      9  C   UNL     1     -38.245   2.292  82.731  1.00  0.00     0.094 A 
ATOM     10  C   UNL     1     -40.811   3.103  81.924  1.00  0.00     0.134 A 
ATOM     11  C   UNL     1     -39.372   1.641  83.234  1.00  0.00     0.123 A 
ATOM     12  C   UNL     1     -40.642   2.049  82.831  1.00  0.00     0.093 A 
BRANCH   3  13
ATOM     13  C   UNL     1     -36.013   5.452  80.017  1.00  0.00     0.025 A 
ATOM     14  C   UNL     1     -35.366   4.724  79.007  1.00  0.00     0.016 A 
ATOM     15  C   UNL     1     -34.139   5.158  78.502  1.00  0.00     0.051 A 
ATOM     16  C   UNL     1     -33.537   6.316  79.009  1.00  0.00     0.157 A 
ATOM     17  C   UNL     1     -35.394   6.595  80.545  1.00  0.00     0.062 A 
ATOM     18  C   UNL     1     -34.163   7.033  80.037  1.00  0.00     0.158 A 
BRANCH  16  19
ATOM     19  O   UNL     1     -32.316   6.758  78.502  1.00  0.00    -0.504 OA
ATOM     20  H   UNL     1     -31.449   6.611  79.007  1.00  0.00     0.293 HD
ENDBRANCH  16  19
BRANCH  18  21
ATOM     21  O   UNL     1     -33.556   8.179  80.549  1.00  0.00    -0.504 OA
ATOM     22  H   UNL     1     -33.644   9.076  80.085  1.00  0.00     0.293 HD
ENDBRANCH  18  21
ENDBRANCH   3  13
BRANCH  10  23
ATOM     23  O   UNL     1     -42.123   3.372  81.523  1.00  0.00    -0.507 OA
ATOM     24  H   UNL     1     -42.455   3.345  80.570  1.00  0.00     0.293 HD
ENDBRANCH  10  23
BRANCH  11  25
ATOM     25  O   UNL     1     -39.241   0.577  84.125  1.00  0.00    -0.508 OA
ATOM     26  H   UNL     1     -40.019   0.262  84.692  1.00  0.00     0.293 HD
ENDBRANCH  11  25
ENDBRANCH   1   2
BRANCH   1  27
ATOM     27  C   UNL     1     -38.257   6.886  78.097  1.00  0.00     0.339 C 
ATOM     28  C   UNL     1     -39.497   6.716  77.199  1.00  0.00     0.214 C 
ATOM     29  O   UNL     1     -37.514   8.069  77.824  1.00  0.00    -0.332 OA
ATOM     30  C   UNL     1     -40.383   7.964  77.215  1.00  0.00     0.180 C 
ATOM     31  C   UNL     1     -38.274   9.274  77.822  1.00  0.00     0.179 C 
ATOM     32  C   UNL     1     -39.538   9.218  76.929  1.00  0.00     0.177 C 
BRANCH  28  33
ATOM     33  O   UNL     1     -39.076   6.439  75.886  1.00  0.00    -0.384 OA
ATOM     34  H   UNL     1     -39.201   5.465  75.738  1.00  0.00     0.211 HD
ENDBRANCH  28  33
BRANCH  30  35
ATOM     35  O   UNL     1     -41.030   8.070  78.457  1.00  0.00    -0.387 OA
ATOM     36  H   UNL     1     -41.162   9.040  78.629  1.00  0.00     0.211 HD
ENDBRANCH  30  35
BRANCH  31  37
ATOM     37  C   UNL     1     -38.529   9.806  79.245  1.00  0.00     0.191 C 
BRANCH  37  38
ATOM     38  O   UNL     1     -37.447   9.520  80.092  1.00  0.00    -0.394 OA
ATOM     39  H   UNL     1     -36.876   8.861  79.615  1.00  0.00     0.210 HD
ENDBRANCH  37  38
ENDBRANCH  31  37
BRANCH  32  40
ATOM     40  O   UNL     1     -39.139   9.227  75.581  1.00  0.00    -0.387 OA
ATOM     41  H   UNL     1     -38.156   9.370  75.570  1.00  0.00     0.211 HD
ENDBRANCH  32  40
ENDBRANCH   1  27
TORSDOF 12
ENDMDL
