MODEL 1
REMARK VINA RESULT:    -6.260      0.000      0.000
REMARK INTER + INTRA:          -7.615
REMARK INTER:                  -7.540
REMARK INTRA:                  -0.075
REMARK UNBOUND:                -0.075
REMARK SMILES O=c1c(O)c(-c2ccc(O)c(O)c2)oc2cc(O)cc(O)c12
REMARK SMILES IDX 5 1 3 2 2 3 1 4 22 5 20 6 19 7 17 8 16 9 15 10 14 11 6 12
REMARK SMILES IDX 7 13 8 14 9 15 13 16 11 17 10 18 12 20 4 22 21 24 18 26
REMARK H PARENT 10 19 12 21 4 23 21 25 18 27
REMARK Flexibility Score: inf
ROOT
ATOM      1  C   UNL     1     -32.164 -20.496  21.881  1.00  0.00     0.180 A 
ATOM      2  C   UNL     1     -32.510 -19.776  20.721  1.00  0.00     0.208 A 
ATOM      3  C   UNL     1     -32.327 -18.384  20.708  1.00  0.00     0.238 A 
ATOM      4  O   UNL     1     -32.643 -17.726  19.679  1.00  0.00    -0.285 OA
ATOM      5  C   UNL     1     -31.785 -17.741  21.839  1.00  0.00     0.111 A 
ATOM      6  C   UNL     1     -31.566 -16.344  21.905  1.00  0.00     0.134 A 
ATOM      7  C   UNL     1     -31.014 -15.780  23.065  1.00  0.00     0.093 A 
ATOM      8  C   UNL     1     -30.678 -16.583  24.157  1.00  0.00     0.123 A 
ATOM      9  C   UNL     1     -30.892 -17.963  24.098  1.00  0.00     0.094 A 
ATOM     10  C   UNL     1     -31.443 -18.545  22.952  1.00  0.00     0.146 A 
ATOM     11  O   UNL     1     -31.642 -19.858  22.924  1.00  0.00    -0.452 OA
ENDROOT
BRANCH   1  12
ATOM     12  C   UNL     1     -32.345 -21.962  21.980  1.00  0.00     0.025 A 
ATOM     13  C   UNL     1     -33.588 -22.564  21.729  1.00  0.00     0.016 A 
ATOM     14  C   UNL     1     -33.740 -23.947  21.852  1.00  0.00     0.051 A 
ATOM     15  C   UNL     1     -32.663 -24.752  22.238  1.00  0.00     0.157 A 
ATOM     16  C   UNL     1     -31.269 -22.765  22.389  1.00  0.00     0.062 A 
ATOM     17  C   UNL     1     -31.412 -24.153  22.515  1.00  0.00     0.158 A 
BRANCH  15  18
ATOM     18  O   UNL     1     -32.880 -26.128  22.338  1.00  0.00    -0.504 OA
ATOM     19  H   UNL     1     -32.188 -26.827  22.111  1.00  0.00     0.293 HD
ENDBRANCH  15  18
BRANCH  17  20
ATOM     20  O   UNL     1     -30.295 -24.890  22.914  1.00  0.00    -0.504 OA
ATOM     21  H   UNL     1     -30.130 -25.197  23.861  1.00  0.00     0.293 HD
ENDBRANCH  17  20
ENDBRANCH   1  12
BRANCH   2  22
ATOM     22  O   UNL     1     -32.999 -20.443  19.595  1.00  0.00    -0.502 OA
ATOM     23  H   UNL     1     -32.824 -21.428  19.430  1.00  0.00     0.293 HD
ENDBRANCH   2  22
BRANCH   6  24
ATOM     24  O   UNL     1     -31.890 -15.514  20.831  1.00  0.00    -0.507 OA
ATOM     25  H   UNL     1     -31.894 -14.505  20.919  1.00  0.00     0.293 HD
ENDBRANCH   6  24
BRANCH   8  26
ATOM     26  O   UNL     1     -30.130 -15.998  25.296  1.00  0.00    -0.508 OA
ATOM     27  H   UNL     1     -30.702 -15.481  25.954  1.00  0.00     0.293 HD
ENDBRANCH   8  26
TORSDOF 6
ENDMDL
MODEL 2
REMARK VINA RESULT:    -6.079      2.044      2.431
REMARK INTER + INTRA:          -7.398
REMARK INTER:                  -7.067
REMARK INTRA:                  -0.330
REMARK UNBOUND:                -0.075
REMARK SMILES O=c1c(O)c(-c2ccc(O)c(O)c2)oc2cc(O)cc(O)c12
REMARK SMILES IDX 5 1 3 2 2 3 1 4 22 5 20 6 19 7 17 8 16 9 15 10 14 11 6 12
REMARK SMILES IDX 7 13 8 14 9 15 13 16 11 17 10 18 12 20 4 22 21 24 18 26
REMARK H PARENT 10 19 12 21 4 23 21 25 18 27
REMARK Flexibility Score: inf
ROOT
ATOM      1  C   UNL     1     -31.950 -19.031  21.540  1.00  0.00     0.180 A 
ATOM      2  C   UNL     1     -30.863 -18.575  20.770  1.00  0.00     0.208 A 
ATOM      3  C   UNL     1     -30.643 -17.193  20.659  1.00  0.00     0.238 A 
ATOM      4  O   UNL     1     -29.678 -16.772  19.963  1.00  0.00    -0.285 OA
ATOM      5  C   UNL     1     -31.495 -16.295  21.333  1.00  0.00     0.111 A 
ATOM      6  C   UNL     1     -31.340 -14.889  21.276  1.00  0.00     0.134 A 
ATOM      7  C   UNL     1     -32.225 -14.062  21.984  1.00  0.00     0.093 A 
ATOM      8  C   UNL     1     -33.260 -14.611  22.743  1.00  0.00     0.123 A 
ATOM      9  C   UNL     1     -33.419 -15.999  22.803  1.00  0.00     0.094 A 
ATOM     10  C   UNL     1     -32.548 -16.841  22.105  1.00  0.00     0.146 A 
ATOM     11  O   UNL     1     -32.725 -18.155  22.173  1.00  0.00    -0.452 OA
ENDROOT
BRANCH   1  12
ATOM     12  C   UNL     1     -32.260 -20.472  21.689  1.00  0.00     0.025 A 
ATOM     13  C   UNL     1     -33.054 -21.150  20.751  1.00  0.00     0.016 A 
ATOM     14  C   UNL     1     -33.351 -22.503  20.926  1.00  0.00     0.051 A 
ATOM     15  C   UNL     1     -32.875 -23.201  22.042  1.00  0.00     0.157 A 
ATOM     16  C   UNL     1     -31.800 -21.163  22.820  1.00  0.00     0.062 A 
ATOM     17  C   UNL     1     -32.093 -22.520  23.004  1.00  0.00     0.158 A 
BRANCH  15  18
ATOM     18  O   UNL     1     -33.206 -24.553  22.155  1.00  0.00    -0.504 OA
ATOM     19  H   UNL     1     -32.648 -25.303  21.775  1.00  0.00     0.293 HD
ENDBRANCH  15  18
BRANCH  17  20
ATOM     20  O   UNL     1     -31.592 -23.147  24.147  1.00  0.00    -0.504 OA
ATOM     21  H   UNL     1     -30.686 -23.591  24.196  1.00  0.00     0.293 HD
ENDBRANCH  17  20
ENDBRANCH   1  12
BRANCH   2  22
ATOM     22  O   UNL     1     -30.003 -19.487  20.153  1.00  0.00    -0.502 OA
ATOM     23  H   UNL     1     -28.998 -19.453  20.273  1.00  0.00     0.293 HD
ENDBRANCH   2  22
BRANCH   6  24
ATOM     24  O   UNL     1     -30.315 -14.309  20.527  1.00  0.00    -0.507 OA
ATOM     25  H   UNL     1     -30.480 -13.507  19.930  1.00  0.00     0.293 HD
ENDBRANCH   6  24
BRANCH   8  26
ATOM     26  O   UNL     1     -34.125 -13.767  23.437  1.00  0.00    -0.508 OA
ATOM     27  H   UNL     1     -33.991 -13.564  24.420  1.00  0.00     0.293 HD
ENDBRANCH   8  26
TORSDOF 6
ENDMDL
MODEL 3
REMARK VINA RESULT:    -5.855      4.213      6.591
REMARK INTER + INTRA:          -7.127
REMARK INTER:                  -6.825
REMARK INTRA:                  -0.303
REMARK UNBOUND:                -0.075
REMARK SMILES O=c1c(O)c(-c2ccc(O)c(O)c2)oc2cc(O)cc(O)c12
REMARK SMILES IDX 5 1 3 2 2 3 1 4 22 5 20 6 19 7 17 8 16 9 15 10 14 11 6 12
REMARK SMILES IDX 7 13 8 14 9 15 13 16 11 17 10 18 12 20 4 22 21 24 18 26
REMARK H PARENT 10 19 12 21 4 23 21 25 18 27
REMARK Flexibility Score: inf
ROOT
ATOM      1  C   UNL     1     -30.053 -17.330  24.428  1.00  0.00     0.180 A 
ATOM      2  C   UNL     1     -30.777 -17.959  23.397  1.00  0.00     0.208 A 
ATOM      3  C   UNL     1     -30.189 -18.074  22.128  1.00  0.00     0.238 A 
ATOM      4  O   UNL     1     -30.832 -18.627  21.193  1.00  0.00    -0.285 OA
ATOM      5  C   UNL     1     -28.886 -17.579  21.915  1.00  0.00     0.111 A 
ATOM      6  C   UNL     1     -28.221 -17.658  20.668  1.00  0.00     0.134 A 
ATOM      7  C   UNL     1     -26.920 -17.149  20.539  1.00  0.00     0.093 A 
ATOM      8  C   UNL     1     -26.273 -16.564  21.630  1.00  0.00     0.123 A 
ATOM      9  C   UNL     1     -26.925 -16.483  22.864  1.00  0.00     0.094 A 
ATOM     10  C   UNL     1     -28.222 -16.982  23.013  1.00  0.00     0.146 A 
ATOM     11  O   UNL     1     -28.821 -16.887  24.194  1.00  0.00    -0.452 OA
ENDROOT
BRANCH   1  12
ATOM     12  C   UNL     1     -30.612 -17.153  25.787  1.00  0.00     0.025 A 
ATOM     13  C   UNL     1     -30.315 -18.053  26.822  1.00  0.00     0.016 A 
ATOM     14  C   UNL     1     -30.874 -17.879  28.091  1.00  0.00     0.051 A 
ATOM     15  C   UNL     1     -31.746 -16.815  28.347  1.00  0.00     0.157 A 
ATOM     16  C   UNL     1     -31.503 -16.098  26.036  1.00  0.00     0.062 A 
ATOM     17  C   UNL     1     -32.068 -15.916  27.304  1.00  0.00     0.158 A 
BRANCH  15  18
ATOM     18  O   UNL     1     -32.266 -16.695  29.637  1.00  0.00    -0.504 OA
ATOM     19  H   UNL     1     -31.709 -16.741  30.477  1.00  0.00     0.293 HD
ENDBRANCH  15  18
BRANCH  17  20
ATOM     20  O   UNL     1     -32.937 -14.837  27.482  1.00  0.00    -0.504 OA
ATOM     21  H   UNL     1     -33.255 -14.510  28.383  1.00  0.00     0.293 HD
ENDBRANCH  17  20
ENDBRANCH   1  12
BRANCH   2  22
ATOM     22  O   UNL     1     -32.047 -18.487  23.647  1.00  0.00    -0.502 OA
ATOM     23  H   UNL     1     -32.551 -19.034  22.960  1.00  0.00     0.293 HD
ENDBRANCH   2  22
BRANCH   6  24
ATOM     24  O   UNL     1     -28.840 -18.237  19.559  1.00  0.00    -0.507 OA
ATOM     25  H   UNL     1     -29.148 -19.203  19.565  1.00  0.00     0.293 HD
ENDBRANCH   6  24
BRANCH   8  26
ATOM     26  O   UNL     1     -24.981 -16.067  21.475  1.00  0.00    -0.508 OA
ATOM     27  H   UNL     1     -24.599 -15.378  22.112  1.00  0.00     0.293 HD
ENDBRANCH   8  26
TORSDOF 6
ENDMDL
MODEL 4
REMARK VINA RESULT:    -5.780      2.736      3.487
REMARK INTER + INTRA:          -7.037
REMARK INTER:                  -6.771
REMARK INTRA:                  -0.266
REMARK UNBOUND:                -0.075
REMARK SMILES O=c1c(O)c(-c2ccc(O)c(O)c2)oc2cc(O)cc(O)c12
REMARK SMILES IDX 5 1 3 2 2 3 1 4 22 5 20 6 19 7 17 8 16 9 15 10 14 11 6 12
REMARK SMILES IDX 7 13 8 14 9 15 13 16 11 17 10 18 12 20 4 22 21 24 18 26
REMARK H PARENT 10 19 12 21 4 23 21 25 18 27
REMARK Flexibility Score: inf
ROOT
ATOM      1  C   UNL     1     -30.955 -18.315  21.606  1.00  0.00     0.180 A 
ATOM      2  C   UNL     1     -31.642 -17.086  21.629  1.00  0.00     0.208 A 
ATOM      3  C   UNL     1     -30.899 -15.895  21.658  1.00  0.00     0.238 A 
ATOM      4  O   UNL     1     -31.502 -14.788  21.690  1.00  0.00    -0.285 OA
ATOM      5  C   UNL     1     -29.490 -15.951  21.645  1.00  0.00     0.111 A 
ATOM      6  C   UNL     1     -28.669 -14.799  21.669  1.00  0.00     0.134 A 
ATOM      7  C   UNL     1     -27.273 -14.938  21.644  1.00  0.00     0.093 A 
ATOM      8  C   UNL     1     -26.685 -16.204  21.595  1.00  0.00     0.123 A 
ATOM      9  C   UNL     1     -27.491 -17.346  21.571  1.00  0.00     0.094 A 
ATOM     10  C   UNL     1     -28.883 -17.229  21.597  1.00  0.00     0.146 A 
ATOM     11  O   UNL     1     -29.626 -18.330  21.579  1.00  0.00    -0.452 OA
ENDROOT
BRANCH   1  12
ATOM     12  C   UNL     1     -31.667 -19.614  21.593  1.00  0.00     0.025 A 
ATOM     13  C   UNL     1     -32.298 -20.090  20.433  1.00  0.00     0.016 A 
ATOM     14  C   UNL     1     -32.984 -21.307  20.453  1.00  0.00     0.051 A 
ATOM     15  C   UNL     1     -33.064 -22.063  21.627  1.00  0.00     0.157 A 
ATOM     16  C   UNL     1     -31.765 -20.359  22.778  1.00  0.00     0.062 A 
ATOM     17  C   UNL     1     -32.451 -21.580  22.807  1.00  0.00     0.158 A 
BRANCH  15  18
ATOM     18  O   UNL     1     -33.761 -23.272  21.578  1.00  0.00    -0.504 OA
ATOM     19  H   UNL     1     -33.610 -23.982  20.877  1.00  0.00     0.293 HD
ENDBRANCH  15  18
BRANCH  17  20
ATOM     20  O   UNL     1     -32.496 -22.274  24.018  1.00  0.00    -0.504 OA
ATOM     21  H   UNL     1     -32.652 -23.268  24.094  1.00  0.00     0.293 HD
ENDBRANCH  17  20
ENDBRANCH   1  12
BRANCH   2  22
ATOM     22  O   UNL     1     -33.038 -17.056  21.592  1.00  0.00    -0.502 OA
ATOM     23  H   UNL     1     -33.558 -16.203  21.426  1.00  0.00     0.293 HD
ENDBRANCH   2  22
BRANCH   6  24
ATOM     24  O   UNL     1     -29.226 -13.520  21.717  1.00  0.00    -0.507 OA
ATOM     25  H   UNL     1     -28.699 -12.698  21.447  1.00  0.00     0.293 HD
ENDBRANCH   6  24
BRANCH   8  26
ATOM     26  O   UNL     1     -25.296 -16.314  21.569  1.00  0.00    -0.508 OA
ATOM     27  H   UNL     1     -24.805 -16.959  22.177  1.00  0.00     0.293 HD
ENDBRANCH   8  26
TORSDOF 6
ENDMDL
MODEL 5
REMARK VINA RESULT:    -5.726      2.312      3.870
REMARK INTER + INTRA:          -6.972
REMARK INTER:                  -6.658
REMARK INTRA:                  -0.314
REMARK UNBOUND:                -0.075
REMARK SMILES O=c1c(O)c(-c2ccc(O)c(O)c2)oc2cc(O)cc(O)c12
REMARK SMILES IDX 5 1 3 2 2 3 1 4 22 5 20 6 19 7 17 8 16 9 15 10 14 11 6 12
REMARK SMILES IDX 7 13 8 14 9 15 13 16 11 17 10 18 12 20 4 22 21 24 18 26
REMARK H PARENT 10 19 12 21 4 23 21 25 18 27
REMARK Flexibility Score: inf
ROOT
ATOM      1  C   UNL     1     -31.146 -18.386  23.212  1.00  0.00     0.180 A 
ATOM      2  C   UNL     1     -31.893 -17.370  23.837  1.00  0.00     0.208 A 
ATOM      3  C   UNL     1     -31.212 -16.336  24.499  1.00  0.00     0.238 A 
ATOM      4  O   UNL     1     -31.871 -15.426  25.072  1.00  0.00    -0.285 OA
ATOM      5  C   UNL     1     -29.802 -16.325  24.508  1.00  0.00     0.111 A 
ATOM      6  C   UNL     1     -29.040 -15.318  25.149  1.00  0.00     0.134 A 
ATOM      7  C   UNL     1     -27.639 -15.373  25.105  1.00  0.00     0.093 A 
ATOM      8  C   UNL     1     -26.987 -16.411  24.435  1.00  0.00     0.123 A 
ATOM      9  C   UNL     1     -27.734 -17.407  23.801  1.00  0.00     0.094 A 
ATOM     10  C   UNL     1     -29.131 -17.372  23.834  1.00  0.00     0.146 A 
ATOM     11  O   UNL     1     -29.818 -18.335  23.228  1.00  0.00    -0.452 OA
ENDROOT
BRANCH   1  12
ATOM     12  C   UNL     1     -31.791 -19.520  22.510  1.00  0.00     0.025 A 
ATOM     13  C   UNL     1     -32.025 -19.486  21.127  1.00  0.00     0.016 A 
ATOM     14  C   UNL     1     -32.657 -20.557  20.492  1.00  0.00     0.051 A 
ATOM     15  C   UNL     1     -33.079 -21.673  21.223  1.00  0.00     0.157 A 
ATOM     16  C   UNL     1     -32.233 -20.628  23.250  1.00  0.00     0.062 A 
ATOM     17  C   UNL     1     -32.868 -21.706  22.622  1.00  0.00     0.158 A 
BRANCH  15  18
ATOM     18  O   UNL     1     -33.701 -22.712  20.528  1.00  0.00    -0.504 OA
ATOM     19  H   UNL     1     -34.302 -23.399  20.959  1.00  0.00     0.293 HD
ENDBRANCH  15  18
BRANCH  17  20
ATOM     20  O   UNL     1     -33.269 -22.781  23.418  1.00  0.00    -0.504 OA
ATOM     21  H   UNL     1     -33.272 -22.765  24.428  1.00  0.00     0.293 HD
ENDBRANCH  17  20
ENDBRANCH   1  12
BRANCH   2  22
ATOM     22  O   UNL     1     -33.289 -17.378  23.771  1.00  0.00    -0.502 OA
ATOM     23  H   UNL     1     -33.818 -16.612  23.370  1.00  0.00     0.293 HD
ENDBRANCH   2  22
BRANCH   6  24
ATOM     24  O   UNL     1     -29.662 -14.268  25.825  1.00  0.00    -0.507 OA
ATOM     25  H   UNL     1     -30.113 -13.508  25.330  1.00  0.00     0.293 HD
ENDBRANCH   6  24
BRANCH   8  26
ATOM     26  O   UNL     1     -25.594 -16.440  24.406  1.00  0.00    -0.508 OA
ATOM     27  H   UNL     1     -25.055 -16.787  25.190  1.00  0.00     0.293 HD
ENDBRANCH   8  26
TORSDOF 6
ENDMDL
MODEL 6
REMARK VINA RESULT:    -5.650      3.447      6.756
REMARK INTER + INTRA:          -6.881
REMARK INTER:                  -6.571
REMARK INTRA:                  -0.310
REMARK UNBOUND:                -0.075
REMARK SMILES O=c1c(O)c(-c2ccc(O)c(O)c2)oc2cc(O)cc(O)c12
REMARK SMILES IDX 5 1 3 2 2 3 1 4 22 5 20 6 19 7 17 8 16 9 15 10 14 11 6 12
REMARK SMILES IDX 7 13 8 14 9 15 13 16 11 17 10 18 12 20 4 22 21 24 18 26
REMARK H PARENT 10 19 12 21 4 23 21 25 18 27
REMARK Flexibility Score: inf
ROOT
ATOM      1  C   UNL     1     -30.479 -17.615  24.287  1.00  0.00     0.180 A 
ATOM      2  C   UNL     1     -29.208 -17.299  23.770  1.00  0.00     0.208 A 
ATOM      3  C   UNL     1     -28.924 -17.609  22.430  1.00  0.00     0.238 A 
ATOM      4  O   UNL     1     -27.786 -17.340  21.959  1.00  0.00    -0.285 OA
ATOM      5  C   UNL     1     -29.917 -18.209  21.628  1.00  0.00     0.111 A 
ATOM      6  C   UNL     1     -29.713 -18.550  20.270  1.00  0.00     0.134 A 
ATOM      7  C   UNL     1     -30.755 -19.136  19.535  1.00  0.00     0.093 A 
ATOM      8  C   UNL     1     -31.992 -19.388  20.131  1.00  0.00     0.123 A 
ATOM      9  C   UNL     1     -32.199 -19.054  21.473  1.00  0.00     0.094 A 
ATOM     10  C   UNL     1     -31.174 -18.470  22.222  1.00  0.00     0.146 A 
ATOM     11  O   UNL     1     -31.395 -18.167  23.497  1.00  0.00    -0.452 OA
ENDROOT
BRANCH   1  12
ATOM     12  C   UNL     1     -30.848 -17.337  25.694  1.00  0.00     0.025 A 
ATOM     13  C   UNL     1     -30.439 -18.182  26.737  1.00  0.00     0.016 A 
ATOM     14  C   UNL     1     -30.819 -17.912  28.054  1.00  0.00     0.051 A 
ATOM     15  C   UNL     1     -31.622 -16.806  28.353  1.00  0.00     0.157 A 
ATOM     16  C   UNL     1     -31.672 -16.240  25.988  1.00  0.00     0.062 A 
ATOM     17  C   UNL     1     -32.058 -15.961  27.305  1.00  0.00     0.158 A 
BRANCH  15  18
ATOM     18  O   UNL     1     -31.963 -16.590  29.689  1.00  0.00    -0.504 OA
ATOM     19  H   UNL     1     -31.394 -16.067  30.339  1.00  0.00     0.293 HD
ENDBRANCH  15  18
BRANCH  17  20
ATOM     20  O   UNL     1     -32.868 -14.845  27.525  1.00  0.00    -0.504 OA
ATOM     21  H   UNL     1     -33.047 -14.447  28.435  1.00  0.00     0.293 HD
ENDBRANCH  17  20
ENDBRANCH   1  12
BRANCH   2  22
ATOM     22  O   UNL     1     -28.259 -16.660  24.572  1.00  0.00    -0.502 OA
ATOM     23  H   UNL     1     -27.263 -16.803  24.453  1.00  0.00     0.293 HD
ENDBRANCH   2  22
BRANCH   6  24
ATOM     24  O   UNL     1     -28.488 -18.310  19.645  1.00  0.00    -0.507 OA
ATOM     25  H   UNL     1     -27.620 -18.679  20.016  1.00  0.00     0.293 HD
ENDBRANCH   6  24
BRANCH   8  26
ATOM     26  O   UNL     1     -33.010 -19.970  19.379  1.00  0.00    -0.508 OA
ATOM     27  H   UNL     1     -32.929 -20.914  19.020  1.00  0.00     0.293 HD
ENDBRANCH   8  26
TORSDOF 6
ENDMDL
MODEL 7
REMARK VINA RESULT:    -5.543      5.031      9.593
REMARK INTER + INTRA:          -6.752
REMARK INTER:                  -6.467
REMARK INTRA:                  -0.285
REMARK UNBOUND:                -0.075
REMARK SMILES O=c1c(O)c(-c2ccc(O)c(O)c2)oc2cc(O)cc(O)c12
REMARK SMILES IDX 5 1 3 2 2 3 1 4 22 5 20 6 19 7 17 8 16 9 15 10 14 11 6 12
REMARK SMILES IDX 7 13 8 14 9 15 13 16 11 17 10 18 12 20 4 22 21 24 18 26
REMARK H PARENT 10 19 12 21 4 23 21 25 18 27
REMARK Flexibility Score: inf
ROOT
ATOM      1  C   UNL     1     -29.319 -15.454  27.970  1.00  0.00     0.180 A 
ATOM      2  C   UNL     1     -30.697 -15.721  27.856  1.00  0.00     0.208 A 
ATOM      3  C   UNL     1     -31.174 -16.336  26.688  1.00  0.00     0.238 A 
ATOM      4  O   UNL     1     -32.408 -16.570  26.570  1.00  0.00    -0.285 OA
ATOM      5  C   UNL     1     -30.269 -16.690  25.667  1.00  0.00     0.111 A 
ATOM      6  C   UNL     1     -30.668 -17.315  24.461  1.00  0.00     0.134 A 
ATOM      7  C   UNL     1     -29.704 -17.644  23.496  1.00  0.00     0.093 A 
ATOM      8  C   UNL     1     -28.354 -17.362  23.713  1.00  0.00     0.123 A 
ATOM      9  C   UNL     1     -27.954 -16.744  24.902  1.00  0.00     0.094 A 
ATOM     10  C   UNL     1     -28.899 -16.406  25.875  1.00  0.00     0.146 A 
ATOM     11  O   UNL     1     -28.493 -15.815  26.993  1.00  0.00    -0.452 OA
ENDROOT
BRANCH   1  12
ATOM     12  C   UNL     1     -28.742 -14.791  29.162  1.00  0.00     0.025 A 
ATOM     13  C   UNL     1     -28.886 -13.411  29.373  1.00  0.00     0.016 A 
ATOM     14  C   UNL     1     -28.313 -12.805  30.493  1.00  0.00     0.051 A 
ATOM     15  C   UNL     1     -27.576 -13.557  31.414  1.00  0.00     0.157 A 
ATOM     16  C   UNL     1     -27.986 -15.544  30.073  1.00  0.00     0.062 A 
ATOM     17  C   UNL     1     -27.407 -14.945  31.198  1.00  0.00     0.158 A 
BRANCH  15  18
ATOM     18  O   UNL     1     -27.033 -12.891  32.514  1.00  0.00    -0.504 OA
ATOM     19  H   UNL     1     -26.046 -12.861  32.724  1.00  0.00     0.293 HD
ENDBRANCH  15  18
BRANCH  17  20
ATOM     20  O   UNL     1     -26.678 -15.759  32.068  1.00  0.00    -0.504 OA
ATOM     21  H   UNL     1     -26.345 -15.462  32.974  1.00  0.00     0.293 HD
ENDBRANCH  17  20
ENDBRANCH   1  12
BRANCH   2  22
ATOM     22  O   UNL     1     -31.567 -15.405  28.904  1.00  0.00    -0.502 OA
ATOM     23  H   UNL     1     -32.561 -15.595  28.860  1.00  0.00     0.293 HD
ENDBRANCH   2  22
BRANCH   6  24
ATOM     24  O   UNL     1     -32.009 -17.611  24.215  1.00  0.00    -0.507 OA
ATOM     25  H   UNL     1     -32.322 -17.958  23.316  1.00  0.00     0.293 HD
ENDBRANCH   6  24
BRANCH   8  26
ATOM     26  O   UNL     1     -27.417 -17.700  22.739  1.00  0.00    -0.508 OA
ATOM     27  H   UNL     1     -26.589 -18.239  22.965  1.00  0.00     0.293 HD
ENDBRANCH   8  26
TORSDOF 6
ENDMDL
MODEL 8
REMARK VINA RESULT:    -5.539      5.449      7.857
REMARK INTER + INTRA:          -6.747
REMARK INTER:                  -6.598
REMARK INTRA:                  -0.150
REMARK UNBOUND:                -0.075
REMARK SMILES O=c1c(O)c(-c2ccc(O)c(O)c2)oc2cc(O)cc(O)c12
REMARK SMILES IDX 5 1 3 2 2 3 1 4 22 5 20 6 19 7 17 8 16 9 15 10 14 11 6 12
REMARK SMILES IDX 7 13 8 14 9 15 13 16 11 17 10 18 12 20 4 22 21 24 18 26
REMARK H PARENT 10 19 12 21 4 23 21 25 18 27
REMARK Flexibility Score: inf
ROOT
ATOM      1  C   UNL     1     -28.854 -16.423  25.628  1.00  0.00     0.180 A 
ATOM      2  C   UNL     1     -27.704 -15.623  25.777  1.00  0.00     0.208 A 
ATOM      3  C   UNL     1     -26.806 -15.520  24.703  1.00  0.00     0.238 A 
ATOM      4  O   UNL     1     -25.767 -14.815  24.828  1.00  0.00    -0.285 OA
ATOM      5  C   UNL     1     -27.080 -16.198  23.497  1.00  0.00     0.111 A 
ATOM      6  C   UNL     1     -26.229 -16.143  22.367  1.00  0.00     0.134 A 
ATOM      7  C   UNL     1     -26.578 -16.838  21.200  1.00  0.00     0.093 A 
ATOM      8  C   UNL     1     -27.756 -17.586  21.140  1.00  0.00     0.123 A 
ATOM      9  C   UNL     1     -28.600 -17.644  22.253  1.00  0.00     0.094 A 
ATOM     10  C   UNL     1     -28.271 -16.959  23.426  1.00  0.00     0.146 A 
ATOM     11  O   UNL     1     -29.087 -17.036  24.472  1.00  0.00    -0.452 OA
ENDROOT
BRANCH   1  12
ATOM     12  C   UNL     1     -29.838 -16.598  26.721  1.00  0.00     0.025 A 
ATOM     13  C   UNL     1     -30.085 -17.857  27.288  1.00  0.00     0.016 A 
ATOM     14  C   UNL     1     -31.035 -18.000  28.302  1.00  0.00     0.051 A 
ATOM     15  C   UNL     1     -31.764 -16.897  28.759  1.00  0.00     0.157 A 
ATOM     16  C   UNL     1     -30.583 -15.493  27.162  1.00  0.00     0.062 A 
ATOM     17  C   UNL     1     -31.538 -15.627  28.177  1.00  0.00     0.158 A 
BRANCH  15  18
ATOM     18  O   UNL     1     -32.696 -17.107  29.777  1.00  0.00    -0.504 OA
ATOM     19  H   UNL     1     -32.745 -17.949  30.332  1.00  0.00     0.293 HD
ENDBRANCH  15  18
BRANCH  17  20
ATOM     20  O   UNL     1     -32.233 -14.483  28.574  1.00  0.00    -0.504 OA
ATOM     21  H   UNL     1     -32.004 -13.938  29.392  1.00  0.00     0.293 HD
ENDBRANCH  17  20
ENDBRANCH   1  12
BRANCH   2  22
ATOM     22  O   UNL     1     -27.481 -14.922  26.965  1.00  0.00    -0.502 OA
ATOM     23  H   UNL     1     -27.785 -13.965  27.095  1.00  0.00     0.293 HD
ENDBRANCH   2  22
BRANCH   6  24
ATOM     24  O   UNL     1     -25.046 -15.404  22.395  1.00  0.00    -0.507 OA
ATOM     25  H   UNL     1     -25.014 -14.462  22.766  1.00  0.00     0.293 HD
ENDBRANCH   6  24
BRANCH   8  26
ATOM     26  O   UNL     1     -28.078 -18.266  19.968  1.00  0.00    -0.508 OA
ATOM     27  H   UNL     1     -28.581 -17.814  19.214  1.00  0.00     0.293 HD
ENDBRANCH   8  26
TORSDOF 6
ENDMDL
MODEL 9
REMARK VINA RESULT:    -5.399      2.996      5.589
REMARK INTER + INTRA:          -6.578
REMARK INTER:                  -6.330
REMARK INTRA:                  -0.248
REMARK UNBOUND:                -0.075
REMARK SMILES O=c1c(O)c(-c2ccc(O)c(O)c2)oc2cc(O)cc(O)c12
REMARK SMILES IDX 5 1 3 2 2 3 1 4 22 5 20 6 19 7 17 8 16 9 15 10 14 11 6 12
REMARK SMILES IDX 7 13 8 14 9 15 13 16 11 17 10 18 12 20 4 22 21 24 18 26
REMARK H PARENT 10 19 12 21 4 23 21 25 18 27
REMARK Flexibility Score: inf
ROOT
ATOM      1  C   UNL     1     -31.879 -17.132  24.204  1.00  0.00     0.180 A 
ATOM      2  C   UNL     1     -32.884 -16.254  24.654  1.00  0.00     0.208 A 
ATOM      3  C   UNL     1     -32.848 -15.808  25.985  1.00  0.00     0.238 A 
ATOM      4  O   UNL     1     -33.749 -15.030  26.403  1.00  0.00    -0.285 OA
ATOM      5  C   UNL     1     -31.804 -16.229  26.833  1.00  0.00     0.111 A 
ATOM      6  C   UNL     1     -31.693 -15.823  28.185  1.00  0.00     0.134 A 
ATOM      7  C   UNL     1     -30.618 -16.278  28.962  1.00  0.00     0.093 A 
ATOM      8  C   UNL     1     -29.654 -17.129  28.416  1.00  0.00     0.123 A 
ATOM      9  C   UNL     1     -29.758 -17.533  27.082  1.00  0.00     0.094 A 
ATOM     10  C   UNL     1     -30.823 -17.092  26.291  1.00  0.00     0.146 A 
ATOM     11  O   UNL     1     -30.901 -17.496  25.028  1.00  0.00    -0.452 OA
ENDROOT
BRANCH   1  12
ATOM     12  C   UNL     1     -31.858 -17.661  22.820  1.00  0.00     0.025 A 
ATOM     13  C   UNL     1     -31.510 -16.847  21.731  1.00  0.00     0.016 A 
ATOM     14  C   UNL     1     -31.521 -17.362  20.434  1.00  0.00     0.051 A 
ATOM     15  C   UNL     1     -31.891 -18.690  20.195  1.00  0.00     0.157 A 
ATOM     16  C   UNL     1     -32.251 -18.987  22.582  1.00  0.00     0.062 A 
ATOM     17  C   UNL     1     -32.265 -19.512  21.284  1.00  0.00     0.158 A 
BRANCH  15  18
ATOM     18  O   UNL     1     -31.877 -19.145  18.875  1.00  0.00    -0.504 OA
ATOM     19  H   UNL     1     -31.197 -18.857  18.187  1.00  0.00     0.293 HD
ENDBRANCH  15  18
BRANCH  17  20
ATOM     20  O   UNL     1     -32.655 -20.843  21.124  1.00  0.00    -0.504 OA
ATOM     21  H   UNL     1     -32.710 -21.312  20.232  1.00  0.00     0.293 HD
ENDBRANCH  17  20
ENDBRANCH   1  12
BRANCH   2  22
ATOM     22  O   UNL     1     -33.880 -15.812  23.779  1.00  0.00    -0.502 OA
ATOM     23  H   UNL     1     -34.207 -14.854  23.768  1.00  0.00     0.293 HD
ENDBRANCH   2  22
BRANCH   6  24
ATOM     24  O   UNL     1     -32.639 -14.973  28.759  1.00  0.00    -0.507 OA
ATOM     25  H   UNL     1     -33.391 -15.327  29.339  1.00  0.00     0.293 HD
ENDBRANCH   6  24
BRANCH   8  26
ATOM     26  O   UNL     1     -28.596 -17.566  29.210  1.00  0.00    -0.508 OA
ATOM     27  H   UNL     1     -28.754 -18.095  30.060  1.00  0.00     0.293 HD
ENDBRANCH   8  26
TORSDOF 6
ENDMDL
