MODEL 1
REMARK VINA RESULT:    -4.159      0.000      0.000
REMARK INTER + INTRA:          -9.961
REMARK INTER:                  -7.562
REMARK INTRA:                  -2.399
REMARK UNBOUND:                -2.399
REMARK SMILES CCCCCCCCCCCCCCCC(=O)[O-]
REMARK SMILES IDX 9 1 10 2 11 3 12 4 13 5 14 6 15 7 16 8 17 9 18 10 8 11 7 12
REMARK SMILES IDX 6 13 5 14 4 15 3 16 2 17 1 18
REMARK H PARENT
REMARK Flexibility Score: inf
ROOT
ATOM      1  C   UNL     1      47.533  35.089 -16.478  1.00  0.00     0.000 C 
ENDROOT
BRANCH   1   2
ATOM      2  C   UNL     1      47.264  36.433 -17.171  1.00  0.00     0.000 C 
BRANCH   2   3
ATOM      3  C   UNL     1      46.663  37.448 -16.185  1.00  0.00     0.000 C 
BRANCH   3   4
ATOM      4  C   UNL     1      46.432  36.854 -14.784  1.00  0.00     0.000 C 
BRANCH   4   5
ATOM      5  C   UNL     1      45.230  37.440 -14.014  1.00  0.00     0.000 C 
BRANCH   5   6
ATOM      6  C   UNL     1      44.424  36.420 -13.189  1.00  0.00     0.006 C 
BRANCH   6   7
ATOM      7  C   UNL     1      45.301  35.316 -12.586  1.00  0.00     0.053 C 
BRANCH   7   8
ATOM      8  C   UNL     1      45.414  35.490 -11.105  1.00  0.00     0.041 C 
ATOM      9  O   UNL     1      44.783  36.413 -10.526  1.00  0.00    -0.550 OA
ATOM     10  O   UNL     1      46.179  34.603 -10.357  1.00  0.00    -0.550 OA
ENDBRANCH   7   8
ENDBRANCH   6   7
ENDBRANCH   5   6
ENDBRANCH   4   5
ENDBRANCH   3   4
ENDBRANCH   2   3
ENDBRANCH   1   2
BRANCH   1  11
ATOM     11  C   UNL     1      49.025  34.724 -16.456  1.00  0.00     0.000 C 
BRANCH  11  12
ATOM     12  C   UNL     1      49.890  35.721 -17.247  1.00  0.00    -0.000 C 
BRANCH  12  13
ATOM     13  C   UNL     1      50.947  36.412 -16.371  1.00  0.00    -0.000 C 
BRANCH  13  14
ATOM     14  C   UNL     1      50.515  37.818 -15.918  1.00  0.00    -0.000 C 
BRANCH  14  15
ATOM     15  C   UNL     1      50.011  37.828 -14.459  1.00  0.00    -0.000 C 
BRANCH  15  16
ATOM     16  C   UNL     1      50.596  36.695 -13.599  1.00  0.00    -0.000 C 
BRANCH  16  17
ATOM     17  C   UNL     1      49.516  35.830 -12.937  1.00  0.00    -0.003 C 
ATOM     18  C   UNL     1      48.688  36.643 -11.947  1.00  0.00     0.004 C 
ENDBRANCH  16  17
ENDBRANCH  15  16
ENDBRANCH  14  15
ENDBRANCH  13  14
ENDBRANCH  12  13
ENDBRANCH  11  12
ENDBRANCH   1  11
TORSDOF 14
ENDMDL
MODEL 2
REMARK VINA RESULT:    -4.104      1.804      4.001
REMARK INTER + INTRA:          -9.862
REMARK INTER:                  -8.063
REMARK INTRA:                  -1.799
REMARK UNBOUND:                -2.399
REMARK SMILES CCCCCCCCCCCCCCCC(=O)[O-]
REMARK SMILES IDX 9 1 10 2 11 3 12 4 13 5 14 6 15 7 16 8 17 9 18 10 8 11 7 12
REMARK SMILES IDX 6 13 5 14 4 15 3 16 2 17 1 18
REMARK H PARENT
REMARK Flexibility Score: inf
ROOT
ATOM      1  C   UNL     1      45.625  34.567 -13.150  1.00  0.00     0.000 C 
ENDROOT
BRANCH   1   2
ATOM      2  C   UNL     1      45.210  36.005 -13.493  1.00  0.00     0.000 C 
BRANCH   2   3
ATOM      3  C   UNL     1      43.867  36.360 -12.838  1.00  0.00     0.000 C 
BRANCH   3   4
ATOM      4  C   UNL     1      44.032  37.114 -11.506  1.00  0.00     0.000 C 
BRANCH   4   5
ATOM      5  C   UNL     1      44.114  36.220 -10.252  1.00  0.00     0.000 C 
BRANCH   5   6
ATOM      6  C   UNL     1      45.503  36.149  -9.591  1.00  0.00     0.006 C 
BRANCH   6   7
ATOM      7  C   UNL     1      46.043  34.717  -9.494  1.00  0.00     0.053 C 
BRANCH   7   8
ATOM      8  C   UNL     1      45.587  34.072  -8.224  1.00  0.00     0.041 C 
ATOM      9  O   UNL     1      45.554  32.817  -8.127  1.00  0.00    -0.550 OA
ATOM     10  O   UNL     1      45.245  34.856  -7.130  1.00  0.00    -0.550 OA
ENDBRANCH   7   8
ENDBRANCH   6   7
ENDBRANCH   5   6
ENDBRANCH   4   5
ENDBRANCH   3   4
ENDBRANCH   2   3
ENDBRANCH   1   2
BRANCH   1  11
ATOM     11  C   UNL     1      47.147  34.362 -13.202  1.00  0.00     0.000 C 
BRANCH  11  12
ATOM     12  C   UNL     1      47.928  35.613 -12.762  1.00  0.00    -0.000 C 
BRANCH  12  13
ATOM     13  C   UNL     1      49.306  35.717 -13.435  1.00  0.00    -0.000 C 
BRANCH  13  14
ATOM     14  C   UNL     1      49.290  36.620 -14.681  1.00  0.00    -0.000 C 
BRANCH  14  15
ATOM     15  C   UNL     1      49.566  35.828 -15.976  1.00  0.00    -0.000 C 
BRANCH  15  16
ATOM     16  C   UNL     1      48.315  35.153 -16.562  1.00  0.00    -0.000 C 
BRANCH  16  17
ATOM     17  C   UNL     1      47.248  36.159 -17.012  1.00  0.00    -0.003 C 
ATOM     18  C   UNL     1      47.847  37.228 -17.921  1.00  0.00     0.004 C 
ENDBRANCH  16  17
ENDBRANCH  15  16
ENDBRANCH  14  15
ENDBRANCH  13  14
ENDBRANCH  12  13
ENDBRANCH  11  12
ENDBRANCH   1  11
TORSDOF 14
ENDMDL
MODEL 3
REMARK VINA RESULT:    -4.102      1.233      3.270
REMARK INTER + INTRA:          -9.858
REMARK INTER:                  -7.751
REMARK INTRA:                  -2.107
REMARK UNBOUND:                -2.399
REMARK SMILES CCCCCCCCCCCCCCCC(=O)[O-]
REMARK SMILES IDX 9 1 10 2 11 3 12 4 13 5 14 6 15 7 16 8 17 9 18 10 8 11 7 12
REMARK SMILES IDX 6 13 5 14 4 15 3 16 2 17 1 18
REMARK H PARENT
REMARK Flexibility Score: inf
ROOT
ATOM      1  C   UNL     1      47.852  35.858 -12.502  1.00  0.00     0.000 C 
ENDROOT
BRANCH   1   2
ATOM      2  C   UNL     1      47.316  34.554 -13.111  1.00  0.00     0.000 C 
BRANCH   2   3
ATOM      3  C   UNL     1      45.836  34.698 -13.499  1.00  0.00     0.000 C 
BRANCH   3   4
ATOM      4  C   UNL     1      45.291  36.118 -13.261  1.00  0.00     0.000 C 
BRANCH   4   5
ATOM      5  C   UNL     1      43.787  36.197 -12.930  1.00  0.00     0.000 C 
BRANCH   5   6
ATOM      6  C   UNL     1      43.453  36.301 -11.431  1.00  0.00     0.006 C 
BRANCH   6   7
ATOM      7  C   UNL     1      44.682  36.615 -10.568  1.00  0.00     0.053 C 
BRANCH   7   8
ATOM      8  C   UNL     1      44.946  35.496  -9.610  1.00  0.00     0.041 C 
ATOM      9  O   UNL     1      46.048  34.887  -9.637  1.00  0.00    -0.550 OA
ATOM     10  O   UNL     1      43.995  35.160  -8.656  1.00  0.00    -0.550 OA
ENDBRANCH   7   8
ENDBRANCH   6   7
ENDBRANCH   5   6
ENDBRANCH   4   5
ENDBRANCH   3   4
ENDBRANCH   2   3
ENDBRANCH   1   2
BRANCH   1  11
ATOM     11  C   UNL     1      49.155  36.329 -13.167  1.00  0.00     0.000 C 
BRANCH  11  12
ATOM     12  C   UNL     1      48.929  37.482 -14.161  1.00  0.00    -0.000 C 
BRANCH  12  13
ATOM     13  C   UNL     1      50.186  37.808 -14.984  1.00  0.00    -0.000 C 
BRANCH  13  14
ATOM     14  C   UNL     1      50.715  36.591 -15.765  1.00  0.00    -0.000 C 
BRANCH  14  15
ATOM     15  C   UNL     1      49.752  36.161 -16.892  1.00  0.00    -0.000 C 
BRANCH  15  16
ATOM     16  C   UNL     1      48.971  34.875 -16.576  1.00  0.00    -0.000 C 
BRANCH  16  17
ATOM     17  C   UNL     1      47.456  35.037 -16.751  1.00  0.00    -0.003 C 
ATOM     18  C   UNL     1      47.102  36.447 -17.213  1.00  0.00     0.004 C 
ENDBRANCH  16  17
ENDBRANCH  15  16
ENDBRANCH  14  15
ENDBRANCH  13  14
ENDBRANCH  12  13
ENDBRANCH  11  12
ENDBRANCH   1  11
TORSDOF 14
ENDMDL
MODEL 4
REMARK VINA RESULT:    -4.095      0.965      2.378
REMARK INTER + INTRA:          -9.846
REMARK INTER:                  -7.564
REMARK INTRA:                  -2.282
REMARK UNBOUND:                -2.399
REMARK SMILES CCCCCCCCCCCCCCCC(=O)[O-]
REMARK SMILES IDX 9 1 10 2 11 3 12 4 13 5 14 6 15 7 16 8 17 9 18 10 8 11 7 12
REMARK SMILES IDX 6 13 5 14 4 15 3 16 2 17 1 18
REMARK H PARENT
REMARK Flexibility Score: inf
ROOT
ATOM      1  C   UNL     1      46.314  37.627 -15.830  1.00  0.00     0.000 C 
ENDROOT
BRANCH   1   2
ATOM      2  C   UNL     1      46.984  37.865 -14.468  1.00  0.00     0.000 C 
BRANCH   2   3
ATOM      3  C   UNL     1      45.931  38.013 -13.359  1.00  0.00     0.000 C 
BRANCH   3   4
ATOM      4  C   UNL     1      44.703  37.111 -13.575  1.00  0.00     0.000 C 
BRANCH   4   5
ATOM      5  C   UNL     1      44.584  35.921 -12.600  1.00  0.00     0.000 C 
BRANCH   5   6
ATOM      6  C   UNL     1      45.545  34.751 -12.878  1.00  0.00     0.006 C 
BRANCH   6   7
ATOM      7  C   UNL     1      46.848  34.847 -12.074  1.00  0.00     0.053 C 
BRANCH   7   8
ATOM      8  C   UNL     1      46.563  35.270 -10.667  1.00  0.00     0.041 C 
ATOM      9  O   UNL     1      46.037  34.461  -9.858  1.00  0.00    -0.550 OA
ATOM     10  O   UNL     1      46.923  36.540 -10.237  1.00  0.00    -0.550 OA
ENDBRANCH   7   8
ENDBRANCH   6   7
ENDBRANCH   5   6
ENDBRANCH   4   5
ENDBRANCH   3   4
ENDBRANCH   2   3
ENDBRANCH   1   2
BRANCH   1  11
ATOM     11  C   UNL     1      47.102  36.645 -16.712  1.00  0.00     0.000 C 
BRANCH  11  12
ATOM     12  C   UNL     1      47.413  35.321 -15.992  1.00  0.00    -0.000 C 
BRANCH  12  13
ATOM     13  C   UNL     1      48.831  34.807 -16.284  1.00  0.00    -0.000 C 
BRANCH  13  14
ATOM     14  C   UNL     1      49.658  35.796 -17.125  1.00  0.00    -0.000 C 
BRANCH  14  15
ATOM     15  C   UNL     1      50.879  36.337 -16.351  1.00  0.00    -0.000 C 
BRANCH  15  16
ATOM     16  C   UNL     1      50.526  37.437 -15.337  1.00  0.00    -0.000 C 
BRANCH  16  17
ATOM     17  C   UNL     1      51.055  37.144 -13.928  1.00  0.00    -0.003 C 
ATOM     18  C   UNL     1      50.056  36.317 -13.125  1.00  0.00     0.004 C 
ENDBRANCH  16  17
ENDBRANCH  15  16
ENDBRANCH  14  15
ENDBRANCH  13  14
ENDBRANCH  12  13
ENDBRANCH  11  12
ENDBRANCH   1  11
TORSDOF 14
ENDMDL
MODEL 5
REMARK VINA RESULT:    -4.038      2.106      4.824
REMARK INTER + INTRA:          -9.742
REMARK INTER:                  -7.744
REMARK INTRA:                  -1.998
REMARK UNBOUND:                -2.399
REMARK SMILES CCCCCCCCCCCCCCCC(=O)[O-]
REMARK SMILES IDX 9 1 10 2 11 3 12 4 13 5 14 6 15 7 16 8 17 9 18 10 8 11 7 12
REMARK SMILES IDX 6 13 5 14 4 15 3 16 2 17 1 18
REMARK H PARENT
REMARK Flexibility Score: inf
ROOT
ATOM      1  C   UNL     1      44.110  37.594 -12.820  1.00  0.00     0.000 C 
ENDROOT
BRANCH   1   2
ATOM      2  C   UNL     1      42.952  36.697 -12.359  1.00  0.00     0.000 C 
BRANCH   2   3
ATOM      3  C   UNL     1      42.190  37.342 -11.191  1.00  0.00     0.000 C 
BRANCH   3   4
ATOM      4  C   UNL     1      42.928  37.205  -9.847  1.00  0.00     0.000 C 
BRANCH   4   5
ATOM      5  C   UNL     1      43.733  35.900  -9.671  1.00  0.00     0.000 C 
BRANCH   5   6
ATOM      6  C   UNL     1      45.113  36.070  -9.010  1.00  0.00     0.006 C 
BRANCH   6   7
ATOM      7  C   UNL     1      46.229  35.340  -9.768  1.00  0.00     0.053 C 
BRANCH   7   8
ATOM      8  C   UNL     1      47.285  36.307 -10.201  1.00  0.00     0.041 C 
ATOM      9  O   UNL     1      46.979  37.498 -10.473  1.00  0.00    -0.550 OA
ATOM     10  O   UNL     1      48.614  35.907 -10.256  1.00  0.00    -0.550 OA
ENDBRANCH   7   8
ENDBRANCH   6   7
ENDBRANCH   5   6
ENDBRANCH   4   5
ENDBRANCH   3   4
ENDBRANCH   2   3
ENDBRANCH   1   2
BRANCH   1  11
ATOM     11  C   UNL     1      45.283  36.791 -13.402  1.00  0.00     0.000 C 
BRANCH  11  12
ATOM     12  C   UNL     1      45.176  35.285 -13.105  1.00  0.00    -0.000 C 
BRANCH  12  13
ATOM     13  C   UNL     1      46.262  34.462 -13.815  1.00  0.00    -0.000 C 
BRANCH  13  14
ATOM     14  C   UNL     1      47.674  35.037 -13.603  1.00  0.00    -0.000 C 
BRANCH  14  15
ATOM     15  C   UNL     1      48.440  35.202 -14.933  1.00  0.00    -0.000 C 
BRANCH  15  16
ATOM     16  C   UNL     1      47.622  34.790 -16.168  1.00  0.00    -0.000 C 
BRANCH  16  17
ATOM     17  C   UNL     1      47.468  35.925 -17.188  1.00  0.00    -0.003 C 
ATOM     18  C   UNL     1      47.156  37.249 -16.497  1.00  0.00     0.004 C 
ENDBRANCH  16  17
ENDBRANCH  15  16
ENDBRANCH  14  15
ENDBRANCH  13  14
ENDBRANCH  12  13
ENDBRANCH  11  12
ENDBRANCH   1  11
TORSDOF 14
ENDMDL
MODEL 6
REMARK VINA RESULT:    -4.012      2.977      5.406
REMARK INTER + INTRA:          -9.694
REMARK INTER:                  -7.276
REMARK INTRA:                  -2.418
REMARK UNBOUND:                -2.399
REMARK SMILES CCCCCCCCCCCCCCCC(=O)[O-]
REMARK SMILES IDX 9 1 10 2 11 3 12 4 13 5 14 6 15 7 16 8 17 9 18 10 8 11 7 12
REMARK SMILES IDX 6 13 5 14 4 15 3 16 2 17 1 18
REMARK H PARENT
REMARK Flexibility Score: inf
ROOT
ATOM      1  C   UNL     1      47.271  34.892 -14.754  1.00  0.00     0.000 C 
ENDROOT
BRANCH   1   2
ATOM      2  C   UNL     1      47.556  34.671 -16.248  1.00  0.00     0.000 C 
BRANCH   2   3
ATOM      3  C   UNL     1      47.515  36.001 -17.016  1.00  0.00     0.000 C 
BRANCH   3   4
ATOM      4  C   UNL     1      48.914  36.590 -17.267  1.00  0.00     0.000 C 
BRANCH   4   5
ATOM      5  C   UNL     1      50.080  35.586 -17.148  1.00  0.00     0.000 C 
BRANCH   5   6
ATOM      6  C   UNL     1      51.403  36.182 -16.635  1.00  0.00     0.006 C 
BRANCH   6   7
ATOM      7  C   UNL     1      51.202  37.466 -15.820  1.00  0.00     0.053 C 
BRANCH   7   8
ATOM      8  C   UNL     1      52.188  37.530 -14.696  1.00  0.00     0.041 C 
ATOM      9  O   UNL     1      53.406  37.292 -14.908  1.00  0.00    -0.550 OA
ATOM     10  O   UNL     1      51.770  37.902 -13.425  1.00  0.00    -0.550 OA
ENDBRANCH   7   8
ENDBRANCH   6   7
ENDBRANCH   5   6
ENDBRANCH   4   5
ENDBRANCH   3   4
ENDBRANCH   2   3
ENDBRANCH   1   2
BRANCH   1  11
ATOM     11  C   UNL     1      48.534  34.771 -13.888  1.00  0.00     0.000 C 
BRANCH  11  12
ATOM     12  C   UNL     1      48.792  36.027 -13.038  1.00  0.00    -0.000 C 
BRANCH  12  13
ATOM     13  C   UNL     1      48.220  37.302 -13.677  1.00  0.00    -0.000 C 
BRANCH  13  14
ATOM     14  C   UNL     1      47.314  38.092 -12.715  1.00  0.00    -0.000 C 
BRANCH  14  15
ATOM     15  C   UNL     1      45.817  37.888 -13.029  1.00  0.00    -0.000 C 
BRANCH  15  16
ATOM     16  C   UNL     1      45.035  37.217 -11.888  1.00  0.00    -0.000 C 
BRANCH  16  17
ATOM     17  C   UNL     1      45.115  35.686 -11.929  1.00  0.00    -0.003 C 
ATOM     18  C   UNL     1      45.993  35.149 -10.803  1.00  0.00     0.004 C 
ENDBRANCH  16  17
ENDBRANCH  15  16
ENDBRANCH  14  15
ENDBRANCH  13  14
ENDBRANCH  12  13
ENDBRANCH  11  12
ENDBRANCH   1  11
TORSDOF 14
ENDMDL
MODEL 7
REMARK VINA RESULT:    -3.930      3.196      6.611
REMARK INTER + INTRA:          -9.545
REMARK INTER:                  -7.546
REMARK INTRA:                  -1.999
REMARK UNBOUND:                -2.399
REMARK SMILES CCCCCCCCCCCCCCCC(=O)[O-]
REMARK SMILES IDX 9 1 10 2 11 3 12 4 13 5 14 6 15 7 16 8 17 9 18 10 8 11 7 12
REMARK SMILES IDX 6 13 5 14 4 15 3 16 2 17 1 18
REMARK H PARENT
REMARK Flexibility Score: inf
ROOT
ATOM      1  C   UNL     1      43.814  36.252 -13.134  1.00  0.00     0.000 C 
ENDROOT
BRANCH   1   2
ATOM      2  C   UNL     1      44.803  37.414 -13.316  1.00  0.00     0.000 C 
BRANCH   2   3
ATOM      3  C   UNL     1      46.210  36.890 -13.643  1.00  0.00     0.000 C 
BRANCH   3   4
ATOM      4  C   UNL     1      46.278  35.354 -13.696  1.00  0.00     0.000 C 
BRANCH   4   5
ATOM      5  C   UNL     1      47.701  34.758 -13.653  1.00  0.00     0.000 C 
BRANCH   5   6
ATOM      6  C   UNL     1      48.526  34.945 -14.939  1.00  0.00     0.006 C 
BRANCH   6   7
ATOM      7  C   UNL     1      47.685  34.793 -16.213  1.00  0.00     0.053 C 
BRANCH   7   8
ATOM      8  C   UNL     1      47.809  36.013 -17.070  1.00  0.00     0.041 C 
ATOM      9  O   UNL     1      46.793  36.496 -17.634  1.00  0.00    -0.550 OA
ATOM     10  O   UNL     1      49.039  36.644 -17.206  1.00  0.00    -0.550 OA
ENDBRANCH   7   8
ENDBRANCH   6   7
ENDBRANCH   5   6
ENDBRANCH   4   5
ENDBRANCH   3   4
ENDBRANCH   2   3
ENDBRANCH   1   2
BRANCH   1  11
ATOM     11  C   UNL     1      42.627  36.622 -12.231  1.00  0.00     0.000 C 
BRANCH  11  12
ATOM     12  C   UNL     1      42.864  37.925 -11.447  1.00  0.00    -0.000 C 
BRANCH  12  13
ATOM     13  C   UNL     1      42.751  37.729  -9.927  1.00  0.00    -0.000 C 
BRANCH  13  14
ATOM     14  C   UNL     1      42.824  36.249  -9.513  1.00  0.00    -0.000 C 
BRANCH  14  15
ATOM     15  C   UNL     1      44.090  35.939  -8.687  1.00  0.00    -0.000 C 
BRANCH  15  16
ATOM     16  C   UNL     1      45.254  36.907  -8.959  1.00  0.00    -0.000 C 
BRANCH  16  17
ATOM     17  C   UNL     1      46.253  36.366  -9.990  1.00  0.00    -0.003 C 
ATOM     18  C   UNL     1      46.279  34.841  -9.985  1.00  0.00     0.004 C 
ENDBRANCH  16  17
ENDBRANCH  15  16
ENDBRANCH  14  15
ENDBRANCH  13  14
ENDBRANCH  12  13
ENDBRANCH  11  12
ENDBRANCH   1  11
TORSDOF 14
ENDMDL
MODEL 8
REMARK VINA RESULT:    -3.894      1.372      2.132
REMARK INTER + INTRA:          -9.481
REMARK INTER:                  -7.466
REMARK INTRA:                  -2.014
REMARK UNBOUND:                -2.399
REMARK SMILES CCCCCCCCCCCCCCCC(=O)[O-]
REMARK SMILES IDX 9 1 10 2 11 3 12 4 13 5 14 6 15 7 16 8 17 9 18 10 8 11 7 12
REMARK SMILES IDX 6 13 5 14 4 15 3 16 2 17 1 18
REMARK H PARENT
REMARK Flexibility Score: inf
ROOT
ATOM      1  C   UNL     1      47.246  34.621 -14.285  1.00  0.00     0.000 C 
ENDROOT
BRANCH   1   2
ATOM      2  C   UNL     1      46.337  35.418 -13.337  1.00  0.00     0.000 C 
BRANCH   2   3
ATOM      3  C   UNL     1      46.088  36.834 -13.878  1.00  0.00     0.000 C 
BRANCH   3   4
ATOM      4  C   UNL     1      44.692  37.374 -13.519  1.00  0.00     0.000 C 
BRANCH   4   5
ATOM      5  C   UNL     1      43.649  36.300 -13.146  1.00  0.00     0.000 C 
BRANCH   5   6
ATOM      6  C   UNL     1      43.015  36.463 -11.752  1.00  0.00     0.006 C 
BRANCH   6   7
ATOM      7  C   UNL     1      43.979  37.076 -10.728  1.00  0.00     0.053 C 
BRANCH   7   8
ATOM      8  C   UNL     1      44.420  36.040  -9.742  1.00  0.00     0.041 C 
ATOM      9  O   UNL     1      43.568  35.417  -9.056  1.00  0.00    -0.550 OA
ATOM     10  O   UNL     1      45.768  35.730  -9.617  1.00  0.00    -0.550 OA
ENDBRANCH   7   8
ENDBRANCH   6   7
ENDBRANCH   5   6
ENDBRANCH   4   5
ENDBRANCH   3   4
ENDBRANCH   2   3
ENDBRANCH   1   2
BRANCH   1  11
ATOM     11  C   UNL     1      47.393  35.288 -15.661  1.00  0.00     0.000 C 
BRANCH  11  12
ATOM     12  C   UNL     1      48.508  34.653 -16.511  1.00  0.00    -0.000 C 
BRANCH  12  13
ATOM     13  C   UNL     1      49.602  35.659 -16.901  1.00  0.00    -0.000 C 
BRANCH  13  14
ATOM     14  C   UNL     1      49.111  37.117 -16.848  1.00  0.00    -0.000 C 
BRANCH  14  15
ATOM     15  C   UNL     1      50.009  37.999 -15.954  1.00  0.00    -0.000 C 
BRANCH  15  16
ATOM     16  C   UNL     1      50.667  37.231 -14.796  1.00  0.00    -0.000 C 
BRANCH  16  17
ATOM     17  C   UNL     1      49.827  37.251 -13.512  1.00  0.00    -0.003 C 
ATOM     18  C   UNL     1      50.116  36.029 -12.645  1.00  0.00     0.004 C 
ENDBRANCH  16  17
ENDBRANCH  15  16
ENDBRANCH  14  15
ENDBRANCH  13  14
ENDBRANCH  12  13
ENDBRANCH  11  12
ENDBRANCH   1  11
TORSDOF 14
ENDMDL
MODEL 9
REMARK VINA RESULT:    -3.887      1.712      4.050
REMARK INTER + INTRA:          -9.467
REMARK INTER:                  -7.565
REMARK INTRA:                  -1.902
REMARK UNBOUND:                -2.399
REMARK SMILES CCCCCCCCCCCCCCCC(=O)[O-]
REMARK SMILES IDX 9 1 10 2 11 3 12 4 13 5 14 6 15 7 16 8 17 9 18 10 8 11 7 12
REMARK SMILES IDX 6 13 5 14 4 15 3 16 2 17 1 18
REMARK H PARENT
REMARK Flexibility Score: inf
ROOT
ATOM      1  C   UNL     1      45.250  35.142 -12.854  1.00  0.00     0.000 C 
ENDROOT
BRANCH   1   2
ATOM      2  C   UNL     1      45.269  36.516 -13.541  1.00  0.00     0.000 C 
BRANCH   2   3
ATOM      3  C   UNL     1      44.141  37.412 -13.006  1.00  0.00     0.000 C 
BRANCH   3   4
ATOM      4  C   UNL     1      42.982  36.610 -12.390  1.00  0.00     0.000 C 
BRANCH   4   5
ATOM      5  C   UNL     1      42.196  37.340 -11.280  1.00  0.00     0.000 C 
BRANCH   5   6
ATOM      6  C   UNL     1      42.817  37.249  -9.874  1.00  0.00     0.006 C 
BRANCH   6   7
ATOM      7  C   UNL     1      43.389  35.860  -9.564  1.00  0.00     0.053 C 
BRANCH   7   8
ATOM      8  C   UNL     1      44.844  35.957  -9.232  1.00  0.00     0.041 C 
ATOM      9  O   UNL     1      45.438  37.065  -9.308  1.00  0.00    -0.550 OA
ATOM     10  O   UNL     1      45.533  34.834  -8.792  1.00  0.00    -0.550 OA
ENDBRANCH   7   8
ENDBRANCH   6   7
ENDBRANCH   5   6
ENDBRANCH   4   5
ENDBRANCH   3   4
ENDBRANCH   2   3
ENDBRANCH   1   2
BRANCH   1  11
ATOM     11  C   UNL     1      46.619  34.753 -12.275  1.00  0.00     0.000 C 
BRANCH  11  12
ATOM     12  C   UNL     1      47.508  35.974 -11.983  1.00  0.00    -0.000 C 
BRANCH  12  13
ATOM     13  C   UNL     1      48.824  35.951 -12.777  1.00  0.00    -0.000 C 
BRANCH  13  14
ATOM     14  C   UNL     1      48.763  35.018 -13.999  1.00  0.00    -0.000 C 
BRANCH  14  15
ATOM     15  C   UNL     1      48.650  35.802 -15.323  1.00  0.00    -0.000 C 
BRANCH  15  16
ATOM     16  C   UNL     1      47.699  35.154 -16.343  1.00  0.00    -0.000 C 
BRANCH  16  17
ATOM     17  C   UNL     1      47.087  36.167 -17.318  1.00  0.00    -0.003 C 
ATOM     18  C   UNL     1      48.064  37.299 -17.623  1.00  0.00     0.004 C 
ENDBRANCH  16  17
ENDBRANCH  15  16
ENDBRANCH  14  15
ENDBRANCH  13  14
ENDBRANCH  12  13
ENDBRANCH  11  12
ENDBRANCH   1  11
TORSDOF 14
ENDMDL
