MODEL 1
REMARK VINA RESULT:    -3.373      0.000      0.000
REMARK INTER + INTRA:          -8.274
REMARK INTER:                  -6.331
REMARK INTRA:                  -1.942
REMARK UNBOUND:                -1.942
REMARK SMILES CCCCCCCCC=CCCCCCCCC(=O)[O-]
REMARK SMILES IDX 10 1 9 2 11 3 12 4 13 5 14 6 15 7 16 8 17 9 18 10 19 11
REMARK SMILES IDX 20 12 8 13 7 14 6 15 5 16 4 17 3 18 2 19 1 20
REMARK H PARENT
REMARK Flexibility Score: inf
ROOT
ATOM      1  C   UNL     1      26.488  20.018  58.129  1.00  0.00    -0.031 C 
ATOM      2  C   UNL     1      26.634  19.831  56.803  1.00  0.00    -0.031 C 
ENDROOT
BRANCH   1   3
ATOM      3  C   UNL     1      26.927  21.238  58.905  1.00  0.00     0.027 C 
BRANCH   3   4
ATOM      4  C   UNL     1      25.739  22.118  59.318  1.00  0.00     0.004 C 
BRANCH   4   5
ATOM      5  C   UNL     1      24.443  21.313  59.498  1.00  0.00     0.000 C 
BRANCH   5   6
ATOM      6  C   UNL     1      23.333  22.125  60.187  1.00  0.00     0.000 C 
BRANCH   6   7
ATOM      7  C   UNL     1      23.054  21.654  61.622  1.00  0.00     0.000 C 
BRANCH   7   8
ATOM      8  C   UNL     1      24.197  22.056  62.562  1.00  0.00     0.006 C 
BRANCH   8   9
ATOM      9  C   UNL     1      24.346  21.052  63.708  1.00  0.00     0.053 C 
BRANCH   9  10
ATOM     10  C   UNL     1      25.675  20.366  63.633  1.00  0.00     0.041 C 
ATOM     11  O   UNL     1      25.748  19.115  63.747  1.00  0.00    -0.550 OA
ATOM     12  O   UNL     1      26.836  21.114  63.482  1.00  0.00    -0.550 OA
ENDBRANCH   9  10
ENDBRANCH   8   9
ENDBRANCH   7   8
ENDBRANCH   6   7
ENDBRANCH   5   6
ENDBRANCH   4   5
ENDBRANCH   3   4
ENDBRANCH   1   3
BRANCH   2  13
ATOM     13  C   UNL     1      27.234  20.818  55.828  1.00  0.00     0.027 C 
BRANCH  13  14
ATOM     14  C   UNL     1      26.167  21.433  54.907  1.00  0.00     0.004 C 
BRANCH  14  15
ATOM     15  C   UNL     1      24.881  21.865  55.641  1.00  0.00     0.000 C 
BRANCH  15  16
ATOM     16  C   UNL     1      23.568  21.290  55.073  1.00  0.00     0.000 C 
BRANCH  16  17
ATOM     17  C   UNL     1      23.743  20.168  54.034  1.00  0.00    -0.000 C 
BRANCH  17  18
ATOM     18  C   UNL     1      22.977  18.887  54.403  1.00  0.00    -0.000 C 
BRANCH  18  19
ATOM     19  C   UNL     1      23.645  18.110  55.548  1.00  0.00    -0.003 C 
ATOM     20  C   UNL     1      22.989  18.377  56.903  1.00  0.00     0.004 C 
ENDBRANCH  18  19
ENDBRANCH  17  18
ENDBRANCH  16  17
ENDBRANCH  15  16
ENDBRANCH  14  15
ENDBRANCH  13  14
ENDBRANCH   2  13
TORSDOF 15
ENDMDL
MODEL 2
REMARK VINA RESULT:    -3.310      2.596      6.970
REMARK INTER + INTRA:          -8.155
REMARK INTER:                  -6.387
REMARK INTRA:                  -1.768
REMARK UNBOUND:                -1.942
REMARK SMILES CCCCCCCCC=CCCCCCCCC(=O)[O-]
REMARK SMILES IDX 10 1 9 2 11 3 12 4 13 5 14 6 15 7 16 8 17 9 18 10 19 11
REMARK SMILES IDX 20 12 8 13 7 14 6 15 5 16 4 17 3 18 2 19 1 20
REMARK H PARENT
REMARK Flexibility Score: inf
ROOT
ATOM      1  C   UNL     1      26.324  21.600  58.534  1.00  0.00    -0.031 C 
ATOM      2  C   UNL     1      25.219  21.952  59.221  1.00  0.00    -0.031 C 
ENDROOT
BRANCH   1   3
ATOM      3  C   UNL     1      26.475  20.369  57.672  1.00  0.00     0.027 C 
BRANCH   3   4
ATOM      4  C   UNL     1      27.373  20.625  56.454  1.00  0.00     0.004 C 
BRANCH   4   5
ATOM      5  C   UNL     1      26.606  20.532  55.125  1.00  0.00     0.000 C 
BRANCH   5   6
ATOM      6  C   UNL     1      25.917  21.854  54.747  1.00  0.00     0.000 C 
BRANCH   6   7
ATOM      7  C   UNL     1      24.396  21.709  54.587  1.00  0.00     0.000 C 
BRANCH   7   8
ATOM      8  C   UNL     1      23.988  20.231  54.556  1.00  0.00     0.006 C 
BRANCH   8   9
ATOM      9  C   UNL     1      23.016  19.904  55.693  1.00  0.00     0.053 C 
BRANCH   9  10
ATOM     10  C   UNL     1      23.339  18.569  56.289  1.00  0.00     0.041 C 
ATOM     11  O   UNL     1      23.069  18.333  57.495  1.00  0.00    -0.550 OA
ATOM     12  O   UNL     1      23.980  17.604  55.523  1.00  0.00    -0.550 OA
ENDBRANCH   9  10
ENDBRANCH   8   9
ENDBRANCH   7   8
ENDBRANCH   6   7
ENDBRANCH   5   6
ENDBRANCH   4   5
ENDBRANCH   3   4
ENDBRANCH   1   3
BRANCH   2  13
ATOM     13  C   UNL     1      23.906  21.205  59.234  1.00  0.00     0.027 C 
BRANCH  13  14
ATOM     14  C   UNL     1      22.988  21.680  60.373  1.00  0.00     0.004 C 
BRANCH  14  15
ATOM     15  C   UNL     1      23.745  22.125  61.641  1.00  0.00     0.000 C 
BRANCH  15  16
ATOM     16  C   UNL     1      23.247  21.504  62.961  1.00  0.00     0.000 C 
BRANCH  16  17
ATOM     17  C   UNL     1      24.340  21.252  64.017  1.00  0.00    -0.000 C 
BRANCH  17  18
ATOM     18  C   UNL     1      25.761  21.455  63.466  1.00  0.00    -0.000 C 
BRANCH  18  19
ATOM     19  C   UNL     1      26.659  20.229  63.686  1.00  0.00    -0.003 C 
ATOM     20  C   UNL     1      25.872  18.990  64.112  1.00  0.00     0.004 C 
ENDBRANCH  18  19
ENDBRANCH  17  18
ENDBRANCH  16  17
ENDBRANCH  15  16
ENDBRANCH  14  15
ENDBRANCH  13  14
ENDBRANCH   2  13
TORSDOF 15
ENDMDL
MODEL 3
REMARK VINA RESULT:    -2.879      2.602      6.941
REMARK INTER + INTRA:          -7.346
REMARK INTER:                  -5.487
REMARK INTRA:                  -1.859
REMARK UNBOUND:                -1.942
REMARK SMILES CCCCCCCCC=CCCCCCCCC(=O)[O-]
REMARK SMILES IDX 10 1 9 2 11 3 12 4 13 5 14 6 15 7 16 8 17 9 18 10 19 11
REMARK SMILES IDX 20 12 8 13 7 14 6 15 5 16 4 17 3 18 2 19 1 20
REMARK H PARENT
REMARK Flexibility Score: inf
ROOT
ATOM      1  C   UNL     1      24.706  21.972  58.156  1.00  0.00    -0.031 C 
ATOM      2  C   UNL     1      23.934  22.106  59.252  1.00  0.00    -0.031 C 
ENDROOT
BRANCH   1   3
ATOM      3  C   UNL     1      25.537  20.761  57.802  1.00  0.00     0.027 C 
BRANCH   3   4
ATOM      4  C   UNL     1      26.499  21.043  56.638  1.00  0.00     0.004 C 
BRANCH   4   5
ATOM      5  C   UNL     1      25.991  20.476  55.303  1.00  0.00     0.000 C 
BRANCH   5   6
ATOM      6  C   UNL     1      24.927  21.372  54.646  1.00  0.00     0.000 C 
BRANCH   6   7
ATOM      7  C   UNL     1      23.561  20.682  54.524  1.00  0.00     0.000 C 
BRANCH   7   8
ATOM      8  C   UNL     1      23.720  19.231  54.054  1.00  0.00     0.006 C 
BRANCH   8   9
ATOM      9  C   UNL     1      22.877  18.280  54.908  1.00  0.00     0.053 C 
BRANCH   9  10
ATOM     10  C   UNL     1      23.458  18.158  56.282  1.00  0.00     0.041 C 
ATOM     11  O   UNL     1      24.444  17.403  56.488  1.00  0.00    -0.550 OA
ATOM     12  O   UNL     1      22.879  18.842  57.344  1.00  0.00    -0.550 OA
ENDBRANCH   9  10
ENDBRANCH   8   9
ENDBRANCH   7   8
ENDBRANCH   6   7
ENDBRANCH   5   6
ENDBRANCH   4   5
ENDBRANCH   3   4
ENDBRANCH   1   3
BRANCH   2  13
ATOM     13  C   UNL     1      23.720  21.058  60.321  1.00  0.00     0.027 C 
BRANCH  13  14
ATOM     14  C   UNL     1      23.102  21.659  61.595  1.00  0.00     0.004 C 
BRANCH  14  15
ATOM     15  C   UNL     1      24.131  21.979  62.698  1.00  0.00     0.000 C 
BRANCH  15  16
ATOM     16  C   UNL     1      25.071  20.819  63.084  1.00  0.00     0.000 C 
BRANCH  16  17
ATOM     17  C   UNL     1      26.574  21.128  62.964  1.00  0.00    -0.000 C 
BRANCH  17  18
ATOM     18  C   UNL     1      26.896  22.085  61.803  1.00  0.00    -0.000 C 
BRANCH  18  19
ATOM     19  C   UNL     1      27.282  21.340  60.516  1.00  0.00    -0.003 C 
ATOM     20  C   UNL     1      28.413  22.030  59.753  1.00  0.00     0.004 C 
ENDBRANCH  18  19
ENDBRANCH  17  18
ENDBRANCH  16  17
ENDBRANCH  15  16
ENDBRANCH  14  15
ENDBRANCH  13  14
ENDBRANCH   2  13
TORSDOF 15
ENDMDL
MODEL 4
REMARK VINA RESULT:    -2.684      2.475      6.912
REMARK INTER + INTRA:          -6.980
REMARK INTER:                  -6.203
REMARK INTRA:                  -0.777
REMARK UNBOUND:                -1.942
REMARK SMILES CCCCCCCCC=CCCCCCCCC(=O)[O-]
REMARK SMILES IDX 10 1 9 2 11 3 12 4 13 5 14 6 15 7 16 8 17 9 18 10 19 11
REMARK SMILES IDX 20 12 8 13 7 14 6 15 5 16 4 17 3 18 2 19 1 20
REMARK H PARENT
REMARK Flexibility Score: inf
ROOT
ATOM      1  C   UNL     1      26.783  20.851  57.805  1.00  0.00    -0.031 C 
ATOM      2  C   UNL     1      25.878  21.090  58.775  1.00  0.00    -0.031 C 
ENDROOT
BRANCH   1   3
ATOM      3  C   UNL     1      26.798  21.484  56.433  1.00  0.00     0.027 C 
BRANCH   3   4
ATOM      4  C   UNL     1      25.382  21.787  55.923  1.00  0.00     0.004 C 
BRANCH   4   5
ATOM      5  C   UNL     1      25.206  21.448  54.434  1.00  0.00     0.000 C 
BRANCH   5   6
ATOM      6  C   UNL     1      23.799  21.784  53.913  1.00  0.00     0.000 C 
BRANCH   6   7
ATOM      7  C   UNL     1      22.918  20.539  53.731  1.00  0.00     0.000 C 
BRANCH   7   8
ATOM      8  C   UNL     1      23.729  19.257  53.957  1.00  0.00     0.006 C 
BRANCH   8   9
ATOM      9  C   UNL     1      23.056  18.357  54.997  1.00  0.00     0.053 C 
BRANCH   9  10
ATOM     10  C   UNL     1      23.645  18.592  56.353  1.00  0.00     0.041 C 
ATOM     11  O   UNL     1      24.715  18.018  56.686  1.00  0.00    -0.550 OA
ATOM     12  O   UNL     1      22.988  19.410  57.263  1.00  0.00    -0.550 OA
ENDBRANCH   9  10
ENDBRANCH   8   9
ENDBRANCH   7   8
ENDBRANCH   6   7
ENDBRANCH   5   6
ENDBRANCH   4   5
ENDBRANCH   3   4
ENDBRANCH   1   3
BRANCH   2  13
ATOM     13  C   UNL     1      24.725  22.063  58.693  1.00  0.00     0.027 C 
BRANCH  13  14
ATOM     14  C   UNL     1      23.748  21.893  59.869  1.00  0.00     0.004 C 
BRANCH  14  15
ATOM     15  C   UNL     1      24.436  21.821  61.247  1.00  0.00     0.000 C 
BRANCH  15  16
ATOM     16  C   UNL     1      23.514  21.457  62.429  1.00  0.00     0.000 C 
BRANCH  16  17
ATOM     17  C   UNL     1      24.236  21.203  63.765  1.00  0.00    -0.000 C 
BRANCH  17  18
ATOM     18  C   UNL     1      25.755  21.422  63.675  1.00  0.00    -0.000 C 
BRANCH  18  19
ATOM     19  C   UNL     1      26.534  20.105  63.545  1.00  0.00    -0.003 C 
ATOM     20  C   UNL     1      25.785  18.915  64.146  1.00  0.00     0.004 C 
ENDBRANCH  18  19
ENDBRANCH  17  18
ENDBRANCH  16  17
ENDBRANCH  15  16
ENDBRANCH  14  15
ENDBRANCH  13  14
ENDBRANCH   2  13
TORSDOF 15
ENDMDL
MODEL 5
REMARK VINA RESULT:    -2.561      0.907      2.532
REMARK INTER + INTRA:          -6.750
REMARK INTER:                  -5.679
REMARK INTRA:                  -1.071
REMARK UNBOUND:                -1.942
REMARK SMILES CCCCCCCCC=CCCCCCCCC(=O)[O-]
REMARK SMILES IDX 10 1 9 2 11 3 12 4 13 5 14 6 15 7 16 8 17 9 18 10 19 11
REMARK SMILES IDX 20 12 8 13 7 14 6 15 5 16 4 17 3 18 2 19 1 20
REMARK H PARENT
REMARK Flexibility Score: inf
ROOT
ATOM      1  C   UNL     1      26.607  19.601  57.504  1.00  0.00    -0.031 C 
ATOM      2  C   UNL     1      25.605  19.022  56.814  1.00  0.00    -0.031 C 
ENDROOT
BRANCH   1   3
ATOM      3  C   UNL     1      26.446  20.567  58.654  1.00  0.00     0.027 C 
BRANCH   3   4
ATOM      4  C   UNL     1      25.222  21.477  58.477  1.00  0.00     0.004 C 
BRANCH   4   5
ATOM      5  C   UNL     1      24.692  22.021  59.813  1.00  0.00     0.000 C 
BRANCH   5   6
ATOM      6  C   UNL     1      23.245  21.585  60.097  1.00  0.00     0.000 C 
BRANCH   6   7
ATOM      7  C   UNL     1      22.896  21.618  61.592  1.00  0.00     0.000 C 
BRANCH   7   8
ATOM      8  C   UNL     1      24.114  22.020  62.431  1.00  0.00     0.006 C 
BRANCH   8   9
ATOM      9  C   UNL     1      24.386  20.995  63.535  1.00  0.00     0.053 C 
BRANCH   9  10
ATOM     10  C   UNL     1      25.824  20.582  63.523  1.00  0.00     0.041 C 
ATOM     11  O   UNL     1      26.684  21.297  62.945  1.00  0.00    -0.550 OA
ATOM     12  O   UNL     1      26.207  19.382  64.110  1.00  0.00    -0.550 OA
ENDBRANCH   9  10
ENDBRANCH   8   9
ENDBRANCH   7   8
ENDBRANCH   6   7
ENDBRANCH   5   6
ENDBRANCH   4   5
ENDBRANCH   3   4
ENDBRANCH   1   3
BRANCH   2  13
ATOM     13  C   UNL     1      24.127  19.196  57.080  1.00  0.00     0.027 C 
BRANCH  13  14
ATOM     14  C   UNL     1      23.273  18.736  55.887  1.00  0.00     0.004 C 
BRANCH  14  15
ATOM     15  C   UNL     1      24.013  18.778  54.534  1.00  0.00     0.000 C 
BRANCH  15  16
ATOM     16  C   UNL     1      23.218  19.388  53.363  1.00  0.00     0.000 C 
BRANCH  16  17
ATOM     17  C   UNL     1      23.247  20.925  53.284  1.00  0.00    -0.000 C 
BRANCH  17  18
ATOM     18  C   UNL     1      24.149  21.561  54.354  1.00  0.00    -0.000 C 
BRANCH  18  19
ATOM     19  C   UNL     1      25.452  22.125  53.767  1.00  0.00    -0.003 C 
ATOM     20  C   UNL     1      26.612  22.085  54.762  1.00  0.00     0.004 C 
ENDBRANCH  18  19
ENDBRANCH  17  18
ENDBRANCH  16  17
ENDBRANCH  15  16
ENDBRANCH  14  15
ENDBRANCH  13  14
ENDBRANCH   2  13
TORSDOF 15
ENDMDL
MODEL 6
REMARK VINA RESULT:    -2.061      2.574      6.863
REMARK INTER + INTRA:          -5.811
REMARK INTER:                  -4.580
REMARK INTRA:                  -1.232
REMARK UNBOUND:                -1.942
REMARK SMILES CCCCCCCCC=CCCCCCCCC(=O)[O-]
REMARK SMILES IDX 10 1 9 2 11 3 12 4 13 5 14 6 15 7 16 8 17 9 18 10 19 11
REMARK SMILES IDX 20 12 8 13 7 14 6 15 5 16 4 17 3 18 2 19 1 20
REMARK H PARENT
REMARK Flexibility Score: inf
ROOT
ATOM      1  C   UNL     1      27.260  21.842  55.461  1.00  0.00    -0.031 C 
ATOM      2  C   UNL     1      27.764  21.862  56.711  1.00  0.00    -0.031 C 
ENDROOT
BRANCH   1   3
ATOM      3  C   UNL     1      25.810  22.043  55.089  1.00  0.00     0.027 C 
BRANCH   3   4
ATOM      4  C   UNL     1      25.525  21.632  53.637  1.00  0.00     0.004 C 
BRANCH   4   5
ATOM      5  C   UNL     1      24.141  22.092  53.154  1.00  0.00     0.000 C 
BRANCH   5   6
ATOM      6  C   UNL     1      23.030  21.084  53.494  1.00  0.00     0.000 C 
BRANCH   6   7
ATOM      7  C   UNL     1      23.431  19.632  53.189  1.00  0.00     0.000 C 
BRANCH   7   8
ATOM      8  C   UNL     1      22.917  18.682  54.278  1.00  0.00     0.006 C 
BRANCH   8   9
ATOM      9  C   UNL     1      22.902  19.369  55.646  1.00  0.00     0.053 C 
BRANCH   9  10
ATOM     10  C   UNL     1      23.525  18.486  56.681  1.00  0.00     0.041 C 
ATOM     11  O   UNL     1      23.491  18.814  57.896  1.00  0.00    -0.550 OA
ATOM     12  O   UNL     1      24.183  17.323  56.299  1.00  0.00    -0.550 OA
ENDBRANCH   9  10
ENDBRANCH   8   9
ENDBRANCH   7   8
ENDBRANCH   6   7
ENDBRANCH   5   6
ENDBRANCH   4   5
ENDBRANCH   3   4
ENDBRANCH   1   3
BRANCH   2  13
ATOM     13  C   UNL     1      26.985  22.125  57.979  1.00  0.00     0.027 C 
BRANCH  13  14
ATOM     14  C   UNL     1      26.569  20.819  58.676  1.00  0.00     0.004 C 
BRANCH  14  15
ATOM     15  C   UNL     1      27.017  20.726  60.148  1.00  0.00     0.000 C 
BRANCH  15  16
ATOM     16  C   UNL     1      26.944  22.042  60.948  1.00  0.00     0.000 C 
BRANCH  16  17
ATOM     17  C   UNL     1      26.513  21.890  62.418  1.00  0.00    -0.000 C 
BRANCH  17  18
ATOM     18  C   UNL     1      25.344  20.908  62.599  1.00  0.00    -0.000 C 
BRANCH  18  19
ATOM     19  C   UNL     1      25.233  20.383  64.039  1.00  0.00    -0.003 C 
ATOM     20  C   UNL     1      25.889  19.013  64.219  1.00  0.00     0.004 C 
ENDBRANCH  18  19
ENDBRANCH  17  18
ENDBRANCH  16  17
ENDBRANCH  15  16
ENDBRANCH  14  15
ENDBRANCH  13  14
ENDBRANCH   2  13
TORSDOF 15
ENDMDL
MODEL 7
REMARK VINA RESULT:    -1.870      3.113      7.150
REMARK INTER + INTRA:          -5.452
REMARK INTER:                  -5.253
REMARK INTRA:                  -0.199
REMARK UNBOUND:                -1.942
REMARK SMILES CCCCCCCCC=CCCCCCCCC(=O)[O-]
REMARK SMILES IDX 10 1 9 2 11 3 12 4 13 5 14 6 15 7 16 8 17 9 18 10 19 11
REMARK SMILES IDX 20 12 8 13 7 14 6 15 5 16 4 17 3 18 2 19 1 20
REMARK H PARENT
REMARK Flexibility Score: inf
ROOT
ATOM      1  C   UNL     1      25.397  19.340  57.338  1.00  0.00    -0.031 C 
ATOM      2  C   UNL     1      26.607  19.932  57.375  1.00  0.00    -0.031 C 
ENDROOT
BRANCH   1   3
ATOM      3  C   UNL     1      24.089  19.975  57.749  1.00  0.00     0.027 C 
BRANCH   3   4
ATOM      4  C   UNL     1      22.878  19.170  57.258  1.00  0.00     0.004 C 
BRANCH   4   5
ATOM      5  C   UNL     1      23.259  18.106  56.216  1.00  0.00     0.000 C 
BRANCH   5   6
ATOM      6  C   UNL     1      24.156  18.666  55.100  1.00  0.00     0.000 C 
BRANCH   6   7
ATOM      7  C   UNL     1      23.410  18.844  53.769  1.00  0.00     0.000 C 
BRANCH   7   8
ATOM      8  C   UNL     1      22.875  20.274  53.627  1.00  0.00     0.006 C 
BRANCH   8   9
ATOM      9  C   UNL     1      23.988  21.239  53.208  1.00  0.00     0.053 C 
BRANCH   9  10
ATOM     10  C   UNL     1      24.729  21.736  54.410  1.00  0.00     0.041 C 
ATOM     11  O   UNL     1      24.097  22.124  55.427  1.00  0.00    -0.550 OA
ATOM     12  O   UNL     1      26.116  21.814  54.388  1.00  0.00    -0.550 OA
ENDBRANCH   9  10
ENDBRANCH   8   9
ENDBRANCH   7   8
ENDBRANCH   6   7
ENDBRANCH   5   6
ENDBRANCH   4   5
ENDBRANCH   3   4
ENDBRANCH   1   3
BRANCH   2  13
ATOM     13  C   UNL     1      26.888  21.355  57.799  1.00  0.00     0.027 C 
BRANCH  13  14
ATOM     14  C   UNL     1      27.695  21.414  59.107  1.00  0.00     0.004 C 
BRANCH  14  15
ATOM     15  C   UNL     1      26.963  22.124  60.263  1.00  0.00     0.000 C 
BRANCH  15  16
ATOM     16  C   UNL     1      26.802  21.296  61.553  1.00  0.00     0.000 C 
BRANCH  16  17
ATOM     17  C   UNL     1      25.347  21.051  61.994  1.00  0.00    -0.000 C 
BRANCH  17  18
ATOM     18  C   UNL     1      25.157  21.164  63.516  1.00  0.00    -0.000 C 
BRANCH  18  19
ATOM     19  C   UNL     1      26.125  20.266  64.299  1.00  0.00    -0.003 C 
ATOM     20  C   UNL     1      25.873  18.777  64.060  1.00  0.00     0.004 C 
ENDBRANCH  18  19
ENDBRANCH  17  18
ENDBRANCH  16  17
ENDBRANCH  15  16
ENDBRANCH  14  15
ENDBRANCH  13  14
ENDBRANCH   2  13
TORSDOF 15
ENDMDL
