MODEL 1
REMARK VINA RESULT:    -4.001      0.000      0.000
REMARK INTER + INTRA:         -12.565
REMARK INTER:                  -8.678
REMARK INTRA:                  -3.886
REMARK UNBOUND:                -3.886
REMARK SMILES CCCCCCCCCCCCCCCCCCCCCC(=O)[O-]
REMARK SMILES IDX 12 1 11 2 10 3 9 4 8 5 7 6 6 7 5 8 4 9 3 10 2 11 1 12 13 13
REMARK SMILES IDX 14 14 15 15 16 16 17 17 18 18 19 19 20 20 21 21 22 22 23 23
REMARK SMILES IDX 24 24
REMARK H PARENT
REMARK Flexibility Score: inf
ROOT
ATOM      1  C   UNL     1      37.293  31.481  22.669  1.00  0.00     0.000 C 
ENDROOT
BRANCH   1   2
ATOM      2  C   UNL     1      37.181  31.135  24.164  1.00  0.00     0.000 C 
BRANCH   2   3
ATOM      3  C   UNL     1      37.554  32.320  25.069  1.00  0.00     0.000 C 
BRANCH   3   4
ATOM      4  C   UNL     1      36.435  32.677  26.063  1.00  0.00    -0.000 C 
BRANCH   4   5
ATOM      5  C   UNL     1      35.046  32.240  25.570  1.00  0.00    -0.000 C 
BRANCH   5   6
ATOM      6  C   UNL     1      34.093  33.430  25.360  1.00  0.00    -0.000 C 
BRANCH   6   7
ATOM      7  C   UNL     1      34.752  34.581  24.585  1.00  0.00    -0.000 C 
BRANCH   7   8
ATOM      8  C   UNL     1      34.874  35.864  25.425  1.00  0.00    -0.000 C 
BRANCH   8   9
ATOM      9  C   UNL     1      36.311  36.405  25.474  1.00  0.00    -0.000 C 
BRANCH   9  10
ATOM     10  C   UNL     1      36.828  36.572  26.914  1.00  0.00    -0.000 C 
BRANCH  10  11
ATOM     11  C   UNL     1      35.917  35.894  27.950  1.00  0.00    -0.003 C 
ATOM     12  C   UNL     1      36.688  34.999  28.919  1.00  0.00     0.004 C 
ENDBRANCH  10  11
ENDBRANCH   9  10
ENDBRANCH   8   9
ENDBRANCH   7   8
ENDBRANCH   6   7
ENDBRANCH   5   6
ENDBRANCH   4   5
ENDBRANCH   3   4
ENDBRANCH   2   3
ENDBRANCH   1   2
BRANCH   1  13
ATOM     13  C   UNL     1      37.298  32.997  22.412  1.00  0.00     0.000 C 
BRANCH  13  14
ATOM     14  C   UNL     1      36.089  33.453  21.580  1.00  0.00     0.000 C 
BRANCH  14  15
ATOM     15  C   UNL     1      35.122  32.303  21.256  1.00  0.00     0.000 C 
BRANCH  15  16
ATOM     16  C   UNL     1      33.652  32.673  21.506  1.00  0.00     0.000 C 
BRANCH  16  17
ATOM     17  C   UNL     1      32.906  31.526  22.204  1.00  0.00     0.000 C 
BRANCH  17  18
ATOM     18  C   UNL     1      33.830  30.355  22.575  1.00  0.00     0.000 C 
BRANCH  18  19
ATOM     19  C   UNL     1      33.225  28.986  22.222  1.00  0.00     0.000 C 
BRANCH  19  20
ATOM     20  C   UNL     1      32.375  29.069  20.948  1.00  0.00     0.006 C 
BRANCH  20  21
ATOM     21  C   UNL     1      33.180  28.628  19.722  1.00  0.00     0.053 C 
BRANCH  21  22
ATOM     22  C   UNL     1      33.462  29.794  18.829  1.00  0.00     0.041 C 
ATOM     23  O   UNL     1      32.513  30.441  18.314  1.00  0.00    -0.550 OA
ATOM     24  O   UNL     1      34.776  30.146  18.536  1.00  0.00    -0.550 OA
ENDBRANCH  21  22
ENDBRANCH  20  21
ENDBRANCH  19  20
ENDBRANCH  18  19
ENDBRANCH  17  18
ENDBRANCH  16  17
ENDBRANCH  15  16
ENDBRANCH  14  15
ENDBRANCH  13  14
ENDBRANCH   1  13
TORSDOF 20
ENDMDL
MODEL 2
REMARK VINA RESULT:    -3.963      3.613      6.901
REMARK INTER + INTRA:         -12.482
REMARK INTER:                  -8.816
REMARK INTRA:                  -3.666
REMARK UNBOUND:                -3.886
REMARK SMILES CCCCCCCCCCCCCCCCCCCCCC(=O)[O-]
REMARK SMILES IDX 12 1 11 2 10 3 9 4 8 5 7 6 6 7 5 8 4 9 3 10 2 11 1 12 13 13
REMARK SMILES IDX 14 14 15 15 16 16 17 17 18 18 19 19 20 20 21 21 22 22 23 23
REMARK SMILES IDX 24 24
REMARK H PARENT
REMARK Flexibility Score: inf
ROOT
ATOM      1  C   UNL     1      35.378  30.804  19.238  1.00  0.00     0.000 C 
ENDROOT
BRANCH   1   2
ATOM      2  C   UNL     1      34.323  30.041  18.417  1.00  0.00     0.000 C 
BRANCH   2   3
ATOM      3  C   UNL     1      32.960  29.985  19.126  1.00  0.00     0.000 C 
BRANCH   3   4
ATOM      4  C   UNL     1      32.863  28.816  20.122  1.00  0.00    -0.000 C 
BRANCH   4   5
ATOM      5  C   UNL     1      32.463  29.274  21.533  1.00  0.00    -0.000 C 
BRANCH   5   6
ATOM      6  C   UNL     1      33.676  29.441  22.466  1.00  0.00    -0.000 C 
BRANCH   6   7
ATOM      7  C   UNL     1      33.979  30.915  22.776  1.00  0.00    -0.000 C 
BRANCH   7   8
ATOM      8  C   UNL     1      32.867  31.860  22.289  1.00  0.00    -0.000 C 
BRANCH   8   9
ATOM      9  C   UNL     1      33.418  33.157  21.679  1.00  0.00    -0.000 C 
BRANCH   9  10
ATOM     10  C   UNL     1      34.932  33.318  21.906  1.00  0.00    -0.000 C 
BRANCH  10  11
ATOM     11  C   UNL     1      35.289  34.657  22.570  1.00  0.00    -0.003 C 
ATOM     12  C   UNL     1      34.177  35.183  23.476  1.00  0.00     0.004 C 
ENDBRANCH  10  11
ENDBRANCH   9  10
ENDBRANCH   8   9
ENDBRANCH   7   8
ENDBRANCH   6   7
ENDBRANCH   5   6
ENDBRANCH   4   5
ENDBRANCH   3   4
ENDBRANCH   2   3
ENDBRANCH   1   2
BRANCH   1  13
ATOM     13  C   UNL     1      36.486  29.885  19.776  1.00  0.00     0.000 C 
BRANCH  13  14
ATOM     14  C   UNL     1      37.132  30.435  21.058  1.00  0.00     0.000 C 
BRANCH  14  15
ATOM     15  C   UNL     1      37.720  29.329  21.949  1.00  0.00     0.000 C 
BRANCH  15  16
ATOM     16  C   UNL     1      37.948  29.790  23.396  1.00  0.00     0.000 C 
BRANCH  16  17
ATOM     17  C   UNL     1      37.422  31.217  23.610  1.00  0.00     0.000 C 
BRANCH  17  18
ATOM     18  C   UNL     1      37.308  31.593  25.096  1.00  0.00     0.000 C 
BRANCH  18  19
ATOM     19  C   UNL     1      36.123  32.529  25.383  1.00  0.00     0.000 C 
BRANCH  19  20
ATOM     20  C   UNL     1      36.241  33.159  26.776  1.00  0.00     0.006 C 
BRANCH  20  21
ATOM     21  C   UNL     1      35.926  34.657  26.729  1.00  0.00     0.053 C 
BRANCH  21  22
ATOM     22  C   UNL     1      36.095  35.274  28.080  1.00  0.00     0.041 C 
ATOM     23  O   UNL     1      37.089  34.976  28.793  1.00  0.00    -0.550 OA
ATOM     24  O   UNL     1      35.136  36.155  28.570  1.00  0.00    -0.550 OA
ENDBRANCH  21  22
ENDBRANCH  20  21
ENDBRANCH  19  20
ENDBRANCH  18  19
ENDBRANCH  17  18
ENDBRANCH  16  17
ENDBRANCH  15  16
ENDBRANCH  14  15
ENDBRANCH  13  14
ENDBRANCH   1  13
TORSDOF 20
ENDMDL
MODEL 3
REMARK VINA RESULT:    -3.897      2.136      4.700
REMARK INTER + INTRA:         -12.340
REMARK INTER:                  -8.653
REMARK INTRA:                  -3.687
REMARK UNBOUND:                -3.886
REMARK SMILES CCCCCCCCCCCCCCCCCCCCCC(=O)[O-]
REMARK SMILES IDX 12 1 11 2 10 3 9 4 8 5 7 6 6 7 5 8 4 9 3 10 2 11 1 12 13 13
REMARK SMILES IDX 14 14 15 15 16 16 17 17 18 18 19 19 20 20 21 21 22 22 23 23
REMARK SMILES IDX 24 24
REMARK H PARENT
REMARK Flexibility Score: inf
ROOT
ATOM      1  C   UNL     1      38.360  35.821  25.830  1.00  0.00     0.000 C 
ENDROOT
BRANCH   1   2
ATOM      2  C   UNL     1      36.889  35.707  25.393  1.00  0.00     0.000 C 
BRANCH   2   3
ATOM      3  C   UNL     1      35.961  36.612  26.220  1.00  0.00     0.000 C 
BRANCH   3   4
ATOM      4  C   UNL     1      35.149  35.824  27.262  1.00  0.00    -0.000 C 
BRANCH   4   5
ATOM      5  C   UNL     1      35.198  36.467  28.658  1.00  0.00    -0.000 C 
BRANCH   5   6
ATOM      6  C   UNL     1      35.991  35.622  29.670  1.00  0.00    -0.000 C 
BRANCH   6   7
ATOM      7  C   UNL     1      37.510  35.757  29.485  1.00  0.00    -0.000 C 
BRANCH   7   8
ATOM      8  C   UNL     1      37.963  37.224  29.386  1.00  0.00    -0.000 C 
BRANCH   8   9
ATOM      9  C   UNL     1      39.463  37.361  29.082  1.00  0.00    -0.000 C 
BRANCH   9  10
ATOM     10  C   UNL     1      39.753  38.437  28.020  1.00  0.00    -0.000 C 
BRANCH  10  11
ATOM     11  C   UNL     1      38.598  39.439  27.866  1.00  0.00    -0.003 C 
ATOM     12  C   UNL     1      38.125  39.577  26.419  1.00  0.00     0.004 C 
ENDBRANCH  10  11
ENDBRANCH   9  10
ENDBRANCH   8   9
ENDBRANCH   7   8
ENDBRANCH   6   7
ENDBRANCH   5   6
ENDBRANCH   4   5
ENDBRANCH   3   4
ENDBRANCH   2   3
ENDBRANCH   1   2
BRANCH   1  13
ATOM     13  C   UNL     1      38.940  34.480  26.308  1.00  0.00     0.000 C 
BRANCH  13  14
ATOM     14  C   UNL     1      37.844  33.461  26.659  1.00  0.00     0.000 C 
BRANCH  14  15
ATOM     15  C   UNL     1      37.841  32.244  25.719  1.00  0.00     0.000 C 
BRANCH  15  16
ATOM     16  C   UNL     1      36.479  32.015  25.047  1.00  0.00     0.000 C 
BRANCH  16  17
ATOM     17  C   UNL     1      35.328  32.400  25.988  1.00  0.00     0.000 C 
BRANCH  17  18
ATOM     18  C   UNL     1      33.993  32.585  25.250  1.00  0.00     0.000 C 
BRANCH  18  19
ATOM     19  C   UNL     1      34.024  33.752  24.249  1.00  0.00     0.000 C 
BRANCH  19  20
ATOM     20  C   UNL     1      33.999  33.240  22.803  1.00  0.00     0.006 C 
BRANCH  20  21
ATOM     21  C   UNL     1      32.951  32.136  22.630  1.00  0.00     0.053 C 
BRANCH  21  22
ATOM     22  C   UNL     1      33.565  30.919  22.015  1.00  0.00     0.041 C 
ATOM     23  O   UNL     1      34.021  30.001  22.746  1.00  0.00    -0.550 OA
ATOM     24  O   UNL     1      33.666  30.811  20.632  1.00  0.00    -0.550 OA
ENDBRANCH  21  22
ENDBRANCH  20  21
ENDBRANCH  19  20
ENDBRANCH  18  19
ENDBRANCH  17  18
ENDBRANCH  16  17
ENDBRANCH  15  16
ENDBRANCH  14  15
ENDBRANCH  13  14
ENDBRANCH   1  13
TORSDOF 20
ENDMDL
MODEL 4
REMARK VINA RESULT:    -3.878      1.558      3.420
REMARK INTER + INTRA:         -12.298
REMARK INTER:                  -8.550
REMARK INTRA:                  -3.747
REMARK UNBOUND:                -3.886
REMARK SMILES CCCCCCCCCCCCCCCCCCCCCC(=O)[O-]
REMARK SMILES IDX 12 1 11 2 10 3 9 4 8 5 7 6 6 7 5 8 4 9 3 10 2 11 1 12 13 13
REMARK SMILES IDX 14 14 15 15 16 16 17 17 18 18 19 19 20 20 21 21 22 22 23 23
REMARK SMILES IDX 24 24
REMARK H PARENT
REMARK Flexibility Score: inf
ROOT
ATOM      1  C   UNL     1      33.396  29.997  22.001  1.00  0.00     0.000 C 
ENDROOT
BRANCH   1   2
ATOM      2  C   UNL     1      34.532  30.164  23.025  1.00  0.00     0.000 C 
BRANCH   2   3
ATOM      3  C   UNL     1      35.923  30.084  22.374  1.00  0.00     0.000 C 
BRANCH   3   4
ATOM      4  C   UNL     1      37.041  30.566  23.315  1.00  0.00    -0.000 C 
BRANCH   4   5
ATOM      5  C   UNL     1      37.433  32.030  23.065  1.00  0.00    -0.000 C 
BRANCH   5   6
ATOM      6  C   UNL     1      36.932  32.974  24.174  1.00  0.00    -0.000 C 
BRANCH   6   7
ATOM      7  C   UNL     1      36.615  32.228  25.479  1.00  0.00    -0.000 C 
BRANCH   7   8
ATOM      8  C   UNL     1      35.145  32.385  25.905  1.00  0.00    -0.000 C 
BRANCH   8   9
ATOM      9  C   UNL     1      34.542  33.728  25.466  1.00  0.00    -0.000 C 
BRANCH   9  10
ATOM     10  C   UNL     1      34.955  34.888  26.390  1.00  0.00    -0.000 C 
BRANCH  10  11
ATOM     11  C   UNL     1      35.171  36.203  25.622  1.00  0.00    -0.003 C 
ATOM     12  C   UNL     1      34.745  36.109  24.158  1.00  0.00     0.004 C 
ENDBRANCH  10  11
ENDBRANCH   9  10
ENDBRANCH   8   9
ENDBRANCH   7   8
ENDBRANCH   6   7
ENDBRANCH   5   6
ENDBRANCH   4   5
ENDBRANCH   3   4
ENDBRANCH   2   3
ENDBRANCH   1   2
BRANCH   1  13
ATOM     13  C   UNL     1      32.499  31.241  21.906  1.00  0.00     0.000 C 
BRANCH  13  14
ATOM     14  C   UNL     1      33.205  32.511  22.409  1.00  0.00     0.000 C 
BRANCH  14  15
ATOM     15  C   UNL     1      33.546  33.490  21.274  1.00  0.00     0.000 C 
BRANCH  15  16
ATOM     16  C   UNL     1      35.027  33.439  20.868  1.00  0.00     0.000 C 
BRANCH  16  17
ATOM     17  C   UNL     1      35.179  33.072  19.385  1.00  0.00     0.000 C 
BRANCH  17  18
ATOM     18  C   UNL     1      34.821  31.606  19.096  1.00  0.00     0.000 C 
BRANCH  18  19
ATOM     19  C   UNL     1      33.618  31.463  18.149  1.00  0.00     0.000 C 
BRANCH  19  20
ATOM     20  C   UNL     1      32.944  30.095  18.313  1.00  0.00     0.006 C 
BRANCH  20  21
ATOM     21  C   UNL     1      33.972  29.018  18.674  1.00  0.00     0.053 C 
BRANCH  21  22
ATOM     22  C   UNL     1      33.831  27.832  17.774  1.00  0.00     0.041 C 
ATOM     23  O   UNL     1      32.718  27.564  17.249  1.00  0.00    -0.550 OA
ATOM     24  O   UNL     1      34.921  27.000  17.540  1.00  0.00    -0.550 OA
ENDBRANCH  21  22
ENDBRANCH  20  21
ENDBRANCH  19  20
ENDBRANCH  18  19
ENDBRANCH  17  18
ENDBRANCH  16  17
ENDBRANCH  15  16
ENDBRANCH  14  15
ENDBRANCH  13  14
ENDBRANCH   1  13
TORSDOF 20
ENDMDL
MODEL 5
REMARK VINA RESULT:    -3.869      1.251      2.508
REMARK INTER + INTRA:         -12.279
REMARK INTER:                  -9.147
REMARK INTRA:                  -3.133
REMARK UNBOUND:                -3.886
REMARK SMILES CCCCCCCCCCCCCCCCCCCCCC(=O)[O-]
REMARK SMILES IDX 12 1 11 2 10 3 9 4 8 5 7 6 6 7 5 8 4 9 3 10 2 11 1 12 13 13
REMARK SMILES IDX 14 14 15 15 16 16 17 17 18 18 19 19 20 20 21 21 22 22 23 23
REMARK SMILES IDX 24 24
REMARK H PARENT
REMARK Flexibility Score: inf
ROOT
ATOM      1  C   UNL     1      36.586  32.808  25.098  1.00  0.00     0.000 C 
ENDROOT
BRANCH   1   2
ATOM      2  C   UNL     1      35.192  32.447  25.642  1.00  0.00     0.000 C 
BRANCH   2   3
ATOM      3  C   UNL     1      34.060  33.056  24.799  1.00  0.00     0.000 C 
BRANCH   3   4
ATOM      4  C   UNL     1      34.588  33.867  23.603  1.00  0.00    -0.000 C 
BRANCH   4   5
ATOM      5  C   UNL     1      34.356  35.378  23.765  1.00  0.00    -0.000 C 
BRANCH   5   6
ATOM      6  C   UNL     1      35.647  36.196  23.583  1.00  0.00    -0.000 C 
BRANCH   6   7
ATOM      7  C   UNL     1      36.417  36.376  24.900  1.00  0.00    -0.000 C 
BRANCH   7   8
ATOM      8  C   UNL     1      35.486  36.639  26.097  1.00  0.00    -0.000 C 
BRANCH   8   9
ATOM      9  C   UNL     1      35.755  35.691  27.275  1.00  0.00    -0.000 C 
BRANCH   9  10
ATOM     10  C   UNL     1      35.145  36.202  28.593  1.00  0.00    -0.000 C 
BRANCH  10  11
ATOM     11  C   UNL     1      36.210  36.484  29.665  1.00  0.00    -0.003 C 
ATOM     12  C   UNL     1      37.108  37.668  29.309  1.00  0.00     0.004 C 
ENDBRANCH  10  11
ENDBRANCH   9  10
ENDBRANCH   8   9
ENDBRANCH   7   8
ENDBRANCH   6   7
ENDBRANCH   5   6
ENDBRANCH   4   5
ENDBRANCH   3   4
ENDBRANCH   2   3
ENDBRANCH   1   2
BRANCH   1  13
ATOM     13  C   UNL     1      37.575  31.634  25.181  1.00  0.00     0.000 C 
BRANCH  13  14
ATOM     14  C   UNL     1      37.533  30.744  23.927  1.00  0.00     0.000 C 
BRANCH  14  15
ATOM     15  C   UNL     1      37.344  31.550  22.633  1.00  0.00     0.000 C 
BRANCH  15  16
ATOM     16  C   UNL     1      36.167  31.046  21.784  1.00  0.00     0.000 C 
BRANCH  16  17
ATOM     17  C   UNL     1      35.248  30.130  22.606  1.00  0.00     0.000 C 
BRANCH  17  18
ATOM     18  C   UNL     1      33.759  30.350  22.296  1.00  0.00     0.000 C 
BRANCH  18  19
ATOM     19  C   UNL     1      32.988  29.031  22.120  1.00  0.00     0.000 C 
BRANCH  19  20
ATOM     20  C   UNL     1      32.271  28.987  20.765  1.00  0.00     0.006 C 
BRANCH  20  21
ATOM     21  C   UNL     1      32.879  29.998  19.788  1.00  0.00     0.053 C 
BRANCH  21  22
ATOM     22  C   UNL     1      33.759  29.308  18.795  1.00  0.00     0.041 C 
ATOM     23  O   UNL     1      33.364  29.133  17.613  1.00  0.00    -0.550 OA
ATOM     24  O   UNL     1      35.005  28.827  19.184  1.00  0.00    -0.550 OA
ENDBRANCH  21  22
ENDBRANCH  20  21
ENDBRANCH  19  20
ENDBRANCH  18  19
ENDBRANCH  17  18
ENDBRANCH  16  17
ENDBRANCH  15  16
ENDBRANCH  14  15
ENDBRANCH  13  14
ENDBRANCH   1  13
TORSDOF 20
ENDMDL
MODEL 6
REMARK VINA RESULT:    -3.865      3.929      7.980
REMARK INTER + INTRA:         -12.270
REMARK INTER:                  -8.618
REMARK INTRA:                  -3.651
REMARK UNBOUND:                -3.886
REMARK SMILES CCCCCCCCCCCCCCCCCCCCCC(=O)[O-]
REMARK SMILES IDX 12 1 11 2 10 3 9 4 8 5 7 6 6 7 5 8 4 9 3 10 2 11 1 12 13 13
REMARK SMILES IDX 14 14 15 15 16 16 17 17 18 18 19 19 20 20 21 21 22 22 23 23
REMARK SMILES IDX 24 24
REMARK H PARENT
REMARK Flexibility Score: inf
ROOT
ATOM      1  C   UNL     1      35.440  33.562  21.057  1.00  0.00     0.000 C 
ENDROOT
BRANCH   1   2
ATOM      2  C   UNL     1      35.930  32.602  19.958  1.00  0.00     0.000 C 
BRANCH   2   3
ATOM      3  C   UNL     1      36.619  31.355  20.534  1.00  0.00     0.000 C 
BRANCH   3   4
ATOM      4  C   UNL     1      36.981  31.518  22.021  1.00  0.00    -0.000 C 
BRANCH   4   5
ATOM      5  C   UNL     1      36.304  30.465  22.913  1.00  0.00    -0.000 C 
BRANCH   5   6
ATOM      6  C   UNL     1      35.130  29.761  22.209  1.00  0.00    -0.000 C 
BRANCH   6   7
ATOM      7  C   UNL     1      33.765  30.297  22.667  1.00  0.00    -0.000 C 
BRANCH   7   8
ATOM      8  C   UNL     1      32.672  30.116  21.599  1.00  0.00    -0.000 C 
BRANCH   8   9
ATOM      9  C   UNL     1      32.754  28.753  20.894  1.00  0.00    -0.000 C 
BRANCH   9  10
ATOM     10  C   UNL     1      33.047  28.885  19.389  1.00  0.00    -0.000 C 
BRANCH  10  11
ATOM     11  C   UNL     1      33.074  30.348  18.920  1.00  0.00    -0.003 C 
ATOM     12  C   UNL     1      33.883  30.544  17.639  1.00  0.00     0.004 C 
ENDBRANCH  10  11
ENDBRANCH   9  10
ENDBRANCH   8   9
ENDBRANCH   7   8
ENDBRANCH   6   7
ENDBRANCH   5   6
ENDBRANCH   4   5
ENDBRANCH   3   4
ENDBRANCH   2   3
ENDBRANCH   1   2
BRANCH   1  13
ATOM     13  C   UNL     1      33.909  33.696  21.085  1.00  0.00     0.000 C 
BRANCH  13  14
ATOM     14  C   UNL     1      33.367  33.917  22.507  1.00  0.00     0.000 C 
BRANCH  14  15
ATOM     15  C   UNL     1      34.447  33.749  23.587  1.00  0.00     0.000 C 
BRANCH  15  16
ATOM     16  C   UNL     1      33.865  33.361  24.955  1.00  0.00     0.000 C 
BRANCH  16  17
ATOM     17  C   UNL     1      34.725  32.285  25.635  1.00  0.00     0.000 C 
BRANCH  17  18
ATOM     18  C   UNL     1      36.202  32.692  25.755  1.00  0.00     0.000 C 
BRANCH  18  19
ATOM     19  C   UNL     1      36.517  33.400  27.083  1.00  0.00     0.000 C 
BRANCH  19  20
ATOM     20  C   UNL     1      36.606  34.919  26.892  1.00  0.00     0.006 C 
BRANCH  20  21
ATOM     21  C   UNL     1      35.667  35.650  27.857  1.00  0.00     0.053 C 
BRANCH  21  22
ATOM     22  C   UNL     1      36.433  36.215  29.011  1.00  0.00     0.041 C 
ATOM     23  O   UNL     1      37.143  35.464  29.729  1.00  0.00    -0.550 OA
ATOM     24  O   UNL     1      36.336  37.569  29.316  1.00  0.00    -0.550 OA
ENDBRANCH  21  22
ENDBRANCH  20  21
ENDBRANCH  19  20
ENDBRANCH  18  19
ENDBRANCH  17  18
ENDBRANCH  16  17
ENDBRANCH  15  16
ENDBRANCH  14  15
ENDBRANCH  13  14
ENDBRANCH   1  13
TORSDOF 20
ENDMDL
MODEL 7
REMARK VINA RESULT:    -3.846      4.248      7.981
REMARK INTER + INTRA:         -12.229
REMARK INTER:                  -8.362
REMARK INTRA:                  -3.867
REMARK UNBOUND:                -3.886
REMARK SMILES CCCCCCCCCCCCCCCCCCCCCC(=O)[O-]
REMARK SMILES IDX 12 1 11 2 10 3 9 4 8 5 7 6 6 7 5 8 4 9 3 10 2 11 1 12 13 13
REMARK SMILES IDX 14 14 15 15 16 16 17 17 18 18 19 19 20 20 21 21 22 22 23 23
REMARK SMILES IDX 24 24
REMARK H PARENT
REMARK Flexibility Score: inf
ROOT
ATOM      1  C   UNL     1      35.066  32.137  25.918  1.00  0.00     0.000 C 
ENDROOT
BRANCH   1   2
ATOM      2  C   UNL     1      36.264  32.755  26.661  1.00  0.00     0.000 C 
BRANCH   2   3
ATOM      3  C   UNL     1      37.535  32.786  25.796  1.00  0.00     0.000 C 
BRANCH   3   4
ATOM      4  C   UNL     1      37.555  31.667  24.741  1.00  0.00    -0.000 C 
BRANCH   4   5
ATOM      5  C   UNL     1      37.615  32.210  23.305  1.00  0.00    -0.000 C 
BRANCH   5   6
ATOM      6  C   UNL     1      36.635  31.492  22.360  1.00  0.00    -0.000 C 
BRANCH   6   7
ATOM      7  C   UNL     1      36.043  30.220  22.986  1.00  0.00    -0.000 C 
BRANCH   7   8
ATOM      8  C   UNL     1      34.514  30.142  22.828  1.00  0.00    -0.000 C 
BRANCH   8   9
ATOM      9  C   UNL     1      34.067  30.203  21.360  1.00  0.00    -0.000 C 
BRANCH   9  10
ATOM     10  C   UNL     1      33.238  31.462  21.048  1.00  0.00    -0.000 C 
BRANCH  10  11
ATOM     11  C   UNL     1      33.861  32.317  19.933  1.00  0.00    -0.003 C 
ATOM     12  C   UNL     1      33.944  33.798  20.299  1.00  0.00     0.004 C 
ENDBRANCH  10  11
ENDBRANCH   9  10
ENDBRANCH   8   9
ENDBRANCH   7   8
ENDBRANCH   6   7
ENDBRANCH   5   6
ENDBRANCH   4   5
ENDBRANCH   3   4
ENDBRANCH   2   3
ENDBRANCH   1   2
BRANCH   1  13
ATOM     13  C   UNL     1      33.980  33.173  25.585  1.00  0.00     0.000 C 
BRANCH  13  14
ATOM     14  C   UNL     1      33.963  33.542  24.092  1.00  0.00     0.000 C 
BRANCH  14  15
ATOM     15  C   UNL     1      34.915  34.700  23.756  1.00  0.00     0.000 C 
BRANCH  15  16
ATOM     16  C   UNL     1      34.677  35.940  24.631  1.00  0.00     0.000 C 
BRANCH  16  17
ATOM     17  C   UNL     1      36.004  36.627  24.985  1.00  0.00     0.000 C 
BRANCH  17  18
ATOM     18  C   UNL     1      36.469  36.319  26.417  1.00  0.00     0.000 C 
BRANCH  18  19
ATOM     19  C   UNL     1      35.298  36.138  27.397  1.00  0.00     0.000 C 
BRANCH  19  20
ATOM     20  C   UNL     1      35.796  36.062  28.845  1.00  0.00     0.006 C 
BRANCH  20  21
ATOM     21  C   UNL     1      37.263  35.625  28.899  1.00  0.00     0.053 C 
BRANCH  21  22
ATOM     22  C   UNL     1      38.131  36.747  29.373  1.00  0.00     0.041 C 
ATOM     23  O   UNL     1      39.368  36.570  29.526  1.00  0.00    -0.550 OA
ATOM     24  O   UNL     1      37.569  37.981  29.681  1.00  0.00    -0.550 OA
ENDBRANCH  21  22
ENDBRANCH  20  21
ENDBRANCH  19  20
ENDBRANCH  18  19
ENDBRANCH  17  18
ENDBRANCH  16  17
ENDBRANCH  15  16
ENDBRANCH  14  15
ENDBRANCH  13  14
ENDBRANCH   1  13
TORSDOF 20
ENDMDL
MODEL 8
REMARK VINA RESULT:    -3.831      2.194      4.716
REMARK INTER + INTRA:         -12.197
REMARK INTER:                  -8.915
REMARK INTRA:                  -3.282
REMARK UNBOUND:                -3.886
REMARK SMILES CCCCCCCCCCCCCCCCCCCCCC(=O)[O-]
REMARK SMILES IDX 12 1 11 2 10 3 9 4 8 5 7 6 6 7 5 8 4 9 3 10 2 11 1 12 13 13
REMARK SMILES IDX 14 14 15 15 16 16 17 17 18 18 19 19 20 20 21 21 22 22 23 23
REMARK SMILES IDX 24 24
REMARK H PARENT
REMARK Flexibility Score: inf
ROOT
ATOM      1  C   UNL     1      39.368  35.343  25.979  1.00  0.00     0.000 C 
ENDROOT
BRANCH   1   2
ATOM      2  C   UNL     1      39.738  36.556  26.852  1.00  0.00     0.000 C 
BRANCH   2   3
ATOM      3  C   UNL     1      40.077  36.155  28.297  1.00  0.00     0.000 C 
BRANCH   3   4
ATOM      4  C   UNL     1      39.280  36.967  29.333  1.00  0.00    -0.000 C 
BRANCH   4   5
ATOM      5  C   UNL     1      38.541  38.161  28.707  1.00  0.00    -0.000 C 
BRANCH   5   6
ATOM      6  C   UNL     1      37.050  38.196  29.085  1.00  0.00    -0.000 C 
BRANCH   6   7
ATOM      7  C   UNL     1      36.574  36.881  29.721  1.00  0.00    -0.000 C 
BRANCH   7   8
ATOM      8  C   UNL     1      35.474  36.191  28.896  1.00  0.00    -0.000 C 
BRANCH   8   9
ATOM      9  C   UNL     1      36.034  35.415  27.695  1.00  0.00    -0.000 C 
BRANCH   9  10
ATOM     10  C   UNL     1      34.964  35.132  26.625  1.00  0.00    -0.000 C 
BRANCH  10  11
ATOM     11  C   UNL     1      35.224  35.895  25.316  1.00  0.00    -0.003 C 
ATOM     12  C   UNL     1      36.130  37.109  25.510  1.00  0.00     0.004 C 
ENDBRANCH  10  11
ENDBRANCH   9  10
ENDBRANCH   8   9
ENDBRANCH   7   8
ENDBRANCH   6   7
ENDBRANCH   5   6
ENDBRANCH   4   5
ENDBRANCH   3   4
ENDBRANCH   2   3
ENDBRANCH   1   2
BRANCH   1  13
ATOM     13  C   UNL     1      39.333  34.030  26.777  1.00  0.00     0.000 C 
BRANCH  13  14
ATOM     14  C   UNL     1      39.080  32.807  25.881  1.00  0.00     0.000 C 
BRANCH  14  15
ATOM     15  C   UNL     1      37.601  32.393  25.844  1.00  0.00     0.000 C 
BRANCH  15  16
ATOM     16  C   UNL     1      36.917  32.742  24.514  1.00  0.00     0.000 C 
BRANCH  16  17
ATOM     17  C   UNL     1      35.878  31.678  24.132  1.00  0.00     0.000 C 
BRANCH  17  18
ATOM     18  C   UNL     1      34.476  31.993  24.680  1.00  0.00     0.000 C 
BRANCH  18  19
ATOM     19  C   UNL     1      33.585  32.712  23.653  1.00  0.00     0.000 C 
BRANCH  19  20
ATOM     20  C   UNL     1      33.743  32.096  22.257  1.00  0.00     0.006 C 
BRANCH  20  21
ATOM     21  C   UNL     1      32.498  31.291  21.869  1.00  0.00     0.053 C 
BRANCH  21  22
ATOM     22  C   UNL     1      32.797  29.826  21.869  1.00  0.00     0.041 C 
ATOM     23  O   UNL     1      33.871  29.398  22.367  1.00  0.00    -0.550 OA
ATOM     24  O   UNL     1      31.903  28.932  21.288  1.00  0.00    -0.550 OA
ENDBRANCH  21  22
ENDBRANCH  20  21
ENDBRANCH  19  20
ENDBRANCH  18  19
ENDBRANCH  17  18
ENDBRANCH  16  17
ENDBRANCH  15  16
ENDBRANCH  14  15
ENDBRANCH  13  14
ENDBRANCH   1  13
TORSDOF 20
ENDMDL
MODEL 9
REMARK VINA RESULT:    -3.814      3.685      7.826
REMARK INTER + INTRA:         -12.159
REMARK INTER:                  -8.574
REMARK INTRA:                  -3.585
REMARK UNBOUND:                -3.886
REMARK SMILES CCCCCCCCCCCCCCCCCCCCCC(=O)[O-]
REMARK SMILES IDX 12 1 11 2 10 3 9 4 8 5 7 6 6 7 5 8 4 9 3 10 2 11 1 12 13 13
REMARK SMILES IDX 14 14 15 15 16 16 17 17 18 18 19 19 20 20 21 21 22 22 23 23
REMARK SMILES IDX 24 24
REMARK H PARENT
REMARK Flexibility Score: inf
ROOT
ATOM      1  C   UNL     1      35.775  32.229  21.129  1.00  0.00     0.000 C 
ENDROOT
BRANCH   1   2
ATOM      2  C   UNL     1      36.344  31.402  22.296  1.00  0.00     0.000 C 
BRANCH   2   3
ATOM      3  C   UNL     1      35.602  30.069  22.484  1.00  0.00     0.000 C 
BRANCH   3   4
ATOM      4  C   UNL     1      34.080  30.257  22.617  1.00  0.00    -0.000 C 
BRANCH   4   5
ATOM      5  C   UNL     1      33.296  28.977  22.289  1.00  0.00    -0.000 C 
BRANCH   5   6
ATOM      6  C   UNL     1      32.289  29.179  21.142  1.00  0.00    -0.000 C 
BRANCH   6   7
ATOM      7  C   UNL     1      32.626  30.402  20.274  1.00  0.00    -0.000 C 
BRANCH   7   8
ATOM      8  C   UNL     1      32.969  30.019  18.825  1.00  0.00    -0.000 C 
BRANCH   8   9
ATOM      9  C   UNL     1      33.372  28.543  18.682  1.00  0.00    -0.000 C 
BRANCH   9  10
ATOM     10  C   UNL     1      34.879  28.320  18.905  1.00  0.00    -0.000 C 
BRANCH  10  11
ATOM     11  C   UNL     1      35.742  29.376  18.194  1.00  0.00    -0.003 C 
ATOM     12  C   UNL     1      37.052  29.659  18.927  1.00  0.00     0.004 C 
ENDBRANCH  10  11
ENDBRANCH   9  10
ENDBRANCH   8   9
ENDBRANCH   7   8
ENDBRANCH   6   7
ENDBRANCH   5   6
ENDBRANCH   4   5
ENDBRANCH   3   4
ENDBRANCH   2   3
ENDBRANCH   1   2
BRANCH   1  13
ATOM     13  C   UNL     1      35.358  33.645  21.558  1.00  0.00     0.000 C 
BRANCH  13  14
ATOM     14  C   UNL     1      33.832  33.828  21.567  1.00  0.00     0.000 C 
BRANCH  14  15
ATOM     15  C   UNL     1      33.229  33.716  22.976  1.00  0.00     0.000 C 
BRANCH  15  16
ATOM     16  C   UNL     1      34.255  33.992  24.086  1.00  0.00     0.000 C 
BRANCH  16  17
ATOM     17  C   UNL     1      34.008  33.086  25.301  1.00  0.00     0.000 C 
BRANCH  17  18
ATOM     18  C   UNL     1      35.285  32.380  25.785  1.00  0.00     0.000 C 
BRANCH  18  19
ATOM     19  C   UNL     1      36.561  33.178  25.470  1.00  0.00     0.000 C 
BRANCH  19  20
ATOM     20  C   UNL     1      37.411  33.380  26.730  1.00  0.00     0.006 C 
BRANCH  20  21
ATOM     21  C   UNL     1      36.583  34.006  27.856  1.00  0.00     0.053 C 
BRANCH  21  22
ATOM     22  C   UNL     1      37.190  35.298  28.302  1.00  0.00     0.041 C 
ATOM     23  O   UNL     1      37.862  35.993  27.497  1.00  0.00    -0.550 OA
ATOM     24  O   UNL     1      37.042  35.720  29.620  1.00  0.00    -0.550 OA
ENDBRANCH  21  22
ENDBRANCH  20  21
ENDBRANCH  19  20
ENDBRANCH  18  19
ENDBRANCH  17  18
ENDBRANCH  16  17
ENDBRANCH  15  16
ENDBRANCH  14  15
ENDBRANCH  13  14
ENDBRANCH   1  13
TORSDOF 20
ENDMDL
