MODEL 1
REMARK VINA RESULT:    34.277      0.000      0.000
REMARK INTER + INTRA:          40.102
REMARK INTER:                  40.288
REMARK INTRA:                  -0.186
REMARK UNBOUND:                -0.186
REMARK SMILES O=c1c(O)c(-c2ccc(O)cc2)oc2cc(O)cc(O)c12
REMARK SMILES IDX 5 1 3 2 2 3 1 4 21 5 19 6 18 7 16 8 15 9 14 10 13 11 6 12
REMARK SMILES IDX 7 13 8 14 9 15 12 16 11 17 10 18 4 20 20 22 17 24
REMARK H PARENT 10 19 4 21 20 23 17 25
REMARK Flexibility Score: inf
ROOT
ATOM      1  C   UNL     1       9.233  67.693   6.745  1.00  0.00     0.180 A 
ATOM      2  C   UNL     1       9.239  68.871   7.517  1.00  0.00     0.208 A 
ATOM      3  C   UNL     1       9.346  70.109   6.865  1.00  0.00     0.238 A 
ATOM      4  O   UNL     1       9.363  71.170   7.547  1.00  0.00    -0.285 OA
ATOM      5  C   UNL     1       9.423  70.152   5.458  1.00  0.00     0.111 A 
ATOM      6  C   UNL     1       9.527  71.359   4.724  1.00  0.00     0.134 A 
ATOM      7  C   UNL     1       9.590  71.317   3.324  1.00  0.00     0.093 A 
ATOM      8  C   UNL     1       9.548  70.095   2.644  1.00  0.00     0.123 A 
ATOM      9  C   UNL     1       9.446  68.903   3.363  1.00  0.00     0.094 A 
ATOM     10  C   UNL     1       9.384  68.922   4.759  1.00  0.00     0.146 A 
ATOM     11  O   UNL     1       9.292  67.772   5.418  1.00  0.00    -0.452 OA
ENDROOT
BRANCH   1  12
ATOM     12  C   UNL     1       9.143  66.349   7.359  1.00  0.00     0.021 A 
ATOM     13  C   UNL     1      10.188  65.832   8.148  1.00  0.00     0.016 A 
ATOM     14  C   UNL     1      10.091  64.551   8.698  1.00  0.00     0.047 A 
ATOM     15  C   UNL     1       8.960  63.765   8.457  1.00  0.00     0.115 A 
ATOM     16  C   UNL     1       8.020  65.546   7.104  1.00  0.00     0.016 A 
ATOM     17  C   UNL     1       7.924  64.265   7.656  1.00  0.00     0.047 A 
BRANCH  15  18
ATOM     18  O   UNL     1       8.876  62.490   9.012  1.00  0.00    -0.508 OA
ATOM     19  H   UNL     1       8.826  62.352  10.015  1.00  0.00     0.293 HD
ENDBRANCH  15  18
ENDBRANCH   1  12
BRANCH   2  20
ATOM     20  O   UNL     1       9.113  68.804   8.907  1.00  0.00    -0.502 OA
ATOM     21  H   UNL     1       8.600  68.065   9.371  1.00  0.00     0.293 HD
ENDBRANCH   2  20
BRANCH   6  22
ATOM     22  O   UNL     1       9.569  72.592   5.374  1.00  0.00    -0.507 OA
ATOM     23  H   UNL     1       8.859  72.867   6.043  1.00  0.00     0.293 HD
ENDBRANCH   6  22
BRANCH   8  24
ATOM     24  O   UNL     1       9.610  70.054   1.253  1.00  0.00    -0.508 OA
ATOM     25  H   UNL     1       9.732  69.181   0.753  1.00  0.00     0.293 HD
ENDBRANCH   8  24
TORSDOF 5
ENDMDL
