MODEL 1
REMARK VINA RESULT:    -5.713      0.000      0.000
REMARK INTER + INTRA:         -12.717
REMARK INTER:                 -10.390
REMARK INTRA:                  -2.328
REMARK UNBOUND:                -2.328
REMARK SMILES CCCCCCCCCCCCCCCC(=O)[O-]
REMARK SMILES IDX 9 1 10 2 11 3 12 4 13 5 14 6 15 7 16 8 17 9 18 10 8 11 7 12
REMARK SMILES IDX 6 13 5 14 4 15 3 16 2 17 1 18
REMARK H PARENT
REMARK Flexibility Score: inf
ROOT
ATOM      1  C   UNL     1     219.639  -6.482  25.070  1.00  0.00     0.000 C 
ENDROOT
BRANCH   1   2
ATOM      2  C   UNL     1     218.317  -6.865  24.381  1.00  0.00     0.000 C 
BRANCH   2   3
ATOM      3  C   UNL     1     217.324  -7.650  25.261  1.00  0.00     0.000 C 
BRANCH   3   4
ATOM      4  C   UNL     1     217.946  -8.788  26.096  1.00  0.00     0.000 C 
BRANCH   4   5
ATOM      5  C   UNL     1     217.310  -9.002  27.481  1.00  0.00     0.000 C 
BRANCH   5   6
ATOM      6  C   UNL     1     218.337  -8.948  28.624  1.00  0.00     0.006 C 
BRANCH   6   7
ATOM      7  C   UNL     1     219.296  -7.757  28.484  1.00  0.00     0.053 C 
BRANCH   7   8
ATOM      8  C   UNL     1     220.706  -8.201  28.242  1.00  0.00     0.041 C 
ATOM      9  O   UNL     1     221.620  -7.349  28.085  1.00  0.00    -0.550 OA
ATOM     10  O   UNL     1     221.005  -9.555  28.159  1.00  0.00    -0.550 OA
ENDBRANCH   7   8
ENDBRANCH   6   7
ENDBRANCH   5   6
ENDBRANCH   4   5
ENDBRANCH   3   4
ENDBRANCH   2   3
ENDBRANCH   1   2
BRANCH   1  11
ATOM     11  C   UNL     1     220.877  -6.867  24.241  1.00  0.00     0.000 C 
BRANCH  11  12
ATOM     12  C   UNL     1     221.192  -8.370  24.314  1.00  0.00    -0.000 C 
BRANCH  12  13
ATOM     13  C   UNL     1     221.136  -9.052  22.935  1.00  0.00    -0.000 C 
BRANCH  13  14
ATOM     14  C   UNL     1     220.747  -8.079  21.809  1.00  0.00    -0.000 C 
BRANCH  14  15
ATOM     15  C   UNL     1     219.383  -8.415  21.182  1.00  0.00    -0.000 C 
BRANCH  15  16
ATOM     16  C   UNL     1     218.958  -9.871  21.435  1.00  0.00    -0.000 C 
BRANCH  16  17
ATOM     17  C   UNL     1     217.743  -9.981  22.368  1.00  0.00    -0.003 C 
ATOM     18  C   UNL     1     217.890 -11.163  23.323  1.00  0.00     0.004 C 
ENDBRANCH  16  17
ENDBRANCH  15  16
ENDBRANCH  14  15
ENDBRANCH  13  14
ENDBRANCH  12  13
ENDBRANCH  11  12
ENDBRANCH   1  11
TORSDOF 14
ENDMDL
MODEL 2
REMARK VINA RESULT:    -5.688      2.101      5.906
REMARK INTER + INTRA:         -12.671
REMARK INTER:                 -10.291
REMARK INTRA:                  -2.380
REMARK UNBOUND:                -2.328
REMARK SMILES CCCCCCCCCCCCCCCC(=O)[O-]
REMARK SMILES IDX 9 1 10 2 11 3 12 4 13 5 14 6 15 7 16 8 17 9 18 10 8 11 7 12
REMARK SMILES IDX 6 13 5 14 4 15 3 16 2 17 1 18
REMARK H PARENT
REMARK Flexibility Score: inf
ROOT
ATOM      1  C   UNL     1     217.630  -7.737  25.347  1.00  0.00     0.000 C 
ENDROOT
BRANCH   1   2
ATOM      2  C   UNL     1     218.664  -6.756  24.765  1.00  0.00     0.000 C 
BRANCH   2   3
ATOM      3  C   UNL     1     220.087  -6.886  25.345  1.00  0.00     0.000 C 
BRANCH   3   4
ATOM      4  C   UNL     1     221.112  -7.572  24.421  1.00  0.00     0.000 C 
BRANCH   4   5
ATOM      5  C   UNL     1     220.803  -7.471  22.916  1.00  0.00     0.000 C 
BRANCH   5   6
ATOM      6  C   UNL     1     220.669  -8.847  22.242  1.00  0.00     0.006 C 
BRANCH   6   7
ATOM      7  C   UNL     1     219.203  -9.227  21.990  1.00  0.00     0.053 C 
BRANCH   7   8
ATOM      8  C   UNL     1     218.726 -10.276  22.948  1.00  0.00     0.041 C 
ATOM      9  O   UNL     1     217.528 -10.663  22.918  1.00  0.00    -0.550 OA
ATOM     10  O   UNL     1     219.597 -10.804  23.892  1.00  0.00    -0.550 OA
ENDBRANCH   7   8
ENDBRANCH   6   7
ENDBRANCH   5   6
ENDBRANCH   4   5
ENDBRANCH   3   4
ENDBRANCH   2   3
ENDBRANCH   1   2
BRANCH   1  11
ATOM     11  C   UNL     1     218.242  -8.716  26.364  1.00  0.00     0.000 C 
BRANCH  11  12
ATOM     12  C   UNL     1     217.283  -9.040  27.521  1.00  0.00    -0.000 C 
BRANCH  12  13
ATOM     13  C   UNL     1     217.891  -8.719  28.898  1.00  0.00    -0.000 C 
BRANCH  13  14
ATOM     14  C   UNL     1     218.778  -7.463  28.875  1.00  0.00    -0.000 C 
BRANCH  14  15
ATOM     15  C   UNL     1     220.101  -7.658  29.635  1.00  0.00    -0.000 C 
BRANCH  15  16
ATOM     16  C   UNL     1     221.289  -7.924  28.696  1.00  0.00    -0.000 C 
BRANCH  16  17
ATOM     17  C   UNL     1     221.672  -9.410  28.630  1.00  0.00    -0.003 C 
ATOM     18  C   UNL     1     221.589  -9.935  27.199  1.00  0.00     0.004 C 
ENDBRANCH  16  17
ENDBRANCH  15  16
ENDBRANCH  14  15
ENDBRANCH  13  14
ENDBRANCH  12  13
ENDBRANCH  11  12
ENDBRANCH   1  11
TORSDOF 14
ENDMDL
MODEL 3
REMARK VINA RESULT:    -5.654      1.307      4.573
REMARK INTER + INTRA:         -12.609
REMARK INTER:                 -10.283
REMARK INTRA:                  -2.326
REMARK UNBOUND:                -2.328
REMARK SMILES CCCCCCCCCCCCCCCC(=O)[O-]
REMARK SMILES IDX 9 1 10 2 11 3 12 4 13 5 14 6 15 7 16 8 17 9 18 10 8 11 7 12
REMARK SMILES IDX 6 13 5 14 4 15 3 16 2 17 1 18
REMARK H PARENT
REMARK Flexibility Score: inf
ROOT
ATOM      1  C   UNL     1     219.484  -8.389  21.493  1.00  0.00     0.000 C 
ENDROOT
BRANCH   1   2
ATOM      2  C   UNL     1     220.978  -8.690  21.275  1.00  0.00     0.000 C 
BRANCH   2   3
ATOM      3  C   UNL     1     221.870  -8.505  22.519  1.00  0.00     0.000 C 
BRANCH   3   4
ATOM      4  C   UNL     1     221.287  -7.589  23.614  1.00  0.00     0.000 C 
BRANCH   4   5
ATOM      5  C   UNL     1     221.341  -8.164  25.041  1.00  0.00     0.000 C 
BRANCH   5   6
ATOM      6  C   UNL     1     221.075  -9.678  25.084  1.00  0.00     0.006 C 
BRANCH   6   7
ATOM      7  C   UNL     1     221.997 -10.400  26.077  1.00  0.00     0.053 C 
BRANCH   7   8
ATOM      8  C   UNL     1     222.006  -9.732  27.418  1.00  0.00     0.041 C 
ATOM      9  O   UNL     1     220.996  -9.801  28.166  1.00  0.00    -0.550 OA
ATOM     10  O   UNL     1     223.118  -9.007  27.827  1.00  0.00    -0.550 OA
ENDBRANCH   7   8
ENDBRANCH   6   7
ENDBRANCH   5   6
ENDBRANCH   4   5
ENDBRANCH   3   4
ENDBRANCH   2   3
ENDBRANCH   1   2
BRANCH   1  11
ATOM     11  C   UNL     1     218.695  -9.614  21.989  1.00  0.00     0.000 C 
BRANCH  11  12
ATOM     12  C   UNL     1     217.637  -9.247  23.042  1.00  0.00    -0.000 C 
BRANCH  12  13
ATOM     13  C   UNL     1     217.662  -7.752  23.408  1.00  0.00    -0.000 C 
BRANCH  13  14
ATOM     14  C   UNL     1     217.625  -7.514  24.927  1.00  0.00    -0.000 C 
BRANCH  14  15
ATOM     15  C   UNL     1     217.658  -8.824  25.733  1.00  0.00    -0.000 C 
BRANCH  15  16
ATOM     16  C   UNL     1     217.719  -8.582  27.250  1.00  0.00    -0.000 C 
BRANCH  16  17
ATOM     17  C   UNL     1     218.485  -7.302  27.617  1.00  0.00    -0.003 C 
ATOM     18  C   UNL     1     218.579  -7.134  29.131  1.00  0.00     0.004 C 
ENDBRANCH  16  17
ENDBRANCH  15  16
ENDBRANCH  14  15
ENDBRANCH  13  14
ENDBRANCH  12  13
ENDBRANCH  11  12
ENDBRANCH   1  11
TORSDOF 14
ENDMDL
MODEL 4
REMARK VINA RESULT:    -5.594      2.515      5.782
REMARK INTER + INTRA:         -12.500
REMARK INTER:                 -10.529
REMARK INTRA:                  -1.971
REMARK UNBOUND:                -2.328
REMARK SMILES CCCCCCCCCCCCCCCC(=O)[O-]
REMARK SMILES IDX 9 1 10 2 11 3 12 4 13 5 14 6 15 7 16 8 17 9 18 10 8 11 7 12
REMARK SMILES IDX 6 13 5 14 4 15 3 16 2 17 1 18
REMARK H PARENT
REMARK Flexibility Score: inf
ROOT
ATOM      1  C   UNL     1     221.753  -8.300  26.053  1.00  0.00     0.000 C 
ENDROOT
BRANCH   1   2
ATOM      2  C   UNL     1     221.126  -9.644  25.638  1.00  0.00     0.000 C 
BRANCH   2   3
ATOM      3  C   UNL     1     221.087  -9.905  24.119  1.00  0.00     0.000 C 
BRANCH   3   4
ATOM      4  C   UNL     1     222.010  -9.004  23.275  1.00  0.00     0.000 C 
BRANCH   4   5
ATOM      5  C   UNL     1     221.483  -8.666  21.869  1.00  0.00     0.000 C 
BRANCH   5   6
ATOM      6  C   UNL     1     219.983  -8.326  21.861  1.00  0.00     0.006 C 
BRANCH   6   7
ATOM      7  C   UNL     1     219.160  -9.359  21.079  1.00  0.00     0.053 C 
BRANCH   7   8
ATOM      8  C   UNL     1     218.130 -10.022  21.942  1.00  0.00     0.041 C 
ATOM      9  O   UNL     1     217.988 -11.272  21.910  1.00  0.00    -0.550 OA
ATOM     10  O   UNL     1     217.308  -9.255  22.758  1.00  0.00    -0.550 OA
ENDBRANCH   7   8
ENDBRANCH   6   7
ENDBRANCH   5   6
ENDBRANCH   4   5
ENDBRANCH   3   4
ENDBRANCH   2   3
ENDBRANCH   1   2
BRANCH   1  11
ATOM     11  C   UNL     1     220.704  -7.251  26.456  1.00  0.00     0.000 C 
BRANCH  11  12
ATOM     12  C   UNL     1     220.133  -6.493  25.247  1.00  0.00    -0.000 C 
BRANCH  12  13
ATOM     13  C   UNL     1     218.691  -6.913  24.913  1.00  0.00    -0.000 C 
BRANCH  13  14
ATOM     14  C   UNL     1     217.871  -7.261  26.167  1.00  0.00    -0.000 C 
BRANCH  14  15
ATOM     15  C   UNL     1     217.612  -8.772  26.304  1.00  0.00    -0.000 C 
BRANCH  15  16
ATOM     16  C   UNL     1     217.149  -9.165  27.716  1.00  0.00    -0.000 C 
BRANCH  16  17
ATOM     17  C   UNL     1     218.305  -9.226  28.725  1.00  0.00    -0.003 C 
ATOM     18  C   UNL     1     218.400  -7.933  29.530  1.00  0.00     0.004 C 
ENDBRANCH  16  17
ENDBRANCH  15  16
ENDBRANCH  14  15
ENDBRANCH  13  14
ENDBRANCH  12  13
ENDBRANCH  11  12
ENDBRANCH   1  11
TORSDOF 14
ENDMDL
MODEL 5
REMARK VINA RESULT:    -5.569      1.333      1.991
REMARK INTER + INTRA:         -12.455
REMARK INTER:                  -9.730
REMARK INTRA:                  -2.725
REMARK UNBOUND:                -2.328
REMARK SMILES CCCCCCCCCCCCCCCC(=O)[O-]
REMARK SMILES IDX 9 1 10 2 11 3 12 4 13 5 14 6 15 7 16 8 17 9 18 10 8 11 7 12
REMARK SMILES IDX 6 13 5 14 4 15 3 16 2 17 1 18
REMARK H PARENT
REMARK Flexibility Score: inf
ROOT
ATOM      1  C   UNL     1     219.794  -6.822  25.521  1.00  0.00     0.000 C 
ENDROOT
BRANCH   1   2
ATOM      2  C   UNL     1     218.286  -6.881  25.216  1.00  0.00     0.000 C 
BRANCH   2   3
ATOM      3  C   UNL     1     217.516  -8.000  25.944  1.00  0.00     0.000 C 
BRANCH   3   4
ATOM      4  C   UNL     1     218.337  -8.796  26.979  1.00  0.00     0.000 C 
BRANCH   4   5
ATOM      5  C   UNL     1     217.870  -8.643  28.437  1.00  0.00     0.000 C 
BRANCH   5   6
ATOM      6  C   UNL     1     219.035  -8.667  29.441  1.00  0.00     0.006 C 
BRANCH   6   7
ATOM      7  C   UNL     1     220.398  -8.774  28.744  1.00  0.00     0.053 C 
BRANCH   7   8
ATOM      8  C   UNL     1     221.116 -10.036  29.113  1.00  0.00     0.041 C 
ATOM      9  O   UNL     1     221.963 -10.535  28.327  1.00  0.00    -0.550 OA
ATOM     10  O   UNL     1     220.827 -10.676  30.312  1.00  0.00    -0.550 OA
ENDBRANCH   7   8
ENDBRANCH   6   7
ENDBRANCH   5   6
ENDBRANCH   4   5
ENDBRANCH   3   4
ENDBRANCH   2   3
ENDBRANCH   1   2
BRANCH   1  11
ATOM     11  C   UNL     1     220.652  -6.644  24.257  1.00  0.00     0.000 C 
BRANCH  11  12
ATOM     12  C   UNL     1     221.539  -7.867  23.970  1.00  0.00    -0.000 C 
BRANCH  12  13
ATOM     13  C   UNL     1     221.636  -8.821  25.174  1.00  0.00    -0.000 C 
BRANCH  13  14
ATOM     14  C   UNL     1     220.992 -10.190  24.897  1.00  0.00    -0.000 C 
BRANCH  14  15
ATOM     15  C   UNL     1     220.225 -10.226  23.564  1.00  0.00    -0.000 C 
BRANCH  15  16
ATOM     16  C   UNL     1     218.757 -10.648  23.738  1.00  0.00    -0.000 C 
BRANCH  16  17
ATOM     17  C   UNL     1     217.818  -9.953  22.742  1.00  0.00    -0.003 C 
ATOM     18  C   UNL     1     218.532  -8.817  22.015  1.00  0.00     0.004 C 
ENDBRANCH  16  17
ENDBRANCH  15  16
ENDBRANCH  14  15
ENDBRANCH  13  14
ENDBRANCH  12  13
ENDBRANCH  11  12
ENDBRANCH   1  11
TORSDOF 14
ENDMDL
MODEL 6
REMARK VINA RESULT:    -5.564      2.303      5.673
REMARK INTER + INTRA:         -12.446
REMARK INTER:                 -10.027
REMARK INTRA:                  -2.420
REMARK UNBOUND:                -2.328
REMARK SMILES CCCCCCCCCCCCCCCC(=O)[O-]
REMARK SMILES IDX 9 1 10 2 11 3 12 4 13 5 14 6 15 7 16 8 17 9 18 10 8 11 7 12
REMARK SMILES IDX 6 13 5 14 4 15 3 16 2 17 1 18
REMARK H PARENT
REMARK Flexibility Score: inf
ROOT
ATOM      1  C   UNL     1     222.412  -8.471  27.233  1.00  0.00     0.000 C 
ENDROOT
BRANCH   1   2
ATOM      2  C   UNL     1     221.764  -9.788  26.767  1.00  0.00     0.000 C 
BRANCH   2   3
ATOM      3  C   UNL     1     221.495  -9.884  25.253  1.00  0.00     0.000 C 
BRANCH   3   4
ATOM      4  C   UNL     1     221.890  -8.638  24.436  1.00  0.00     0.000 C 
BRANCH   4   5
ATOM      5  C   UNL     1     221.752  -8.788  22.910  1.00  0.00     0.000 C 
BRANCH   5   6
ATOM      6  C   UNL     1     220.442  -8.192  22.368  1.00  0.00     0.006 C 
BRANCH   6   7
ATOM      7  C   UNL     1     219.627  -9.218  21.569  1.00  0.00     0.053 C 
BRANCH   7   8
ATOM      8  C   UNL     1     218.586  -9.885  22.415  1.00  0.00     0.041 C 
ATOM      9  O   UNL     1     217.390  -9.492  22.375  1.00  0.00    -0.550 OA
ATOM     10  O   UNL     1     218.943 -10.920  23.269  1.00  0.00    -0.550 OA
ENDBRANCH   7   8
ENDBRANCH   6   7
ENDBRANCH   5   6
ENDBRANCH   4   5
ENDBRANCH   3   4
ENDBRANCH   2   3
ENDBRANCH   1   2
BRANCH   1  11
ATOM     11  C   UNL     1     221.398  -7.492  27.848  1.00  0.00     0.000 C 
BRANCH  11  12
ATOM     12  C   UNL     1     220.570  -8.131  28.975  1.00  0.00    -0.000 C 
BRANCH  12  13
ATOM     13  C   UNL     1     219.071  -7.801  28.866  1.00  0.00    -0.000 C 
BRANCH  13  14
ATOM     14  C   UNL     1     218.218  -9.033  28.520  1.00  0.00    -0.000 C 
BRANCH  14  15
ATOM     15  C   UNL     1     217.309  -8.801  27.301  1.00  0.00    -0.000 C 
BRANCH  15  16
ATOM     16  C   UNL     1     218.092  -8.770  25.978  1.00  0.00    -0.000 C 
BRANCH  16  17
ATOM     17  C   UNL     1     217.839  -7.488  25.169  1.00  0.00    -0.003 C 
ATOM     18  C   UNL     1     218.987  -6.498  25.338  1.00  0.00     0.004 C 
ENDBRANCH  16  17
ENDBRANCH  15  16
ENDBRANCH  14  15
ENDBRANCH  13  14
ENDBRANCH  12  13
ENDBRANCH  11  12
ENDBRANCH   1  11
TORSDOF 14
ENDMDL
MODEL 7
REMARK VINA RESULT:    -5.546      2.672      5.471
REMARK INTER + INTRA:         -12.413
REMARK INTER:                 -10.134
REMARK INTRA:                  -2.279
REMARK UNBOUND:                -2.328
REMARK SMILES CCCCCCCCCCCCCCCC(=O)[O-]
REMARK SMILES IDX 9 1 10 2 11 3 12 4 13 5 14 6 15 7 16 8 17 9 18 10 8 11 7 12
REMARK SMILES IDX 6 13 5 14 4 15 3 16 2 17 1 18
REMARK H PARENT
REMARK Flexibility Score: inf
ROOT
ATOM      1  C   UNL     1     221.426  -9.333  23.859  1.00  0.00     0.000 C 
ENDROOT
BRANCH   1   2
ATOM      2  C   UNL     1     221.729  -7.847  24.123  1.00  0.00     0.000 C 
BRANCH   2   3
ATOM      3  C   UNL     1     220.622  -6.867  23.689  1.00  0.00     0.000 C 
BRANCH   3   4
ATOM      4  C   UNL     1     219.679  -6.401  24.817  1.00  0.00     0.000 C 
BRANCH   4   5
ATOM      5  C   UNL     1     218.281  -7.044  24.805  1.00  0.00     0.000 C 
BRANCH   5   6
ATOM      6  C   UNL     1     217.785  -7.365  23.385  1.00  0.00     0.006 C 
BRANCH   6   7
ATOM      7  C   UNL     1     217.512  -8.864  23.193  1.00  0.00     0.053 C 
BRANCH   7   8
ATOM      8  C   UNL     1     218.238  -9.415  22.004  1.00  0.00     0.041 C 
ATOM      9  O   UNL     1     218.247 -10.656  21.787  1.00  0.00    -0.550 OA
ATOM     10  O   UNL     1     218.930  -8.562  21.154  1.00  0.00    -0.550 OA
ENDBRANCH   7   8
ENDBRANCH   6   7
ENDBRANCH   5   6
ENDBRANCH   4   5
ENDBRANCH   3   4
ENDBRANCH   2   3
ENDBRANCH   1   2
BRANCH   1  11
ATOM     11  C   UNL     1     220.799 -10.039  25.074  1.00  0.00     0.000 C 
BRANCH  11  12
ATOM     12  C   UNL     1     221.782 -10.173  26.249  1.00  0.00    -0.000 C 
BRANCH  12  13
ATOM     13  C   UNL     1     221.152  -9.769  27.594  1.00  0.00    -0.000 C 
BRANCH  13  14
ATOM     14  C   UNL     1     221.285  -8.264  27.882  1.00  0.00    -0.000 C 
BRANCH  14  15
ATOM     15  C   UNL     1     220.226  -7.755  28.875  1.00  0.00    -0.000 C 
BRANCH  15  16
ATOM     16  C   UNL     1     218.836  -7.613  28.235  1.00  0.00    -0.000 C 
BRANCH  16  17
ATOM     17  C   UNL     1     217.875  -8.739  28.647  1.00  0.00    -0.003 C 
ATOM     18  C   UNL     1     217.061  -9.229  27.454  1.00  0.00     0.004 C 
ENDBRANCH  16  17
ENDBRANCH  15  16
ENDBRANCH  14  15
ENDBRANCH  13  14
ENDBRANCH  12  13
ENDBRANCH  11  12
ENDBRANCH   1  11
TORSDOF 14
ENDMDL
MODEL 8
REMARK VINA RESULT:    -5.525      0.943      2.122
REMARK INTER + INTRA:         -12.375
REMARK INTER:                 -10.126
REMARK INTRA:                  -2.248
REMARK UNBOUND:                -2.328
REMARK SMILES CCCCCCCCCCCCCCCC(=O)[O-]
REMARK SMILES IDX 9 1 10 2 11 3 12 4 13 5 14 6 15 7 16 8 17 9 18 10 8 11 7 12
REMARK SMILES IDX 6 13 5 14 4 15 3 16 2 17 1 18
REMARK H PARENT
REMARK Flexibility Score: inf
ROOT
ATOM      1  C   UNL     1     217.610  -7.540  25.381  1.00  0.00     0.000 C 
ENDROOT
BRANCH   1   2
ATOM      2  C   UNL     1     218.243  -8.591  26.312  1.00  0.00     0.000 C 
BRANCH   2   3
ATOM      3  C   UNL     1     217.378  -8.998  27.521  1.00  0.00     0.000 C 
BRANCH   3   4
ATOM      4  C   UNL     1     217.939  -8.588  28.897  1.00  0.00     0.000 C 
BRANCH   4   5
ATOM      5  C   UNL     1     218.909  -7.393  28.876  1.00  0.00     0.000 C 
BRANCH   5   6
ATOM      6  C   UNL     1     220.288  -7.734  29.464  1.00  0.00     0.006 C 
BRANCH   6   7
ATOM      7  C   UNL     1     221.393  -7.709  28.398  1.00  0.00     0.053 C 
BRANCH   7   8
ATOM      8  C   UNL     1     221.773  -9.089  27.956  1.00  0.00     0.041 C 
ATOM      9  O   UNL     1     220.963 -10.043  28.091  1.00  0.00    -0.550 OA
ATOM     10  O   UNL     1     223.033  -9.327  27.422  1.00  0.00    -0.550 OA
ENDBRANCH   7   8
ENDBRANCH   6   7
ENDBRANCH   5   6
ENDBRANCH   4   5
ENDBRANCH   3   4
ENDBRANCH   2   3
ENDBRANCH   1   2
BRANCH   1  11
ATOM     11  C   UNL     1     218.655  -6.748  24.577  1.00  0.00     0.000 C 
BRANCH  11  12
ATOM     12  C   UNL     1     220.032  -6.724  25.263  1.00  0.00    -0.000 C 
BRANCH  12  13
ATOM     13  C   UNL     1     221.100  -7.498  24.469  1.00  0.00    -0.000 C 
BRANCH  13  14
ATOM     14  C   UNL     1     220.873  -7.428  22.949  1.00  0.00    -0.000 C 
BRANCH  14  15
ATOM     15  C   UNL     1     220.646  -8.814  22.320  1.00  0.00    -0.000 C 
BRANCH  15  16
ATOM     16  C   UNL     1     219.315  -8.904  21.555  1.00  0.00    -0.000 C 
BRANCH  16  17
ATOM     17  C   UNL     1     218.249  -9.711  22.312  1.00  0.00    -0.003 C 
ATOM     18  C   UNL     1     218.889 -10.618  23.359  1.00  0.00     0.004 C 
ENDBRANCH  16  17
ENDBRANCH  15  16
ENDBRANCH  14  15
ENDBRANCH  13  14
ENDBRANCH  12  13
ENDBRANCH  11  12
ENDBRANCH   1  11
TORSDOF 14
ENDMDL
MODEL 9
REMARK VINA RESULT:    -5.503      2.373      5.970
REMARK INTER + INTRA:         -12.335
REMARK INTER:                  -9.914
REMARK INTRA:                  -2.420
REMARK UNBOUND:                -2.328
REMARK SMILES CCCCCCCCCCCCCCCC(=O)[O-]
REMARK SMILES IDX 9 1 10 2 11 3 12 4 13 5 14 6 15 7 16 8 17 9 18 10 8 11 7 12
REMARK SMILES IDX 6 13 5 14 4 15 3 16 2 17 1 18
REMARK H PARENT
REMARK Flexibility Score: inf
ROOT
ATOM      1  C   UNL     1     217.821  -8.585  27.863  1.00  0.00     0.000 C 
ENDROOT
BRANCH   1   2
ATOM      2  C   UNL     1     218.182  -7.332  27.044  1.00  0.00     0.000 C 
BRANCH   2   3
ATOM      3  C   UNL     1     218.334  -7.563  25.528  1.00  0.00     0.000 C 
BRANCH   3   4
ATOM      4  C   UNL     1     219.116  -6.469  24.772  1.00  0.00     0.000 C 
BRANCH   4   5
ATOM      5  C   UNL     1     220.573  -6.828  24.429  1.00  0.00     0.000 C 
BRANCH   5   6
ATOM      6  C   UNL     1     220.713  -7.499  23.053  1.00  0.00     0.006 C 
BRANCH   6   7
ATOM      7  C   UNL     1     220.978  -9.007  23.168  1.00  0.00     0.053 C 
BRANCH   7   8
ATOM      8  C   UNL     1     219.717  -9.805  23.049  1.00  0.00     0.041 C 
ATOM      9  O   UNL     1     219.523 -10.799  23.797  1.00  0.00    -0.550 OA
ATOM     10  O   UNL     1     218.768  -9.471  22.090  1.00  0.00    -0.550 OA
ENDBRANCH   7   8
ENDBRANCH   6   7
ENDBRANCH   5   6
ENDBRANCH   4   5
ENDBRANCH   3   4
ENDBRANCH   2   3
ENDBRANCH   1   2
BRANCH   1  11
ATOM     11  C   UNL     1     218.168  -8.442  29.355  1.00  0.00     0.000 C 
BRANCH  11  12
ATOM     12  C   UNL     1     218.902  -9.674  29.910  1.00  0.00    -0.000 C 
BRANCH  12  13
ATOM     13  C   UNL     1     220.338  -9.352  30.361  1.00  0.00    -0.000 C 
BRANCH  13  14
ATOM     14  C   UNL     1     220.644  -7.845  30.326  1.00  0.00    -0.000 C 
BRANCH  14  15
ATOM     15  C   UNL     1     221.895  -7.514  29.494  1.00  0.00    -0.000 C 
BRANCH  15  16
ATOM     16  C   UNL     1     221.612  -7.497  27.983  1.00  0.00    -0.000 C 
BRANCH  16  17
ATOM     17  C   UNL     1     222.289  -8.659  27.240  1.00  0.00    -0.003 C 
ATOM     18  C   UNL     1     221.258  -9.673  26.753  1.00  0.00     0.004 C 
ENDBRANCH  16  17
ENDBRANCH  15  16
ENDBRANCH  14  15
ENDBRANCH  13  14
ENDBRANCH  12  13
ENDBRANCH  11  12
ENDBRANCH   1  11
TORSDOF 14
ENDMDL
