MODEL 1
REMARK VINA RESULT:    -7.851      0.000      0.000
REMARK INTER + INTRA:          -9.540
REMARK INTER:                  -9.228
REMARK INTRA:                  -0.311
REMARK UNBOUND:                -0.311
REMARK SMILES O=c1cc(-c2ccc(O)c(O)c2)oc2cc(O)cc(O)c12
REMARK SMILES IDX 4 1 3 2 2 3 1 4 21 5 19 6 18 7 16 8 15 9 14 10 13 11 5 12
REMARK SMILES IDX 6 13 7 14 8 15 12 16 10 17 9 18 11 20 20 22 17 24
REMARK H PARENT 9 19 11 21 20 23 17 25
REMARK Flexibility Score: inf
ROOT
ATOM      1  C   UNL     1     127.729 -12.683 193.250  1.00  0.00     0.138 A 
ATOM      2  C   UNL     1     127.771 -11.421 193.857  1.00  0.00     0.100 A 
ATOM      3  C   UNL     1     128.834 -11.095 194.700  1.00  0.00     0.197 A 
ATOM      4  O   UNL     1     128.814  -9.976 195.274  1.00  0.00    -0.289 OA
ATOM      5  C   UNL     1     129.879 -12.027 194.908  1.00  0.00     0.107 A 
ATOM      6  C   UNL     1     131.030 -11.793 195.720  1.00  0.00     0.134 A 
ATOM      7  C   UNL     1     131.949 -12.829 195.929  1.00  0.00     0.093 A 
ATOM      8  C   UNL     1     131.792 -14.069 195.312  1.00  0.00     0.123 A 
ATOM      9  C   UNL     1     130.697 -14.293 194.476  1.00  0.00     0.094 A 
ATOM     10  C   UNL     1     129.744 -13.292 194.274  1.00  0.00     0.146 A 
ATOM     11  O   UNL     1     128.706 -13.552 193.486  1.00  0.00    -0.456 OA
ENDROOT
BRANCH   1  12
ATOM     12  C   UNL     1     126.625 -13.082 192.341  1.00  0.00     0.021 A 
ATOM     13  C   UNL     1     125.400 -12.395 192.400  1.00  0.00     0.016 A 
ATOM     14  C   UNL     1     124.347 -12.745 191.551  1.00  0.00     0.051 A 
ATOM     15  C   UNL     1     124.501 -13.778 190.622  1.00  0.00     0.157 A 
ATOM     16  C   UNL     1     126.780 -14.113 191.393  1.00  0.00     0.062 A 
ATOM     17  C   UNL     1     125.723 -14.463 190.539  1.00  0.00     0.158 A 
BRANCH  15  18
ATOM     18  O   UNL     1     123.432 -14.106 189.789  1.00  0.00    -0.504 OA
ATOM     19  H   UNL     1     122.472 -14.088 190.112  1.00  0.00     0.293 HD
ENDBRANCH  15  18
BRANCH  17  20
ATOM     20  O   UNL     1     125.888 -15.486 189.607  1.00  0.00    -0.504 OA
ATOM     21  H   UNL     1     125.347 -15.518 188.750  1.00  0.00     0.293 HD
ENDBRANCH  17  20
ENDBRANCH   1  12
BRANCH   6  22
ATOM     22  O   UNL     1     131.328 -10.566 196.321  1.00  0.00    -0.507 OA
ATOM     23  H   UNL     1     130.852 -10.182 197.122  1.00  0.00     0.293 HD
ENDBRANCH   6  22
BRANCH   8  24
ATOM     24  O   UNL     1     132.735 -15.071 195.530  1.00  0.00    -0.508 OA
ATOM     25  H   UNL     1     133.575 -14.899 196.069  1.00  0.00     0.293 HD
ENDBRANCH   8  24
TORSDOF 5
ENDMDL
MODEL 2
REMARK VINA RESULT:    -7.298      5.753      8.724
REMARK INTER + INTRA:          -8.890
REMARK INTER:                  -8.595
REMARK INTRA:                  -0.295
REMARK UNBOUND:                -0.311
REMARK SMILES O=c1cc(-c2ccc(O)c(O)c2)oc2cc(O)cc(O)c12
REMARK SMILES IDX 4 1 3 2 2 3 1 4 21 5 19 6 18 7 16 8 15 9 14 10 13 11 5 12
REMARK SMILES IDX 6 13 7 14 8 15 12 16 10 17 9 18 11 20 20 22 17 24
REMARK H PARENT 9 19 11 21 20 23 17 25
REMARK Flexibility Score: inf
ROOT
ATOM      1  C   UNL     1     121.931 -14.346 187.472  1.00  0.00     0.138 A 
ATOM      2  C   UNL     1     121.875 -14.274 188.870  1.00  0.00     0.100 A 
ATOM      3  C   UNL     1     123.025 -13.955 189.592  1.00  0.00     0.197 A 
ATOM      4  O   UNL     1     122.956 -13.953 190.848  1.00  0.00    -0.289 OA
ATOM      5  C   UNL     1     124.231 -13.671 188.906  1.00  0.00     0.107 A 
ATOM      6  C   UNL     1     125.458 -13.302 189.535  1.00  0.00     0.134 A 
ATOM      7  C   UNL     1     126.611 -13.141 188.756  1.00  0.00     0.093 A 
ATOM      8  C   UNL     1     126.571 -13.280 187.369  1.00  0.00     0.123 A 
ATOM      9  C   UNL     1     125.365 -13.592 186.739  1.00  0.00     0.094 A 
ATOM     10  C   UNL     1     124.205 -13.792 187.490  1.00  0.00     0.146 A 
ATOM     11  O   UNL     1     123.082 -14.106 186.853  1.00  0.00    -0.456 OA
ENDROOT
BRANCH   1  12
ATOM     12  C   UNL     1     120.737 -14.678 186.654  1.00  0.00     0.021 A 
ATOM     13  C   UNL     1     120.900 -15.020 185.301  1.00  0.00     0.016 A 
ATOM     14  C   UNL     1     119.795 -15.342 184.510  1.00  0.00     0.051 A 
ATOM     15  C   UNL     1     118.509 -15.340 185.058  1.00  0.00     0.157 A 
ATOM     16  C   UNL     1     119.441 -14.691 187.205  1.00  0.00     0.062 A 
ATOM     17  C   UNL     1     118.330 -15.017 186.412  1.00  0.00     0.158 A 
BRANCH  15  18
ATOM     18  O   UNL     1     117.424 -15.665 184.244  1.00  0.00    -0.504 OA
ATOM     19  H   UNL     1     117.057 -16.607 184.188  1.00  0.00     0.293 HD
ENDBRANCH  15  18
BRANCH  17  20
ATOM     20  O   UNL     1     117.052 -15.024 186.968  1.00  0.00    -0.504 OA
ATOM     21  H   UNL     1     116.556 -14.164 187.174  1.00  0.00     0.293 HD
ENDBRANCH  17  20
ENDBRANCH   1  12
BRANCH   6  22
ATOM     22  O   UNL     1     125.595 -13.059 190.905  1.00  0.00    -0.507 OA
ATOM     23  H   UNL     1     126.390 -13.326 191.464  1.00  0.00     0.293 HD
ENDBRANCH   6  22
BRANCH   8  24
ATOM     24  O   UNL     1     127.734 -13.097 186.625  1.00  0.00    -0.508 OA
ATOM     25  H   UNL     1     128.470 -13.794 186.613  1.00  0.00     0.293 HD
ENDBRANCH   8  24
TORSDOF 5
ENDMDL
MODEL 3
REMARK VINA RESULT:    -7.286      5.716      9.226
REMARK INTER + INTRA:          -8.876
REMARK INTER:                  -8.559
REMARK INTRA:                  -0.317
REMARK UNBOUND:                -0.311
REMARK SMILES O=c1cc(-c2ccc(O)c(O)c2)oc2cc(O)cc(O)c12
REMARK SMILES IDX 4 1 3 2 2 3 1 4 21 5 19 6 18 7 16 8 15 9 14 10 13 11 5 12
REMARK SMILES IDX 6 13 7 14 8 15 12 16 10 17 9 18 11 20 20 22 17 24
REMARK H PARENT 9 19 11 21 20 23 17 25
REMARK Flexibility Score: inf
ROOT
ATOM      1  C   UNL     1     121.808 -14.709 186.891  1.00  0.00     0.138 A 
ATOM      2  C   UNL     1     123.066 -14.851 186.291  1.00  0.00     0.100 A 
ATOM      3  C   UNL     1     124.217 -14.551 187.020  1.00  0.00     0.197 A 
ATOM      4  O   UNL     1     125.328 -14.635 186.436  1.00  0.00    -0.289 OA
ATOM      5  C   UNL     1     124.107 -14.140 188.371  1.00  0.00     0.107 A 
ATOM      6  C   UNL     1     125.213 -13.839 189.223  1.00  0.00     0.134 A 
ATOM      7  C   UNL     1     124.975 -13.347 190.512  1.00  0.00     0.093 A 
ATOM      8  C   UNL     1     123.678 -13.199 191.001  1.00  0.00     0.123 A 
ATOM      9  C   UNL     1     122.591 -13.537 190.194  1.00  0.00     0.094 A 
ATOM     10  C   UNL     1     122.793 -13.998 188.891  1.00  0.00     0.146 A 
ATOM     11  O   UNL     1     121.730 -14.291 188.150  1.00  0.00    -0.456 OA
ENDROOT
BRANCH   1  12
ATOM     12  C   UNL     1     120.551 -15.018 186.163  1.00  0.00     0.021 A 
ATOM     13  C   UNL     1     120.603 -15.315 184.790  1.00  0.00     0.016 A 
ATOM     14  C   UNL     1     119.436 -15.616 184.083  1.00  0.00     0.051 A 
ATOM     15  C   UNL     1     118.200 -15.637 184.734  1.00  0.00     0.157 A 
ATOM     16  C   UNL     1     119.304 -15.054 186.818  1.00  0.00     0.062 A 
ATOM     17  C   UNL     1     118.133 -15.358 186.109  1.00  0.00     0.158 A 
BRANCH  15  18
ATOM     18  O   UNL     1     117.053 -15.939 184.002  1.00  0.00    -0.504 OA
ATOM     19  H   UNL     1     116.576 -16.829 184.091  1.00  0.00     0.293 HD
ENDBRANCH  15  18
BRANCH  17  20
ATOM     20  O   UNL     1     116.905 -15.389 186.767  1.00  0.00    -0.504 OA
ATOM     21  H   UNL     1     116.839 -15.564 187.763  1.00  0.00     0.293 HD
ENDBRANCH  17  20
ENDBRANCH   1  12
BRANCH   6  22
ATOM     22  O   UNL     1     126.552 -14.025 188.865  1.00  0.00    -0.507 OA
ATOM     23  H   UNL     1     127.334 -13.960 189.497  1.00  0.00     0.293 HD
ENDBRANCH   6  22
BRANCH   8  24
ATOM     24  O   UNL     1     123.481 -12.721 192.295  1.00  0.00    -0.508 OA
ATOM     25  H   UNL     1     122.687 -13.013 192.852  1.00  0.00     0.293 HD
ENDBRANCH   8  24
TORSDOF 5
ENDMDL
MODEL 4
REMARK VINA RESULT:    -7.227      2.135      6.896
REMARK INTER + INTRA:          -8.806
REMARK INTER:                  -8.507
REMARK INTRA:                  -0.299
REMARK UNBOUND:                -0.311
REMARK SMILES O=c1cc(-c2ccc(O)c(O)c2)oc2cc(O)cc(O)c12
REMARK SMILES IDX 4 1 3 2 2 3 1 4 21 5 19 6 18 7 16 8 15 9 14 10 13 11 5 12
REMARK SMILES IDX 6 13 7 14 8 15 12 16 10 17 9 18 11 20 20 22 17 24
REMARK H PARENT 9 19 11 21 20 23 17 25
REMARK Flexibility Score: inf
ROOT
ATOM      1  C   UNL     1     129.657 -11.874 193.649  1.00  0.00     0.138 A 
ATOM      2  C   UNL     1     129.773 -10.724 192.857  1.00  0.00     0.100 A 
ATOM      3  C   UNL     1     128.900 -10.532 191.787  1.00  0.00     0.197 A 
ATOM      4  O   UNL     1     129.065  -9.517 191.061  1.00  0.00    -0.289 OA
ATOM      5  C   UNL     1     127.881 -11.481 191.530  1.00  0.00     0.107 A 
ATOM      6  C   UNL     1     126.913 -11.374 190.486  1.00  0.00     0.134 A 
ATOM      7  C   UNL     1     126.014 -12.427 190.269  1.00  0.00     0.093 A 
ATOM      8  C   UNL     1     126.010 -13.554 191.089  1.00  0.00     0.123 A 
ATOM      9  C   UNL     1     126.921 -13.647 192.143  1.00  0.00     0.094 A 
ATOM     10  C   UNL     1     127.852 -12.630 192.366  1.00  0.00     0.146 A 
ATOM     11  O   UNL     1     128.713 -12.766 193.368  1.00  0.00    -0.456 OA
ENDROOT
BRANCH   1  12
ATOM     12  C   UNL     1     130.557 -12.127 194.803  1.00  0.00     0.021 A 
ATOM     13  C   UNL     1     130.941 -11.056 195.628  1.00  0.00     0.016 A 
ATOM     14  C   UNL     1     131.781 -11.268 196.724  1.00  0.00     0.051 A 
ATOM     15  C   UNL     1     132.243 -12.552 197.023  1.00  0.00     0.157 A 
ATOM     16  C   UNL     1     131.014 -13.423 195.117  1.00  0.00     0.062 A 
ATOM     17  C   UNL     1     131.856 -13.636 196.218  1.00  0.00     0.158 A 
BRANCH  15  18
ATOM     18  O   UNL     1     133.081 -12.733 198.122  1.00  0.00    -0.504 OA
ATOM     19  H   UNL     1     133.403 -13.649 198.409  1.00  0.00     0.293 HD
ENDBRANCH  15  18
BRANCH  17  20
ATOM     20  O   UNL     1     132.304 -14.922 196.517  1.00  0.00    -0.504 OA
ATOM     21  H   UNL     1     132.939 -15.099 197.288  1.00  0.00     0.293 HD
ENDBRANCH  17  20
ENDBRANCH   1  12
BRANCH   6  22
ATOM     22  O   UNL     1     126.774 -10.257 189.657  1.00  0.00    -0.507 OA
ATOM     23  H   UNL     1     126.511 -10.287 188.684  1.00  0.00     0.293 HD
ENDBRANCH   6  22
BRANCH   8  24
ATOM     24  O   UNL     1     125.092 -14.574 190.852  1.00  0.00    -0.508 OA
ATOM     25  H   UNL     1     125.142 -15.149 190.020  1.00  0.00     0.293 HD
ENDBRANCH   8  24
TORSDOF 5
ENDMDL
MODEL 5
REMARK VINA RESULT:    -7.183      1.232      2.722
REMARK INTER + INTRA:          -8.754
REMARK INTER:                  -8.461
REMARK INTRA:                  -0.293
REMARK UNBOUND:                -0.311
REMARK SMILES O=c1cc(-c2ccc(O)c(O)c2)oc2cc(O)cc(O)c12
REMARK SMILES IDX 4 1 3 2 2 3 1 4 21 5 19 6 18 7 16 8 15 9 14 10 13 11 5 12
REMARK SMILES IDX 6 13 7 14 8 15 12 16 10 17 9 18 11 20 20 22 17 24
REMARK H PARENT 9 19 11 21 20 23 17 25
REMARK Flexibility Score: inf
ROOT
ATOM      1  C   UNL     1     127.586 -13.061 193.066  1.00  0.00     0.138 A 
ATOM      2  C   UNL     1     128.628 -13.990 193.179  1.00  0.00     0.100 A 
ATOM      3  C   UNL     1     129.718 -13.708 194.003  1.00  0.00     0.197 A 
ATOM      4  O   UNL     1     130.664 -14.537 194.040  1.00  0.00    -0.289 OA
ATOM      5  C   UNL     1     129.745 -12.503 194.746  1.00  0.00     0.107 A 
ATOM      6  C   UNL     1     130.788 -12.124 195.645  1.00  0.00     0.134 A 
ATOM      7  C   UNL     1     130.752 -10.861 196.249  1.00  0.00     0.093 A 
ATOM      8  C   UNL     1     129.687  -9.988 196.035  1.00  0.00     0.123 A 
ATOM      9  C   UNL     1     128.637 -10.368 195.197  1.00  0.00     0.094 A 
ATOM     10  C   UNL     1     128.659 -11.607 194.552  1.00  0.00     0.146 A 
ATOM     11  O   UNL     1     127.649 -11.923 193.749  1.00  0.00    -0.456 OA
ENDROOT
BRANCH   1  12
ATOM     12  C   UNL     1     126.401 -13.311 192.207  1.00  0.00     0.021 A 
ATOM     13  C   UNL     1     125.224 -12.573 192.421  1.00  0.00     0.016 A 
ATOM     14  C   UNL     1     124.097 -12.784 191.623  1.00  0.00     0.051 A 
ATOM     15  C   UNL     1     124.127 -13.725 190.590  1.00  0.00     0.157 A 
ATOM     16  C   UNL     1     126.431 -14.249 191.156  1.00  0.00     0.062 A 
ATOM     17  C   UNL     1     125.300 -14.460 190.352  1.00  0.00     0.158 A 
BRANCH  15  18
ATOM     18  O   UNL     1     122.987 -13.915 189.811  1.00  0.00    -0.504 OA
ATOM     19  H   UNL     1     122.369 -14.706 189.944  1.00  0.00     0.293 HD
ENDBRANCH  15  18
BRANCH  17  20
ATOM     20  O   UNL     1     125.341 -15.392 189.318  1.00  0.00    -0.504 OA
ATOM     21  H   UNL     1     126.028 -15.333 188.574  1.00  0.00     0.293 HD
ENDBRANCH  17  20
ENDBRANCH   1  12
BRANCH   6  22
ATOM     22  O   UNL     1     131.861 -12.950 195.994  1.00  0.00    -0.507 OA
ATOM     23  H   UNL     1     132.450 -13.442 195.341  1.00  0.00     0.293 HD
ENDBRANCH   6  22
BRANCH   8  24
ATOM     24  O   UNL     1     129.677  -8.746 196.665  1.00  0.00    -0.508 OA
ATOM     25  H   UNL     1     129.380  -7.908 196.180  1.00  0.00     0.293 HD
ENDBRANCH   8  24
TORSDOF 5
ENDMDL
MODEL 6
REMARK VINA RESULT:    -7.171      1.995      7.518
REMARK INTER + INTRA:          -8.741
REMARK INTER:                  -8.454
REMARK INTRA:                  -0.287
REMARK UNBOUND:                -0.311
REMARK SMILES O=c1cc(-c2ccc(O)c(O)c2)oc2cc(O)cc(O)c12
REMARK SMILES IDX 4 1 3 2 2 3 1 4 21 5 19 6 18 7 16 8 15 9 14 10 13 11 5 12
REMARK SMILES IDX 6 13 7 14 8 15 12 16 10 17 9 18 11 20 20 22 17 24
REMARK H PARENT 9 19 11 21 20 23 17 25
REMARK Flexibility Score: inf
ROOT
ATOM      1  C   UNL     1     128.099 -12.085 192.913  1.00  0.00     0.138 A 
ATOM      2  C   UNL     1     127.740 -13.427 192.729  1.00  0.00     0.100 A 
ATOM      3  C   UNL     1     126.810 -13.765 191.746  1.00  0.00     0.197 A 
ATOM      4  O   UNL     1     126.467 -14.971 191.643  1.00  0.00    -0.289 OA
ATOM      5  C   UNL     1     126.263 -12.755 190.917  1.00  0.00     0.107 A 
ATOM      6  C   UNL     1     125.332 -12.985 189.860  1.00  0.00     0.134 A 
ATOM      7  C   UNL     1     124.785 -11.893 189.173  1.00  0.00     0.093 A 
ATOM      8  C   UNL     1     125.177 -10.587 189.464  1.00  0.00     0.123 A 
ATOM      9  C   UNL     1     126.124 -10.355 190.463  1.00  0.00     0.094 A 
ATOM     10  C   UNL     1     126.663 -11.419 191.189  1.00  0.00     0.146 A 
ATOM     11  O   UNL     1     127.548 -11.152 192.144  1.00  0.00    -0.456 OA
ENDROOT
BRANCH   1  12
ATOM     12  C   UNL     1     129.086 -11.670 193.941  1.00  0.00     0.021 A 
ATOM     13  C   UNL     1     130.338 -12.304 193.993  1.00  0.00     0.016 A 
ATOM     14  C   UNL     1     131.288 -11.928 194.946  1.00  0.00     0.051 A 
ATOM     15  C   UNL     1     131.009 -10.905 195.856  1.00  0.00     0.157 A 
ATOM     16  C   UNL     1     128.815 -10.629 194.852  1.00  0.00     0.062 A 
ATOM     17  C   UNL     1     129.769 -10.249 195.808  1.00  0.00     0.158 A 
BRANCH  15  18
ATOM     18  O   UNL     1     131.976 -10.552 196.798  1.00  0.00    -0.504 OA
ATOM     19  H   UNL     1     131.731 -10.214 197.720  1.00  0.00     0.293 HD
ENDBRANCH  15  18
BRANCH  17  20
ATOM     20  O   UNL     1     129.488  -9.220 196.705  1.00  0.00    -0.504 OA
ATOM     21  H   UNL     1     128.538  -8.994 196.976  1.00  0.00     0.293 HD
ENDBRANCH  17  20
ENDBRANCH   1  12
BRANCH   6  22
ATOM     22  O   UNL     1     124.930 -14.254 189.431  1.00  0.00    -0.507 OA
ATOM     23  H   UNL     1     124.770 -15.045 190.034  1.00  0.00     0.293 HD
ENDBRANCH   6  22
BRANCH   8  24
ATOM     24  O   UNL     1     124.623  -9.528 188.749  1.00  0.00    -0.508 OA
ATOM     25  H   UNL     1     124.909  -8.570 188.915  1.00  0.00     0.293 HD
ENDBRANCH   8  24
TORSDOF 5
ENDMDL
MODEL 7
REMARK VINA RESULT:    -7.160      1.432      7.073
REMARK INTER + INTRA:          -8.727
REMARK INTER:                  -8.445
REMARK INTRA:                  -0.282
REMARK UNBOUND:                -0.311
REMARK SMILES O=c1cc(-c2ccc(O)c(O)c2)oc2cc(O)cc(O)c12
REMARK SMILES IDX 4 1 3 2 2 3 1 4 21 5 19 6 18 7 16 8 15 9 14 10 13 11 5 12
REMARK SMILES IDX 6 13 7 14 8 15 12 16 10 17 9 18 11 20 20 22 17 24
REMARK H PARENT 9 19 11 21 20 23 17 25
REMARK Flexibility Score: inf
ROOT
ATOM      1  C   UNL     1     127.594 -13.276 193.001  1.00  0.00     0.138 A 
ATOM      2  C   UNL     1     126.511 -12.457 193.344  1.00  0.00     0.100 A 
ATOM      3  C   UNL     1     125.361 -12.465 192.555  1.00  0.00     0.197 A 
ATOM      4  O   UNL     1     124.428 -11.677 192.858  1.00  0.00    -0.289 OA
ATOM      5  C   UNL     1     125.282 -13.327 191.435  1.00  0.00     0.107 A 
ATOM      6  C   UNL     1     124.148 -13.445 190.576  1.00  0.00     0.134 A 
ATOM      7  C   UNL     1     124.225 -14.260 189.439  1.00  0.00     0.093 A 
ATOM      8  C   UNL     1     125.371 -15.004 189.161  1.00  0.00     0.123 A 
ATOM      9  C   UNL     1     126.468 -14.934 190.021  1.00  0.00     0.094 A 
ATOM     10  C   UNL     1     126.436 -14.104 191.144  1.00  0.00     0.146 A 
ATOM     11  O   UNL     1     127.508 -14.053 191.926  1.00  0.00    -0.456 OA
ENDROOT
BRANCH   1  12
ATOM     12  C   UNL     1     128.840 -13.310 193.807  1.00  0.00     0.021 A 
ATOM     13  C   UNL     1     129.500 -14.535 194.007  1.00  0.00     0.016 A 
ATOM     14  C   UNL     1     130.678 -14.594 194.756  1.00  0.00     0.051 A 
ATOM     15  C   UNL     1     131.224 -13.432 195.309  1.00  0.00     0.157 A 
ATOM     16  C   UNL     1     129.402 -12.140 194.355  1.00  0.00     0.062 A 
ATOM     17  C   UNL     1     130.586 -12.198 195.105  1.00  0.00     0.158 A 
BRANCH  15  18
ATOM     18  O   UNL     1     132.400 -13.522 196.053  1.00  0.00    -0.504 OA
ATOM     19  H   UNL     1     133.315 -13.439 195.626  1.00  0.00     0.293 HD
ENDBRANCH  15  18
BRANCH  17  20
ATOM     20  O   UNL     1     131.131 -11.034 195.644  1.00  0.00    -0.504 OA
ATOM     21  H   UNL     1     132.120 -10.955 195.850  1.00  0.00     0.293 HD
ENDBRANCH  17  20
ENDBRANCH   1  12
BRANCH   6  22
ATOM     22  O   UNL     1     122.923 -12.808 190.803  1.00  0.00    -0.507 OA
ATOM     23  H   UNL     1     122.763 -11.816 190.726  1.00  0.00     0.293 HD
ENDBRANCH   6  22
BRANCH   8  24
ATOM     24  O   UNL     1     125.406 -15.816 188.030  1.00  0.00    -0.508 OA
ATOM     25  H   UNL     1     124.617 -16.395 187.768  1.00  0.00     0.293 HD
ENDBRANCH   8  24
TORSDOF 5
ENDMDL
MODEL 8
REMARK VINA RESULT:    -7.141      3.214      9.071
REMARK INTER + INTRA:          -8.705
REMARK INTER:                  -8.428
REMARK INTRA:                  -0.277
REMARK UNBOUND:                -0.311
REMARK SMILES O=c1cc(-c2ccc(O)c(O)c2)oc2cc(O)cc(O)c12
REMARK SMILES IDX 4 1 3 2 2 3 1 4 21 5 19 6 18 7 16 8 15 9 14 10 13 11 5 12
REMARK SMILES IDX 6 13 7 14 8 15 12 16 10 17 9 18 11 20 20 22 17 24
REMARK H PARENT 9 19 11 21 20 23 17 25
REMARK Flexibility Score: inf
ROOT
ATOM      1  C   UNL     1     124.905 -13.873 189.499  1.00  0.00     0.138 A 
ATOM      2  C   UNL     1     125.698 -14.089 188.365  1.00  0.00     0.100 A 
ATOM      3  C   UNL     1     125.102 -14.494 187.171  1.00  0.00     0.197 A 
ATOM      4  O   UNL     1     125.848 -14.734 186.187  1.00  0.00    -0.289 OA
ATOM      5  C   UNL     1     123.696 -14.649 187.104  1.00  0.00     0.107 A 
ATOM      6  C   UNL     1     122.973 -15.026 185.932  1.00  0.00     0.134 A 
ATOM      7  C   UNL     1     121.592 -15.243 186.014  1.00  0.00     0.093 A 
ATOM      8  C   UNL     1     120.898 -15.043 187.206  1.00  0.00     0.123 A 
ATOM      9  C   UNL     1     121.588 -14.627 188.346  1.00  0.00     0.094 A 
ATOM     10  C   UNL     1     122.971 -14.434 188.307  1.00  0.00     0.146 A 
ATOM     11  O   UNL     1     123.591 -14.055 189.419  1.00  0.00    -0.456 OA
ENDROOT
BRANCH   1  12
ATOM     12  C   UNL     1     125.486 -13.437 190.794  1.00  0.00     0.021 A 
ATOM     13  C   UNL     1     124.865 -12.405 191.518  1.00  0.00     0.016 A 
ATOM     14  C   UNL     1     125.388 -11.980 192.742  1.00  0.00     0.051 A 
ATOM     15  C   UNL     1     126.532 -12.585 193.270  1.00  0.00     0.157 A 
ATOM     16  C   UNL     1     126.631 -14.053 191.337  1.00  0.00     0.062 A 
ATOM     17  C   UNL     1     127.156 -13.628 192.568  1.00  0.00     0.158 A 
BRANCH  15  18
ATOM     18  O   UNL     1     127.031 -12.139 194.493  1.00  0.00    -0.504 OA
ATOM     19  H   UNL     1     127.369 -11.193 194.625  1.00  0.00     0.293 HD
ENDBRANCH  15  18
BRANCH  17  20
ATOM     20  O   UNL     1     128.290 -14.243 193.094  1.00  0.00    -0.504 OA
ATOM     21  H   UNL     1     128.684 -13.961 193.984  1.00  0.00     0.293 HD
ENDBRANCH  17  20
ENDBRANCH   1  12
BRANCH   6  22
ATOM     22  O   UNL     1     123.552 -15.176 184.668  1.00  0.00    -0.507 OA
ATOM     23  H   UNL     1     123.957 -16.028 184.314  1.00  0.00     0.293 HD
ENDBRANCH   6  22
BRANCH   8  24
ATOM     24  O   UNL     1     119.522 -15.254 187.246  1.00  0.00    -0.508 OA
ATOM     25  H   UNL     1     118.900 -14.820 186.575  1.00  0.00     0.293 HD
ENDBRANCH   8  24
TORSDOF 5
ENDMDL
