MODEL 1
REMARK VINA RESULT:   130.691      0.000      0.000
REMARK INTER + INTRA:         143.955
REMARK INTER:                 142.151
REMARK INTRA:                   1.804
REMARK UNBOUND:                 1.804
REMARK SMILES C[C@@H]1[C@H](C)CC[C@]2(C(=O)[O-])CC[C@@]3(C)C(=CC[C@H]4[C@]5(C)CC[C@@H](O)C(C)(C)[C@H]5CC[C@@]43C)[C@H]12
REMARK SMILES IDX 7 1 6 2 11 3 33 4 5 5 12 6 15 7 2 8 3 9 13 10 16 11 1 12
REMARK SMILES IDX 4 13 14 14 31 15 17 16 18 17 30 18 32 19 19 20 29 21 28 22
REMARK SMILES IDX 21 23 20 24 25 25 22 26 23 27 26 28 27 29 8 30 9 31 10 32
REMARK SMILES IDX 24 33
REMARK H PARENT 24 34
REMARK Flexibility Score: inf
ROOT
ATOM      1  C   UNL     1      -6.836  -8.143  17.544  1.00  0.00     0.017 C 
ATOM      2  C   UNL     1      -6.223  -9.113  16.485  1.00  0.00     0.014 C 
ATOM      3  C   UNL     1      -7.234  -6.841  16.814  1.00  0.00     0.014 C 
ATOM      4  C   UNL     1      -5.808  -7.793  18.692  1.00  0.00     0.030 C 
ATOM      5  C   UNL     1      -5.269 -10.125  17.115  1.00  0.00     0.004 C 
ATOM      6  C   UNL     1      -7.959  -5.833  17.707  1.00  0.00     0.013 C 
ATOM      7  C   UNL     1      -6.073  -6.442  19.399  1.00  0.00    -0.063 C 
ATOM      8  C   UNL     1      -4.311  -7.973  18.238  1.00  0.00    -0.003 C 
ATOM      9  C   UNL     1      -4.042  -9.445  17.767  1.00  0.00    -0.011 C 
ATOM     10  C   UNL     1      -7.332  -5.586  19.136  1.00  0.00    -0.006 C 
ATOM     11  C   UNL     1      -5.284  -6.122  20.455  1.00  0.00    -0.027 C 
ATOM     12  C   UNL     1      -3.826  -6.882  17.257  1.00  0.00     0.008 C 
ATOM     13  C   UNL     1      -2.787  -9.597  16.887  1.00  0.00     0.008 C 
ATOM     14  C   UNL     1      -8.385  -6.099  20.175  1.00  0.00     0.017 C 
ATOM     15  C   UNL     1      -6.956  -4.029  19.348  1.00  0.00    -0.020 C 
ATOM     16  C   UNL     1      -5.294  -4.808  21.195  1.00  0.00     0.032 C 
ATOM     17  C   UNL     1      -6.450  -3.829  20.830  1.00  0.00     0.006 C 
ATOM     18  C   UNL     1      -8.199  -3.096  19.122  1.00  0.00     0.008 C 
ATOM     19  C   UNL     1      -5.839  -3.641  18.320  1.00  0.00     0.012 C 
ATOM     20  C   UNL     1      -6.230  -2.328  21.323  1.00  0.00    -0.025 C 
ATOM     21  C   UNL     1      -7.995  -1.639  19.561  1.00  0.00     0.005 C 
ATOM     22  C   UNL     1      -7.563  -1.535  21.043  1.00  0.00     0.003 C 
ATOM     23  C   UNL     1      -5.957  -2.339  22.878  1.00  0.00     0.010 C 
ATOM     24  C   UNL     1      -5.009  -1.654  20.620  1.00  0.00     0.012 C 
ATOM     25  C   UNL     1      -7.635  -0.059  21.638  1.00  0.00    -0.006 C 
ATOM     26  C   UNL     1      -6.733  -1.296  23.703  1.00  0.00     0.033 C 
ATOM     27  C   UNL     1      -6.847   0.060  22.997  1.00  0.00     0.120 C 
ATOM     28  C   UNL     1      -9.125   0.277  21.934  1.00  0.00     0.014 C 
ATOM     29  C   UNL     1      -7.136   1.015  20.633  1.00  0.00     0.014 C 
ENDROOT
BRANCH   1  30
ATOM     30  C   UNL     1      -8.077  -8.842  18.100  1.00  0.00     0.048 C 
ATOM     31  O   UNL     1      -8.344 -10.029  17.769  1.00  0.00    -0.550 OA
ATOM     32  O   UNL     1      -8.865  -8.235  19.073  1.00  0.00    -0.550 OA
ENDBRANCH   1  30
BRANCH  27  33
ATOM     33  O   UNL     1      -5.568   0.616  22.823  1.00  0.00    -0.393 OA
ATOM     34  H   UNL     1      -4.946  -0.129  22.615  1.00  0.00     0.210 HD
ENDBRANCH  27  33
TORSDOF 2
ENDMDL
MODEL 2
REMARK VINA RESULT:   131.322     11.655     16.080
REMARK INTER + INTRA:         144.642
REMARK INTER:                 144.852
REMARK INTRA:                  -0.210
REMARK UNBOUND:                 1.804
REMARK SMILES C[C@@H]1[C@H](C)CC[C@]2(C(=O)[O-])CC[C@@]3(C)C(=CC[C@H]4[C@]5(C)CC[C@@H](O)C(C)(C)[C@H]5CC[C@@]43C)[C@H]12
REMARK SMILES IDX 7 1 6 2 11 3 33 4 5 5 12 6 15 7 2 8 3 9 13 10 16 11 1 12
REMARK SMILES IDX 4 13 14 14 31 15 17 16 18 17 30 18 32 19 19 20 29 21 28 22
REMARK SMILES IDX 21 23 20 24 25 25 22 26 23 27 26 28 27 29 8 30 9 31 10 32
REMARK SMILES IDX 24 33
REMARK H PARENT 24 34
REMARK Flexibility Score: inf
ROOT
ATOM      1  C   UNL     1       2.450  -2.263  12.750  1.00  0.00     0.017 C 
ATOM      2  C   UNL     1       2.602  -1.825  14.241  1.00  0.00     0.014 C 
ATOM      3  C   UNL     1       1.881  -3.700  12.737  1.00  0.00     0.014 C 
ATOM      4  C   UNL     1       3.833  -2.254  11.985  1.00  0.00     0.030 C 
ATOM      5  C   UNL     1       3.669  -0.748  14.419  1.00  0.00     0.004 C 
ATOM      6  C   UNL     1       1.567  -4.224  11.335  1.00  0.00     0.013 C 
ATOM      7  C   UNL     1       3.899  -3.209  10.768  1.00  0.00    -0.063 C 
ATOM      8  C   UNL     1       5.062  -2.402  12.958  1.00  0.00    -0.003 C 
ATOM      9  C   UNL     1       5.078  -1.248  14.020  1.00  0.00    -0.011 C 
ATOM     10  C   UNL     1       2.670  -3.975  10.231  1.00  0.00    -0.006 C 
ATOM     11  C   UNL     1       5.025  -3.182  10.012  1.00  0.00    -0.027 C 
ATOM     12  C   UNL     1       5.219  -3.823  13.545  1.00  0.00     0.008 C 
ATOM     13  C   UNL     1       5.931  -1.559  15.264  1.00  0.00     0.008 C 
ATOM     14  C   UNL     1       2.029  -3.010   9.177  1.00  0.00     0.017 C 
ATOM     15  C   UNL     1       3.168  -5.366   9.580  1.00  0.00    -0.020 C 
ATOM     16  C   UNL     1       5.338  -4.115   8.869  1.00  0.00     0.032 C 
ATOM     17  C   UNL     1       4.175  -5.044   8.408  1.00  0.00     0.006 C 
ATOM     18  C   UNL     1       1.971  -6.192   8.987  1.00  0.00     0.008 C 
ATOM     19  C   UNL     1       3.866  -6.218  10.695  1.00  0.00     0.012 C 
ATOM     20  C   UNL     1       4.625  -6.264   7.484  1.00  0.00    -0.025 C 
ATOM     21  C   UNL     1       2.385  -7.391   8.121  1.00  0.00     0.005 C 
ATOM     22  C   UNL     1       3.318  -6.972   6.960  1.00  0.00     0.003 C 
ATOM     23  C   UNL     1       5.430  -5.695   6.250  1.00  0.00     0.010 C 
ATOM     24  C   UNL     1       5.548  -7.266   8.246  1.00  0.00     0.012 C 
ATOM     25  C   UNL     1       3.531  -8.102   5.858  1.00  0.00    -0.006 C 
ATOM     26  C   UNL     1       5.047  -6.273   4.875  1.00  0.00     0.033 C 
ATOM     27  C   UNL     1       4.753  -7.777   4.919  1.00  0.00     0.120 C 
ATOM     28  C   UNL     1       2.260  -8.157   4.962  1.00  0.00     0.014 C 
ATOM     29  C   UNL     1       3.691  -9.517   6.477  1.00  0.00     0.014 C 
ENDROOT
BRANCH   1  30
ATOM     30  C   UNL     1       1.455  -1.291  12.115  1.00  0.00     0.048 C 
ATOM     31  O   UNL     1       1.847  -0.429  11.283  1.00  0.00    -0.550 OA
ATOM     32  O   UNL     1       0.088  -1.415  12.342  1.00  0.00    -0.550 OA
ENDBRANCH   1  30
BRANCH  27  33
ATOM     33  O   UNL     1       5.912  -8.478   5.294  1.00  0.00    -0.393 OA
ATOM     34  H   UNL     1       6.049  -9.203   4.629  1.00  0.00     0.210 HD
ENDBRANCH  27  33
TORSDOF 2
ENDMDL
