MODEL 1
REMARK VINA RESULT:    -5.756      0.000      0.000
REMARK INTER + INTRA:          -5.924
REMARK INTER:                  -5.924
REMARK INTRA:                   0.000
REMARK UNBOUND:                 0.000
REMARK SMILES O=c1ccc2ccc(O)cc2o1
REMARK SMILES IDX 6 1 7 2 8 3 10 4 11 5 5 6 4 7 3 8 2 9 1 10 12 11 9 12
REMARK H PARENT 9 13
REMARK Flexibility Score: inf
ROOT
ATOM      1  C   UNL     1     -29.595  -4.960  -0.215  1.00  0.00     0.016 A 
ATOM      2  C   UNL     1     -29.121  -4.408  -1.410  1.00  0.00     0.047 A 
ATOM      3  C   UNL     1     -28.419  -5.203  -2.329  1.00  0.00     0.119 A 
ATOM      4  C   UNL     1     -28.190  -6.556  -2.048  1.00  0.00     0.094 A 
ATOM      5  C   UNL     1     -28.658  -7.117  -0.855  1.00  0.00     0.142 A 
ATOM      6  C   UNL     1     -29.366  -6.314   0.067  1.00  0.00     0.018 A 
ATOM      7  C   UNL     1     -29.822  -6.903   1.250  1.00  0.00     0.019 A 
ATOM      8  C   UNL     1     -29.569  -8.254   1.484  1.00  0.00     0.094 A 
ATOM      9  C   UNL     1     -28.862  -8.987   0.525  1.00  0.00     0.336 A 
ATOM     10  O   UNL     1     -28.624 -10.208   0.719  1.00  0.00    -0.246 OA
ATOM     11  O   UNL     1     -28.438  -8.402  -0.593  1.00  0.00    -0.423 OA
ENDROOT
BRANCH   3  12
ATOM     12  O   UNL     1     -27.945  -4.659  -3.520  1.00  0.00    -0.508 OA
ATOM     13  H   UNL     1     -27.768  -3.666  -3.616  1.00  0.00     0.293 HD
ENDBRANCH   3  12
TORSDOF 1
ENDMDL
MODEL 2
REMARK VINA RESULT:    -5.702      0.820      4.227
REMARK INTER + INTRA:          -5.868
REMARK INTER:                  -5.868
REMARK INTRA:                   0.000
REMARK UNBOUND:                 0.000
REMARK SMILES O=c1ccc2ccc(O)cc2o1
REMARK SMILES IDX 6 1 7 2 8 3 10 4 11 5 5 6 4 7 3 8 2 9 1 10 12 11 9 12
REMARK H PARENT 9 13
REMARK Flexibility Score: inf
ROOT
ATOM      1  C   UNL     1     -29.712  -7.228   1.281  1.00  0.00     0.016 A 
ATOM      2  C   UNL     1     -29.465  -8.595   1.445  1.00  0.00     0.047 A 
ATOM      3  C   UNL     1     -28.737  -9.305   0.478  1.00  0.00     0.119 A 
ATOM      4  C   UNL     1     -28.255  -8.642  -0.657  1.00  0.00     0.094 A 
ATOM      5  C   UNL     1     -28.497  -7.276  -0.831  1.00  0.00     0.142 A 
ATOM      6  C   UNL     1     -29.230  -6.564   0.145  1.00  0.00     0.018 A 
ATOM      7  C   UNL     1     -29.456  -5.198  -0.057  1.00  0.00     0.019 A 
ATOM      8  C   UNL     1     -28.956  -4.583  -1.204  1.00  0.00     0.094 A 
ATOM      9  C   UNL     1     -28.239  -5.353  -2.127  1.00  0.00     0.336 A 
ATOM     10  O   UNL     1     -27.779  -4.815  -3.169  1.00  0.00    -0.246 OA
ATOM     11  O   UNL     1     -28.038  -6.651  -1.912  1.00  0.00    -0.423 OA
ENDROOT
BRANCH   3  12
ATOM     12  O   UNL     1     -28.488 -10.666   0.637  1.00  0.00    -0.508 OA
ATOM     13  H   UNL     1     -29.205 -11.360   0.460  1.00  0.00     0.293 HD
ENDBRANCH   3  12
TORSDOF 1
ENDMDL
MODEL 3
REMARK VINA RESULT:    -5.604      1.448      2.225
REMARK INTER + INTRA:          -5.768
REMARK INTER:                  -5.768
REMARK INTRA:                   0.000
REMARK UNBOUND:                 0.000
REMARK SMILES O=c1ccc2ccc(O)cc2o1
REMARK SMILES IDX 6 1 7 2 8 3 10 4 11 5 5 6 4 7 3 8 2 9 1 10 12 11 9 12
REMARK H PARENT 9 13
REMARK Flexibility Score: inf
ROOT
ATOM      1  C   UNL     1     -28.210  -6.230  -2.185  1.00  0.00     0.016 A 
ATOM      2  C   UNL     1     -28.547  -4.880  -2.326  1.00  0.00     0.047 A 
ATOM      3  C   UNL     1     -29.280  -4.224  -1.326  1.00  0.00     0.119 A 
ATOM      4  C   UNL     1     -29.677  -4.924  -0.180  1.00  0.00     0.094 A 
ATOM      5  C   UNL     1     -29.346  -6.274  -0.029  1.00  0.00     0.142 A 
ATOM      6  C   UNL     1     -28.608  -6.932  -1.039  1.00  0.00     0.018 A 
ATOM      7  C   UNL     1     -28.292  -8.283  -0.860  1.00  0.00     0.019 A 
ATOM      8  C   UNL     1     -28.710  -8.936   0.299  1.00  0.00     0.094 A 
ATOM      9  C   UNL     1     -29.438  -8.220   1.256  1.00  0.00     0.336 A 
ATOM     10  O   UNL     1     -29.824  -8.793   2.308  1.00  0.00    -0.246 OA
ATOM     11  O   UNL     1     -29.726  -6.935   1.061  1.00  0.00    -0.423 OA
ENDROOT
BRANCH   3  12
ATOM     12  O   UNL     1     -29.617  -2.879  -1.461  1.00  0.00    -0.508 OA
ATOM     13  H   UNL     1     -28.914  -2.171  -1.634  1.00  0.00     0.293 HD
ENDBRANCH   3  12
TORSDOF 1
ENDMDL
MODEL 4
REMARK VINA RESULT:    -5.498     11.652     12.840
REMARK INTER + INTRA:          -5.659
REMARK INTER:                  -5.659
REMARK INTRA:                   0.000
REMARK UNBOUND:                 0.000
REMARK SMILES O=c1ccc2ccc(O)cc2o1
REMARK SMILES IDX 6 1 7 2 8 3 10 4 11 5 5 6 4 7 3 8 2 9 1 10 12 11 9 12
REMARK H PARENT 9 13
REMARK Flexibility Score: inf
ROOT
ATOM      1  C   UNL     1     -33.911 -15.380   3.999  1.00  0.00     0.016 A 
ATOM      2  C   UNL     1     -33.354 -16.121   5.046  1.00  0.00     0.047 A 
ATOM      3  C   UNL     1     -34.135 -16.476   6.156  1.00  0.00     0.119 A 
ATOM      4  C   UNL     1     -35.479 -16.087   6.217  1.00  0.00     0.094 A 
ATOM      5  C   UNL     1     -36.044 -15.344   5.175  1.00  0.00     0.142 A 
ATOM      6  C   UNL     1     -35.255 -14.989   4.058  1.00  0.00     0.018 A 
ATOM      7  C   UNL     1     -35.849 -14.247   3.032  1.00  0.00     0.019 A 
ATOM      8  C   UNL     1     -37.190 -13.883   3.138  1.00  0.00     0.094 A 
ATOM      9  C   UNL     1     -37.910 -14.270   4.274  1.00  0.00     0.336 A 
ATOM     10  O   UNL     1     -39.122 -13.951   4.388  1.00  0.00    -0.246 OA
ATOM     11  O   UNL     1     -37.321 -14.977   5.237  1.00  0.00    -0.423 OA
ENDROOT
BRANCH   3  12
ATOM     12  O   UNL     1     -33.586 -17.214   7.203  1.00  0.00    -0.508 OA
ATOM     13  H   UNL     1     -33.351 -18.194   7.093  1.00  0.00     0.293 HD
ENDBRANCH   3  12
TORSDOF 1
ENDMDL
MODEL 5
REMARK VINA RESULT:    -5.470      5.543      6.345
REMARK INTER + INTRA:          -5.630
REMARK INTER:                  -5.630
REMARK INTRA:                   0.000
REMARK UNBOUND:                 0.000
REMARK SMILES O=c1ccc2ccc(O)cc2o1
REMARK SMILES IDX 6 1 7 2 8 3 10 4 11 5 5 6 4 7 3 8 2 9 1 10 12 11 9 12
REMARK H PARENT 9 13
REMARK Flexibility Score: inf
ROOT
ATOM      1  C   UNL     1     -33.997 -10.782   1.624  1.00  0.00     0.016 A 
ATOM      2  C   UNL     1     -34.282  -9.538   2.198  1.00  0.00     0.047 A 
ATOM      3  C   UNL     1     -33.257  -8.773   2.776  1.00  0.00     0.119 A 
ATOM      4  C   UNL     1     -31.943  -9.256   2.778  1.00  0.00     0.094 A 
ATOM      5  C   UNL     1     -31.648 -10.498   2.207  1.00  0.00     0.142 A 
ATOM      6  C   UNL     1     -32.682 -11.266   1.626  1.00  0.00     0.018 A 
ATOM      7  C   UNL     1     -32.356 -12.504   1.062  1.00  0.00     0.019 A 
ATOM      8  C   UNL     1     -31.033 -12.942   1.089  1.00  0.00     0.094 A 
ATOM      9  C   UNL     1     -30.061 -12.127   1.682  1.00  0.00     0.336 A 
ATOM     10  O   UNL     1     -28.861 -12.505   1.715  1.00  0.00    -0.246 OA
ATOM     11  O   UNL     1     -30.398 -10.953   2.211  1.00  0.00    -0.423 OA
ENDROOT
BRANCH   3  12
ATOM     12  O   UNL     1     -33.535  -7.534   3.349  1.00  0.00    -0.508 OA
ATOM     13  H   UNL     1     -33.895  -6.764   2.798  1.00  0.00     0.293 HD
ENDBRANCH   3  12
TORSDOF 1
ENDMDL
MODEL 6
REMARK VINA RESULT:    -5.457      5.086      5.904
REMARK INTER + INTRA:          -5.616
REMARK INTER:                  -5.616
REMARK INTRA:                   0.000
REMARK UNBOUND:                 0.000
REMARK SMILES O=c1ccc2ccc(O)cc2o1
REMARK SMILES IDX 6 1 7 2 8 3 10 4 11 5 5 6 4 7 3 8 2 9 1 10 12 11 9 12
REMARK H PARENT 9 13
REMARK Flexibility Score: inf
ROOT
ATOM      1  C   UNL     1     -32.704  -8.873   2.776  1.00  0.00     0.016 A 
ATOM      2  C   UNL     1     -33.856  -9.420   2.202  1.00  0.00     0.047 A 
ATOM      3  C   UNL     1     -33.782 -10.609   1.461  1.00  0.00     0.119 A 
ATOM      4  C   UNL     1     -32.549 -11.251   1.295  1.00  0.00     0.094 A 
ATOM      5  C   UNL     1     -31.391 -10.711   1.864  1.00  0.00     0.142 A 
ATOM      6  C   UNL     1     -31.469  -9.514   2.609  1.00  0.00     0.018 A 
ATOM      7  C   UNL     1     -30.294  -8.999   3.167  1.00  0.00     0.019 A 
ATOM      8  C   UNL     1     -29.090  -9.674   2.972  1.00  0.00     0.094 A 
ATOM      9  C   UNL     1     -29.089 -10.856   2.222  1.00  0.00     0.336 A 
ATOM     10  O   UNL     1     -28.012 -11.480   2.036  1.00  0.00    -0.246 OA
ATOM     11  O   UNL     1     -30.222 -11.325   1.702  1.00  0.00    -0.423 OA
ENDROOT
BRANCH   3  12
ATOM     12  O   UNL     1     -34.926 -11.160   0.888  1.00  0.00    -0.508 OA
ATOM     13  H   UNL     1     -35.798 -11.220   1.399  1.00  0.00     0.293 HD
ENDBRANCH   3  12
TORSDOF 1
ENDMDL
MODEL 7
REMARK VINA RESULT:    -5.433      9.012     10.963
REMARK INTER + INTRA:          -5.592
REMARK INTER:                  -5.592
REMARK INTRA:                   0.000
REMARK UNBOUND:                 0.000
REMARK SMILES O=c1ccc2ccc(O)cc2o1
REMARK SMILES IDX 6 1 7 2 8 3 10 4 11 5 5 6 4 7 3 8 2 9 1 10 12 11 9 12
REMARK H PARENT 9 13
REMARK Flexibility Score: inf
ROOT
ATOM      1  C   UNL     1     -32.142 -16.120   5.308  1.00  0.00     0.016 A 
ATOM      2  C   UNL     1     -31.003 -15.386   4.962  1.00  0.00     0.047 A 
ATOM      3  C   UNL     1     -31.099 -14.308   4.069  1.00  0.00     0.119 A 
ATOM      4  C   UNL     1     -32.340 -13.966   3.520  1.00  0.00     0.094 A 
ATOM      5  C   UNL     1     -33.485 -14.695   3.858  1.00  0.00     0.142 A 
ATOM      6  C   UNL     1     -33.385 -15.779   4.758  1.00  0.00     0.018 A 
ATOM      7  C   UNL     1     -34.548 -16.489   5.078  1.00  0.00     0.019 A 
ATOM      8  C   UNL     1     -35.761 -16.110   4.505  1.00  0.00     0.094 A 
ATOM      9  C   UNL     1     -35.783 -15.025   3.621  1.00  0.00     0.336 A 
ATOM     10  O   UNL     1     -36.869 -14.668   3.094  1.00  0.00    -0.246 OA
ATOM     11  O   UNL     1     -34.663 -14.366   3.334  1.00  0.00    -0.423 OA
ENDROOT
BRANCH   3  12
ATOM     12  O   UNL     1     -29.968 -13.573   3.721  1.00  0.00    -0.508 OA
ATOM     13  H   UNL     1     -29.038 -13.972   3.780  1.00  0.00     0.293 HD
ENDBRANCH   3  12
TORSDOF 1
ENDMDL
MODEL 8
REMARK VINA RESULT:    -5.428      8.110     11.141
REMARK INTER + INTRA:          -5.587
REMARK INTER:                  -5.587
REMARK INTRA:                   0.000
REMARK UNBOUND:                 0.000
REMARK SMILES O=c1ccc2ccc(O)cc2o1
REMARK SMILES IDX 6 1 7 2 8 3 10 4 11 5 5 6 4 7 3 8 2 9 1 10 12 11 9 12
REMARK H PARENT 9 13
REMARK Flexibility Score: inf
ROOT
ATOM      1  C   UNL     1     -34.645 -15.341   4.176  1.00  0.00     0.016 A 
ATOM      2  C   UNL     1     -34.759 -16.162   5.303  1.00  0.00     0.047 A 
ATOM      3  C   UNL     1     -33.637 -16.426   6.103  1.00  0.00     0.119 A 
ATOM      4  C   UNL     1     -32.397 -15.866   5.773  1.00  0.00     0.094 A 
ATOM      5  C   UNL     1     -32.272 -15.045   4.647  1.00  0.00     0.142 A 
ATOM      6  C   UNL     1     -33.404 -14.781   3.844  1.00  0.00     0.018 A 
ATOM      7  C   UNL     1     -33.248 -13.955   2.725  1.00  0.00     0.019 A 
ATOM      8  C   UNL     1     -31.993 -13.422   2.437  1.00  0.00     0.094 A 
ATOM      9  C   UNL     1     -30.917 -13.727   3.279  1.00  0.00     0.336 A 
ATOM     10  O   UNL     1     -29.776 -13.254   3.035  1.00  0.00    -0.246 OA
ATOM     11  O   UNL     1     -31.092 -14.515   4.337  1.00  0.00    -0.423 OA
ENDROOT
BRANCH   3  12
ATOM     12  O   UNL     1     -33.744 -17.242   7.227  1.00  0.00    -0.508 OA
ATOM     13  H   UNL     1     -33.027 -17.919   7.460  1.00  0.00     0.293 HD
ENDBRANCH   3  12
TORSDOF 1
ENDMDL
MODEL 9
REMARK VINA RESULT:    -5.383      1.738      4.747
REMARK INTER + INTRA:          -5.540
REMARK INTER:                  -5.540
REMARK INTRA:                   0.000
REMARK UNBOUND:                 0.000
REMARK SMILES O=c1ccc2ccc(O)cc2o1
REMARK SMILES IDX 6 1 7 2 8 3 10 4 11 5 5 6 4 7 3 8 2 9 1 10 12 11 9 12
REMARK H PARENT 9 13
REMARK Flexibility Score: inf
ROOT
ATOM      1  C   UNL     1     -28.235  -8.193  -0.848  1.00  0.00     0.016 A 
ATOM      2  C   UNL     1     -28.636  -9.046   0.185  1.00  0.00     0.047 A 
ATOM      3  C   UNL     1     -29.391  -8.552   1.260  1.00  0.00     0.119 A 
ATOM      4  C   UNL     1     -29.746  -7.198   1.298  1.00  0.00     0.094 A 
ATOM      5  C   UNL     1     -29.349  -6.337   0.271  1.00  0.00     0.142 A 
ATOM      6  C   UNL     1     -28.589  -6.837  -0.810  1.00  0.00     0.018 A 
ATOM      7  C   UNL     1     -28.208  -5.951  -1.823  1.00  0.00     0.019 A 
ATOM      8  C   UNL     1     -28.584  -4.612  -1.739  1.00  0.00     0.094 A 
ATOM      9  C   UNL     1     -29.338  -4.187  -0.638  1.00  0.00     0.336 A 
ATOM     10  O   UNL     1     -29.688  -2.982  -0.545  1.00  0.00    -0.246 OA
ATOM     11  O   UNL     1     -29.688  -5.051   0.312  1.00  0.00    -0.423 OA
ENDROOT
BRANCH   3  12
ATOM     12  O   UNL     1     -29.793  -9.397   2.291  1.00  0.00    -0.508 OA
ATOM     13  H   UNL     1     -29.265  -9.470   3.153  1.00  0.00     0.293 HD
ENDBRANCH   3  12
TORSDOF 1
ENDMDL
