MODEL 1
REMARK VINA RESULT:    -7.041      0.000      0.000
REMARK INTER + INTRA:          -8.085
REMARK INTER:                  -8.275
REMARK INTRA:                   0.191
REMARK UNBOUND:                 0.191
REMARK SMILES O=c1c(O)c(-c2ccc(O)cc2)oc2cc(O)cc(O)c12
REMARK SMILES IDX 5 1 3 2 2 3 1 4 21 5 19 6 18 7 16 8 15 9 14 10 13 11 6 12
REMARK SMILES IDX 7 13 8 14 9 15 12 16 11 17 10 18 4 20 20 22 17 24
REMARK H PARENT 10 19 4 21 20 23 17 25
REMARK Flexibility Score: inf
ROOT
ATOM      1  C   UNL     1       7.318  26.847  58.438  1.00  0.00     0.180 A 
ATOM      2  C   UNL     1       6.865  26.231  59.618  1.00  0.00     0.208 A 
ATOM      3  C   UNL     1       7.780  25.513  60.405  1.00  0.00     0.238 A 
ATOM      4  O   UNL     1       7.358  24.919  61.431  1.00  0.00    -0.285 OA
ATOM      5  C   UNL     1       9.137  25.433  60.012  1.00  0.00     0.111 A 
ATOM      6  C   UNL     1      10.158  24.766  60.753  1.00  0.00     0.134 A 
ATOM      7  C   UNL     1      11.440  24.638  60.205  1.00  0.00     0.093 A 
ATOM      8  C   UNL     1      11.754  25.211  58.969  1.00  0.00     0.123 A 
ATOM      9  C   UNL     1      10.781  25.915  58.266  1.00  0.00     0.094 A 
ATOM     10  C   UNL     1       9.483  26.028  58.771  1.00  0.00     0.146 A 
ATOM     11  O   UNL     1       8.583  26.699  58.062  1.00  0.00    -0.452 OA
ENDROOT
BRANCH   1  12
ATOM     12  C   UNL     1       6.419  27.642  57.570  1.00  0.00     0.021 A 
ATOM     13  C   UNL     1       6.874  28.858  57.033  1.00  0.00     0.016 A 
ATOM     14  C   UNL     1       6.035  29.636  56.230  1.00  0.00     0.047 A 
ATOM     15  C   UNL     1       4.728  29.217  55.965  1.00  0.00     0.115 A 
ATOM     16  C   UNL     1       5.096  27.236  57.317  1.00  0.00     0.016 A 
ATOM     17  C   UNL     1       4.259  28.016  56.514  1.00  0.00     0.047 A 
BRANCH  15  18
ATOM     18  O   UNL     1       3.902  30.001  55.163  1.00  0.00    -0.508 OA
ATOM     19  H   UNL     1       3.213  29.586  54.547  1.00  0.00     0.293 HD
ENDBRANCH  15  18
ENDBRANCH   1  12
BRANCH   2  20
ATOM     20  O   UNL     1       5.517  26.304  59.976  1.00  0.00    -0.502 OA
ATOM     21  H   UNL     1       4.861  25.556  59.780  1.00  0.00     0.293 HD
ENDBRANCH   2  20
BRANCH   6  22
ATOM     22  O   UNL     1       9.974  24.239  62.036  1.00  0.00    -0.507 OA
ATOM     23  H   UNL     1       9.118  24.306  62.567  1.00  0.00     0.293 HD
ENDBRANCH   6  22
BRANCH   8  24
ATOM     24  O   UNL     1      13.037  25.093  58.437  1.00  0.00    -0.508 OA
ATOM     25  H   UNL     1      13.415  24.194  58.161  1.00  0.00     0.293 HD
ENDBRANCH   8  24
TORSDOF 5
ENDMDL
MODEL 2
REMARK VINA RESULT:    -6.841      1.265      6.446
REMARK INTER + INTRA:          -7.850
REMARK INTER:                  -7.622
REMARK INTRA:                  -0.229
REMARK UNBOUND:                 0.191
REMARK SMILES O=c1c(O)c(-c2ccc(O)cc2)oc2cc(O)cc(O)c12
REMARK SMILES IDX 5 1 3 2 2 3 1 4 21 5 19 6 18 7 16 8 15 9 14 10 13 11 6 12
REMARK SMILES IDX 7 13 8 14 9 15 12 16 11 17 10 18 4 20 20 22 17 24
REMARK H PARENT 10 19 4 21 20 23 17 25
REMARK Flexibility Score: inf
ROOT
ATOM      1  C   UNL     1       8.582  26.243  58.783  1.00  0.00     0.180 A 
ATOM      2  C   UNL     1       7.589  25.419  59.343  1.00  0.00     0.208 A 
ATOM      3  C   UNL     1       6.244  25.663  59.023  1.00  0.00     0.238 A 
ATOM      4  O   UNL     1       5.356  24.957  59.569  1.00  0.00    -0.285 OA
ATOM      5  C   UNL     1       5.909  26.714  58.136  1.00  0.00     0.111 A 
ATOM      6  C   UNL     1       4.583  27.025  57.712  1.00  0.00     0.134 A 
ATOM      7  C   UNL     1       4.356  28.167  56.936  1.00  0.00     0.093 A 
ATOM      8  C   UNL     1       5.416  28.975  56.515  1.00  0.00     0.123 A 
ATOM      9  C   UNL     1       6.720  28.646  56.875  1.00  0.00     0.094 A 
ATOM     10  C   UNL     1       6.974  27.532  57.679  1.00  0.00     0.146 A 
ATOM     11  O   UNL     1       8.232  27.261  58.007  1.00  0.00    -0.452 OA
ENDROOT
BRANCH   1  12
ATOM     12  C   UNL     1      10.023  26.033  59.053  1.00  0.00     0.021 A 
ATOM     13  C   UNL     1      10.565  26.450  60.280  1.00  0.00     0.016 A 
ATOM     14  C   UNL     1      11.926  26.283  60.548  1.00  0.00     0.047 A 
ATOM     15  C   UNL     1      12.767  25.711  59.588  1.00  0.00     0.115 A 
ATOM     16  C   UNL     1      10.878  25.477  58.083  1.00  0.00     0.016 A 
ATOM     17  C   UNL     1      12.240  25.312  58.354  1.00  0.00     0.047 A 
BRANCH  15  18
ATOM     18  O   UNL     1      14.122  25.550  59.868  1.00  0.00    -0.508 OA
ATOM     19  H   UNL     1      14.454  25.406  60.815  1.00  0.00     0.293 HD
ENDBRANCH  15  18
ENDBRANCH   1  12
BRANCH   2  20
ATOM     20  O   UNL     1       7.940  24.401  60.233  1.00  0.00    -0.502 OA
ATOM     21  H   UNL     1       8.357  23.530  59.925  1.00  0.00     0.293 HD
ENDBRANCH   2  20
BRANCH   6  22
ATOM     22  O   UNL     1       3.466  26.234  57.999  1.00  0.00    -0.507 OA
ATOM     23  H   UNL     1       3.496  25.242  58.180  1.00  0.00     0.293 HD
ENDBRANCH   6  22
BRANCH   8  24
ATOM     24  O   UNL     1       5.182  30.102  55.730  1.00  0.00    -0.508 OA
ATOM     25  H   UNL     1       5.810  30.364  54.978  1.00  0.00     0.293 HD
ENDBRANCH   8  24
TORSDOF 5
ENDMDL
MODEL 3
REMARK VINA RESULT:    -6.683      1.832      3.888
REMARK INTER + INTRA:          -7.664
REMARK INTER:                  -7.991
REMARK INTRA:                   0.327
REMARK UNBOUND:                 0.191
REMARK SMILES O=c1c(O)c(-c2ccc(O)cc2)oc2cc(O)cc(O)c12
REMARK SMILES IDX 5 1 3 2 2 3 1 4 21 5 19 6 18 7 16 8 15 9 14 10 13 11 6 12
REMARK SMILES IDX 7 13 8 14 9 15 12 16 11 17 10 18 4 20 20 22 17 24
REMARK H PARENT 10 19 4 21 20 23 17 25
REMARK Flexibility Score: inf
ROOT
ATOM      1  C   UNL     1       6.388  26.554  58.529  1.00  0.00     0.180 A 
ATOM      2  C   UNL     1       7.770  26.311  58.618  1.00  0.00     0.208 A 
ATOM      3  C   UNL     1       8.231  25.323  59.503  1.00  0.00     0.238 A 
ATOM      4  O   UNL     1       9.472  25.148  59.618  1.00  0.00    -0.285 OA
ATOM      5  C   UNL     1       7.307  24.581  60.276  1.00  0.00     0.111 A 
ATOM      6  C   UNL     1       7.660  23.531  61.175  1.00  0.00     0.134 A 
ATOM      7  C   UNL     1       6.675  22.953  61.984  1.00  0.00     0.093 A 
ATOM      8  C   UNL     1       5.337  23.344  61.881  1.00  0.00     0.123 A 
ATOM      9  C   UNL     1       4.973  24.327  60.964  1.00  0.00     0.094 A 
ATOM     10  C   UNL     1       5.940  24.947  60.168  1.00  0.00     0.146 A 
ATOM     11  O   UNL     1       5.551  25.887  59.315  1.00  0.00    -0.452 OA
ENDROOT
BRANCH   1  12
ATOM     12  C   UNL     1       5.824  27.561  57.601  1.00  0.00     0.021 A 
ATOM     13  C   UNL     1       4.550  27.352  57.046  1.00  0.00     0.016 A 
ATOM     14  C   UNL     1       4.007  28.277  56.150  1.00  0.00     0.047 A 
ATOM     15  C   UNL     1       4.735  29.415  55.786  1.00  0.00     0.115 A 
ATOM     16  C   UNL     1       6.560  28.696  57.215  1.00  0.00     0.016 A 
ATOM     17  C   UNL     1       6.015  29.620  56.318  1.00  0.00     0.047 A 
BRANCH  15  18
ATOM     18  O   UNL     1       4.182  30.329  54.892  1.00  0.00    -0.508 OA
ATOM     19  H   UNL     1       3.208  30.279  54.619  1.00  0.00     0.293 HD
ENDBRANCH  15  18
ENDBRANCH   1  12
BRANCH   2  20
ATOM     20  O   UNL     1       8.667  27.070  57.862  1.00  0.00    -0.502 OA
ATOM     21  H   UNL     1       9.200  27.835  58.260  1.00  0.00     0.293 HD
ENDBRANCH   2  20
BRANCH   6  22
ATOM     22  O   UNL     1       8.949  23.002  61.289  1.00  0.00    -0.507 OA
ATOM     23  H   UNL     1       9.800  23.539  61.206  1.00  0.00     0.293 HD
ENDBRANCH   6  22
BRANCH   8  24
ATOM     24  O   UNL     1       4.360  22.754  62.680  1.00  0.00    -0.508 OA
ATOM     25  H   UNL     1       4.206  23.052  63.636  1.00  0.00     0.293 HD
ENDBRANCH   8  24
TORSDOF 5
ENDMDL
MODEL 4
REMARK VINA RESULT:    -5.952      5.135      6.806
REMARK INTER + INTRA:          -6.805
REMARK INTER:                  -6.519
REMARK INTRA:                  -0.286
REMARK UNBOUND:                 0.191
REMARK SMILES O=c1c(O)c(-c2ccc(O)cc2)oc2cc(O)cc(O)c12
REMARK SMILES IDX 5 1 3 2 2 3 1 4 21 5 19 6 18 7 16 8 15 9 14 10 13 11 6 12
REMARK SMILES IDX 7 13 8 14 9 15 12 16 11 17 10 18 4 20 20 22 17 24
REMARK H PARENT 10 19 4 21 20 23 17 25
REMARK Flexibility Score: inf
ROOT
ATOM      1  C   UNL     1       5.896  30.854  61.339  1.00  0.00     0.180 A 
ATOM      2  C   UNL     1       5.416  30.008  62.354  1.00  0.00     0.208 A 
ATOM      3  C   UNL     1       4.891  28.754  62.002  1.00  0.00     0.238 A 
ATOM      4  O   UNL     1       4.413  28.024  62.909  1.00  0.00    -0.285 OA
ATOM      5  C   UNL     1       4.867  28.356  60.644  1.00  0.00     0.111 A 
ATOM      6  C   UNL     1       4.394  27.092  60.178  1.00  0.00     0.134 A 
ATOM      7  C   UNL     1       4.296  26.856  58.802  1.00  0.00     0.093 A 
ATOM      8  C   UNL     1       4.715  27.814  57.875  1.00  0.00     0.123 A 
ATOM      9  C   UNL     1       5.233  29.027  58.321  1.00  0.00     0.094 A 
ATOM     10  C   UNL     1       5.310  29.306  59.688  1.00  0.00     0.146 A 
ATOM     11  O   UNL     1       5.800  30.479  60.070  1.00  0.00    -0.452 OA
ENDROOT
BRANCH   1  12
ATOM     12  C   UNL     1       6.487  32.180  61.634  1.00  0.00     0.021 A 
ATOM     13  C   UNL     1       5.651  33.306  61.719  1.00  0.00     0.016 A 
ATOM     14  C   UNL     1       6.189  34.571  61.974  1.00  0.00     0.047 A 
ATOM     15  C   UNL     1       7.570  34.729  62.131  1.00  0.00     0.115 A 
ATOM     16  C   UNL     1       7.877  32.349  61.772  1.00  0.00     0.016 A 
ATOM     17  C   UNL     1       8.413  33.615  62.026  1.00  0.00     0.047 A 
BRANCH  15  18
ATOM     18  O   UNL     1       8.093  35.995  62.385  1.00  0.00    -0.508 OA
ATOM     19  H   UNL     1       8.374  36.274  63.318  1.00  0.00     0.293 HD
ENDBRANCH  15  18
ENDBRANCH   1  12
BRANCH   2  20
ATOM     20  O   UNL     1       5.428  30.430  63.686  1.00  0.00    -0.502 OA
ATOM     21  H   UNL     1       4.687  30.995  64.084  1.00  0.00     0.293 HD
ENDBRANCH   2  20
BRANCH   6  22
ATOM     22  O   UNL     1       4.038  26.033  61.019  1.00  0.00    -0.507 OA
ATOM     23  H   UNL     1       3.250  26.041  61.650  1.00  0.00     0.293 HD
ENDBRANCH   6  22
BRANCH   8  24
ATOM     24  O   UNL     1       4.628  27.565  56.507  1.00  0.00    -0.508 OA
ATOM     25  H   UNL     1       5.351  27.872  55.865  1.00  0.00     0.293 HD
ENDBRANCH   8  24
TORSDOF 5
ENDMDL
MODEL 5
REMARK VINA RESULT:    -5.850      4.734      6.467
REMARK INTER + INTRA:          -6.686
REMARK INTER:                  -6.521
REMARK INTRA:                  -0.164
REMARK UNBOUND:                 0.191
REMARK SMILES O=c1c(O)c(-c2ccc(O)cc2)oc2cc(O)cc(O)c12
REMARK SMILES IDX 5 1 3 2 2 3 1 4 21 5 19 6 18 7 16 8 15 9 14 10 13 11 6 12
REMARK SMILES IDX 7 13 8 14 9 15 12 16 11 17 10 18 4 20 20 22 17 24
REMARK H PARENT 10 19 4 21 20 23 17 25
REMARK Flexibility Score: inf
ROOT
ATOM      1  C   UNL     1       5.701  29.963  61.250  1.00  0.00     0.180 A 
ATOM      2  C   UNL     1       6.447  28.871  61.726  1.00  0.00     0.208 A 
ATOM      3  C   UNL     1       6.569  27.727  60.919  1.00  0.00     0.238 A 
ATOM      4  O   UNL     1       7.193  26.733  61.374  1.00  0.00    -0.285 OA
ATOM      5  C   UNL     1       5.960  27.697  59.642  1.00  0.00     0.111 A 
ATOM      6  C   UNL     1       6.054  26.607  58.726  1.00  0.00     0.134 A 
ATOM      7  C   UNL     1       5.303  26.632  57.544  1.00  0.00     0.093 A 
ATOM      8  C   UNL     1       4.513  27.737  57.216  1.00  0.00     0.123 A 
ATOM      9  C   UNL     1       4.462  28.830  58.076  1.00  0.00     0.094 A 
ATOM     10  C   UNL     1       5.172  28.819  59.280  1.00  0.00     0.146 A 
ATOM     11  O   UNL     1       5.087  29.879  60.075  1.00  0.00    -0.452 OA
ENDROOT
BRANCH   1  12
ATOM     12  C   UNL     1       5.547  31.212  62.031  1.00  0.00     0.021 A 
ATOM     13  C   UNL     1       4.758  31.207  63.193  1.00  0.00     0.016 A 
ATOM     14  C   UNL     1       4.580  32.379  63.934  1.00  0.00     0.047 A 
ATOM     15  C   UNL     1       5.174  33.574  63.515  1.00  0.00     0.115 A 
ATOM     16  C   UNL     1       6.125  32.421  61.602  1.00  0.00     0.016 A 
ATOM     17  C   UNL     1       5.945  33.592  62.345  1.00  0.00     0.047 A 
BRANCH  15  18
ATOM     18  O   UNL     1       4.990  34.734  64.262  1.00  0.00    -0.508 OA
ATOM     19  H   UNL     1       4.112  34.929  64.729  1.00  0.00     0.293 HD
ENDBRANCH  15  18
ENDBRANCH   1  12
BRANCH   2  20
ATOM     20  O   UNL     1       7.021  28.914  62.999  1.00  0.00    -0.502 OA
ATOM     21  H   UNL     1       7.866  28.405  63.231  1.00  0.00     0.293 HD
ENDBRANCH   2  20
BRANCH   6  22
ATOM     22  O   UNL     1       6.884  25.498  58.914  1.00  0.00    -0.507 OA
ATOM     23  H   UNL     1       6.782  24.616  58.432  1.00  0.00     0.293 HD
ENDBRANCH   6  22
BRANCH   8  24
ATOM     24  O   UNL     1       3.781  27.760  56.031  1.00  0.00    -0.508 OA
ATOM     25  H   UNL     1       3.660  28.614  55.499  1.00  0.00     0.293 HD
ENDBRANCH   8  24
TORSDOF 5
ENDMDL
MODEL 6
REMARK VINA RESULT:    -5.793      2.768      3.870
REMARK INTER + INTRA:          -6.619
REMARK INTER:                  -6.381
REMARK INTRA:                  -0.238
REMARK UNBOUND:                 0.191
REMARK SMILES O=c1c(O)c(-c2ccc(O)cc2)oc2cc(O)cc(O)c12
REMARK SMILES IDX 5 1 3 2 2 3 1 4 21 5 19 6 18 7 16 8 15 9 14 10 13 11 6 12
REMARK SMILES IDX 7 13 8 14 9 15 12 16 11 17 10 18 4 20 20 22 17 24
REMARK H PARENT 10 19 4 21 20 23 17 25
REMARK Flexibility Score: inf
ROOT
ATOM      1  C   UNL     1       5.069  25.724  59.576  1.00  0.00     0.180 A 
ATOM      2  C   UNL     1       3.918  25.107  60.097  1.00  0.00     0.208 A 
ATOM      3  C   UNL     1       4.067  24.061  61.022  1.00  0.00     0.238 A 
ATOM      4  O   UNL     1       3.034  23.477  61.443  1.00  0.00    -0.285 OA
ATOM      5  C   UNL     1       5.361  23.656  61.426  1.00  0.00     0.111 A 
ATOM      6  C   UNL     1       5.627  22.634  62.387  1.00  0.00     0.134 A 
ATOM      7  C   UNL     1       6.947  22.226  62.614  1.00  0.00     0.093 A 
ATOM      8  C   UNL     1       8.015  22.849  61.962  1.00  0.00     0.123 A 
ATOM      9  C   UNL     1       7.769  23.887  61.068  1.00  0.00     0.094 A 
ATOM     10  C   UNL     1       6.460  24.291  60.794  1.00  0.00     0.146 A 
ATOM     11  O   UNL     1       6.270  25.278  59.926  1.00  0.00    -0.452 OA
ENDROOT
BRANCH   1  12
ATOM     12  C   UNL     1       4.994  26.850  58.617  1.00  0.00     0.021 A 
ATOM     13  C   UNL     1       5.362  26.642  57.278  1.00  0.00     0.016 A 
ATOM     14  C   UNL     1       5.320  27.695  56.359  1.00  0.00     0.047 A 
ATOM     15  C   UNL     1       4.925  28.972  56.771  1.00  0.00     0.115 A 
ATOM     16  C   UNL     1       4.617  28.142  59.030  1.00  0.00     0.016 A 
ATOM     17  C   UNL     1       4.577  29.193  58.110  1.00  0.00     0.047 A 
BRANCH  15  18
ATOM     18  O   UNL     1       4.887  30.013  55.846  1.00  0.00    -0.508 OA
ATOM     19  H   UNL     1       5.668  30.648  55.731  1.00  0.00     0.293 HD
ENDBRANCH  15  18
ENDBRANCH   1  12
BRANCH   2  20
ATOM     20  O   UNL     1       2.651  25.508  59.667  1.00  0.00    -0.502 OA
ATOM     21  H   UNL     1       1.805  25.270  60.172  1.00  0.00     0.293 HD
ENDBRANCH   2  20
BRANCH   6  22
ATOM     22  O   UNL     1       4.641  22.012  63.159  1.00  0.00    -0.507 OA
ATOM     23  H   UNL     1       4.021  21.289  62.825  1.00  0.00     0.293 HD
ENDBRANCH   6  22
BRANCH   8  24
ATOM     24  O   UNL     1       9.327  22.447  62.206  1.00  0.00    -0.508 OA
ATOM     25  H   UNL     1      10.081  23.120  62.286  1.00  0.00     0.293 HD
ENDBRANCH   8  24
TORSDOF 5
ENDMDL
MODEL 7
REMARK VINA RESULT:    -5.528      3.072      4.932
REMARK INTER + INTRA:          -6.307
REMARK INTER:                  -6.019
REMARK INTRA:                  -0.287
REMARK UNBOUND:                 0.191
REMARK SMILES O=c1c(O)c(-c2ccc(O)cc2)oc2cc(O)cc(O)c12
REMARK SMILES IDX 5 1 3 2 2 3 1 4 21 5 19 6 18 7 16 8 15 9 14 10 13 11 6 12
REMARK SMILES IDX 7 13 8 14 9 15 12 16 11 17 10 18 4 20 20 22 17 24
REMARK H PARENT 10 19 4 21 20 23 17 25
REMARK Flexibility Score: inf
ROOT
ATOM      1  C   UNL     1       5.384  25.819  59.639  1.00  0.00     0.180 A 
ATOM      2  C   UNL     1       6.573  25.721  60.384  1.00  0.00     0.208 A 
ATOM      3  C   UNL     1       6.720  24.662  61.294  1.00  0.00     0.238 A 
ATOM      4  O   UNL     1       7.763  24.611  61.997  1.00  0.00    -0.285 OA
ATOM      5  C   UNL     1       5.687  23.705  61.436  1.00  0.00     0.111 A 
ATOM      6  C   UNL     1       5.747  22.570  62.298  1.00  0.00     0.134 A 
ATOM      7  C   UNL     1       4.615  21.762  62.455  1.00  0.00     0.093 A 
ATOM      8  C   UNL     1       3.445  22.011  61.732  1.00  0.00     0.123 A 
ATOM      9  C   UNL     1       3.397  23.082  60.843  1.00  0.00     0.094 A 
ATOM     10  C   UNL     1       4.499  23.928  60.692  1.00  0.00     0.146 A 
ATOM     11  O   UNL     1       4.407  24.943  59.842  1.00  0.00    -0.452 OA
ENDROOT
BRANCH   1  12
ATOM     12  C   UNL     1       5.165  26.892  58.643  1.00  0.00     0.021 A 
ATOM     13  C   UNL     1       5.552  26.686  57.308  1.00  0.00     0.016 A 
ATOM     14  C   UNL     1       5.376  27.694  56.355  1.00  0.00     0.047 A 
ATOM     15  C   UNL     1       4.826  28.925  56.726  1.00  0.00     0.115 A 
ATOM     16  C   UNL     1       4.632  28.141  59.015  1.00  0.00     0.016 A 
ATOM     17  C   UNL     1       4.458  29.147  58.059  1.00  0.00     0.047 A 
BRANCH  15  18
ATOM     18  O   UNL     1       4.656  29.920  55.767  1.00  0.00    -0.508 OA
ATOM     19  H   UNL     1       4.126  29.754  54.920  1.00  0.00     0.293 HD
ENDBRANCH  15  18
ENDBRANCH   1  12
BRANCH   2  20
ATOM     20  O   UNL     1       7.570  26.690  60.245  1.00  0.00    -0.502 OA
ATOM     21  H   UNL     1       7.392  27.678  60.381  1.00  0.00     0.293 HD
ENDBRANCH   2  20
BRANCH   6  22
ATOM     22  O   UNL     1       6.894  22.178  62.995  1.00  0.00    -0.507 OA
ATOM     23  H   UNL     1       7.293  22.682  63.773  1.00  0.00     0.293 HD
ENDBRANCH   6  22
BRANCH   8  24
ATOM     24  O   UNL     1       2.328  21.193  61.883  1.00  0.00    -0.508 OA
ATOM     25  H   UNL     1       2.310  20.440  62.561  1.00  0.00     0.293 HD
ENDBRANCH   8  24
TORSDOF 5
ENDMDL
MODEL 8
REMARK VINA RESULT:    -5.507      1.798      6.433
REMARK INTER + INTRA:          -6.282
REMARK INTER:                  -6.353
REMARK INTRA:                   0.070
REMARK UNBOUND:                 0.191
REMARK SMILES O=c1c(O)c(-c2ccc(O)cc2)oc2cc(O)cc(O)c12
REMARK SMILES IDX 5 1 3 2 2 3 1 4 21 5 19 6 18 7 16 8 15 9 14 10 13 11 6 12
REMARK SMILES IDX 7 13 8 14 9 15 12 16 11 17 10 18 4 20 20 22 17 24
REMARK H PARENT 10 19 4 21 20 23 17 25
REMARK Flexibility Score: inf
ROOT
ATOM      1  C   UNL     1       8.930  26.108  59.697  1.00  0.00     0.180 A 
ATOM      2  C   UNL     1       8.606  26.624  60.964  1.00  0.00     0.208 A 
ATOM      3  C   UNL     1       7.327  27.165  61.172  1.00  0.00     0.238 A 
ATOM      4  O   UNL     1       7.062  27.673  62.292  1.00  0.00    -0.285 OA
ATOM      5  C   UNL     1       6.384  27.170  60.117  1.00  0.00     0.111 A 
ATOM      6  C   UNL     1       5.047  27.656  60.227  1.00  0.00     0.134 A 
ATOM      7  C   UNL     1       4.243  27.732  59.083  1.00  0.00     0.093 A 
ATOM      8  C   UNL     1       4.706  27.278  57.845  1.00  0.00     0.123 A 
ATOM      9  C   UNL     1       5.989  26.747  57.740  1.00  0.00     0.094 A 
ATOM     10  C   UNL     1       6.827  26.691  58.857  1.00  0.00     0.146 A 
ATOM     11  O   UNL     1       8.046  26.187  58.709  1.00  0.00    -0.452 OA
ENDROOT
BRANCH   1  12
ATOM     12  C   UNL     1      10.249  25.499  59.409  1.00  0.00     0.021 A 
ATOM     13  C   UNL     1      10.900  25.799  58.200  1.00  0.00     0.016 A 
ATOM     14  C   UNL     1      12.134  25.218  57.896  1.00  0.00     0.047 A 
ATOM     15  C   UNL     1      12.727  24.318  58.788  1.00  0.00     0.115 A 
ATOM     16  C   UNL     1      10.840  24.577  60.292  1.00  0.00     0.016 A 
ATOM     17  C   UNL     1      12.075  23.997  59.986  1.00  0.00     0.047 A 
BRANCH  15  18
ATOM     18  O   UNL     1      13.957  23.747  58.474  1.00  0.00    -0.508 OA
ATOM     19  H   UNL     1      14.312  22.943  58.979  1.00  0.00     0.293 HD
ENDBRANCH  15  18
ENDBRANCH   1  12
BRANCH   2  20
ATOM     20  O   UNL     1       9.560  26.629  61.985  1.00  0.00    -0.502 OA
ATOM     21  H   UNL     1      10.397  26.059  61.950  1.00  0.00     0.293 HD
ENDBRANCH   2  20
BRANCH   6  22
ATOM     22  O   UNL     1       4.456  28.048  61.432  1.00  0.00    -0.507 OA
ATOM     23  H   UNL     1       4.519  27.533  62.297  1.00  0.00     0.293 HD
ENDBRANCH   6  22
BRANCH   8  24
ATOM     24  O   UNL     1       3.894  27.343  56.715  1.00  0.00    -0.508 OA
ATOM     25  H   UNL     1       3.141  26.681  56.565  1.00  0.00     0.293 HD
ENDBRANCH   8  24
TORSDOF 5
ENDMDL
MODEL 9
REMARK VINA RESULT:    -5.413      3.107      6.937
REMARK INTER + INTRA:          -6.172
REMARK INTER:                  -5.906
REMARK INTRA:                  -0.266
REMARK UNBOUND:                 0.191
REMARK SMILES O=c1c(O)c(-c2ccc(O)cc2)oc2cc(O)cc(O)c12
REMARK SMILES IDX 5 1 3 2 2 3 1 4 21 5 19 6 18 7 16 8 15 9 14 10 13 11 6 12
REMARK SMILES IDX 7 13 8 14 9 15 12 16 11 17 10 18 4 20 20 22 17 24
REMARK H PARENT 10 19 4 21 20 23 17 25
REMARK Flexibility Score: inf
ROOT
ATOM      1  C   UNL     1       6.357  25.274  60.848  1.00  0.00     0.180 A 
ATOM      2  C   UNL     1       6.688  26.398  61.625  1.00  0.00     0.208 A 
ATOM      3  C   UNL     1       6.380  27.678  61.137  1.00  0.00     0.238 A 
ATOM      4  O   UNL     1       6.727  28.681  61.813  1.00  0.00    -0.285 OA
ATOM      5  C   UNL     1       5.731  27.818  59.887  1.00  0.00     0.111 A 
ATOM      6  C   UNL     1       5.335  29.064  59.315  1.00  0.00     0.134 A 
ATOM      7  C   UNL     1       4.818  29.093  58.014  1.00  0.00     0.093 A 
ATOM      8  C   UNL     1       4.621  27.914  57.290  1.00  0.00     0.123 A 
ATOM      9  C   UNL     1       4.948  26.688  57.864  1.00  0.00     0.094 A 
ATOM     10  C   UNL     1       5.500  26.630  59.146  1.00  0.00     0.146 A 
ATOM     11  O   UNL     1       5.808  25.441  59.651  1.00  0.00    -0.452 OA
ENDROOT
BRANCH   1  12
ATOM     12  C   UNL     1       6.627  23.892  61.307  1.00  0.00     0.021 A 
ATOM     13  C   UNL     1       7.904  23.338  61.118  1.00  0.00     0.016 A 
ATOM     14  C   UNL     1       8.176  22.028  61.522  1.00  0.00     0.047 A 
ATOM     15  C   UNL     1       7.172  21.249  62.105  1.00  0.00     0.115 A 
ATOM     16  C   UNL     1       5.615  23.096  61.874  1.00  0.00     0.016 A 
ATOM     17  C   UNL     1       5.889  21.786  62.277  1.00  0.00     0.047 A 
BRANCH  15  18
ATOM     18  O   UNL     1       7.456  19.945  62.504  1.00  0.00    -0.508 OA
ATOM     19  H   UNL     1       6.853  19.446  63.148  1.00  0.00     0.293 HD
ENDBRANCH  15  18
ENDBRANCH   1  12
BRANCH   2  20
ATOM     20  O   UNL     1       7.349  26.237  62.846  1.00  0.00    -0.502 OA
ATOM     21  H   UNL     1       7.994  25.476  63.019  1.00  0.00     0.293 HD
ENDBRANCH   2  20
BRANCH   6  22
ATOM     22  O   UNL     1       5.404  30.288  59.986  1.00  0.00    -0.507 OA
ATOM     23  H   UNL     1       6.260  30.779  60.200  1.00  0.00     0.293 HD
ENDBRANCH   6  22
BRANCH   8  24
ATOM     24  O   UNL     1       4.091  27.951  56.002  1.00  0.00    -0.508 OA
ATOM     25  H   UNL     1       4.684  28.068  55.188  1.00  0.00     0.293 HD
ENDBRANCH   8  24
TORSDOF 5
ENDMDL
