MODEL 1
REMARK VINA RESULT:    -5.340      0.000      0.000
REMARK INTER + INTRA:         -11.678
REMARK INTER:                 -10.336
REMARK INTRA:                  -1.343
REMARK UNBOUND:                -1.343
REMARK SMILES CCCCCCCCCCCCCCCCCC(=O)[O-]
REMARK SMILES IDX 10 1 11 2 12 3 13 4 14 5 15 6 16 7 17 8 18 9 19 10 20 11
REMARK SMILES IDX 9 12 8 13 7 14 6 15 5 16 4 17 3 18 2 19 1 20
REMARK H PARENT
REMARK Flexibility Score: inf
ROOT
ATOM      1  C   UNL     1      49.503  30.384  17.031  1.00  0.00     0.000 C 
ENDROOT
BRANCH   1   2
ATOM      2  C   UNL     1      49.743  31.773  17.642  1.00  0.00     0.000 C 
BRANCH   2   3
ATOM      3  C   UNL     1      48.435  32.514  17.963  1.00  0.00     0.000 C 
BRANCH   3   4
ATOM      4  C   UNL     1      48.320  33.858  17.228  1.00  0.00     0.000 C 
BRANCH   4   5
ATOM      5  C   UNL     1      47.330  33.759  16.057  1.00  0.00     0.000 C 
BRANCH   5   6
ATOM      6  C   UNL     1      47.978  33.204  14.779  1.00  0.00     0.000 C 
BRANCH   6   7
ATOM      7  C   UNL     1      48.711  34.288  13.967  1.00  0.00     0.006 C 
BRANCH   7   8
ATOM      8  C   UNL     1      48.072  34.511  12.591  1.00  0.00     0.053 C 
BRANCH   8   9
ATOM      9  C   UNL     1      48.802  33.771  11.512  1.00  0.00     0.041 C 
ATOM     10  O   UNL     1      48.166  33.047  10.700  1.00  0.00    -0.550 OA
ATOM     11  O   UNL     1      50.186  33.852  11.426  1.00  0.00    -0.550 OA
ENDBRANCH   8   9
ENDBRANCH   7   8
ENDBRANCH   6   7
ENDBRANCH   5   6
ENDBRANCH   4   5
ENDBRANCH   3   4
ENDBRANCH   2   3
ENDBRANCH   1   2
BRANCH   1  12
ATOM     12  C   UNL     1      48.091  29.880  17.352  1.00  0.00     0.000 C 
BRANCH  12  13
ATOM     13  C   UNL     1      47.569  28.959  16.239  1.00  0.00    -0.000 C 
BRANCH  13  14
ATOM     14  C   UNL     1      48.536  27.807  15.921  1.00  0.00    -0.000 C 
BRANCH  14  15
ATOM     15  C   UNL     1      48.173  26.509  16.659  1.00  0.00    -0.000 C 
BRANCH  15  16
ATOM     16  C   UNL     1      49.433  25.680  16.956  1.00  0.00    -0.000 C 
BRANCH  16  17
ATOM     17  C   UNL     1      49.549  25.287  18.438  1.00  0.00    -0.000 C 
BRANCH  17  18
ATOM     18  C   UNL     1      48.254  25.557  19.224  1.00  0.00    -0.000 C 
BRANCH  18  19
ATOM     19  C   UNL     1      48.476  25.543  20.744  1.00  0.00    -0.003 C 
ATOM     20  C   UNL     1      49.793  24.877  21.146  1.00  0.00     0.004 C 
ENDBRANCH  18  19
ENDBRANCH  17  18
ENDBRANCH  16  17
ENDBRANCH  15  16
ENDBRANCH  14  15
ENDBRANCH  13  14
ENDBRANCH  12  13
ENDBRANCH   1  12
TORSDOF 16
ENDMDL
MODEL 2
REMARK VINA RESULT:    -5.290      1.243      2.045
REMARK INTER + INTRA:         -11.581
REMARK INTER:                 -10.442
REMARK INTRA:                  -1.139
REMARK UNBOUND:                -1.343
REMARK SMILES CCCCCCCCCCCCCCCCCC(=O)[O-]
REMARK SMILES IDX 10 1 11 2 12 3 13 4 14 5 15 6 16 7 17 8 18 9 19 10 20 11
REMARK SMILES IDX 9 12 8 13 7 14 6 15 5 16 4 17 3 18 2 19 1 20
REMARK H PARENT
REMARK Flexibility Score: inf
ROOT
ATOM      1  C   UNL     1      49.145  29.798  16.724  1.00  0.00     0.000 C 
ENDROOT
BRANCH   1   2
ATOM      2  C   UNL     1      47.858  30.410  17.297  1.00  0.00     0.000 C 
BRANCH   2   3
ATOM      3  C   UNL     1      48.127  31.643  18.175  1.00  0.00     0.000 C 
BRANCH   3   4
ATOM      4  C   UNL     1      49.336  32.460  17.695  1.00  0.00     0.000 C 
BRANCH   4   5
ATOM      5  C   UNL     1      48.903  33.861  17.237  1.00  0.00     0.000 C 
BRANCH   5   6
ATOM      6  C   UNL     1      47.735  33.824  16.239  1.00  0.00     0.000 C 
BRANCH   6   7
ATOM      7  C   UNL     1      48.136  33.224  14.879  1.00  0.00     0.006 C 
BRANCH   7   8
ATOM      8  C   UNL     1      48.661  34.291  13.909  1.00  0.00     0.053 C 
BRANCH   8   9
ATOM      9  C   UNL     1      47.889  34.303  12.626  1.00  0.00     0.041 C 
ATOM     10  O   UNL     1      48.306  33.651  11.630  1.00  0.00    -0.550 OA
ATOM     11  O   UNL     1      46.731  35.061  12.516  1.00  0.00    -0.550 OA
ENDBRANCH   8   9
ENDBRANCH   7   8
ENDBRANCH   6   7
ENDBRANCH   5   6
ENDBRANCH   4   5
ENDBRANCH   3   4
ENDBRANCH   2   3
ENDBRANCH   1   2
BRANCH   1  12
ATOM     12  C   UNL     1      49.272  28.321  17.118  1.00  0.00     0.000 C 
BRANCH  12  13
ATOM     13  C   UNL     1      48.297  27.451  16.310  1.00  0.00    -0.000 C 
BRANCH  13  14
ATOM     14  C   UNL     1      48.084  26.063  16.934  1.00  0.00    -0.000 C 
BRANCH  14  15
ATOM     15  C   UNL     1      49.270  25.617  17.803  1.00  0.00    -0.000 C 
BRANCH  15  16
ATOM     16  C   UNL     1      48.817  25.340  19.245  1.00  0.00    -0.000 C 
BRANCH  16  17
ATOM     17  C   UNL     1      49.971  24.892  20.156  1.00  0.00    -0.000 C 
BRANCH  17  18
ATOM     18  C   UNL     1      50.169  25.828  21.361  1.00  0.00    -0.000 C 
BRANCH  18  19
ATOM     19  C   UNL     1      48.870  26.537  21.774  1.00  0.00    -0.003 C 
ATOM     20  C   UNL     1      49.051  27.447  22.990  1.00  0.00     0.004 C 
ENDBRANCH  18  19
ENDBRANCH  17  18
ENDBRANCH  16  17
ENDBRANCH  15  16
ENDBRANCH  14  15
ENDBRANCH  13  14
ENDBRANCH  12  13
ENDBRANCH   1  12
TORSDOF 16
ENDMDL
MODEL 3
REMARK VINA RESULT:    -5.248      5.714     11.002
REMARK INTER + INTRA:         -11.498
REMARK INTER:                 -10.063
REMARK INTRA:                  -1.436
REMARK UNBOUND:                -1.343
REMARK SMILES CCCCCCCCCCCCCCCCCC(=O)[O-]
REMARK SMILES IDX 10 1 11 2 12 3 13 4 14 5 15 6 16 7 17 8 18 9 19 10 20 11
REMARK SMILES IDX 9 12 8 13 7 14 6 15 5 16 4 17 3 18 2 19 1 20
REMARK H PARENT
REMARK Flexibility Score: inf
ROOT
ATOM      1  C   UNL     1      44.808  35.413  12.846  1.00  0.00     0.000 C 
ENDROOT
BRANCH   1   2
ATOM      2  C   UNL     1      46.323  35.553  12.630  1.00  0.00     0.000 C 
BRANCH   2   3
ATOM      3  C   UNL     1      46.917  34.385  11.826  1.00  0.00     0.000 C 
BRANCH   3   4
ATOM      4  C   UNL     1      48.294  33.947  12.348  1.00  0.00     0.000 C 
BRANCH   4   5
ATOM      5  C   UNL     1      48.519  34.444  13.784  1.00  0.00     0.000 C 
BRANCH   5   6
ATOM      6  C   UNL     1      48.184  33.377  14.839  1.00  0.00     0.000 C 
BRANCH   6   7
ATOM      7  C   UNL     1      47.627  33.984  16.139  1.00  0.00     0.006 C 
BRANCH   7   8
ATOM      8  C   UNL     1      48.637  33.911  17.292  1.00  0.00     0.053 C 
BRANCH   8   9
ATOM      9  C   UNL     1      48.899  32.499  17.713  1.00  0.00     0.041 C 
ATOM     10  O   UNL     1      47.938  31.716  17.938  1.00  0.00    -0.550 OA
ATOM     11  O   UNL     1      50.204  32.056  17.893  1.00  0.00    -0.550 OA
ENDBRANCH   8   9
ENDBRANCH   7   8
ENDBRANCH   6   7
ENDBRANCH   5   6
ENDBRANCH   4   5
ENDBRANCH   3   4
ENDBRANCH   2   3
ENDBRANCH   1   2
BRANCH   1  12
ATOM     12  C   UNL     1      44.081  36.716  12.490  1.00  0.00     0.000 C 
BRANCH  12  13
ATOM     13  C   UNL     1      42.631  36.437  12.065  1.00  0.00    -0.000 C 
BRANCH  13  14
ATOM     14  C   UNL     1      42.176  37.322  10.894  1.00  0.00    -0.000 C 
BRANCH  14  15
ATOM     15  C   UNL     1      42.936  38.656  10.829  1.00  0.00    -0.000 C 
BRANCH  15  16
ATOM     16  C   UNL     1      42.116  39.784  11.473  1.00  0.00    -0.000 C 
BRANCH  16  17
ATOM     17  C   UNL     1      40.604  39.502  11.460  1.00  0.00    -0.000 C 
BRANCH  17  18
ATOM     18  C   UNL     1      39.965  39.644  12.852  1.00  0.00    -0.000 C 
BRANCH  18  19
ATOM     19  C   UNL     1      39.650  38.285  13.496  1.00  0.00    -0.003 C 
ATOM     20  C   UNL     1      40.521  37.990  14.718  1.00  0.00     0.004 C 
ENDBRANCH  18  19
ENDBRANCH  17  18
ENDBRANCH  16  17
ENDBRANCH  15  16
ENDBRANCH  14  15
ENDBRANCH  13  14
ENDBRANCH  12  13
ENDBRANCH   1  12
TORSDOF 16
ENDMDL
MODEL 4
REMARK VINA RESULT:    -5.236      2.768      5.199
REMARK INTER + INTRA:         -11.476
REMARK INTER:                  -9.810
REMARK INTRA:                  -1.666
REMARK UNBOUND:                -1.343
REMARK SMILES CCCCCCCCCCCCCCCCCC(=O)[O-]
REMARK SMILES IDX 10 1 11 2 12 3 13 4 14 5 15 6 16 7 17 8 18 9 19 10 20 11
REMARK SMILES IDX 9 12 8 13 7 14 6 15 5 16 4 17 3 18 2 19 1 20
REMARK H PARENT
REMARK Flexibility Score: inf
ROOT
ATOM      1  C   UNL     1      50.339  26.084  17.674  1.00  0.00     0.000 C 
ENDROOT
BRANCH   1   2
ATOM      2  C   UNL     1      49.802  25.545  16.340  1.00  0.00     0.000 C 
BRANCH   2   3
ATOM      3  C   UNL     1      48.687  26.425  15.750  1.00  0.00     0.000 C 
BRANCH   3   4
ATOM      4  C   UNL     1      48.968  27.926  15.916  1.00  0.00     0.000 C 
BRANCH   4   5
ATOM      5  C   UNL     1      47.697  28.677  16.341  1.00  0.00     0.000 C 
BRANCH   5   6
ATOM      6  C   UNL     1      47.293  29.770  15.339  1.00  0.00     0.000 C 
BRANCH   6   7
ATOM      7  C   UNL     1      48.401  30.816  15.123  1.00  0.00     0.006 C 
BRANCH   7   8
ATOM      8  C   UNL     1      48.013  32.193  15.677  1.00  0.00     0.053 C 
BRANCH   8   9
ATOM      9  C   UNL     1      48.727  32.498  16.958  1.00  0.00     0.041 C 
ATOM     10  O   UNL     1      49.414  31.609  17.528  1.00  0.00    -0.550 OA
ATOM     11  O   UNL     1      48.606  33.753  17.541  1.00  0.00    -0.550 OA
ENDBRANCH   8   9
ENDBRANCH   7   8
ENDBRANCH   6   7
ENDBRANCH   5   6
ENDBRANCH   4   5
ENDBRANCH   3   4
ENDBRANCH   2   3
ENDBRANCH   1   2
BRANCH   1  12
ATOM     12  C   UNL     1      49.919  25.180  18.840  1.00  0.00     0.000 C 
BRANCH  12  13
ATOM     13  C   UNL     1      48.487  25.500  19.295  1.00  0.00    -0.000 C 
BRANCH  13  14
ATOM     14  C   UNL     1      48.311  25.392  20.818  1.00  0.00    -0.000 C 
BRANCH  14  15
ATOM     15  C   UNL     1      48.518  26.736  21.534  1.00  0.00    -0.000 C 
BRANCH  15  16
ATOM     16  C   UNL     1      49.419  26.564  22.768  1.00  0.00    -0.000 C 
BRANCH  16  17
ATOM     17  C   UNL     1      50.769  25.909  22.431  1.00  0.00    -0.000 C 
BRANCH  17  18
ATOM     18  C   UNL     1      51.898  26.941  22.259  1.00  0.00    -0.000 C 
BRANCH  18  19
ATOM     19  C   UNL     1      52.612  26.809  20.905  1.00  0.00    -0.003 C 
ATOM     20  C   UNL     1      53.406  25.508  20.776  1.00  0.00     0.004 C 
ENDBRANCH  18  19
ENDBRANCH  17  18
ENDBRANCH  16  17
ENDBRANCH  15  16
ENDBRANCH  14  15
ENDBRANCH  13  14
ENDBRANCH  12  13
ENDBRANCH   1  12
TORSDOF 16
ENDMDL
MODEL 5
REMARK VINA RESULT:    -5.225      4.254      9.189
REMARK INTER + INTRA:         -11.455
REMARK INTER:                 -10.137
REMARK INTRA:                  -1.319
REMARK UNBOUND:                -1.343
REMARK SMILES CCCCCCCCCCCCCCCCCC(=O)[O-]
REMARK SMILES IDX 10 1 11 2 12 3 13 4 14 5 15 6 16 7 17 8 18 9 19 10 20 11
REMARK SMILES IDX 9 12 8 13 7 14 6 15 5 16 4 17 3 18 2 19 1 20
REMARK H PARENT
REMARK Flexibility Score: inf
ROOT
ATOM      1  C   UNL     1      47.535  29.827  15.686  1.00  0.00     0.000 C 
ENDROOT
BRANCH   1   2
ATOM      2  C   UNL     1      47.625  28.383  16.202  1.00  0.00     0.000 C 
BRANCH   2   3
ATOM      3  C   UNL     1      48.806  27.609  15.593  1.00  0.00     0.000 C 
BRANCH   3   4
ATOM      4  C   UNL     1      48.854  26.144  16.053  1.00  0.00     0.000 C 
BRANCH   4   5
ATOM      5  C   UNL     1      48.274  25.995  17.468  1.00  0.00     0.000 C 
BRANCH   5   6
ATOM      6  C   UNL     1      49.274  25.372  18.455  1.00  0.00     0.000 C 
BRANCH   6   7
ATOM      7  C   UNL     1      48.701  25.243  19.878  1.00  0.00     0.006 C 
BRANCH   7   8
ATOM      8  C   UNL     1      49.790  25.356  20.953  1.00  0.00     0.053 C 
BRANCH   8   9
ATOM      9  C   UNL     1      49.434  26.364  22.001  1.00  0.00     0.041 C 
ATOM     10  O   UNL     1      50.340  26.998  22.604  1.00  0.00    -0.550 OA
ATOM     11  O   UNL     1      48.103  26.578  22.339  1.00  0.00    -0.550 OA
ENDBRANCH   8   9
ENDBRANCH   7   8
ENDBRANCH   6   7
ENDBRANCH   5   6
ENDBRANCH   4   5
ENDBRANCH   3   4
ENDBRANCH   2   3
ENDBRANCH   1   2
BRANCH   1  12
ATOM     12  C   UNL     1      48.911  30.502  15.701  1.00  0.00     0.000 C 
BRANCH  12  13
ATOM     13  C   UNL     1      49.317  30.892  17.131  1.00  0.00    -0.000 C 
BRANCH  13  14
ATOM     14  C   UNL     1      48.398  31.965  17.736  1.00  0.00    -0.000 C 
BRANCH  14  15
ATOM     15  C   UNL     1      48.773  33.386  17.289  1.00  0.00    -0.000 C 
BRANCH  15  16
ATOM     16  C   UNL     1      47.547  34.123  16.728  1.00  0.00    -0.000 C 
BRANCH  16  17
ATOM     17  C   UNL     1      47.269  33.779  15.255  1.00  0.00    -0.000 C 
BRANCH  17  18
ATOM     18  C   UNL     1      48.421  34.196  14.325  1.00  0.00    -0.000 C 
BRANCH  18  19
ATOM     19  C   UNL     1      47.965  34.376  12.868  1.00  0.00    -0.003 C 
ATOM     20  C   UNL     1      48.263  33.154  11.998  1.00  0.00     0.004 C 
ENDBRANCH  18  19
ENDBRANCH  17  18
ENDBRANCH  16  17
ENDBRANCH  15  16
ENDBRANCH  14  15
ENDBRANCH  13  14
ENDBRANCH  12  13
ENDBRANCH   1  12
TORSDOF 16
ENDMDL
MODEL 6
REMARK VINA RESULT:    -5.141      5.052      7.275
REMARK INTER + INTRA:         -11.293
REMARK INTER:                  -9.978
REMARK INTRA:                  -1.315
REMARK UNBOUND:                -1.343
REMARK SMILES CCCCCCCCCCCCCCCCCC(=O)[O-]
REMARK SMILES IDX 10 1 11 2 12 3 13 4 14 5 15 6 16 7 17 8 18 9 19 10 20 11
REMARK SMILES IDX 9 12 8 13 7 14 6 15 5 16 4 17 3 18 2 19 1 20
REMARK H PARENT
REMARK Flexibility Score: inf
ROOT
ATOM      1  C   UNL     1      48.094  34.621  13.211  1.00  0.00     0.000 C 
ENDROOT
BRANCH   1   2
ATOM      2  C   UNL     1      46.785  34.689  12.410  1.00  0.00     0.000 C 
BRANCH   2   3
ATOM      3  C   UNL     1      46.011  35.996  12.649  1.00  0.00     0.000 C 
BRANCH   3   4
ATOM      4  C   UNL     1      44.554  35.753  13.071  1.00  0.00     0.000 C 
BRANCH   4   5
ATOM      5  C   UNL     1      43.620  36.797  12.441  1.00  0.00     0.000 C 
BRANCH   5   6
ATOM      6  C   UNL     1      42.439  36.160  11.692  1.00  0.00     0.000 C 
BRANCH   6   7
ATOM      7  C   UNL     1      41.084  36.770  12.092  1.00  0.00     0.006 C 
BRANCH   7   8
ATOM      8  C   UNL     1      41.181  37.606  13.375  1.00  0.00     0.053 C 
BRANCH   8   9
ATOM      9  C   UNL     1      40.332  38.838  13.302  1.00  0.00     0.041 C 
ATOM     10  O   UNL     1      40.224  39.469  12.217  1.00  0.00    -0.550 OA
ATOM     11  O   UNL     1      39.690  39.310  14.439  1.00  0.00    -0.550 OA
ENDBRANCH   8   9
ENDBRANCH   7   8
ENDBRANCH   6   7
ENDBRANCH   5   6
ENDBRANCH   4   5
ENDBRANCH   3   4
ENDBRANCH   2   3
ENDBRANCH   1   2
BRANCH   1  12
ATOM     12  C   UNL     1      48.041  33.498  14.255  1.00  0.00     0.000 C 
BRANCH  12  13
ATOM     13  C   UNL     1      47.433  34.002  15.573  1.00  0.00    -0.000 C 
BRANCH  13  14
ATOM     14  C   UNL     1      48.457  34.049  16.718  1.00  0.00    -0.000 C 
BRANCH  14  15
ATOM     15  C   UNL     1      48.315  32.867  17.689  1.00  0.00    -0.000 C 
BRANCH  15  16
ATOM     16  C   UNL     1      49.577  31.990  17.670  1.00  0.00    -0.000 C 
BRANCH  16  17
ATOM     17  C   UNL     1      49.321  30.592  17.086  1.00  0.00    -0.000 C 
BRANCH  17  18
ATOM     18  C   UNL     1      47.896  30.085  17.371  1.00  0.00    -0.000 C 
BRANCH  18  19
ATOM     19  C   UNL     1      47.283  29.349  16.169  1.00  0.00    -0.003 C 
ATOM     20  C   UNL     1      47.678  29.970  14.829  1.00  0.00     0.004 C 
ENDBRANCH  18  19
ENDBRANCH  17  18
ENDBRANCH  16  17
ENDBRANCH  15  16
ENDBRANCH  14  15
ENDBRANCH  13  14
ENDBRANCH  12  13
ENDBRANCH   1  12
TORSDOF 16
ENDMDL
MODEL 7
REMARK VINA RESULT:    -5.127      3.290      6.339
REMARK INTER + INTRA:         -11.266
REMARK INTER:                  -9.064
REMARK INTRA:                  -2.202
REMARK UNBOUND:                -1.343
REMARK SMILES CCCCCCCCCCCCCCCCCC(=O)[O-]
REMARK SMILES IDX 10 1 11 2 12 3 13 4 14 5 15 6 16 7 17 8 18 9 19 10 20 11
REMARK SMILES IDX 9 12 8 13 7 14 6 15 5 16 4 17 3 18 2 19 1 20
REMARK H PARENT
REMARK Flexibility Score: inf
ROOT
ATOM      1  C   UNL     1      48.325  25.575  20.109  1.00  0.00     0.000 C 
ENDROOT
BRANCH   1   2
ATOM      2  C   UNL     1      49.619  25.051  19.468  1.00  0.00     0.000 C 
BRANCH   2   3
ATOM      3  C   UNL     1      49.652  25.254  17.945  1.00  0.00     0.000 C 
BRANCH   3   4
ATOM      4  C   UNL     1      48.409  25.987  17.419  1.00  0.00     0.000 C 
BRANCH   4   5
ATOM      5  C   UNL     1      48.738  26.777  16.142  1.00  0.00     0.000 C 
BRANCH   5   6
ATOM      6  C   UNL     1      48.288  28.244  16.221  1.00  0.00     0.000 C 
BRANCH   6   7
ATOM      7  C   UNL     1      49.460  29.212  16.467  1.00  0.00     0.006 C 
BRANCH   7   8
ATOM      8  C   UNL     1      49.062  30.675  16.235  1.00  0.00     0.053 C 
BRANCH   8   9
ATOM      9  C   UNL     1      49.023  31.451  17.515  1.00  0.00     0.041 C 
ATOM     10  O   UNL     1      49.982  32.207  17.826  1.00  0.00    -0.550 OA
ATOM     11  O   UNL     1      47.946  31.312  18.382  1.00  0.00    -0.550 OA
ENDBRANCH   8   9
ENDBRANCH   7   8
ENDBRANCH   6   7
ENDBRANCH   5   6
ENDBRANCH   4   5
ENDBRANCH   3   4
ENDBRANCH   2   3
ENDBRANCH   1   2
BRANCH   1  12
ATOM     12  C   UNL     1      48.596  26.140  21.509  1.00  0.00     0.000 C 
BRANCH  12  13
ATOM     13  C   UNL     1      50.012  25.778  21.983  1.00  0.00    -0.000 C 
BRANCH  13  14
ATOM     14  C   UNL     1      50.739  26.965  22.635  1.00  0.00    -0.000 C 
BRANCH  14  15
ATOM     15  C   UNL     1      52.223  27.038  22.243  1.00  0.00    -0.000 C 
BRANCH  15  16
ATOM     16  C   UNL     1      52.689  25.712  21.621  1.00  0.00    -0.000 C 
BRANCH  16  17
ATOM     17  C   UNL     1      53.230  25.883  20.192  1.00  0.00    -0.000 C 
BRANCH  17  18
ATOM     18  C   UNL     1      53.149  27.339  19.701  1.00  0.00    -0.000 C 
BRANCH  18  19
ATOM     19  C   UNL     1      52.419  27.465  18.355  1.00  0.00    -0.003 C 
ATOM     20  C   UNL     1      53.061  26.625  17.250  1.00  0.00     0.004 C 
ENDBRANCH  18  19
ENDBRANCH  17  18
ENDBRANCH  16  17
ENDBRANCH  15  16
ENDBRANCH  14  15
ENDBRANCH  13  14
ENDBRANCH  12  13
ENDBRANCH   1  12
TORSDOF 16
ENDMDL
MODEL 8
REMARK VINA RESULT:    -5.106      3.329      6.248
REMARK INTER + INTRA:         -11.224
REMARK INTER:                  -9.183
REMARK INTRA:                  -2.041
REMARK UNBOUND:                -1.343
REMARK SMILES CCCCCCCCCCCCCCCCCC(=O)[O-]
REMARK SMILES IDX 10 1 11 2 12 3 13 4 14 5 15 6 16 7 17 8 18 9 19 10 20 11
REMARK SMILES IDX 9 12 8 13 7 14 6 15 5 16 4 17 3 18 2 19 1 20
REMARK H PARENT
REMARK Flexibility Score: inf
ROOT
ATOM      1  C   UNL     1      48.609  25.598  19.265  1.00  0.00     0.000 C 
ENDROOT
BRANCH   1   2
ATOM      2  C   UNL     1      49.960  25.069  18.761  1.00  0.00     0.000 C 
BRANCH   2   3
ATOM      3  C   UNL     1      50.103  25.169  17.234  1.00  0.00     0.000 C 
BRANCH   3   4
ATOM      4  C   UNL     1      48.978  25.989  16.585  1.00  0.00     0.000 C 
BRANCH   4   5
ATOM      5  C   UNL     1      49.546  26.986  15.564  1.00  0.00     0.000 C 
BRANCH   5   6
ATOM      6  C   UNL     1      49.965  28.318  16.206  1.00  0.00     0.000 C 
BRANCH   6   7
ATOM      7  C   UNL     1      48.800  29.021  16.926  1.00  0.00     0.006 C 
BRANCH   7   8
ATOM      8  C   UNL     1      48.646  30.483  16.488  1.00  0.00     0.053 C 
BRANCH   8   9
ATOM      9  C   UNL     1      48.753  31.426  17.646  1.00  0.00     0.041 C 
ATOM     10  O   UNL     1      47.892  31.400  18.566  1.00  0.00    -0.550 OA
ATOM     11  O   UNL     1      49.784  32.357  17.695  1.00  0.00    -0.550 OA
ENDBRANCH   8   9
ENDBRANCH   7   8
ENDBRANCH   6   7
ENDBRANCH   5   6
ENDBRANCH   4   5
ENDBRANCH   3   4
ENDBRANCH   2   3
ENDBRANCH   1   2
BRANCH   1  12
ATOM     12  C   UNL     1      48.471  25.397  20.779  1.00  0.00     0.000 C 
BRANCH  12  13
ATOM     13  C   UNL     1      48.209  26.734  21.490  1.00  0.00    -0.000 C 
BRANCH  13  14
ATOM     14  C   UNL     1      49.203  27.003  22.631  1.00  0.00    -0.000 C 
BRANCH  14  15
ATOM     15  C   UNL     1      50.432  26.083  22.576  1.00  0.00    -0.000 C 
BRANCH  15  16
ATOM     16  C   UNL     1      51.725  26.905  22.463  1.00  0.00    -0.000 C 
BRANCH  16  17
ATOM     17  C   UNL     1      52.954  26.039  22.141  1.00  0.00    -0.000 C 
BRANCH  17  18
ATOM     18  C   UNL     1      53.173  25.866  20.627  1.00  0.00    -0.000 C 
BRANCH  18  19
ATOM     19  C   UNL     1      52.864  27.149  19.839  1.00  0.00    -0.003 C 
ATOM     20  C   UNL     1      53.191  27.024  18.350  1.00  0.00     0.004 C 
ENDBRANCH  18  19
ENDBRANCH  17  18
ENDBRANCH  16  17
ENDBRANCH  15  16
ENDBRANCH  14  15
ENDBRANCH  13  14
ENDBRANCH  12  13
ENDBRANCH   1  12
TORSDOF 16
ENDMDL
MODEL 9
REMARK VINA RESULT:    -5.032      3.696      8.108
REMARK INTER + INTRA:         -11.082
REMARK INTER:                  -9.654
REMARK INTRA:                  -1.428
REMARK UNBOUND:                -1.343
REMARK SMILES CCCCCCCCCCCCCCCCCC(=O)[O-]
REMARK SMILES IDX 10 1 11 2 12 3 13 4 14 5 15 6 16 7 17 8 18 9 19 10 20 11
REMARK SMILES IDX 9 12 8 13 7 14 6 15 5 16 4 17 3 18 2 19 1 20
REMARK H PARENT
REMARK Flexibility Score: inf
ROOT
ATOM      1  C   UNL     1      48.504  25.620  19.080  1.00  0.00     0.000 C 
ENDROOT
BRANCH   1   2
ATOM      2  C   UNL     1      48.914  25.295  20.524  1.00  0.00     0.000 C 
BRANCH   2   3
ATOM      3  C   UNL     1      48.447  26.362  21.528  1.00  0.00     0.000 C 
BRANCH   3   4
ATOM      4  C   UNL     1      49.549  26.767  22.518  1.00  0.00     0.000 C 
BRANCH   4   5
ATOM      5  C   UNL     1      50.812  25.919  22.308  1.00  0.00     0.000 C 
BRANCH   5   6
ATOM      6  C   UNL     1      52.070  26.775  22.089  1.00  0.00     0.000 C 
BRANCH   6   7
ATOM      7  C   UNL     1      52.921  26.286  20.904  1.00  0.00     0.006 C 
BRANCH   7   8
ATOM      8  C   UNL     1      52.451  26.880  19.569  1.00  0.00     0.053 C 
BRANCH   8   9
ATOM      9  C   UNL     1      53.531  27.677  18.905  1.00  0.00     0.041 C 
ATOM     10  O   UNL     1      53.269  28.800  18.398  1.00  0.00    -0.550 OA
ATOM     11  O   UNL     1      54.819  27.164  18.812  1.00  0.00    -0.550 OA
ENDBRANCH   8   9
ENDBRANCH   7   8
ENDBRANCH   6   7
ENDBRANCH   5   6
ENDBRANCH   4   5
ENDBRANCH   3   4
ENDBRANCH   2   3
ENDBRANCH   1   2
BRANCH   1  12
ATOM     12  C   UNL     1      49.617  25.241  18.095  1.00  0.00     0.000 C 
BRANCH  12  13
ATOM     13  C   UNL     1      49.354  25.847  16.708  1.00  0.00    -0.000 C 
BRANCH  13  14
ATOM     14  C   UNL     1      48.169  26.826  16.704  1.00  0.00    -0.000 C 
BRANCH  14  15
ATOM     15  C   UNL     1      48.466  28.111  15.916  1.00  0.00    -0.000 C 
BRANCH  15  16
ATOM     16  C   UNL     1      47.449  29.210  16.262  1.00  0.00    -0.000 C 
BRANCH  16  17
ATOM     17  C   UNL     1      47.932  30.133  17.394  1.00  0.00    -0.000 C 
BRANCH  17  18
ATOM     18  C   UNL     1      48.910  31.212  16.898  1.00  0.00    -0.000 C 
BRANCH  18  19
ATOM     19  C   UNL     1      48.552  32.613  17.418  1.00  0.00    -0.003 C 
ATOM     20  C   UNL     1      48.121  33.568  16.303  1.00  0.00     0.004 C 
ENDBRANCH  18  19
ENDBRANCH  17  18
ENDBRANCH  16  17
ENDBRANCH  15  16
ENDBRANCH  14  15
ENDBRANCH  13  14
ENDBRANCH  12  13
ENDBRANCH   1  12
TORSDOF 16
ENDMDL
