MODEL 1
REMARK VINA RESULT:    -7.827      0.000      0.000
REMARK INTER + INTRA:          -8.665
REMARK INTER:                  -8.513
REMARK INTRA:                  -0.152
REMARK UNBOUND:                -0.152
REMARK SMILES C[C@H]1[C@H]2C3=CC[C@@H]4[C@]5(C)CC[C@H](O)C(C)(C)[C@@H]5CC[C@]4(C)[C@@]3(C)CC[C@@]2(C(=O)[O-])CC[C@@H]1C
REMARK SMILES IDX 26 1 30 2 25 3 3 4 31 5 24 6 4 7 2 8 32 9 22 10 5 11 1 12
REMARK SMILES IDX 33 13 23 14 20 15 6 16 7 17 19 18 21 19 8 20 18 21 17 22
REMARK SMILES IDX 10 23 9 24 14 25 11 26 12 27 15 28 16 29 27 30 28 31 29 32
REMARK SMILES IDX 13 33
REMARK H PARENT 13 34
REMARK Flexibility Score: inf
ROOT
ATOM      1  C   UNL     1      92.737 -64.265 101.904  1.00  0.00     0.017 C 
ATOM      2  C   UNL     1      91.514 -65.069 101.364  1.00  0.00     0.014 C 
ATOM      3  C   UNL     1      93.977 -64.495 100.965  1.00  0.00     0.014 C 
ATOM      4  C   UNL     1      93.045 -64.602 103.426  1.00  0.00     0.030 C 
ATOM      5  C   UNL     1      91.494 -66.535 101.782  1.00  0.00     0.004 C 
ATOM      6  C   UNL     1      95.343 -64.698 101.647  1.00  0.00     0.013 C 
ATOM      7  C   UNL     1      94.423 -64.088 103.893  1.00  0.00    -0.063 C 
ATOM      8  C   UNL     1      92.723 -66.057 103.947  1.00  0.00    -0.003 C 
ATOM      9  C   UNL     1      91.459 -66.682 103.307  1.00  0.00    -0.011 C 
ATOM     10  C   UNL     1      95.607 -63.855 102.934  1.00  0.00    -0.006 C 
ATOM     11  C   UNL     1      94.562 -63.767 105.191  1.00  0.00    -0.027 C 
ATOM     12  C   UNL     1      93.888 -67.053 103.904  1.00  0.00     0.008 C 
ATOM     13  C   UNL     1      90.165 -66.125 103.928  1.00  0.00     0.008 C 
ATOM     14  C   UNL     1      95.583 -62.353 102.500  1.00  0.00     0.017 C 
ATOM     15  C   UNL     1      97.047 -64.239 103.637  1.00  0.00    -0.020 C 
ATOM     16  C   UNL     1      95.842 -63.209 105.712  1.00  0.00     0.032 C 
ATOM     17  C   UNL     1      97.047 -64.045 105.218  1.00  0.00     0.006 C 
ATOM     18  C   UNL     1      98.190 -63.377 103.051  1.00  0.00     0.008 C 
ATOM     19  C   UNL     1      97.428 -65.731 103.337  1.00  0.00     0.012 C 
ATOM     20  C   UNL     1      98.423 -63.609 105.942  1.00  0.00    -0.025 C 
ATOM     21  C   UNL     1      99.584 -63.710 103.580  1.00  0.00     0.005 C 
ATOM     22  C   UNL     1      99.707 -64.036 105.109  1.00  0.00     0.003 C 
ATOM     23  C   UNL     1      98.500 -62.065 106.194  1.00  0.00     0.010 C 
ATOM     24  C   UNL     1      98.401 -64.340 107.329  1.00  0.00     0.012 C 
ATOM     25  C   UNL     1     101.103 -63.529 105.696  1.00  0.00    -0.006 C 
ATOM     26  C   UNL     1      99.829 -61.571 106.796  1.00  0.00     0.033 C 
ATOM     27  C   UNL     1     101.067 -61.993 105.984  1.00  0.00     0.120 C 
ATOM     28  C   UNL     1     102.273 -63.847 104.712  1.00  0.00     0.014 C 
ATOM     29  C   UNL     1     101.490 -64.292 107.000  1.00  0.00     0.014 C 
ENDROOT
BRANCH   1  30
ATOM     30  C   UNL     1      92.298 -62.801 101.750  1.00  0.00     0.048 C 
ATOM     31  O   UNL     1      92.125 -62.271 100.618  1.00  0.00    -0.550 OA
ATOM     32  O   UNL     1      92.125 -62.010 102.882  1.00  0.00    -0.550 OA
ENDBRANCH   1  30
BRANCH  27  33
ATOM     33  O   UNL     1     101.112 -61.250 104.792  1.00  0.00    -0.393 OA
ATOM     34  H   UNL     1     100.601 -61.757 104.108  1.00  0.00     0.210 HD
ENDBRANCH  27  33
TORSDOF 2
ENDMDL
MODEL 2
REMARK VINA RESULT:    -7.688      1.202      1.361
REMARK INTER + INTRA:          -8.514
REMARK INTER:                  -8.333
REMARK INTRA:                  -0.181
REMARK UNBOUND:                -0.152
REMARK SMILES C[C@H]1[C@H]2C3=CC[C@@H]4[C@]5(C)CC[C@H](O)C(C)(C)[C@@H]5CC[C@]4(C)[C@@]3(C)CC[C@@]2(C(=O)[O-])CC[C@@H]1C
REMARK SMILES IDX 26 1 30 2 25 3 3 4 31 5 24 6 4 7 2 8 32 9 22 10 5 11 1 12
REMARK SMILES IDX 33 13 23 14 20 15 6 16 7 17 19 18 21 19 8 20 18 21 17 22
REMARK SMILES IDX 10 23 9 24 14 25 11 26 12 27 15 28 16 29 27 30 28 31 29 32
REMARK SMILES IDX 13 33
REMARK H PARENT 13 34
REMARK Flexibility Score: inf
ROOT
ATOM      1  C   UNL     1      91.941 -65.585 101.771  1.00  0.00     0.017 C 
ATOM      2  C   UNL     1      90.696 -66.484 101.499  1.00  0.00     0.014 C 
ATOM      3  C   UNL     1      93.195 -66.180 101.033  1.00  0.00     0.014 C 
ATOM      4  C   UNL     1      92.187 -65.367 103.326  1.00  0.00     0.030 C 
ATOM      5  C   UNL     1      90.591 -67.703 102.409  1.00  0.00     0.004 C 
ATOM      6  C   UNL     1      94.529 -66.175 101.804  1.00  0.00     0.013 C 
ATOM      7  C   UNL     1      93.574 -64.770 103.643  1.00  0.00    -0.063 C 
ATOM      8  C   UNL     1      91.777 -66.527 104.315  1.00  0.00    -0.003 C 
ATOM      9  C   UNL     1      90.504 -67.294 103.883  1.00  0.00    -0.011 C 
ATOM     10  C   UNL     1      94.796 -64.938 102.718  1.00  0.00    -0.006 C 
ATOM     11  C   UNL     1      93.691 -64.012 104.746  1.00  0.00    -0.027 C 
ATOM     12  C   UNL     1      92.892 -67.514 104.682  1.00  0.00     0.008 C 
ATOM     13  C   UNL     1      89.220 -66.505 104.207  1.00  0.00     0.008 C 
ATOM     14  C   UNL     1      94.860 -63.691 101.777  1.00  0.00     0.017 C 
ATOM     15  C   UNL     1      96.194 -65.097 103.575  1.00  0.00    -0.020 C 
ATOM     16  C   UNL     1      94.981 -63.350 105.092  1.00  0.00     0.032 C 
ATOM     17  C   UNL     1      96.157 -64.351 104.983  1.00  0.00     0.006 C 
ATOM     18  C   UNL     1      97.396 -64.543 102.774  1.00  0.00     0.008 C 
ATOM     19  C   UNL     1      96.508 -66.610 103.843  1.00  0.00     0.012 C 
ATOM     20  C   UNL     1      97.532 -63.735 105.565  1.00  0.00    -0.025 C 
ATOM     21  C   UNL     1      98.755 -64.715 103.449  1.00  0.00     0.005 C 
ATOM     22  C   UNL     1      98.816 -64.477 104.998  1.00  0.00     0.003 C 
ATOM     23  C   UNL     1      97.678 -62.207 105.255  1.00  0.00     0.010 C 
ATOM     24  C   UNL     1      97.432 -63.921 107.120  1.00  0.00     0.012 C 
ATOM     25  C   UNL     1     100.218 -63.845 105.429  1.00  0.00    -0.006 C 
ATOM     26  C   UNL     1      99.011 -61.579 105.702  1.00  0.00     0.033 C 
ATOM     27  C   UNL     1     100.250 -62.307 105.150  1.00  0.00     0.120 C 
ATOM     28  C   UNL     1     101.399 -64.535 104.676  1.00  0.00     0.014 C 
ATOM     29  C   UNL     1     100.528 -64.105 106.935  1.00  0.00     0.014 C 
ENDROOT
BRANCH   1  30
ATOM     30  C   UNL     1      91.580 -64.258 101.087  1.00  0.00     0.048 C 
ATOM     31  O   UNL     1      91.525 -64.147  99.832  1.00  0.00    -0.550 OA
ATOM     32  O   UNL     1      91.348 -63.124 101.861  1.00  0.00    -0.550 OA
ENDBRANCH   1  30
BRANCH  27  33
ATOM     33  O   UNL     1     100.367 -62.041 103.775  1.00  0.00    -0.393 OA
ATOM     34  H   UNL     1     101.329 -61.886 103.585  1.00  0.00     0.210 HD
ENDBRANCH  27  33
TORSDOF 2
ENDMDL
MODEL 3
REMARK VINA RESULT:    -7.606      1.523      7.976
REMARK INTER + INTRA:          -8.424
REMARK INTER:                  -8.264
REMARK INTRA:                  -0.160
REMARK UNBOUND:                -0.152
REMARK SMILES C[C@H]1[C@H]2C3=CC[C@@H]4[C@]5(C)CC[C@H](O)C(C)(C)[C@@H]5CC[C@]4(C)[C@@]3(C)CC[C@@]2(C(=O)[O-])CC[C@@H]1C
REMARK SMILES IDX 26 1 30 2 25 3 3 4 31 5 24 6 4 7 2 8 32 9 22 10 5 11 1 12
REMARK SMILES IDX 33 13 23 14 20 15 6 16 7 17 19 18 21 19 8 20 18 21 17 22
REMARK SMILES IDX 10 23 9 24 14 25 11 26 12 27 15 28 16 29 27 30 28 31 29 32
REMARK SMILES IDX 13 33
REMARK H PARENT 13 34
REMARK Flexibility Score: inf
ROOT
ATOM      1  C   UNL     1      99.654 -62.908 105.727  1.00  0.00     0.017 C 
ATOM      2  C   UNL     1     101.199 -62.887 105.940  1.00  0.00     0.014 C 
ATOM      3  C   UNL     1      99.030 -64.129 106.495  1.00  0.00     0.014 C 
ATOM      4  C   UNL     1      99.266 -62.886 104.186  1.00  0.00     0.030 C 
ATOM      5  C   UNL     1     101.973 -63.807 105.003  1.00  0.00     0.004 C 
ATOM      6  C   UNL     1      97.927 -64.923 105.770  1.00  0.00     0.013 C 
ATOM      7  C   UNL     1      97.785 -63.234 103.928  1.00  0.00    -0.063 C 
ATOM      8  C   UNL     1     100.247 -63.579 103.161  1.00  0.00    -0.003 C 
ATOM      9  C   UNL     1     101.742 -63.434 103.535  1.00  0.00    -0.011 C 
ATOM     10  C   UNL     1      96.940 -64.093 104.891  1.00  0.00    -0.006 C 
ATOM     11  C   UNL     1      97.198 -62.700 102.845  1.00  0.00    -0.027 C 
ATOM     12  C   UNL     1      99.925 -65.037 102.813  1.00  0.00     0.008 C 
ATOM     13  C   UNL     1     102.290 -62.037 103.183  1.00  0.00     0.008 C 
ATOM     14  C   UNL     1      96.183 -63.125 105.857  1.00  0.00     0.017 C 
ATOM     15  C   UNL     1      95.880 -65.057 104.078  1.00  0.00    -0.020 C 
ATOM     16  C   UNL     1      95.755 -62.939 102.555  1.00  0.00     0.032 C 
ATOM     17  C   UNL     1      95.411 -64.443 102.684  1.00  0.00     0.006 C 
ATOM     18  C   UNL     1      94.617 -65.325 104.930  1.00  0.00     0.008 C 
ATOM     19  C   UNL     1      96.518 -66.461 103.791  1.00  0.00     0.012 C 
ATOM     20  C   UNL     1      93.918 -64.769 102.161  1.00  0.00    -0.025 C 
ATOM     21  C   UNL     1      93.602 -66.275 104.298  1.00  0.00     0.005 C 
ATOM     22  C   UNL     1      93.351 -66.128 102.757  1.00  0.00     0.003 C 
ATOM     23  C   UNL     1      92.903 -63.627 102.506  1.00  0.00     0.010 C 
ATOM     24  C   UNL     1      94.048 -64.866 100.601  1.00  0.00     0.012 C 
ATOM     25  C   UNL     1      91.833 -66.457 102.386  1.00  0.00    -0.006 C 
ATOM     26  C   UNL     1      91.442 -63.919 102.117  1.00  0.00     0.033 C 
ATOM     27  C   UNL     1      90.903 -65.239 102.696  1.00  0.00     0.120 C 
ATOM     28  C   UNL     1      91.325 -67.712 103.165  1.00  0.00     0.014 C 
ATOM     29  C   UNL     1      91.681 -66.857 100.886  1.00  0.00     0.014 C 
ENDROOT
BRANCH   1  30
ATOM     30  C   UNL     1      99.180 -61.623 106.424  1.00  0.00     0.048 C 
ATOM     31  O   UNL     1      99.249 -61.479 107.675  1.00  0.00    -0.550 OA
ATOM     32  O   UNL     1      98.613 -60.599 105.671  1.00  0.00    -0.550 OA
ENDBRANCH   1  30
BRANCH  27  33
ATOM     33  O   UNL     1      90.704 -65.089 104.079  1.00  0.00    -0.393 OA
ATOM     34  H   UNL     1      90.876 -65.972 104.500  1.00  0.00     0.210 HD
ENDBRANCH  27  33
TORSDOF 2
ENDMDL
MODEL 4
REMARK VINA RESULT:    -7.597      1.717      2.557
REMARK INTER + INTRA:          -8.415
REMARK INTER:                  -8.183
REMARK INTRA:                  -0.232
REMARK UNBOUND:                -0.152
REMARK SMILES C[C@H]1[C@H]2C3=CC[C@@H]4[C@]5(C)CC[C@H](O)C(C)(C)[C@@H]5CC[C@]4(C)[C@@]3(C)CC[C@@]2(C(=O)[O-])CC[C@@H]1C
REMARK SMILES IDX 26 1 30 2 25 3 3 4 31 5 24 6 4 7 2 8 32 9 22 10 5 11 1 12
REMARK SMILES IDX 33 13 23 14 20 15 6 16 7 17 19 18 21 19 8 20 18 21 17 22
REMARK SMILES IDX 10 23 9 24 14 25 11 26 12 27 15 28 16 29 27 30 28 31 29 32
REMARK SMILES IDX 13 33
REMARK H PARENT 13 34
REMARK Flexibility Score: inf
ROOT
ATOM      1  C   UNL     1      91.502 -66.659 101.093  1.00  0.00     0.017 C 
ATOM      2  C   UNL     1      90.355 -67.675 100.802  1.00  0.00     0.014 C 
ATOM      3  C   UNL     1      92.877 -67.266 100.633  1.00  0.00     0.014 C 
ATOM      4  C   UNL     1      91.511 -66.193 102.613  1.00  0.00     0.030 C 
ATOM      5  C   UNL     1      90.181 -68.748 101.871  1.00  0.00     0.004 C 
ATOM      6  C   UNL     1      94.084 -67.051 101.566  1.00  0.00     0.013 C 
ATOM      7  C   UNL     1      92.806 -65.458 103.014  1.00  0.00    -0.063 C 
ATOM      8  C   UNL     1      91.022 -67.218 103.709  1.00  0.00    -0.003 C 
ATOM      9  C   UNL     1      89.863 -68.130 103.237  1.00  0.00    -0.011 C 
ATOM     10  C   UNL     1      94.156 -65.675 102.299  1.00  0.00    -0.006 C 
ATOM     11  C   UNL     1      92.726 -64.537 103.988  1.00  0.00    -0.027 C 
ATOM     12  C   UNL     1      92.120 -68.057 104.374  1.00  0.00     0.008 C 
ATOM     13  C   UNL     1      88.509 -67.395 103.256  1.00  0.00     0.008 C 
ATOM     14  C   UNL     1      94.292 -64.581 101.191  1.00  0.00     0.017 C 
ATOM     15  C   UNL     1      95.422 -65.603 103.351  1.00  0.00    -0.020 C 
ATOM     16  C   UNL     1      93.918 -63.740 104.395  1.00  0.00     0.032 C 
ATOM     17  C   UNL     1      95.146 -64.659 104.605  1.00  0.00     0.006 C 
ATOM     18  C   UNL     1      96.697 -65.091 102.640  1.00  0.00     0.008 C 
ATOM     19  C   UNL     1      95.770 -67.033 103.895  1.00  0.00     0.012 C 
ATOM     20  C   UNL     1      96.390 -63.866 105.261  1.00  0.00    -0.025 C 
ATOM     21  C   UNL     1      97.952 -65.062 103.511  1.00  0.00     0.005 C 
ATOM     22  C   UNL     1      97.779 -64.591 104.996  1.00  0.00     0.003 C 
ATOM     23  C   UNL     1      96.503 -62.395 104.735  1.00  0.00     0.010 C 
ATOM     24  C   UNL     1      96.078 -63.823 106.798  1.00  0.00     0.012 C 
ATOM     25  C   UNL     1      99.071 -63.803 105.506  1.00  0.00    -0.006 C 
ATOM     26  C   UNL     1      97.726 -61.614 105.252  1.00  0.00     0.033 C 
ATOM     27  C   UNL     1      99.065 -62.326 104.994  1.00  0.00     0.120 C 
ATOM     28  C   UNL     1     100.381 -64.512 105.037  1.00  0.00     0.014 C 
ATOM     29  C   UNL     1      99.174 -63.812 107.062  1.00  0.00     0.014 C 
ENDROOT
BRANCH   1  30
ATOM     30  C   UNL     1      91.177 -65.478 100.165  1.00  0.00     0.048 C 
ATOM     31  O   UNL     1      90.288 -64.630 100.450  1.00  0.00    -0.550 OA
ATOM     32  O   UNL     1      91.843 -65.354  98.949  1.00  0.00    -0.550 OA
ENDBRANCH   1  30
BRANCH  27  33
ATOM     33  O   UNL     1      99.365 -62.262 103.622  1.00  0.00    -0.393 OA
ATOM     34  H   UNL     1      98.703 -62.830 103.148  1.00  0.00     0.210 HD
ENDBRANCH  27  33
TORSDOF 2
ENDMDL
MODEL 5
REMARK VINA RESULT:    -7.350      2.066      8.227
REMARK INTER + INTRA:          -8.146
REMARK INTER:                  -8.253
REMARK INTRA:                   0.107
REMARK UNBOUND:                -0.152
REMARK SMILES C[C@H]1[C@H]2C3=CC[C@@H]4[C@]5(C)CC[C@H](O)C(C)(C)[C@@H]5CC[C@]4(C)[C@@]3(C)CC[C@@]2(C(=O)[O-])CC[C@@H]1C
REMARK SMILES IDX 26 1 30 2 25 3 3 4 31 5 24 6 4 7 2 8 32 9 22 10 5 11 1 12
REMARK SMILES IDX 33 13 23 14 20 15 6 16 7 17 19 18 21 19 8 20 18 21 17 22
REMARK SMILES IDX 10 23 9 24 14 25 11 26 12 27 15 28 16 29 27 30 28 31 29 32
REMARK SMILES IDX 13 33
REMARK H PARENT 13 34
REMARK Flexibility Score: inf
ROOT
ATOM      1  C   UNL     1      96.473 -62.604 104.697  1.00  0.00     0.017 C 
ATOM      2  C   UNL     1      97.872 -62.267 105.300  1.00  0.00     0.014 C 
ATOM      3  C   UNL     1      95.543 -63.197 105.816  1.00  0.00     0.014 C 
ATOM      4  C   UNL     1      96.588 -63.551 103.426  1.00  0.00     0.030 C 
ATOM      5  C   UNL     1      98.820 -63.457 105.388  1.00  0.00     0.004 C 
ATOM      6  C   UNL     1      94.659 -64.398 105.429  1.00  0.00     0.013 C 
ATOM      7  C   UNL     1      95.238 -64.167 103.005  1.00  0.00    -0.063 C 
ATOM      8  C   UNL     1      97.778 -64.586 103.372  1.00  0.00    -0.003 C 
ATOM      9  C   UNL     1      99.089 -64.061 104.005  1.00  0.00    -0.011 C 
ATOM     10  C   UNL     1      94.067 -64.384 103.985  1.00  0.00    -0.006 C 
ATOM     11  C   UNL     1      95.062 -64.460 101.705  1.00  0.00    -0.027 C 
ATOM     12  C   UNL     1      97.462 -65.992 103.896  1.00  0.00     0.008 C 
ATOM     13  C   UNL     1      99.833 -63.091 103.067  1.00  0.00     0.008 C 
ATOM     14  C   UNL     1      93.129 -63.137 103.895  1.00  0.00     0.017 C 
ATOM     15  C   UNL     1      93.236 -65.766 103.647  1.00  0.00    -0.020 C 
ATOM     16  C   UNL     1      93.766 -65.003 101.207  1.00  0.00     0.032 C 
ATOM     17  C   UNL     1      93.277 -66.165 102.105  1.00  0.00     0.006 C 
ATOM     18  C   UNL     1      91.753 -65.632 104.066  1.00  0.00     0.008 C 
ATOM     19  C   UNL     1      93.813 -66.972 104.468  1.00  0.00     0.012 C 
ATOM     20  C   UNL     1      91.999 -66.922 101.470  1.00  0.00    -0.025 C 
ATOM     21  C   UNL     1      90.910 -66.890 103.868  1.00  0.00     0.005 C 
ATOM     22  C   UNL     1      91.165 -67.720 102.562  1.00  0.00     0.003 C 
ATOM     23  C   UNL     1      91.025 -65.938 100.739  1.00  0.00     0.010 C 
ATOM     24  C   UNL     1      92.600 -67.910 100.410  1.00  0.00     0.012 C 
ATOM     25  C   UNL     1      89.816 -68.393 102.035  1.00  0.00    -0.006 C 
ATOM     26  C   UNL     1      89.739 -66.585 100.193  1.00  0.00     0.033 C 
ATOM     27  C   UNL     1      88.939 -67.358 101.256  1.00  0.00     0.120 C 
ATOM     28  C   UNL     1      88.989 -68.991 103.217  1.00  0.00     0.014 C 
ATOM     29  C   UNL     1      90.105 -69.621 101.118  1.00  0.00     0.014 C 
ENDROOT
BRANCH   1  30
ATOM     30  C   UNL     1      95.914 -61.229 104.301  1.00  0.00     0.048 C 
ATOM     31  O   UNL     1      95.365 -61.028 103.184  1.00  0.00    -0.550 OA
ATOM     32  O   UNL     1      96.050 -60.153 105.173  1.00  0.00    -0.550 OA
ENDBRANCH   1  30
BRANCH  27  33
ATOM     33  O   UNL     1      88.333 -66.443 102.133  1.00  0.00    -0.393 OA
ATOM     34  H   UNL     1      87.692 -66.952 102.695  1.00  0.00     0.210 HD
ENDBRANCH  27  33
TORSDOF 2
ENDMDL
MODEL 6
REMARK VINA RESULT:    -7.344      3.161      8.826
REMARK INTER + INTRA:          -8.140
REMARK INTER:                  -7.971
REMARK INTRA:                  -0.169
REMARK UNBOUND:                -0.152
REMARK SMILES C[C@H]1[C@H]2C3=CC[C@@H]4[C@]5(C)CC[C@H](O)C(C)(C)[C@@H]5CC[C@]4(C)[C@@]3(C)CC[C@@]2(C(=O)[O-])CC[C@@H]1C
REMARK SMILES IDX 26 1 30 2 25 3 3 4 31 5 24 6 4 7 2 8 32 9 22 10 5 11 1 12
REMARK SMILES IDX 33 13 23 14 20 15 6 16 7 17 19 18 21 19 8 20 18 21 17 22
REMARK SMILES IDX 10 23 9 24 14 25 11 26 12 27 15 28 16 29 27 30 28 31 29 32
REMARK SMILES IDX 13 33
REMARK H PARENT 13 34
REMARK Flexibility Score: inf
ROOT
ATOM      1  C   UNL     1      96.222 -64.787 104.661  1.00  0.00     0.017 C 
ATOM      2  C   UNL     1      97.379 -63.741 104.620  1.00  0.00     0.014 C 
ATOM      3  C   UNL     1      96.559 -65.985 103.700  1.00  0.00     0.014 C 
ATOM      4  C   UNL     1      94.812 -64.125 104.350  1.00  0.00     0.030 C 
ATOM      5  C   UNL     1      97.299 -62.763 103.454  1.00  0.00     0.004 C 
ATOM      6  C   UNL     1      95.406 -66.537 102.839  1.00  0.00     0.013 C 
ATOM      7  C   UNL     1      93.707 -65.161 104.057  1.00  0.00    -0.063 C 
ATOM      8  C   UNL     1      94.769 -62.888 103.369  1.00  0.00    -0.003 C 
ATOM      9  C   UNL     1      95.997 -61.954 103.491  1.00  0.00    -0.011 C 
ATOM     10  C   UNL     1      93.997 -66.573 103.509  1.00  0.00    -0.006 C 
ATOM     11  C   UNL     1      92.442 -64.829 104.364  1.00  0.00    -0.027 C 
ATOM     12  C   UNL     1      94.494 -63.215 101.897  1.00  0.00     0.008 C 
ATOM     13  C   UNL     1      95.902 -61.036 104.724  1.00  0.00     0.008 C 
ATOM     14  C   UNL     1      94.103 -67.547 104.727  1.00  0.00     0.017 C 
ATOM     15  C   UNL     1      92.829 -67.073 102.460  1.00  0.00    -0.020 C 
ATOM     16  C   UNL     1      91.323 -65.794 104.168  1.00  0.00     0.032 C 
ATOM     17  C   UNL     1      91.398 -66.442 102.764  1.00  0.00     0.006 C 
ATOM     18  C   UNL     1      92.688 -68.613 102.489  1.00  0.00     0.008 C 
ATOM     19  C   UNL     1      93.214 -66.698 100.986  1.00  0.00     0.012 C 
ATOM     20  C   UNL     1      90.083 -67.319 102.432  1.00  0.00    -0.025 C 
ATOM     21  C   UNL     1      91.683 -69.187 101.492  1.00  0.00     0.005 C 
ATOM     22  C   UNL     1      90.345 -68.396 101.293  1.00  0.00     0.003 C 
ATOM     23  C   UNL     1      89.533 -68.069 103.692  1.00  0.00     0.010 C 
ATOM     24  C   UNL     1      89.008 -66.276 101.964  1.00  0.00     0.012 C 
ATOM     25  C   UNL     1      89.128 -69.386 100.996  1.00  0.00    -0.006 C 
ATOM     26  C   UNL     1      88.334 -68.998 103.422  1.00  0.00     0.033 C 
ATOM     27  C   UNL     1      88.596 -70.035 102.315  1.00  0.00     0.120 C 
ATOM     28  C   UNL     1      89.551 -70.510  99.997  1.00  0.00     0.014 C 
ATOM     29  C   UNL     1      87.956 -68.657 100.268  1.00  0.00     0.014 C 
ENDROOT
BRANCH   1  30
ATOM     30  C   UNL     1      96.268 -65.315 106.103  1.00  0.00     0.048 C 
ATOM     31  O   UNL     1      95.897 -64.613 107.083  1.00  0.00    -0.550 OA
ATOM     32  O   UNL     1      96.774 -66.587 106.355  1.00  0.00    -0.550 OA
ENDBRANCH   1  30
BRANCH  27  33
ATOM     33  O   UNL     1      89.486 -71.010 102.798  1.00  0.00    -0.393 OA
ATOM     34  H   UNL     1      89.974 -71.377 102.015  1.00  0.00     0.210 HD
ENDBRANCH  27  33
TORSDOF 2
ENDMDL
MODEL 7
REMARK VINA RESULT:    -7.312      2.520      8.292
REMARK INTER + INTRA:          -8.105
REMARK INTER:                  -7.841
REMARK INTRA:                  -0.264
REMARK UNBOUND:                -0.152
REMARK SMILES C[C@H]1[C@H]2C3=CC[C@@H]4[C@]5(C)CC[C@H](O)C(C)(C)[C@@H]5CC[C@]4(C)[C@@]3(C)CC[C@@]2(C(=O)[O-])CC[C@@H]1C
REMARK SMILES IDX 26 1 30 2 25 3 3 4 31 5 24 6 4 7 2 8 32 9 22 10 5 11 1 12
REMARK SMILES IDX 33 13 23 14 20 15 6 16 7 17 19 18 21 19 8 20 18 21 17 22
REMARK SMILES IDX 10 23 9 24 14 25 11 26 12 27 15 28 16 29 27 30 28 31 29 32
REMARK SMILES IDX 13 33
REMARK H PARENT 13 34
REMARK Flexibility Score: inf
ROOT
ATOM      1  C   UNL     1      97.599 -64.711 105.898  1.00  0.00     0.017 C 
ATOM      2  C   UNL     1      98.996 -64.049 106.110  1.00  0.00     0.014 C 
ATOM      3  C   UNL     1      97.759 -66.019 105.039  1.00  0.00     0.014 C 
ATOM      4  C   UNL     1      96.547 -63.693 105.281  1.00  0.00     0.030 C 
ATOM      5  C   UNL     1      99.456 -63.172 104.952  1.00  0.00     0.004 C 
ATOM      6  C   UNL     1      96.702 -66.272 103.947  1.00  0.00     0.013 C 
ATOM      7  C   UNL     1      95.271 -64.384 104.756  1.00  0.00    -0.063 C 
ATOM      8  C   UNL     1      97.079 -62.567 104.311  1.00  0.00    -0.003 C 
ATOM      9  C   UNL     1      98.475 -62.021 104.698  1.00  0.00    -0.011 C 
ATOM     10  C   UNL     1      95.238 -65.854 104.290  1.00  0.00    -0.006 C 
ATOM     11  C   UNL     1      94.127 -63.681 104.776  1.00  0.00    -0.027 C 
ATOM     12  C   UNL     1      97.034 -62.901 102.816  1.00  0.00     0.008 C 
ATOM     13  C   UNL     1      98.400 -61.032 105.876  1.00  0.00     0.008 C 
ATOM     14  C   UNL     1      94.793 -66.732 105.505  1.00  0.00     0.017 C 
ATOM     15  C   UNL     1      94.221 -66.066 103.011  1.00  0.00    -0.020 C 
ATOM     16  C   UNL     1      92.839 -64.294 104.341  1.00  0.00     0.032 C 
ATOM     17  C   UNL     1      93.011 -65.030 102.990  1.00  0.00     0.006 C 
ATOM     18  C   UNL     1      93.627 -67.495 103.014  1.00  0.00     0.008 C 
ATOM     19  C   UNL     1      95.000 -65.920 101.657  1.00  0.00     0.012 C 
ATOM     20  C   UNL     1      91.595 -65.511 102.379  1.00  0.00    -0.025 C 
ATOM     21  C   UNL     1      92.730 -67.822 101.822  1.00  0.00     0.005 C 
ATOM     22  C   UNL     1      91.759 -66.693 101.330  1.00  0.00     0.003 C 
ATOM     23  C   UNL     1      90.596 -65.983 103.489  1.00  0.00     0.010 C 
ATOM     24  C   UNL     1      91.001 -64.237 101.683  1.00  0.00     0.012 C 
ATOM     25  C   UNL     1      90.393 -67.308 100.775  1.00  0.00    -0.006 C 
ATOM     26  C   UNL     1      89.261 -66.542 102.965  1.00  0.00     0.033 C 
ATOM     27  C   UNL     1      89.429 -67.684 101.946  1.00  0.00     0.120 C 
ATOM     28  C   UNL     1      90.664 -68.572  99.897  1.00  0.00     0.014 C 
ATOM     29  C   UNL     1      89.671 -66.324  99.804  1.00  0.00     0.014 C 
ENDROOT
BRANCH   1  30
ATOM     30  C   UNL     1      97.183 -65.130 107.316  1.00  0.00     0.048 C 
ATOM     31  O   UNL     1      97.445 -66.274 107.778  1.00  0.00    -0.550 OA
ATOM     32  O   UNL     1      96.456 -64.248 108.111  1.00  0.00    -0.550 OA
ENDBRANCH   1  30
BRANCH  27  33
ATOM     33  O   UNL     1      89.868 -68.839 102.617  1.00  0.00    -0.393 OA
ATOM     34  H   UNL     1      90.859 -68.792 102.667  1.00  0.00     0.210 HD
ENDBRANCH  27  33
TORSDOF 2
ENDMDL
MODEL 8
REMARK VINA RESULT:    -7.188      2.146      3.704
REMARK INTER + INTRA:          -7.970
REMARK INTER:                  -7.731
REMARK INTRA:                  -0.239
REMARK UNBOUND:                -0.152
REMARK SMILES C[C@H]1[C@H]2C3=CC[C@@H]4[C@]5(C)CC[C@H](O)C(C)(C)[C@@H]5CC[C@]4(C)[C@@]3(C)CC[C@@]2(C(=O)[O-])CC[C@@H]1C
REMARK SMILES IDX 26 1 30 2 25 3 3 4 31 5 24 6 4 7 2 8 32 9 22 10 5 11 1 12
REMARK SMILES IDX 33 13 23 14 20 15 6 16 7 17 19 18 21 19 8 20 18 21 17 22
REMARK SMILES IDX 10 23 9 24 14 25 11 26 12 27 15 28 16 29 27 30 28 31 29 32
REMARK SMILES IDX 13 33
REMARK H PARENT 13 34
REMARK Flexibility Score: inf
ROOT
ATOM      1  C   UNL     1      90.903 -65.904 101.915  1.00  0.00     0.017 C 
ATOM      2  C   UNL     1      89.839 -66.103 100.792  1.00  0.00     0.014 C 
ATOM      3  C   UNL     1      91.002 -64.379 102.286  1.00  0.00     0.014 C 
ATOM      4  C   UNL     1      92.308 -66.534 101.521  1.00  0.00     0.030 C 
ATOM      5  C   UNL     1      90.359 -65.846  99.383  1.00  0.00     0.004 C 
ATOM      6  C   UNL     1      92.412 -63.804 102.517  1.00  0.00     0.013 C 
ATOM      7  C   UNL     1      93.457 -66.077 102.444  1.00  0.00    -0.063 C 
ATOM      8  C   UNL     1      92.715 -66.553  99.997  1.00  0.00    -0.003 C 
ATOM      9  C   UNL     1      91.522 -66.782  99.036  1.00  0.00    -0.011 C 
ATOM     10  C   UNL     1      93.437 -64.747 103.222  1.00  0.00    -0.006 C 
ATOM     11  C   UNL     1      94.488 -66.921 102.622  1.00  0.00    -0.027 C 
ATOM     12  C   UNL     1      93.561 -65.367  99.519  1.00  0.00     0.008 C 
ATOM     13  C   UNL     1      91.100 -68.262  98.987  1.00  0.00     0.008 C 
ATOM     14  C   UNL     1      92.872 -65.036 104.651  1.00  0.00     0.017 C 
ATOM     15  C   UNL     1      94.936 -64.069 103.312  1.00  0.00    -0.020 C 
ATOM     16  C   UNL     1      95.610 -66.582 103.542  1.00  0.00     0.032 C 
ATOM     17  C   UNL     1      96.115 -65.141 103.284  1.00  0.00     0.006 C 
ATOM     18  C   UNL     1      95.083 -63.232 104.605  1.00  0.00     0.008 C 
ATOM     19  C   UNL     1      95.165 -63.075 102.120  1.00  0.00     0.012 C 
ATOM     20  C   UNL     1      97.469 -64.819 104.102  1.00  0.00    -0.025 C 
ATOM     21  C   UNL     1      96.413 -62.494 104.747  1.00  0.00     0.005 C 
ATOM     22  C   UNL     1      97.704 -63.259 104.294  1.00  0.00     0.003 C 
ATOM     23  C   UNL     1      97.484 -65.489 105.517  1.00  0.00     0.010 C 
ATOM     24  C   UNL     1      98.621 -65.446 103.241  1.00  0.00     0.012 C 
ATOM     25  C   UNL     1      98.958 -62.863 105.201  1.00  0.00    -0.006 C 
ATOM     26  C   UNL     1      98.709 -65.144 106.386  1.00  0.00     0.033 C 
ATOM     27  C   UNL     1      98.931 -63.631 106.563  1.00  0.00     0.120 C 
ATOM     28  C   UNL     1      98.990 -61.325 105.471  1.00  0.00     0.014 C 
ATOM     29  C   UNL     1     100.308 -63.146 104.473  1.00  0.00     0.014 C 
ENDROOT
BRANCH   1  30
ATOM     30  C   UNL     1      90.295 -66.640 103.119  1.00  0.00     0.048 C 
ATOM     31  O   UNL     1      89.390 -66.125 103.829  1.00  0.00    -0.550 OA
ATOM     32  O   UNL     1      90.780 -67.896 103.475  1.00  0.00    -0.550 OA
ENDBRANCH   1  30
BRANCH  27  33
ATOM     33  O   UNL     1      97.941 -63.117 107.418  1.00  0.00    -0.393 OA
ATOM     34  H   UNL     1      98.401 -62.770 108.226  1.00  0.00     0.210 HD
ENDBRANCH  27  33
TORSDOF 2
ENDMDL
MODEL 9
REMARK VINA RESULT:    -7.163      3.188      5.708
REMARK INTER + INTRA:          -7.943
REMARK INTER:                  -7.697
REMARK INTRA:                  -0.246
REMARK UNBOUND:                -0.152
REMARK SMILES C[C@H]1[C@H]2C3=CC[C@@H]4[C@]5(C)CC[C@H](O)C(C)(C)[C@@H]5CC[C@]4(C)[C@@]3(C)CC[C@@]2(C(=O)[O-])CC[C@@H]1C
REMARK SMILES IDX 26 1 30 2 25 3 3 4 31 5 24 6 4 7 2 8 32 9 22 10 5 11 1 12
REMARK SMILES IDX 33 13 23 14 20 15 6 16 7 17 19 18 21 19 8 20 18 21 17 22
REMARK SMILES IDX 10 23 9 24 14 25 11 26 12 27 15 28 16 29 27 30 28 31 29 32
REMARK SMILES IDX 13 33
REMARK H PARENT 13 34
REMARK Flexibility Score: inf
ROOT
ATOM      1  C   UNL     1      89.041 -68.271 101.785  1.00  0.00     0.017 C 
ATOM      2  C   UNL     1      87.983 -68.784 100.760  1.00  0.00     0.014 C 
ATOM      3  C   UNL     1      88.797 -66.746 102.079  1.00  0.00     0.014 C 
ATOM      4  C   UNL     1      90.526 -68.577 101.308  1.00  0.00     0.030 C 
ATOM      5  C   UNL     1      88.331 -68.499  99.304  1.00  0.00     0.004 C 
ATOM      6  C   UNL     1      90.042 -65.843 102.171  1.00  0.00     0.013 C 
ATOM      7  C   UNL     1      91.592 -67.808 102.115  1.00  0.00    -0.063 C 
ATOM      8  C   UNL     1      90.823 -68.594  99.758  1.00  0.00    -0.003 C 
ATOM      9  C   UNL     1      89.658 -69.156  98.907  1.00  0.00    -0.011 C 
ATOM     10  C   UNL     1      91.307 -66.473 102.834  1.00  0.00    -0.006 C 
ATOM     11  C   UNL     1      92.804 -68.373 102.248  1.00  0.00    -0.027 C 
ATOM     12  C   UNL     1      91.328 -67.274  99.162  1.00  0.00     0.008 C 
ATOM     13  C   UNL     1      89.598 -70.694  98.957  1.00  0.00     0.008 C 
ATOM     14  C   UNL     1      90.924 -66.798 104.314  1.00  0.00     0.017 C 
ATOM     15  C   UNL     1      92.604 -65.458 102.774  1.00  0.00    -0.020 C 
ATOM     16  C   UNL     1      93.872 -67.724 103.060  1.00  0.00     0.032 C 
ATOM     17  C   UNL     1      94.000 -66.223 102.699  1.00  0.00     0.006 C 
ATOM     18  C   UNL     1      92.633 -64.532 104.012  1.00  0.00     0.008 C 
ATOM     19  C   UNL     1      92.509 -64.514 101.525  1.00  0.00     0.012 C 
ATOM     20  C   UNL     1      95.290 -65.543 103.392  1.00  0.00    -0.025 C 
ATOM     21  C   UNL     1      93.755 -63.495 104.015  1.00  0.00     0.005 C 
ATOM     22  C   UNL     1      95.159 -63.963 103.495  1.00  0.00     0.003 C 
ATOM     23  C   UNL     1      95.559 -66.102 104.829  1.00  0.00     0.010 C 
ATOM     24  C   UNL     1      96.498 -65.934 102.470  1.00  0.00     0.012 C 
ATOM     25  C   UNL     1      96.339 -63.228 104.281  1.00  0.00    -0.006 C 
ATOM     26  C   UNL     1      96.721 -65.426 105.581  1.00  0.00     0.033 C 
ATOM     27  C   UNL     1      96.587 -63.896 105.673  1.00  0.00     0.120 C 
ATOM     28  C   UNL     1      96.021 -61.712 104.480  1.00  0.00     0.014 C 
ATOM     29  C   UNL     1      97.666 -63.231 103.461  1.00  0.00     0.014 C 
ENDROOT
BRANCH   1  30
ATOM     30  C   UNL     1      88.709 -69.054 103.064  1.00  0.00     0.048 C 
ATOM     31  O   UNL     1      89.113 -70.234 103.248  1.00  0.00    -0.550 OA
ATOM     32  O   UNL     1      87.900 -68.473 104.037  1.00  0.00    -0.550 OA
ENDBRANCH   1  30
BRANCH  27  33
ATOM     33  O   UNL     1      95.563 -63.576 106.580  1.00  0.00    -0.393 OA
ATOM     34  H   UNL     1      95.506 -64.320 107.236  1.00  0.00     0.210 HD
ENDBRANCH  27  33
TORSDOF 2
ENDMDL
