MODEL 1
REMARK VINA RESULT:    -4.824      0.000      0.000
REMARK INTER + INTRA:          -8.971
REMARK INTER:                  -7.644
REMARK INTRA:                  -1.327
REMARK UNBOUND:                -1.327
REMARK SMILES CCCCCCCCCCCC(=O)[O-]
REMARK SMILES IDX 7 1 8 2 9 3 10 4 11 5 12 6 13 7 14 8 6 9 5 10 4 11 3 12 2 13
REMARK SMILES IDX 1 14
REMARK H PARENT
REMARK Flexibility Score: inf
ROOT
ATOM      1  C   UNL     1     -22.068  -7.359  14.536  1.00  0.00     0.000 C 
ENDROOT
BRANCH   1   2
ATOM      2  C   UNL     1     -20.644  -7.921  14.383  1.00  0.00     0.000 C 
BRANCH   2   3
ATOM      3  C   UNL     1     -19.666  -7.350  15.424  1.00  0.00     0.000 C 
BRANCH   3   4
ATOM      4  C   UNL     1     -18.723  -8.419  15.997  1.00  0.00     0.006 C 
BRANCH   4   5
ATOM      5  C   UNL     1     -19.211  -8.977  17.339  1.00  0.00     0.053 C 
BRANCH   5   6
ATOM      6  C   UNL     1     -18.082  -9.628  18.075  1.00  0.00     0.041 C 
ATOM      7  O   UNL     1     -17.020  -8.990  18.300  1.00  0.00    -0.550 OA
ATOM      8  O   UNL     1     -18.221 -10.925  18.554  1.00  0.00    -0.550 OA
ENDBRANCH   5   6
ENDBRANCH   4   5
ENDBRANCH   3   4
ENDBRANCH   2   3
ENDBRANCH   1   2
BRANCH   1   9
ATOM      9  C   UNL     1     -23.116  -8.463  14.763  1.00  0.00     0.000 C 
BRANCH   9  10
ATOM     10  C   UNL     1     -22.798  -9.333  15.991  1.00  0.00    -0.000 C 
BRANCH  10  11
ATOM     11  C   UNL     1     -23.862  -9.207  17.094  1.00  0.00    -0.000 C 
BRANCH  11  12
ATOM     12  C   UNL     1     -23.796  -7.861  17.839  1.00  0.00    -0.000 C 
BRANCH  12  13
ATOM     13  C   UNL     1     -22.375  -7.386  18.194  1.00  0.00    -0.003 C 
ATOM     14  C   UNL     1     -22.133  -5.915  17.857  1.00  0.00     0.004 C 
ENDBRANCH  12  13
ENDBRANCH  11  12
ENDBRANCH  10  11
ENDBRANCH   9  10
ENDBRANCH   1   9
TORSDOF 10
ENDMDL
MODEL 2
REMARK VINA RESULT:    -4.797      0.950      2.488
REMARK INTER + INTRA:          -8.929
REMARK INTER:                  -7.515
REMARK INTRA:                  -1.413
REMARK UNBOUND:                -1.327
REMARK SMILES CCCCCCCCCCCC(=O)[O-]
REMARK SMILES IDX 7 1 8 2 9 3 10 4 11 5 12 6 13 7 14 8 6 9 5 10 4 11 3 12 2 13
REMARK SMILES IDX 1 14
REMARK H PARENT
REMARK Flexibility Score: inf
ROOT
ATOM      1  C   UNL     1     -21.168  -5.640  15.358  1.00  0.00     0.000 C 
ENDROOT
BRANCH   1   2
ATOM      2  C   UNL     1     -19.761  -6.205  15.099  1.00  0.00     0.000 C 
BRANCH   2   3
ATOM      3  C   UNL     1     -19.714  -7.740  15.186  1.00  0.00     0.000 C 
BRANCH   3   4
ATOM      4  C   UNL     1     -18.592  -8.244  16.108  1.00  0.00     0.006 C 
BRANCH   4   5
ATOM      5  C   UNL     1     -19.128  -9.007  17.326  1.00  0.00     0.053 C 
BRANCH   5   6
ATOM      6  C   UNL     1     -17.998  -9.568  18.130  1.00  0.00     0.041 C 
ATOM      7  O   UNL     1     -18.089 -10.718  18.636  1.00  0.00    -0.550 OA
ATOM      8  O   UNL     1     -16.824  -8.841  18.279  1.00  0.00    -0.550 OA
ENDBRANCH   5   6
ENDBRANCH   4   5
ENDBRANCH   3   4
ENDBRANCH   2   3
ENDBRANCH   1   2
BRANCH   1   9
ATOM      9  C   UNL     1     -21.320  -5.061  16.776  1.00  0.00     0.000 C 
BRANCH   9  10
ATOM     10  C   UNL     1     -21.999  -6.045  17.742  1.00  0.00    -0.000 C 
BRANCH  10  11
ATOM     11  C   UNL     1     -22.985  -6.986  17.028  1.00  0.00    -0.000 C 
BRANCH  11  12
ATOM     12  C   UNL     1     -22.797  -8.462  17.423  1.00  0.00    -0.000 C 
BRANCH  12  13
ATOM     13  C   UNL     1     -23.044  -9.474  16.289  1.00  0.00    -0.003 C 
ATOM     14  C   UNL     1     -23.057  -8.829  14.904  1.00  0.00     0.004 C 
ENDBRANCH  12  13
ENDBRANCH  11  12
ENDBRANCH  10  11
ENDBRANCH   9  10
ENDBRANCH   1   9
TORSDOF 10
ENDMDL
MODEL 3
REMARK VINA RESULT:    -4.551      3.162      5.466
REMARK INTER + INTRA:          -8.538
REMARK INTER:                  -7.686
REMARK INTRA:                  -0.852
REMARK UNBOUND:                -1.327
REMARK SMILES CCCCCCCCCCCC(=O)[O-]
REMARK SMILES IDX 7 1 8 2 9 3 10 4 11 5 12 6 13 7 14 8 6 9 5 10 4 11 3 12 2 13
REMARK SMILES IDX 1 14
REMARK H PARENT
REMARK Flexibility Score: inf
ROOT
ATOM      1  C   UNL     1     -20.845  -5.460  15.825  1.00  0.00     0.000 C 
ENDROOT
BRANCH   1   2
ATOM      2  C   UNL     1     -21.693  -5.340  17.103  1.00  0.00     0.000 C 
BRANCH   2   3
ATOM      3  C   UNL     1     -21.943  -6.699  17.779  1.00  0.00     0.000 C 
BRANCH   3   4
ATOM      4  C   UNL     1     -23.382  -6.845  18.295  1.00  0.00     0.006 C 
BRANCH   4   5
ATOM      5  C   UNL     1     -24.019  -8.182  17.895  1.00  0.00     0.053 C 
BRANCH   5   6
ATOM      6  C   UNL     1     -23.924  -8.385  16.416  1.00  0.00     0.041 C 
ATOM      7  O   UNL     1     -23.289  -9.368  15.951  1.00  0.00    -0.550 OA
ATOM      8  O   UNL     1     -24.577  -7.515  15.552  1.00  0.00    -0.550 OA
ENDBRANCH   5   6
ENDBRANCH   4   5
ENDBRANCH   3   4
ENDBRANCH   2   3
ENDBRANCH   1   2
BRANCH   1   9
ATOM      9  C   UNL     1     -21.442  -6.451  14.811  1.00  0.00     0.000 C 
BRANCH   9  10
ATOM     10  C   UNL     1     -20.463  -7.577  14.443  1.00  0.00    -0.000 C 
BRANCH  10  11
ATOM     11  C   UNL     1     -19.102  -7.428  15.145  1.00  0.00    -0.000 C 
BRANCH  11  12
ATOM     12  C   UNL     1     -17.996  -6.915  14.205  1.00  0.00    -0.000 C 
BRANCH  12  13
ATOM     13  C   UNL     1     -17.556  -5.460  14.453  1.00  0.00    -0.003 C 
ATOM     14  C   UNL     1     -16.696  -4.894  13.323  1.00  0.00     0.004 C 
ENDBRANCH  12  13
ENDBRANCH  11  12
ENDBRANCH  10  11
ENDBRANCH   9  10
ENDBRANCH   1   9
TORSDOF 10
ENDMDL
MODEL 4
REMARK VINA RESULT:    -4.496      2.464      4.775
REMARK INTER + INTRA:          -8.452
REMARK INTER:                  -7.554
REMARK INTRA:                  -0.898
REMARK UNBOUND:                -1.327
REMARK SMILES CCCCCCCCCCCC(=O)[O-]
REMARK SMILES IDX 7 1 8 2 9 3 10 4 11 5 12 6 13 7 14 8 6 9 5 10 4 11 3 12 2 13
REMARK SMILES IDX 1 14
REMARK H PARENT
REMARK Flexibility Score: inf
ROOT
ATOM      1  C   UNL     1     -19.575  -5.762  14.959  1.00  0.00     0.000 C 
ENDROOT
BRANCH   1   2
ATOM      2  C   UNL     1     -20.974  -6.107  15.496  1.00  0.00     0.000 C 
BRANCH   2   3
ATOM      3  C   UNL     1     -21.371  -5.251  16.711  1.00  0.00     0.000 C 
BRANCH   3   4
ATOM      4  C   UNL     1     -22.279  -6.006  17.694  1.00  0.00     0.006 C 
BRANCH   4   5
ATOM      5  C   UNL     1     -21.831  -7.456  17.916  1.00  0.00     0.053 C 
BRANCH   5   6
ATOM      6  C   UNL     1     -22.892  -8.407  17.458  1.00  0.00     0.041 C 
ATOM      7  O   UNL     1     -22.605  -9.342  16.664  1.00  0.00    -0.550 OA
ATOM      8  O   UNL     1     -24.187  -8.289  17.945  1.00  0.00    -0.550 OA
ENDBRANCH   5   6
ENDBRANCH   4   5
ENDBRANCH   3   4
ENDBRANCH   2   3
ENDBRANCH   1   2
BRANCH   1   9
ATOM      9  C   UNL     1     -18.784  -7.009  14.530  1.00  0.00     0.000 C 
BRANCH   9  10
ATOM     10  C   UNL     1     -19.135  -8.247  15.372  1.00  0.00    -0.000 C 
BRANCH  10  11
ATOM     11  C   UNL     1     -18.304  -8.336  16.664  1.00  0.00    -0.000 C 
BRANCH  11  12
ATOM     12  C   UNL     1     -18.870  -9.353  17.670  1.00  0.00    -0.000 C 
BRANCH  12  13
ATOM     13  C   UNL     1     -17.833  -9.958  18.635  1.00  0.00    -0.003 C 
ATOM     14  C   UNL     1     -16.560  -9.120  18.747  1.00  0.00     0.004 C 
ENDBRANCH  12  13
ENDBRANCH  11  12
ENDBRANCH  10  11
ENDBRANCH   9  10
ENDBRANCH   1   9
TORSDOF 10
ENDMDL
MODEL 5
REMARK VINA RESULT:    -4.460      2.287      3.386
REMARK INTER + INTRA:          -8.394
REMARK INTER:                  -7.252
REMARK INTRA:                  -1.142
REMARK UNBOUND:                -1.327
REMARK SMILES CCCCCCCCCCCC(=O)[O-]
REMARK SMILES IDX 7 1 8 2 9 3 10 4 11 5 12 6 13 7 14 8 6 9 5 10 4 11 3 12 2 13
REMARK SMILES IDX 1 14
REMARK H PARENT
REMARK Flexibility Score: inf
ROOT
ATOM      1  C   UNL     1     -21.519  -7.412  17.770  1.00  0.00     0.000 C 
ENDROOT
BRANCH   1   2
ATOM      2  C   UNL     1     -22.147  -6.066  17.369  1.00  0.00     0.000 C 
BRANCH   2   3
ATOM      3  C   UNL     1     -21.149  -5.134  16.661  1.00  0.00     0.000 C 
BRANCH   3   4
ATOM      4  C   UNL     1     -20.910  -5.528  15.195  1.00  0.00     0.006 C 
BRANCH   4   5
ATOM      5  C   UNL     1     -19.461  -5.955  14.927  1.00  0.00     0.053 C 
BRANCH   5   6
ATOM      6  C   UNL     1     -19.372  -7.442  14.791  1.00  0.00     0.041 C 
ATOM      7  O   UNL     1     -18.662  -8.110  15.588  1.00  0.00    -0.550 OA
ATOM      8  O   UNL     1     -20.112  -8.096  13.814  1.00  0.00    -0.550 OA
ENDBRANCH   5   6
ENDBRANCH   4   5
ENDBRANCH   3   4
ENDBRANCH   2   3
ENDBRANCH   1   2
BRANCH   1   9
ATOM      9  C   UNL     1     -22.073  -8.589  16.949  1.00  0.00     0.000 C 
BRANCH   9  10
ATOM     10  C   UNL     1     -23.514  -8.347  16.470  1.00  0.00    -0.000 C 
BRANCH  10  11
ATOM     11  C   UNL     1     -24.559  -8.730  17.532  1.00  0.00    -0.000 C 
BRANCH  11  12
ATOM     12  C   UNL     1     -25.834  -7.871  17.454  1.00  0.00    -0.000 C 
BRANCH  12  13
ATOM     13  C   UNL     1     -25.691  -6.444  18.014  1.00  0.00    -0.003 C 
ATOM     14  C   UNL     1     -25.022  -6.404  19.387  1.00  0.00     0.004 C 
ENDBRANCH  12  13
ENDBRANCH  11  12
ENDBRANCH  10  11
ENDBRANCH   9  10
ENDBRANCH   1   9
TORSDOF 10
ENDMDL
MODEL 6
REMARK VINA RESULT:    -4.406      2.435      4.864
REMARK INTER + INTRA:          -8.309
REMARK INTER:                  -7.100
REMARK INTRA:                  -1.208
REMARK UNBOUND:                -1.327
REMARK SMILES CCCCCCCCCCCC(=O)[O-]
REMARK SMILES IDX 7 1 8 2 9 3 10 4 11 5 12 6 13 7 14 8 6 9 5 10 4 11 3 12 2 13
REMARK SMILES IDX 1 14
REMARK H PARENT
REMARK Flexibility Score: inf
ROOT
ATOM      1  C   UNL     1     -20.983  -5.077  16.549  1.00  0.00     0.000 C 
ENDROOT
BRANCH   1   2
ATOM      2  C   UNL     1     -22.171  -5.602  17.372  1.00  0.00     0.000 C 
BRANCH   2   3
ATOM      3  C   UNL     1     -21.861  -6.932  18.081  1.00  0.00     0.000 C 
BRANCH   3   4
ATOM      4  C   UNL     1     -23.070  -7.880  18.110  1.00  0.00     0.006 C 
BRANCH   4   5
ATOM      5  C   UNL     1     -23.795  -7.954  16.761  1.00  0.00     0.053 C 
BRANCH   5   6
ATOM      6  C   UNL     1     -23.152  -8.976  15.877  1.00  0.00     0.041 C 
ATOM      7  O   UNL     1     -22.865 -10.115  16.331  1.00  0.00    -0.550 OA
ATOM      8  O   UNL     1     -22.914  -8.686  14.540  1.00  0.00    -0.550 OA
ENDBRANCH   5   6
ENDBRANCH   4   5
ENDBRANCH   3   4
ENDBRANCH   2   3
ENDBRANCH   1   2
BRANCH   1   9
ATOM      9  C   UNL     1     -20.906  -5.713  15.151  1.00  0.00     0.000 C 
BRANCH   9  10
ATOM     10  C   UNL     1     -19.554  -6.397  14.889  1.00  0.00    -0.000 C 
BRANCH  10  11
ATOM     11  C   UNL     1     -19.584  -7.902  15.210  1.00  0.00    -0.000 C 
BRANCH  11  12
ATOM     12  C   UNL     1     -18.553  -8.306  16.280  1.00  0.00    -0.000 C 
BRANCH  12  13
ATOM     13  C   UNL     1     -19.129  -9.092  17.472  1.00  0.00    -0.003 C 
ATOM     14  C   UNL     1     -18.056  -9.816  18.285  1.00  0.00     0.004 C 
ENDBRANCH  12  13
ENDBRANCH  11  12
ENDBRANCH  10  11
ENDBRANCH   9  10
ENDBRANCH   1   9
TORSDOF 10
ENDMDL
MODEL 7
REMARK VINA RESULT:    -4.382      2.153      3.621
REMARK INTER + INTRA:          -8.272
REMARK INTER:                  -7.077
REMARK INTRA:                  -1.194
REMARK UNBOUND:                -1.327
REMARK SMILES CCCCCCCCCCCC(=O)[O-]
REMARK SMILES IDX 7 1 8 2 9 3 10 4 11 5 12 6 13 7 14 8 6 9 5 10 4 11 3 12 2 13
REMARK SMILES IDX 1 14
REMARK H PARENT
REMARK Flexibility Score: inf
ROOT
ATOM      1  C   UNL     1     -22.763  -5.953  18.247  1.00  0.00     0.000 C 
ENDROOT
BRANCH   1   2
ATOM      2  C   UNL     1     -21.678  -6.320  17.221  1.00  0.00     0.000 C 
BRANCH   2   3
ATOM      3  C   UNL     1     -21.215  -5.111  16.389  1.00  0.00     0.000 C 
BRANCH   3   4
ATOM      4  C   UNL     1     -20.735  -5.510  14.985  1.00  0.00     0.006 C 
BRANCH   4   5
ATOM      5  C   UNL     1     -19.252  -5.902  14.958  1.00  0.00     0.053 C 
BRANCH   5   6
ATOM      6  C   UNL     1     -19.107  -7.385  14.822  1.00  0.00     0.041 C 
ATOM      7  O   UNL     1     -18.561  -8.055  15.738  1.00  0.00    -0.550 OA
ATOM      8  O   UNL     1     -19.617  -8.033  13.705  1.00  0.00    -0.550 OA
ENDBRANCH   5   6
ENDBRANCH   4   5
ENDBRANCH   3   4
ENDBRANCH   2   3
ENDBRANCH   1   2
BRANCH   1   9
ATOM      9  C   UNL     1     -24.103  -6.655  17.965  1.00  0.00     0.000 C 
BRANCH   9  10
ATOM     10  C   UNL     1     -24.046  -8.166  18.243  1.00  0.00    -0.000 C 
BRANCH  10  11
ATOM     11  C   UNL     1     -24.395  -9.008  17.003  1.00  0.00    -0.000 C 
BRANCH  11  12
ATOM     12  C   UNL     1     -23.154  -9.615  16.324  1.00  0.00    -0.000 C 
BRANCH  12  13
ATOM     13  C   UNL     1     -22.728  -8.926  15.014  1.00  0.00    -0.003 C 
ATOM     14  C   UNL     1     -23.715  -7.854  14.553  1.00  0.00     0.004 C 
ENDBRANCH  12  13
ENDBRANCH  11  12
ENDBRANCH  10  11
ENDBRANCH   9  10
ENDBRANCH   1   9
TORSDOF 10
ENDMDL
MODEL 8
REMARK VINA RESULT:    -4.378      1.975      3.116
REMARK INTER + INTRA:          -8.264
REMARK INTER:                  -6.997
REMARK INTRA:                  -1.267
REMARK UNBOUND:                -1.327
REMARK SMILES CCCCCCCCCCCC(=O)[O-]
REMARK SMILES IDX 7 1 8 2 9 3 10 4 11 5 12 6 13 7 14 8 6 9 5 10 4 11 3 12 2 13
REMARK SMILES IDX 1 14
REMARK H PARENT
REMARK Flexibility Score: inf
ROOT
ATOM      1  C   UNL     1     -22.853  -9.605  16.372  1.00  0.00     0.000 C 
ENDROOT
BRANCH   1   2
ATOM      2  C   UNL     1     -22.811  -9.107  14.917  1.00  0.00     0.000 C 
BRANCH   2   3
ATOM      3  C   UNL     1     -22.840  -7.572  14.814  1.00  0.00     0.000 C 
BRANCH   3   4
ATOM      4  C   UNL     1     -21.433  -6.959  14.742  1.00  0.00     0.006 C 
BRANCH   4   5
ATOM      5  C   UNL     1     -20.390  -7.938  14.188  1.00  0.00     0.053 C 
BRANCH   5   6
ATOM      6  C   UNL     1     -19.076  -7.746  14.877  1.00  0.00     0.041 C 
ATOM      7  O   UNL     1     -18.812  -8.386  15.929  1.00  0.00    -0.550 OA
ATOM      8  O   UNL     1     -18.122  -6.897  14.330  1.00  0.00    -0.550 OA
ENDBRANCH   5   6
ENDBRANCH   4   5
ENDBRANCH   3   4
ENDBRANCH   2   3
ENDBRANCH   1   2
BRANCH   1   9
ATOM      9  C   UNL     1     -24.244 -10.123  16.778  1.00  0.00     0.000 C 
BRANCH   9  10
ATOM     10  C   UNL     1     -24.932  -9.214  17.810  1.00  0.00    -0.000 C 
BRANCH  10  11
ATOM     11  C   UNL     1     -25.719  -8.067  17.152  1.00  0.00    -0.000 C 
BRANCH  11  12
ATOM     12  C   UNL     1     -25.205  -6.676  17.565  1.00  0.00    -0.000 C 
BRANCH  12  13
ATOM     13  C   UNL     1     -24.123  -6.682  18.661  1.00  0.00    -0.003 C 
ATOM     14  C   UNL     1     -22.750  -6.248  18.149  1.00  0.00     0.004 C 
ENDBRANCH  12  13
ENDBRANCH  11  12
ENDBRANCH  10  11
ENDBRANCH   9  10
ENDBRANCH   1   9
TORSDOF 10
ENDMDL
MODEL 9
REMARK VINA RESULT:    -4.368      3.426      5.498
REMARK INTER + INTRA:          -8.249
REMARK INTER:                  -7.102
REMARK INTRA:                  -1.147
REMARK UNBOUND:                -1.327
REMARK SMILES CCCCCCCCCCCC(=O)[O-]
REMARK SMILES IDX 7 1 8 2 9 3 10 4 11 5 12 6 13 7 14 8 6 9 5 10 4 11 3 12 2 13
REMARK SMILES IDX 1 14
REMARK H PARENT
REMARK Flexibility Score: inf
ROOT
ATOM      1  C   UNL     1     -21.675  -6.178  15.961  1.00  0.00     0.000 C 
ENDROOT
BRANCH   1   2
ATOM      2  C   UNL     1     -21.807  -5.877  17.464  1.00  0.00     0.000 C 
BRANCH   2   3
ATOM      3  C   UNL     1     -22.512  -7.006  18.236  1.00  0.00     0.000 C 
BRANCH   3   4
ATOM      4  C   UNL     1     -22.752  -8.252  17.370  1.00  0.00     0.006 C 
BRANCH   4   5
ATOM      5  C   UNL     1     -24.217  -8.707  17.385  1.00  0.00     0.053 C 
BRANCH   5   6
ATOM      6  C   UNL     1     -25.121  -7.570  17.028  1.00  0.00     0.041 C 
ATOM      7  O   UNL     1     -25.208  -7.180  15.834  1.00  0.00    -0.550 OA
ATOM      8  O   UNL     1     -25.905  -6.972  18.007  1.00  0.00    -0.550 OA
ENDBRANCH   5   6
ENDBRANCH   4   5
ENDBRANCH   3   4
ENDBRANCH   2   3
ENDBRANCH   1   2
BRANCH   1   9
ATOM      9  C   UNL     1     -20.627  -5.288  15.271  1.00  0.00     0.000 C 
BRANCH   9  10
ATOM     10  C   UNL     1     -19.358  -6.065  14.883  1.00  0.00    -0.000 C 
BRANCH  10  11
ATOM     11  C   UNL     1     -19.550  -7.589  14.978  1.00  0.00    -0.000 C 
BRANCH  11  12
ATOM     12  C   UNL     1     -18.563  -8.256  15.952  1.00  0.00    -0.000 C 
BRANCH  12  13
ATOM     13  C   UNL     1     -19.217  -9.001  17.131  1.00  0.00    -0.003 C 
ATOM     14  C   UNL     1     -18.208  -9.465  18.181  1.00  0.00     0.004 C 
ENDBRANCH  12  13
ENDBRANCH  11  12
ENDBRANCH  10  11
ENDBRANCH   9  10
ENDBRANCH   1   9
TORSDOF 10
ENDMDL
