MODEL 1
REMARK VINA RESULT:    -6.816      0.000      0.000
REMARK INTER + INTRA:          -8.545
REMARK INTER:                  -8.210
REMARK INTRA:                  -0.335
REMARK UNBOUND:                -0.335
REMARK SMILES O=c1c(O)c(-c2ccc(O)c(O)c2)oc2cc(O)cc(O)c12
REMARK SMILES IDX 5 1 3 2 2 3 1 4 22 5 20 6 19 7 17 8 16 9 15 10 14 11 6 12
REMARK SMILES IDX 7 13 8 14 9 15 13 16 11 17 10 18 12 20 4 22 21 24 18 26
REMARK H PARENT 10 19 12 21 4 23 21 25 18 27
REMARK Flexibility Score: inf
ROOT
ATOM      1  C   UNL     1     -37.906   4.812  79.852  1.00  0.00     0.180 A 
ATOM      2  C   UNL     1     -38.478   4.886  81.134  1.00  0.00     0.208 A 
ATOM      3  C   UNL     1     -39.787   4.416  81.324  1.00  0.00     0.238 A 
ATOM      4  O   UNL     1     -40.313   4.535  82.462  1.00  0.00    -0.285 OA
ATOM      5  C   UNL     1     -40.501   3.861  80.236  1.00  0.00     0.111 A 
ATOM      6  C   UNL     1     -41.819   3.317  80.323  1.00  0.00     0.134 A 
ATOM      7  C   UNL     1     -42.478   2.915  79.155  1.00  0.00     0.093 A 
ATOM      8  C   UNL     1     -41.844   2.976  77.912  1.00  0.00     0.123 A 
ATOM      9  C   UNL     1     -40.537   3.450  77.824  1.00  0.00     0.094 A 
ATOM     10  C   UNL     1     -39.866   3.892  78.966  1.00  0.00     0.146 A 
ATOM     11  O   UNL     1     -38.625   4.347  78.837  1.00  0.00    -0.452 OA
ENDROOT
BRANCH   1  12
ATOM     12  C   UNL     1     -36.523   5.265  79.579  1.00  0.00     0.025 A 
ATOM     13  C   UNL     1     -35.426   4.397  79.724  1.00  0.00     0.016 A 
ATOM     14  C   UNL     1     -34.133   4.840  79.438  1.00  0.00     0.051 A 
ATOM     15  C   UNL     1     -33.916   6.149  78.989  1.00  0.00     0.157 A 
ATOM     16  C   UNL     1     -36.303   6.569  79.108  1.00  0.00     0.062 A 
ATOM     17  C   UNL     1     -35.009   7.016  78.820  1.00  0.00     0.158 A 
BRANCH  15  18
ATOM     18  O   UNL     1     -32.624   6.588  78.705  1.00  0.00    -0.504 OA
ATOM     19  H   UNL     1     -31.822   5.976  78.801  1.00  0.00     0.293 HD
ENDBRANCH  15  18
BRANCH  17  20
ATOM     20  O   UNL     1     -34.828   8.323  78.367  1.00  0.00    -0.504 OA
ATOM     21  H   UNL     1     -33.990   8.854  78.575  1.00  0.00     0.293 HD
ENDBRANCH  17  20
ENDBRANCH   1  12
BRANCH   2  22
ATOM     22  O   UNL     1     -37.763   5.458  82.190  1.00  0.00    -0.502 OA
ATOM     23  H   UNL     1     -37.317   4.901  82.909  1.00  0.00     0.293 HD
ENDBRANCH   2  22
BRANCH   6  24
ATOM     24  O   UNL     1     -42.505   3.126  81.525  1.00  0.00    -0.507 OA
ATOM     25  H   UNL     1     -43.489   2.915  81.598  1.00  0.00     0.293 HD
ENDBRANCH   6  24
BRANCH   8  26
ATOM     26  O   UNL     1     -42.502   2.559  76.757  1.00  0.00    -0.508 OA
ATOM     27  H   UNL     1     -43.513   2.519  76.708  1.00  0.00     0.293 HD
ENDBRANCH   8  26
TORSDOF 6
ENDMDL
MODEL 2
REMARK VINA RESULT:    -6.380      1.634      7.133
REMARK INTER + INTRA:          -8.021
REMARK INTER:                  -7.870
REMARK INTRA:                  -0.151
REMARK UNBOUND:                -0.335
REMARK SMILES O=c1c(O)c(-c2ccc(O)c(O)c2)oc2cc(O)cc(O)c12
REMARK SMILES IDX 5 1 3 2 2 3 1 4 22 5 20 6 19 7 17 8 16 9 15 10 14 11 6 12
REMARK SMILES IDX 7 13 8 14 9 15 13 16 11 17 10 18 12 20 4 22 21 24 18 26
REMARK H PARENT 10 19 12 21 4 23 21 25 18 27
REMARK Flexibility Score: inf
ROOT
ATOM      1  C   UNL     1     -38.779   4.562  78.979  1.00  0.00     0.180 A 
ATOM      2  C   UNL     1     -38.380   5.572  78.087  1.00  0.00     0.208 A 
ATOM      3  C   UNL     1     -37.061   6.050  78.144  1.00  0.00     0.238 A 
ATOM      4  O   UNL     1     -36.725   6.991  77.378  1.00  0.00    -0.285 OA
ATOM      5  C   UNL     1     -36.153   5.499  79.079  1.00  0.00     0.111 A 
ATOM      6  C   UNL     1     -34.781   5.879  79.198  1.00  0.00     0.134 A 
ATOM      7  C   UNL     1     -34.010   5.362  80.246  1.00  0.00     0.093 A 
ATOM      8  C   UNL     1     -34.542   4.431  81.141  1.00  0.00     0.123 A 
ATOM      9  C   UNL     1     -35.862   4.010  80.998  1.00  0.00     0.094 A 
ATOM     10  C   UNL     1     -36.667   4.534  79.984  1.00  0.00     0.146 A 
ATOM     11  O   UNL     1     -37.922   4.113  79.890  1.00  0.00    -0.452 OA
ENDROOT
BRANCH   1  12
ATOM     12  C   UNL     1     -40.145   3.991  78.964  1.00  0.00     0.025 A 
ATOM     13  C   UNL     1     -40.652   3.337  77.828  1.00  0.00     0.016 A 
ATOM     14  C   UNL     1     -41.935   2.785  77.844  1.00  0.00     0.051 A 
ATOM     15  C   UNL     1     -42.726   2.866  78.998  1.00  0.00     0.157 A 
ATOM     16  C   UNL     1     -40.932   4.050  80.126  1.00  0.00     0.062 A 
ATOM     17  C   UNL     1     -42.218   3.499  80.145  1.00  0.00     0.158 A 
BRANCH  15  18
ATOM     18  O   UNL     1     -44.006   2.315  79.011  1.00  0.00    -0.504 OA
ATOM     19  H   UNL     1     -44.353   1.760  78.238  1.00  0.00     0.293 HD
ENDBRANCH  15  18
BRANCH  17  20
ATOM     20  O   UNL     1     -42.976   3.589  81.313  1.00  0.00    -0.504 OA
ATOM     21  H   UNL     1     -43.989   3.575  81.300  1.00  0.00     0.293 HD
ENDBRANCH  17  20
ENDBRANCH   1  12
BRANCH   2  22
ATOM     22  O   UNL     1     -39.299   6.116  77.185  1.00  0.00    -0.502 OA
ATOM     23  H   UNL     1     -39.900   5.541  76.607  1.00  0.00     0.293 HD
ENDBRANCH   2  22
BRANCH   6  24
ATOM     24  O   UNL     1     -34.128   6.730  78.302  1.00  0.00    -0.507 OA
ATOM     25  H   UNL     1     -33.613   7.556  78.566  1.00  0.00     0.293 HD
ENDBRANCH   6  24
BRANCH   8  26
ATOM     26  O   UNL     1     -33.763   3.910  82.171  1.00  0.00    -0.508 OA
ATOM     27  H   UNL     1     -33.539   4.456  82.995  1.00  0.00     0.293 HD
ENDBRANCH   8  26
TORSDOF 6
ENDMDL
MODEL 3
REMARK VINA RESULT:    -6.374      2.004      7.272
REMARK INTER + INTRA:          -8.013
REMARK INTER:                  -7.709
REMARK INTRA:                  -0.303
REMARK UNBOUND:                -0.335
REMARK SMILES O=c1c(O)c(-c2ccc(O)c(O)c2)oc2cc(O)cc(O)c12
REMARK SMILES IDX 5 1 3 2 2 3 1 4 22 5 20 6 19 7 17 8 16 9 15 10 14 11 6 12
REMARK SMILES IDX 7 13 8 14 9 15 13 16 11 17 10 18 12 20 4 22 21 24 18 26
REMARK H PARENT 10 19 12 21 4 23 21 25 18 27
REMARK Flexibility Score: inf
ROOT
ATOM      1  C   UNL     1     -38.609   6.174  78.442  1.00  0.00     0.180 A 
ATOM      2  C   UNL     1     -38.957   7.425  77.904  1.00  0.00     0.208 A 
ATOM      3  C   UNL     1     -37.937   8.320  77.543  1.00  0.00     0.238 A 
ATOM      4  O   UNL     1     -38.256   9.459  77.112  1.00  0.00    -0.285 OA
ATOM      5  C   UNL     1     -36.582   7.946  77.708  1.00  0.00     0.111 A 
ATOM      6  C   UNL     1     -35.466   8.758  77.340  1.00  0.00     0.134 A 
ATOM      7  C   UNL     1     -34.171   8.341  77.669  1.00  0.00     0.093 A 
ATOM      8  C   UNL     1     -33.946   7.113  78.297  1.00  0.00     0.123 A 
ATOM      9  C   UNL     1     -35.024   6.288  78.608  1.00  0.00     0.094 A 
ATOM     10  C   UNL     1     -36.331   6.691  78.324  1.00  0.00     0.146 A 
ATOM     11  O   UNL     1     -37.330   5.879  78.647  1.00  0.00    -0.452 OA
ENDROOT
BRANCH   1  12
ATOM     12  C   UNL     1     -39.627   5.169  78.823  1.00  0.00     0.025 A 
ATOM     13  C   UNL     1     -40.073   5.045  80.150  1.00  0.00     0.016 A 
ATOM     14  C   UNL     1     -41.052   4.106  80.482  1.00  0.00     0.051 A 
ATOM     15  C   UNL     1     -41.610   3.286  79.493  1.00  0.00     0.157 A 
ATOM     16  C   UNL     1     -40.205   4.360  77.831  1.00  0.00     0.062 A 
ATOM     17  C   UNL     1     -41.185   3.417  78.160  1.00  0.00     0.158 A 
BRANCH  15  18
ATOM     18  O   UNL     1     -42.586   2.348  79.827  1.00  0.00    -0.504 OA
ATOM     19  H   UNL     1     -42.490   1.371  79.579  1.00  0.00     0.293 HD
ENDBRANCH  15  18
BRANCH  17  20
ATOM     20  O   UNL     1     -41.727   2.622  77.150  1.00  0.00    -0.504 OA
ATOM     21  H   UNL     1     -41.155   2.222  76.415  1.00  0.00     0.293 HD
ENDBRANCH  17  20
ENDBRANCH   1  12
BRANCH   2  22
ATOM     22  O   UNL     1     -40.302   7.782  77.770  1.00  0.00    -0.502 OA
ATOM     23  H   UNL     1     -40.919   7.334  77.103  1.00  0.00     0.293 HD
ENDBRANCH   2  22
BRANCH   6  24
ATOM     24  O   UNL     1     -35.575   9.956  76.629  1.00  0.00    -0.507 OA
ATOM     25  H   UNL     1     -35.424  10.051  75.636  1.00  0.00     0.293 HD
ENDBRANCH   6  24
BRANCH   8  26
ATOM     26  O   UNL     1     -32.653   6.700  78.608  1.00  0.00    -0.508 OA
ATOM     27  H   UNL     1     -32.231   6.907  79.506  1.00  0.00     0.293 HD
ENDBRANCH   8  26
TORSDOF 6
ENDMDL
MODEL 4
REMARK VINA RESULT:    -6.296     10.872     12.475
REMARK INTER + INTRA:          -7.919
REMARK INTER:                  -7.602
REMARK INTRA:                  -0.317
REMARK UNBOUND:                -0.335
REMARK SMILES O=c1c(O)c(-c2ccc(O)c(O)c2)oc2cc(O)cc(O)c12
REMARK SMILES IDX 5 1 3 2 2 3 1 4 22 5 20 6 19 7 17 8 16 9 15 10 14 11 6 12
REMARK SMILES IDX 7 13 8 14 9 15 13 16 11 17 10 18 12 20 4 22 21 24 18 26
REMARK H PARENT 10 19 12 21 4 23 21 25 18 27
REMARK Flexibility Score: inf
ROOT
ATOM      1  C   UNL     1     -47.033   2.003  73.521  1.00  0.00     0.180 A 
ATOM      2  C   UNL     1     -47.499   2.899  74.498  1.00  0.00     0.208 A 
ATOM      3  C   UNL     1     -47.586   4.265  74.183  1.00  0.00     0.238 A 
ATOM      4  O   UNL     1     -47.953   5.069  75.079  1.00  0.00    -0.285 OA
ATOM      5  C   UNL     1     -47.224   4.714  72.892  1.00  0.00     0.111 A 
ATOM      6  C   UNL     1     -47.310   6.070  72.451  1.00  0.00     0.134 A 
ATOM      7  C   UNL     1     -46.800   6.421  71.195  1.00  0.00     0.093 A 
ATOM      8  C   UNL     1     -46.266   5.455  70.338  1.00  0.00     0.123 A 
ATOM      9  C   UNL     1     -46.231   4.121  70.736  1.00  0.00     0.094 A 
ATOM     10  C   UNL     1     -46.699   3.745  71.996  1.00  0.00     0.146 A 
ATOM     11  O   UNL     1     -46.637   2.464  72.340  1.00  0.00    -0.452 OA
ENDROOT
BRANCH   1  12
ATOM     12  C   UNL     1     -46.937   0.546  73.770  1.00  0.00     0.025 A 
ATOM     13  C   UNL     1     -45.807  -0.018  74.388  1.00  0.00     0.016 A 
ATOM     14  C   UNL     1     -45.749  -1.392  74.635  1.00  0.00     0.051 A 
ATOM     15  C   UNL     1     -46.821  -2.221  74.280  1.00  0.00     0.157 A 
ATOM     16  C   UNL     1     -48.018  -0.285  73.436  1.00  0.00     0.062 A 
ATOM     17  C   UNL     1     -47.963  -1.662  73.681  1.00  0.00     0.158 A 
BRANCH  15  18
ATOM     18  O   UNL     1     -46.759  -3.591  74.526  1.00  0.00    -0.504 OA
ATOM     19  H   UNL     1     -45.897  -4.041  74.809  1.00  0.00     0.293 HD
ENDBRANCH  15  18
BRANCH  17  20
ATOM     20  O   UNL     1     -49.051  -2.458  73.323  1.00  0.00    -0.504 OA
ATOM     21  H   UNL     1     -48.937  -3.409  72.992  1.00  0.00     0.293 HD
ENDBRANCH  17  20
ENDBRANCH   1  12
BRANCH   2  22
ATOM     22  O   UNL     1     -47.832   2.436  75.774  1.00  0.00    -0.502 OA
ATOM     23  H   UNL     1     -47.131   2.185  76.461  1.00  0.00     0.293 HD
ENDBRANCH   2  22
BRANCH   6  24
ATOM     24  O   UNL     1     -47.908   7.093  73.190  1.00  0.00    -0.507 OA
ATOM     25  H   UNL     1     -48.749   6.991  73.738  1.00  0.00     0.293 HD
ENDBRANCH   6  24
BRANCH   8  26
ATOM     26  O   UNL     1     -45.775   5.811  69.084  1.00  0.00    -0.508 OA
ATOM     27  H   UNL     1     -44.801   6.053  68.945  1.00  0.00     0.293 HD
ENDBRANCH   8  26
TORSDOF 6
ENDMDL
MODEL 5
REMARK VINA RESULT:    -6.279      1.683      6.967
REMARK INTER + INTRA:          -7.899
REMARK INTER:                  -7.578
REMARK INTRA:                  -0.321
REMARK UNBOUND:                -0.335
REMARK SMILES O=c1c(O)c(-c2ccc(O)c(O)c2)oc2cc(O)cc(O)c12
REMARK SMILES IDX 5 1 3 2 2 3 1 4 22 5 20 6 19 7 17 8 16 9 15 10 14 11 6 12
REMARK SMILES IDX 7 13 8 14 9 15 13 16 11 17 10 18 12 20 4 22 21 24 18 26
REMARK H PARENT 10 19 12 21 4 23 21 25 18 27
REMARK Flexibility Score: inf
ROOT
ATOM      1  C   UNL     1     -38.713   4.716  78.647  1.00  0.00     0.180 A 
ATOM      2  C   UNL     1     -37.547   4.014  78.998  1.00  0.00     0.208 A 
ATOM      3  C   UNL     1     -36.303   4.656  78.879  1.00  0.00     0.238 A 
ATOM      4  O   UNL     1     -35.259   4.004  79.144  1.00  0.00    -0.285 OA
ATOM      5  C   UNL     1     -36.243   5.996  78.429  1.00  0.00     0.111 A 
ATOM      6  C   UNL     1     -35.041   6.757  78.309  1.00  0.00     0.134 A 
ATOM      7  C   UNL     1     -35.085   8.031  77.728  1.00  0.00     0.093 A 
ATOM      8  C   UNL     1     -36.297   8.596  77.323  1.00  0.00     0.123 A 
ATOM      9  C   UNL     1     -37.482   7.884  77.489  1.00  0.00     0.094 A 
ATOM     10  C   UNL     1     -37.466   6.598  78.033  1.00  0.00     0.146 A 
ATOM     11  O   UNL     1     -38.617   5.950  78.164  1.00  0.00    -0.452 OA
ENDROOT
BRANCH   1  12
ATOM     12  C   UNL     1     -40.061   4.115  78.768  1.00  0.00     0.025 A 
ATOM     13  C   UNL     1     -40.659   3.438  77.692  1.00  0.00     0.016 A 
ATOM     14  C   UNL     1     -41.922   2.858  77.836  1.00  0.00     0.051 A 
ATOM     15  C   UNL     1     -42.600   2.935  79.060  1.00  0.00     0.157 A 
ATOM     16  C   UNL     1     -40.734   4.171  79.999  1.00  0.00     0.062 A 
ATOM     17  C   UNL     1     -42.000   3.592  80.147  1.00  0.00     0.158 A 
BRANCH  15  18
ATOM     18  O   UNL     1     -43.860   2.357  79.201  1.00  0.00    -0.504 OA
ATOM     19  H   UNL     1     -44.601   2.527  78.530  1.00  0.00     0.293 HD
ENDBRANCH  15  18
BRANCH  17  20
ATOM     20  O   UNL     1     -42.644   3.679  81.382  1.00  0.00    -0.504 OA
ATOM     21  H   UNL     1     -43.296   4.423  81.597  1.00  0.00     0.293 HD
ENDBRANCH  17  20
ENDBRANCH   1  12
BRANCH   2  22
ATOM     22  O   UNL     1     -37.628   2.684  79.420  1.00  0.00    -0.502 OA
ATOM     23  H   UNL     1     -37.449   2.406  80.377  1.00  0.00     0.293 HD
ENDBRANCH   2  22
BRANCH   6  24
ATOM     24  O   UNL     1     -33.794   6.324  78.767  1.00  0.00    -0.507 OA
ATOM     25  H   UNL     1     -32.907   6.628  78.396  1.00  0.00     0.293 HD
ENDBRANCH   6  24
BRANCH   8  26
ATOM     26  O   UNL     1     -36.334   9.870  76.760  1.00  0.00    -0.508 OA
ATOM     27  H   UNL     1     -37.134  10.480  76.882  1.00  0.00     0.293 HD
ENDBRANCH   8  26
TORSDOF 6
ENDMDL
MODEL 6
REMARK VINA RESULT:    -6.238      9.773     11.777
REMARK INTER + INTRA:          -7.849
REMARK INTER:                  -7.527
REMARK INTRA:                  -0.323
REMARK UNBOUND:                -0.335
REMARK SMILES O=c1c(O)c(-c2ccc(O)c(O)c2)oc2cc(O)cc(O)c12
REMARK SMILES IDX 5 1 3 2 2 3 1 4 22 5 20 6 19 7 17 8 16 9 15 10 14 11 6 12
REMARK SMILES IDX 7 13 8 14 9 15 13 16 11 17 10 18 12 20 4 22 21 24 18 26
REMARK H PARENT 10 19 12 21 4 23 21 25 18 27
REMARK Flexibility Score: inf
ROOT
ATOM      1  C   UNL     1     -46.564   2.205  73.187  1.00  0.00     0.180 A 
ATOM      2  C   UNL     1     -45.304   1.973  73.766  1.00  0.00     0.208 A 
ATOM      3  C   UNL     1     -45.006   0.691  74.257  1.00  0.00     0.238 A 
ATOM      4  O   UNL     1     -43.897   0.503  74.822  1.00  0.00    -0.285 OA
ATOM      5  C   UNL     1     -45.963  -0.346  74.145  1.00  0.00     0.111 A 
ATOM      6  C   UNL     1     -45.753  -1.692  74.572  1.00  0.00     0.134 A 
ATOM      7  C   UNL     1     -46.816  -2.603  74.534  1.00  0.00     0.093 A 
ATOM      8  C   UNL     1     -48.063  -2.233  74.024  1.00  0.00     0.123 A 
ATOM      9  C   UNL     1     -48.261  -0.938  73.552  1.00  0.00     0.094 A 
ATOM     10  C   UNL     1     -47.230   0.003  73.609  1.00  0.00     0.146 A 
ATOM     11  O   UNL     1     -47.465   1.229  73.158  1.00  0.00    -0.452 OA
ENDROOT
BRANCH   1  12
ATOM     12  C   UNL     1     -46.942   3.522  72.626  1.00  0.00     0.025 A 
ATOM     13  C   UNL     1     -47.524   4.519  73.428  1.00  0.00     0.016 A 
ATOM     14  C   UNL     1     -47.851   5.763  72.882  1.00  0.00     0.051 A 
ATOM     15  C   UNL     1     -47.590   6.035  71.533  1.00  0.00     0.157 A 
ATOM     16  C   UNL     1     -46.662   3.806  71.280  1.00  0.00     0.062 A 
ATOM     17  C   UNL     1     -46.989   5.051  70.730  1.00  0.00     0.158 A 
BRANCH  15  18
ATOM     18  O   UNL     1     -47.918   7.276  70.991  1.00  0.00    -0.504 OA
ATOM     19  H   UNL     1     -48.689   7.826  71.353  1.00  0.00     0.293 HD
ENDBRANCH  15  18
BRANCH  17  20
ATOM     20  O   UNL     1     -46.708   5.292  69.385  1.00  0.00    -0.504 OA
ATOM     21  H   UNL     1     -47.324   5.839  68.796  1.00  0.00     0.293 HD
ENDBRANCH  17  20
ENDBRANCH   1  12
BRANCH   2  22
ATOM     22  O   UNL     1     -44.382   3.016  73.885  1.00  0.00    -0.502 OA
ATOM     23  H   UNL     1     -44.563   3.945  73.525  1.00  0.00     0.293 HD
ENDBRANCH   2  22
BRANCH   6  24
ATOM     24  O   UNL     1     -44.522  -2.188  75.010  1.00  0.00    -0.507 OA
ATOM     25  H   UNL     1     -43.692  -1.631  75.144  1.00  0.00     0.293 HD
ENDBRANCH   6  24
BRANCH   8  26
ATOM     26  O   UNL     1     -49.111  -3.149  73.976  1.00  0.00    -0.508 OA
ATOM     27  H   UNL     1     -50.079  -2.849  73.992  1.00  0.00     0.293 HD
ENDBRANCH   8  26
TORSDOF 6
ENDMDL
MODEL 7
REMARK VINA RESULT:    -6.215     10.794     12.098
REMARK INTER + INTRA:          -7.822
REMARK INTER:                  -7.536
REMARK INTRA:                  -0.286
REMARK UNBOUND:                -0.335
REMARK SMILES O=c1c(O)c(-c2ccc(O)c(O)c2)oc2cc(O)cc(O)c12
REMARK SMILES IDX 5 1 3 2 2 3 1 4 22 5 20 6 19 7 17 8 16 9 15 10 14 11 6 12
REMARK SMILES IDX 7 13 8 14 9 15 13 16 11 17 10 18 12 20 4 22 21 24 18 26
REMARK H PARENT 10 19 12 21 4 23 21 25 18 27
REMARK Flexibility Score: inf
ROOT
ATOM      1  C   UNL     1     -46.604  -0.346  73.916  1.00  0.00     0.180 A 
ATOM      2  C   UNL     1     -47.758  -1.133  73.760  1.00  0.00     0.208 A 
ATOM      3  C   UNL     1     -47.696  -2.501  74.070  1.00  0.00     0.238 A 
ATOM      4  O   UNL     1     -48.717  -3.212  73.878  1.00  0.00    -0.285 OA
ATOM      5  C   UNL     1     -46.487  -3.061  74.548  1.00  0.00     0.111 A 
ATOM      6  C   UNL     1     -46.321  -4.427  74.930  1.00  0.00     0.134 A 
ATOM      7  C   UNL     1     -45.046  -4.901  75.263  1.00  0.00     0.093 A 
ATOM      8  C   UNL     1     -43.943  -4.044  75.290  1.00  0.00     0.123 A 
ATOM      9  C   UNL     1     -44.106  -2.697  74.975  1.00  0.00     0.094 A 
ATOM     10  C   UNL     1     -45.358  -2.201  74.605  1.00  0.00     0.146 A 
ATOM     11  O   UNL     1     -45.467  -0.914  74.302  1.00  0.00    -0.452 OA
ENDROOT
BRANCH   1  12
ATOM     12  C   UNL     1     -46.598   1.108  73.633  1.00  0.00     0.025 A 
ATOM     13  C   UNL     1     -46.088   1.617  72.426  1.00  0.00     0.016 A 
ATOM     14  C   UNL     1     -46.115   2.990  72.171  1.00  0.00     0.051 A 
ATOM     15  C   UNL     1     -46.662   3.874  73.111  1.00  0.00     0.157 A 
ATOM     16  C   UNL     1     -47.166   1.995  74.562  1.00  0.00     0.062 A 
ATOM     17  C   UNL     1     -47.193   3.371  74.310  1.00  0.00     0.158 A 
BRANCH  15  18
ATOM     18  O   UNL     1     -46.686   5.244  72.854  1.00  0.00    -0.504 OA
ATOM     19  H   UNL     1     -45.833   5.788  72.798  1.00  0.00     0.293 HD
ENDBRANCH  15  18
BRANCH  17  20
ATOM     20  O   UNL     1     -47.753   4.223  75.263  1.00  0.00    -0.504 OA
ATOM     21  H   UNL     1     -48.290   5.042  75.004  1.00  0.00     0.293 HD
ENDBRANCH  17  20
ENDBRANCH   1  12
BRANCH   2  22
ATOM     22  O   UNL     1     -48.936  -0.564  73.267  1.00  0.00    -0.502 OA
ATOM     23  H   UNL     1     -48.989  -0.132  72.353  1.00  0.00     0.293 HD
ENDBRANCH   2  22
BRANCH   6  24
ATOM     24  O   UNL     1     -47.372  -5.343  75.026  1.00  0.00    -0.507 OA
ATOM     25  H   UNL     1     -47.867  -5.563  75.877  1.00  0.00     0.293 HD
ENDBRANCH   6  24
BRANCH   8  26
ATOM     26  O   UNL     1     -42.681  -4.520  75.638  1.00  0.00    -0.508 OA
ATOM     27  H   UNL     1     -42.440  -5.500  75.545  1.00  0.00     0.293 HD
ENDBRANCH   8  26
TORSDOF 6
ENDMDL
MODEL 8
REMARK VINA RESULT:    -6.175      1.454      6.775
REMARK INTER + INTRA:          -7.773
REMARK INTER:                  -7.810
REMARK INTRA:                   0.037
REMARK UNBOUND:                -0.335
REMARK SMILES O=c1c(O)c(-c2ccc(O)c(O)c2)oc2cc(O)cc(O)c12
REMARK SMILES IDX 5 1 3 2 2 3 1 4 22 5 20 6 19 7 17 8 16 9 15 10 14 11 6 12
REMARK SMILES IDX 7 13 8 14 9 15 13 16 11 17 10 18 12 20 4 22 21 24 18 26
REMARK H PARENT 10 19 12 21 4 23 21 25 18 27
REMARK Flexibility Score: inf
ROOT
ATOM      1  C   UNL     1     -38.486   4.112  79.525  1.00  0.00     0.180 A 
ATOM      2  C   UNL     1     -37.852   3.605  80.673  1.00  0.00     0.208 A 
ATOM      3  C   UNL     1     -36.544   4.024  80.969  1.00  0.00     0.238 A 
ATOM      4  O   UNL     1     -35.962   3.526  81.968  1.00  0.00    -0.285 OA
ATOM      5  C   UNL     1     -35.895   4.955  80.125  1.00  0.00     0.111 A 
ATOM      6  C   UNL     1     -34.586   5.479  80.351  1.00  0.00     0.134 A 
ATOM      7  C   UNL     1     -33.991   6.294  79.380  1.00  0.00     0.093 A 
ATOM      8  C   UNL     1     -34.683   6.657  78.222  1.00  0.00     0.123 A 
ATOM      9  C   UNL     1     -35.982   6.199  78.020  1.00  0.00     0.094 A 
ATOM     10  C   UNL     1     -36.590   5.356  78.953  1.00  0.00     0.146 A 
ATOM     11  O   UNL     1     -37.826   4.933  78.717  1.00  0.00    -0.452 OA
ENDROOT
BRANCH   1  12
ATOM     12  C   UNL     1     -39.871   3.737  79.160  1.00  0.00     0.025 A 
ATOM     13  C   UNL     1     -40.188   3.266  77.874  1.00  0.00     0.016 A 
ATOM     14  C   UNL     1     -41.497   2.896  77.560  1.00  0.00     0.051 A 
ATOM     15  C   UNL     1     -42.507   2.977  78.527  1.00  0.00     0.157 A 
ATOM     16  C   UNL     1     -40.882   3.795  80.133  1.00  0.00     0.062 A 
ATOM     17  C   UNL     1     -42.195   3.425  79.822  1.00  0.00     0.158 A 
BRANCH  15  18
ATOM     18  O   UNL     1     -43.813   2.607  78.210  1.00  0.00    -0.504 OA
ATOM     19  H   UNL     1     -44.502   3.291  77.917  1.00  0.00     0.293 HD
ENDBRANCH  15  18
BRANCH  17  20
ATOM     20  O   UNL     1     -43.176   3.510  80.810  1.00  0.00    -0.504 OA
ATOM     21  H   UNL     1     -43.179   2.900  81.619  1.00  0.00     0.293 HD
ENDBRANCH  17  20
ENDBRANCH   1  12
BRANCH   2  22
ATOM     22  O   UNL     1     -38.504   2.670  81.481  1.00  0.00    -0.502 OA
ATOM     23  H   UNL     1     -38.012   2.099  82.157  1.00  0.00     0.293 HD
ENDBRANCH   2  22
BRANCH   6  24
ATOM     24  O   UNL     1     -33.846   5.254  81.515  1.00  0.00    -0.507 OA
ATOM     25  H   UNL     1     -34.231   5.237  82.447  1.00  0.00     0.293 HD
ENDBRANCH   6  24
BRANCH   8  26
ATOM     26  O   UNL     1     -34.090   7.482  77.269  1.00  0.00    -0.508 OA
ATOM     27  H   UNL     1     -33.942   8.470  77.440  1.00  0.00     0.293 HD
ENDBRANCH   8  26
TORSDOF 6
ENDMDL
MODEL 9
REMARK VINA RESULT:    -6.026      9.573     12.056
REMARK INTER + INTRA:          -7.594
REMARK INTER:                  -7.494
REMARK INTRA:                  -0.100
REMARK UNBOUND:                -0.335
REMARK SMILES O=c1c(O)c(-c2ccc(O)c(O)c2)oc2cc(O)cc(O)c12
REMARK SMILES IDX 5 1 3 2 2 3 1 4 22 5 20 6 19 7 17 8 16 9 15 10 14 11 6 12
REMARK SMILES IDX 7 13 8 14 9 15 13 16 11 17 10 18 12 20 4 22 21 24 18 26
REMARK H PARENT 10 19 12 21 4 23 21 25 18 27
REMARK Flexibility Score: inf
ROOT
ATOM      1  C   UNL     1     -46.775   4.649  71.861  1.00  0.00     0.180 A 
ATOM      2  C   UNL     1     -47.929   3.932  71.503  1.00  0.00     0.208 A 
ATOM      3  C   UNL     1     -48.084   2.615  71.967  1.00  0.00     0.238 A 
ATOM      4  O   UNL     1     -49.093   1.959  71.599  1.00  0.00    -0.285 OA
ATOM      5  C   UNL     1     -47.092   2.040  72.797  1.00  0.00     0.111 A 
ATOM      6  C   UNL     1     -47.165   0.729  73.357  1.00  0.00     0.134 A 
ATOM      7  C   UNL     1     -46.065   0.215  74.056  1.00  0.00     0.093 A 
ATOM      8  C   UNL     1     -44.922   0.989  74.271  1.00  0.00     0.123 A 
ATOM      9  C   UNL     1     -44.865   2.290  73.778  1.00  0.00     0.094 A 
ATOM     10  C   UNL     1     -45.931   2.818  73.047  1.00  0.00     0.146 A 
ATOM     11  O   UNL     1     -45.831   4.059  72.586  1.00  0.00    -0.452 OA
ENDROOT
BRANCH   1  12
ATOM     12  C   UNL     1     -46.553   6.049  71.431  1.00  0.00     0.025 A 
ATOM     13  C   UNL     1     -46.374   7.083  72.366  1.00  0.00     0.016 A 
ATOM     14  C   UNL     1     -46.141   8.391  71.937  1.00  0.00     0.051 A 
ATOM     15  C   UNL     1     -46.071   8.686  70.569  1.00  0.00     0.157 A 
ATOM     16  C   UNL     1     -46.459   6.345  70.061  1.00  0.00     0.062 A 
ATOM     17  C   UNL     1     -46.227   7.655  69.628  1.00  0.00     0.158 A 
BRANCH  15  18
ATOM     18  O   UNL     1     -45.840   9.993  70.144  1.00  0.00    -0.504 OA
ATOM     19  H   UNL     1     -46.394  10.418  69.409  1.00  0.00     0.293 HD
ENDBRANCH  15  18
BRANCH  17  20
ATOM     20  O   UNL     1     -46.154   7.913  68.259  1.00  0.00    -0.504 OA
ATOM     21  H   UNL     1     -45.323   7.711  67.716  1.00  0.00     0.293 HD
ENDBRANCH  17  20
ENDBRANCH   1  12
BRANCH   2  22
ATOM     22  O   UNL     1     -48.886   4.512  70.665  1.00  0.00    -0.502 OA
ATOM     23  H   UNL     1     -48.761   4.578  69.662  1.00  0.00     0.293 HD
ENDBRANCH   2  22
BRANCH   6  24
ATOM     24  O   UNL     1     -48.294  -0.090  73.281  1.00  0.00    -0.507 OA
ATOM     25  H   UNL     1     -49.238   0.213  73.466  1.00  0.00     0.293 HD
ENDBRANCH   6  24
BRANCH   8  26
ATOM     26  O   UNL     1     -43.839   0.475  74.980  1.00  0.00    -0.508 OA
ATOM     27  H   UNL     1     -42.885   0.735  74.755  1.00  0.00     0.293 HD
ENDBRANCH   8  26
TORSDOF 6
ENDMDL
