MODEL 1
REMARK VINA RESULT:    -7.079      0.000      0.000
REMARK INTER + INTRA:          -8.859
REMARK INTER:                  -8.527
REMARK INTRA:                  -0.332
REMARK UNBOUND:                -0.332
REMARK SMILES O=c1c(O)c(-c2ccc(O)c(O)c2)oc2cc(O)cc(O)c12
REMARK SMILES IDX 5 1 3 2 2 3 1 4 22 5 20 6 19 7 17 8 16 9 15 10 14 11 6 12
REMARK SMILES IDX 7 13 8 14 9 15 13 16 11 17 10 18 12 20 4 22 21 24 18 26
REMARK H PARENT 10 19 12 21 4 23 21 25 18 27
REMARK Flexibility Score: inf
ROOT
ATOM      1  C   UNL     1     -37.656   4.897  79.663  1.00  0.00     0.180 A 
ATOM      2  C   UNL     1     -38.220   4.934  80.951  1.00  0.00     0.208 A 
ATOM      3  C   UNL     1     -39.515   4.424  81.142  1.00  0.00     0.238 A 
ATOM      4  O   UNL     1     -40.034   4.510  82.285  1.00  0.00    -0.285 OA
ATOM      5  C   UNL     1     -40.223   3.870  80.049  1.00  0.00     0.111 A 
ATOM      6  C   UNL     1     -41.523   3.289  80.136  1.00  0.00     0.134 A 
ATOM      7  C   UNL     1     -42.181   2.890  78.966  1.00  0.00     0.093 A 
ATOM      8  C   UNL     1     -41.559   2.991  77.720  1.00  0.00     0.123 A 
ATOM      9  C   UNL     1     -40.266   3.501  77.631  1.00  0.00     0.094 A 
ATOM     10  C   UNL     1     -39.598   3.942  78.776  1.00  0.00     0.146 A 
ATOM     11  O   UNL     1     -38.371   4.431  78.646  1.00  0.00    -0.452 OA
ENDROOT
BRANCH   1  12
ATOM     12  C   UNL     1     -36.288   5.391  79.388  1.00  0.00     0.025 A 
ATOM     13  C   UNL     1     -35.166   4.564  79.549  1.00  0.00     0.016 A 
ATOM     14  C   UNL     1     -33.887   5.046  79.261  1.00  0.00     0.051 A 
ATOM     15  C   UNL     1     -33.704   6.352  78.795  1.00  0.00     0.157 A 
ATOM     16  C   UNL     1     -36.109   6.695  78.902  1.00  0.00     0.062 A 
ATOM     17  C   UNL     1     -34.831   7.188  78.610  1.00  0.00     0.158 A 
BRANCH  15  18
ATOM     18  O   UNL     1     -32.399   6.773  78.531  1.00  0.00    -0.504 OA
ATOM     19  H   UNL     1     -31.974   6.755  77.614  1.00  0.00     0.293 HD
ENDBRANCH  15  18
BRANCH  17  20
ATOM     20  O   UNL     1     -34.728   8.499  78.141  1.00  0.00    -0.504 OA
ATOM     21  H   UNL     1     -34.879   9.317  78.714  1.00  0.00     0.293 HD
ENDBRANCH  17  20
ENDBRANCH   1  12
BRANCH   2  22
ATOM     22  O   UNL     1     -37.512   5.504  82.012  1.00  0.00    -0.502 OA
ATOM     23  H   UNL     1     -37.774   5.362  82.980  1.00  0.00     0.293 HD
ENDBRANCH   2  22
BRANCH   6  24
ATOM     24  O   UNL     1     -42.196   3.059  81.340  1.00  0.00    -0.507 OA
ATOM     25  H   UNL     1     -43.200   3.033  81.441  1.00  0.00     0.293 HD
ENDBRANCH   6  24
BRANCH   8  26
ATOM     26  O   UNL     1     -42.215   2.577  76.563  1.00  0.00    -0.508 OA
ATOM     27  H   UNL     1     -41.781   1.936  75.908  1.00  0.00     0.293 HD
ENDBRANCH   8  26
TORSDOF 6
ENDMDL
MODEL 2
REMARK VINA RESULT:    -6.536      1.646      6.980
REMARK INTER + INTRA:          -8.205
REMARK INTER:                  -7.899
REMARK INTRA:                  -0.306
REMARK UNBOUND:                -0.332
REMARK SMILES O=c1c(O)c(-c2ccc(O)c(O)c2)oc2cc(O)cc(O)c12
REMARK SMILES IDX 5 1 3 2 2 3 1 4 22 5 20 6 19 7 17 8 16 9 15 10 14 11 6 12
REMARK SMILES IDX 7 13 8 14 9 15 13 16 11 17 10 18 12 20 4 22 21 24 18 26
REMARK H PARENT 10 19 12 21 4 23 21 25 18 27
REMARK Flexibility Score: inf
ROOT
ATOM      1  C   UNL     1     -37.725   5.183  78.772  1.00  0.00     0.180 A 
ATOM      2  C   UNL     1     -36.545   4.508  79.128  1.00  0.00     0.208 A 
ATOM      3  C   UNL     1     -35.307   5.128  78.891  1.00  0.00     0.238 A 
ATOM      4  O   UNL     1     -34.254   4.496  79.163  1.00  0.00    -0.285 OA
ATOM      5  C   UNL     1     -35.265   6.421  78.316  1.00  0.00     0.111 A 
ATOM      6  C   UNL     1     -34.070   7.160  78.069  1.00  0.00     0.134 A 
ATOM      7  C   UNL     1     -34.139   8.375  77.376  1.00  0.00     0.093 A 
ATOM      8  C   UNL     1     -35.368   8.908  76.980  1.00  0.00     0.123 A 
ATOM      9  C   UNL     1     -36.545   8.223  77.269  1.00  0.00     0.094 A 
ATOM     10  C   UNL     1     -36.505   6.992  77.927  1.00  0.00     0.146 A 
ATOM     11  O   UNL     1     -37.650   6.367  78.174  1.00  0.00    -0.452 OA
ENDROOT
BRANCH   1  12
ATOM     12  C   UNL     1     -39.067   4.606  79.014  1.00  0.00     0.025 A 
ATOM     13  C   UNL     1     -39.659   4.641  80.286  1.00  0.00     0.016 A 
ATOM     14  C   UNL     1     -40.935   4.110  80.484  1.00  0.00     0.051 A 
ATOM     15  C   UNL     1     -41.650   3.550  79.420  1.00  0.00     0.157 A 
ATOM     16  C   UNL     1     -39.790   4.063  77.940  1.00  0.00     0.062 A 
ATOM     17  C   UNL     1     -41.070   3.529  78.130  1.00  0.00     0.158 A 
BRANCH  15  18
ATOM     18  O   UNL     1     -42.920   3.032  79.687  1.00  0.00    -0.504 OA
ATOM     19  H   UNL     1     -43.169   2.565  80.546  1.00  0.00     0.293 HD
ENDBRANCH  15  18
BRANCH  17  20
ATOM     20  O   UNL     1     -41.725   2.995  77.017  1.00  0.00    -0.504 OA
ATOM     21  H   UNL     1     -41.263   2.469  76.289  1.00  0.00     0.293 HD
ENDBRANCH  17  20
ENDBRANCH   1  12
BRANCH   2  22
ATOM     22  O   UNL     1     -36.608   3.224  79.676  1.00  0.00    -0.502 OA
ATOM     23  H   UNL     1     -36.134   2.974  80.534  1.00  0.00     0.293 HD
ENDBRANCH   2  22
BRANCH   6  24
ATOM     24  O   UNL     1     -32.802   6.761  78.503  1.00  0.00    -0.507 OA
ATOM     25  H   UNL     1     -32.195   7.314  79.090  1.00  0.00     0.293 HD
ENDBRANCH   6  24
BRANCH   8  26
ATOM     26  O   UNL     1     -35.430  10.125  76.304  1.00  0.00    -0.508 OA
ATOM     27  H   UNL     1     -36.209  10.761  76.428  1.00  0.00     0.293 HD
ENDBRANCH   8  26
TORSDOF 6
ENDMDL
MODEL 3
REMARK VINA RESULT:    -6.487      1.629      7.130
REMARK INTER + INTRA:          -8.146
REMARK INTER:                  -8.040
REMARK INTRA:                  -0.106
REMARK UNBOUND:                -0.332
REMARK SMILES O=c1c(O)c(-c2ccc(O)c(O)c2)oc2cc(O)cc(O)c12
REMARK SMILES IDX 5 1 3 2 2 3 1 4 22 5 20 6 19 7 17 8 16 9 15 10 14 11 6 12
REMARK SMILES IDX 7 13 8 14 9 15 13 16 11 17 10 18 12 20 4 22 21 24 18 26
REMARK H PARENT 10 19 12 21 4 23 21 25 18 27
REMARK Flexibility Score: inf
ROOT
ATOM      1  C   UNL     1     -38.492   4.498  78.924  1.00  0.00     0.180 A 
ATOM      2  C   UNL     1     -38.035   5.460  78.006  1.00  0.00     0.208 A 
ATOM      3  C   UNL     1     -36.708   5.910  78.096  1.00  0.00     0.238 A 
ATOM      4  O   UNL     1     -36.321   6.811  77.306  1.00  0.00    -0.285 OA
ATOM      5  C   UNL     1     -35.850   5.382  79.090  1.00  0.00     0.111 A 
ATOM      6  C   UNL     1     -34.476   5.736  79.247  1.00  0.00     0.134 A 
ATOM      7  C   UNL     1     -33.758   5.249  80.346  1.00  0.00     0.093 A 
ATOM      8  C   UNL     1     -34.347   4.368  81.257  1.00  0.00     0.123 A 
ATOM      9  C   UNL     1     -35.669   3.970  81.079  1.00  0.00     0.094 A 
ATOM     10  C   UNL     1     -36.422   4.468  80.013  1.00  0.00     0.146 A 
ATOM     11  O   UNL     1     -37.682   4.070  79.886  1.00  0.00    -0.452 OA
ENDROOT
BRANCH   1  12
ATOM     12  C   UNL     1     -39.868   3.956  78.877  1.00  0.00     0.025 A 
ATOM     13  C   UNL     1     -40.373   3.339  77.721  1.00  0.00     0.016 A 
ATOM     14  C   UNL     1     -41.667   2.815  77.709  1.00  0.00     0.051 A 
ATOM     15  C   UNL     1     -42.476   2.881  78.848  1.00  0.00     0.157 A 
ATOM     16  C   UNL     1     -40.670   4.006  80.027  1.00  0.00     0.062 A 
ATOM     17  C   UNL     1     -41.970   3.483  80.024  1.00  0.00     0.158 A 
BRANCH  15  18
ATOM     18  O   UNL     1     -43.762   2.342  78.768  1.00  0.00    -0.504 OA
ATOM     19  H   UNL     1     -44.369   2.211  79.563  1.00  0.00     0.293 HD
ENDBRANCH  15  18
BRANCH  17  20
ATOM     20  O   UNL     1     -42.714   3.579  81.203  1.00  0.00    -0.504 OA
ATOM     21  H   UNL     1     -42.427   4.115  82.009  1.00  0.00     0.293 HD
ENDBRANCH  17  20
ENDBRANCH   1  12
BRANCH   2  22
ATOM     22  O   UNL     1     -38.904   5.984  77.045  1.00  0.00    -0.502 OA
ATOM     23  H   UNL     1     -38.992   6.978  76.875  1.00  0.00     0.293 HD
ENDBRANCH   2  22
BRANCH   6  24
ATOM     24  O   UNL     1     -33.768   6.535  78.343  1.00  0.00    -0.507 OA
ATOM     25  H   UNL     1     -32.825   6.353  78.033  1.00  0.00     0.293 HD
ENDBRANCH   6  24
BRANCH   8  26
ATOM     26  O   UNL     1     -33.621   3.876  82.339  1.00  0.00    -0.508 OA
ATOM     27  H   UNL     1     -32.982   3.096  82.238  1.00  0.00     0.293 HD
ENDBRANCH   8  26
TORSDOF 6
ENDMDL
MODEL 4
REMARK VINA RESULT:    -6.447      1.984      7.226
REMARK INTER + INTRA:          -8.098
REMARK INTER:                  -7.782
REMARK INTRA:                  -0.316
REMARK UNBOUND:                -0.332
REMARK SMILES O=c1c(O)c(-c2ccc(O)c(O)c2)oc2cc(O)cc(O)c12
REMARK SMILES IDX 5 1 3 2 2 3 1 4 22 5 20 6 19 7 17 8 16 9 15 10 14 11 6 12
REMARK SMILES IDX 7 13 8 14 9 15 13 16 11 17 10 18 12 20 4 22 21 24 18 26
REMARK H PARENT 10 19 12 21 4 23 21 25 18 27
REMARK Flexibility Score: inf
ROOT
ATOM      1  C   UNL     1     -38.501   6.152  78.151  1.00  0.00     0.180 A 
ATOM      2  C   UNL     1     -38.857   7.441  77.716  1.00  0.00     0.208 A 
ATOM      3  C   UNL     1     -37.841   8.371  77.440  1.00  0.00     0.238 A 
ATOM      4  O   UNL     1     -38.168   9.539  77.104  1.00  0.00    -0.285 OA
ATOM      5  C   UNL     1     -36.484   7.997  77.586  1.00  0.00     0.111 A 
ATOM      6  C   UNL     1     -35.374   8.844  77.295  1.00  0.00     0.134 A 
ATOM      7  C   UNL     1     -34.076   8.413  77.600  1.00  0.00     0.093 A 
ATOM      8  C   UNL     1     -33.846   7.139  78.124  1.00  0.00     0.123 A 
ATOM      9  C   UNL     1     -34.919   6.282  78.356  1.00  0.00     0.094 A 
ATOM     10  C   UNL     1     -36.227   6.697  78.096  1.00  0.00     0.146 A 
ATOM     11  O   UNL     1     -37.221   5.852  78.341  1.00  0.00    -0.452 OA
ENDROOT
BRANCH   1  12
ATOM     12  C   UNL     1     -39.513   5.110  78.437  1.00  0.00     0.025 A 
ATOM     13  C   UNL     1     -39.859   4.144  77.479  1.00  0.00     0.016 A 
ATOM     14  C   UNL     1     -40.800   3.158  77.781  1.00  0.00     0.051 A 
ATOM     15  C   UNL     1     -41.401   3.104  79.043  1.00  0.00     0.157 A 
ATOM     16  C   UNL     1     -40.098   5.046  79.711  1.00  0.00     0.062 A 
ATOM     17  C   UNL     1     -41.043   4.060  80.022  1.00  0.00     0.158 A 
BRANCH  15  18
ATOM     18  O   UNL     1     -42.337   2.095  79.278  1.00  0.00    -0.504 OA
ATOM     19  H   UNL     1     -43.307   2.149  79.001  1.00  0.00     0.293 HD
ENDBRANCH  15  18
BRANCH  17  20
ATOM     20  O   UNL     1     -41.593   4.066  81.306  1.00  0.00    -0.504 OA
ATOM     21  H   UNL     1     -42.561   4.274  81.505  1.00  0.00     0.293 HD
ENDBRANCH  17  20
ENDBRANCH   1  12
BRANCH   2  22
ATOM     22  O   UNL     1     -40.203   7.797  77.599  1.00  0.00    -0.502 OA
ATOM     23  H   UNL     1     -40.600   8.148  76.737  1.00  0.00     0.293 HD
ENDBRANCH   2  22
BRANCH   6  24
ATOM     24  O   UNL     1     -35.488  10.098  76.686  1.00  0.00    -0.507 OA
ATOM     25  H   UNL     1     -35.609  10.969  77.182  1.00  0.00     0.293 HD
ENDBRANCH   6  24
BRANCH   8  26
ATOM     26  O   UNL     1     -32.551   6.712  78.411  1.00  0.00    -0.508 OA
ATOM     27  H   UNL     1     -32.069   7.010  79.251  1.00  0.00     0.293 HD
ENDBRANCH   8  26
TORSDOF 6
ENDMDL
MODEL 5
REMARK VINA RESULT:    -6.440      1.460      6.783
REMARK INTER + INTRA:          -8.090
REMARK INTER:                  -8.127
REMARK INTRA:                   0.037
REMARK UNBOUND:                -0.332
REMARK SMILES O=c1c(O)c(-c2ccc(O)c(O)c2)oc2cc(O)cc(O)c12
REMARK SMILES IDX 5 1 3 2 2 3 1 4 22 5 20 6 19 7 17 8 16 9 15 10 14 11 6 12
REMARK SMILES IDX 7 13 8 14 9 15 13 16 11 17 10 18 12 20 4 22 21 24 18 26
REMARK H PARENT 10 19 12 21 4 23 21 25 18 27
REMARK Flexibility Score: inf
ROOT
ATOM      1  C   UNL     1     -38.159   4.154  79.370  1.00  0.00     0.180 A 
ATOM      2  C   UNL     1     -37.499   3.613  80.487  1.00  0.00     0.208 A 
ATOM      3  C   UNL     1     -36.190   4.033  80.774  1.00  0.00     0.238 A 
ATOM      4  O   UNL     1     -35.586   3.504  81.744  1.00  0.00    -0.285 OA
ATOM      5  C   UNL     1     -35.563   4.999  79.952  1.00  0.00     0.111 A 
ATOM      6  C   UNL     1     -34.256   5.526  80.172  1.00  0.00     0.134 A 
ATOM      7  C   UNL     1     -33.685   6.381  79.221  1.00  0.00     0.093 A 
ATOM      8  C   UNL     1     -34.402   6.779  78.090  1.00  0.00     0.123 A 
ATOM      9  C   UNL     1     -35.701   6.316  77.895  1.00  0.00     0.094 A 
ATOM     10  C   UNL     1     -36.283   5.434  78.808  1.00  0.00     0.146 A 
ATOM     11  O   UNL     1     -37.520   5.009  78.580  1.00  0.00    -0.452 OA
ENDROOT
BRANCH   1  12
ATOM     12  C   UNL     1     -39.547   3.781  79.018  1.00  0.00     0.025 A 
ATOM     13  C   UNL     1     -39.885   3.355  77.723  1.00  0.00     0.016 A 
ATOM     14  C   UNL     1     -41.197   2.987  77.422  1.00  0.00     0.051 A 
ATOM     15  C   UNL     1     -42.193   3.020  78.404  1.00  0.00     0.157 A 
ATOM     16  C   UNL     1     -40.539   3.795  80.010  1.00  0.00     0.062 A 
ATOM     17  C   UNL     1     -41.859   3.428  79.717  1.00  0.00     0.158 A 
BRANCH  15  18
ATOM     18  O   UNL     1     -43.486   2.643  78.035  1.00  0.00    -0.504 OA
ATOM     19  H   UNL     1     -44.299   2.767  78.622  1.00  0.00     0.293 HD
ENDBRANCH  15  18
BRANCH  17  20
ATOM     20  O   UNL     1     -42.795   3.478  80.752  1.00  0.00    -0.504 OA
ATOM     21  H   UNL     1     -42.552   3.549  81.730  1.00  0.00     0.293 HD
ENDBRANCH  17  20
ENDBRANCH   1  12
BRANCH   2  22
ATOM     22  O   UNL     1     -38.128   2.644  81.274  1.00  0.00    -0.502 OA
ATOM     23  H   UNL     1     -37.736   1.723  81.420  1.00  0.00     0.293 HD
ENDBRANCH   2  22
BRANCH   6  24
ATOM     24  O   UNL     1     -33.491   5.265  81.315  1.00  0.00    -0.507 OA
ATOM     25  H   UNL     1     -33.537   5.798  82.170  1.00  0.00     0.293 HD
ENDBRANCH   6  24
BRANCH   8  26
ATOM     26  O   UNL     1     -33.833   7.641  77.156  1.00  0.00    -0.508 OA
ATOM     27  H   UNL     1     -32.833   7.806  77.127  1.00  0.00     0.293 HD
ENDBRANCH   8  26
TORSDOF 6
ENDMDL
MODEL 6
REMARK VINA RESULT:    -6.079      8.945     12.411
REMARK INTER + INTRA:          -7.655
REMARK INTER:                  -7.337
REMARK INTRA:                  -0.318
REMARK UNBOUND:                -0.332
REMARK SMILES O=c1c(O)c(-c2ccc(O)c(O)c2)oc2cc(O)cc(O)c12
REMARK SMILES IDX 5 1 3 2 2 3 1 4 22 5 20 6 19 7 17 8 16 9 15 10 14 11 6 12
REMARK SMILES IDX 7 13 8 14 9 15 13 16 11 17 10 18 12 20 4 22 21 24 18 26
REMARK H PARENT 10 19 12 21 4 23 21 25 18 27
REMARK Flexibility Score: inf
ROOT
ATOM      1  C   UNL     1     -41.522  -5.111  81.724  1.00  0.00     0.180 A 
ATOM      2  C   UNL     1     -41.853  -3.840  82.225  1.00  0.00     0.208 A 
ATOM      3  C   UNL     1     -40.851  -3.065  82.830  1.00  0.00     0.238 A 
ATOM      4  O   UNL     1     -41.166  -1.952  83.326  1.00  0.00    -0.285 OA
ATOM      5  C   UNL     1     -39.528  -3.561  82.913  1.00  0.00     0.111 A 
ATOM      6  C   UNL     1     -38.426  -2.846  83.468  1.00  0.00     0.134 A 
ATOM      7  C   UNL     1     -37.189  -3.486  83.615  1.00  0.00     0.093 A 
ATOM      8  C   UNL     1     -36.998  -4.795  83.167  1.00  0.00     0.123 A 
ATOM      9  C   UNL     1     -38.052  -5.482  82.569  1.00  0.00     0.094 A 
ATOM     10  C   UNL     1     -39.307  -4.883  82.441  1.00  0.00     0.146 A 
ATOM     11  O   UNL     1     -40.287  -5.576  81.874  1.00  0.00    -0.452 OA
ENDROOT
BRANCH   1  12
ATOM     12  C   UNL     1     -42.517  -5.976  81.050  1.00  0.00     0.025 A 
ATOM     13  C   UNL     1     -43.360  -6.827  81.780  1.00  0.00     0.016 A 
ATOM     14  C   UNL     1     -44.307  -7.616  81.123  1.00  0.00     0.051 A 
ATOM     15  C   UNL     1     -44.441  -7.562  79.732  1.00  0.00     0.157 A 
ATOM     16  C   UNL     1     -42.663  -5.904  79.656  1.00  0.00     0.062 A 
ATOM     17  C   UNL     1     -43.609  -6.692  78.988  1.00  0.00     0.158 A 
BRANCH  15  18
ATOM     18  O   UNL     1     -45.403  -8.380  79.137  1.00  0.00    -0.504 OA
ATOM     19  H   UNL     1     -45.194  -9.255  78.678  1.00  0.00     0.293 HD
ENDBRANCH  15  18
BRANCH  17  20
ATOM     20  O   UNL     1     -43.689  -6.577  77.598  1.00  0.00    -0.504 OA
ATOM     21  H   UNL     1     -44.237  -7.190  77.012  1.00  0.00     0.293 HD
ENDBRANCH  17  20
ENDBRANCH   1  12
BRANCH   2  22
ATOM     22  O   UNL     1     -43.169  -3.377  82.153  1.00  0.00    -0.502 OA
ATOM     23  H   UNL     1     -43.907  -3.741  82.743  1.00  0.00     0.293 HD
ENDBRANCH   2  22
BRANCH   6  24
ATOM     24  O   UNL     1     -38.485  -1.505  83.863  1.00  0.00    -0.507 OA
ATOM     25  H   UNL     1     -39.022  -1.160  84.645  1.00  0.00     0.293 HD
ENDBRANCH   6  24
BRANCH   8  26
ATOM     26  O   UNL     1     -35.761  -5.420  83.303  1.00  0.00    -0.508 OA
ATOM     27  H   UNL     1     -35.674  -6.340  83.719  1.00  0.00     0.293 HD
ENDBRANCH   8  26
TORSDOF 6
ENDMDL
MODEL 7
REMARK VINA RESULT:    -6.035      2.185      7.027
REMARK INTER + INTRA:          -7.602
REMARK INTER:                  -7.355
REMARK INTRA:                  -0.247
REMARK UNBOUND:                -0.332
REMARK SMILES O=c1c(O)c(-c2ccc(O)c(O)c2)oc2cc(O)cc(O)c12
REMARK SMILES IDX 5 1 3 2 2 3 1 4 22 5 20 6 19 7 17 8 16 9 15 10 14 11 6 12
REMARK SMILES IDX 7 13 8 14 9 15 13 16 11 17 10 18 12 20 4 22 21 24 18 26
REMARK H PARENT 10 19 12 21 4 23 21 25 18 27
REMARK Flexibility Score: inf
ROOT
ATOM      1  C   UNL     1     -36.502   5.513  79.221  1.00  0.00     0.180 A 
ATOM      2  C   UNL     1     -35.777   5.384  80.419  1.00  0.00     0.208 A 
ATOM      3  C   UNL     1     -34.740   6.291  80.687  1.00  0.00     0.238 A 
ATOM      4  O   UNL     1     -34.059   6.137  81.735  1.00  0.00    -0.285 OA
ATOM      5  C   UNL     1     -34.449   7.324  79.764  1.00  0.00     0.111 A 
ATOM      6  C   UNL     1     -33.448   8.323  79.952  1.00  0.00     0.134 A 
ATOM      7  C   UNL     1     -33.159   9.218  78.915  1.00  0.00     0.093 A 
ATOM      8  C   UNL     1     -33.883   9.191  77.720  1.00  0.00     0.123 A 
ATOM      9  C   UNL     1     -34.903   8.259  77.550  1.00  0.00     0.094 A 
ATOM     10  C   UNL     1     -35.190   7.330  78.552  1.00  0.00     0.146 A 
ATOM     11  O   UNL     1     -36.163   6.452  78.345  1.00  0.00    -0.452 OA
ENDROOT
BRANCH   1  12
ATOM     12  C   UNL     1     -37.626   4.612  78.880  1.00  0.00     0.025 A 
ATOM     13  C   UNL     1     -38.957   5.056  78.916  1.00  0.00     0.016 A 
ATOM     14  C   UNL     1     -39.998   4.194  78.567  1.00  0.00     0.051 A 
ATOM     15  C   UNL     1     -39.735   2.881  78.164  1.00  0.00     0.157 A 
ATOM     16  C   UNL     1     -37.357   3.301  78.455  1.00  0.00     0.062 A 
ATOM     17  C   UNL     1     -38.395   2.429  78.104  1.00  0.00     0.158 A 
BRANCH  15  18
ATOM     18  O   UNL     1     -40.822   2.068  77.833  1.00  0.00    -0.504 OA
ATOM     19  H   UNL     1     -41.782   2.379  77.844  1.00  0.00     0.293 HD
ENDBRANCH  15  18
BRANCH  17  20
ATOM     20  O   UNL     1     -38.052   1.136  77.703  1.00  0.00    -0.504 OA
ATOM     21  H   UNL     1     -37.125   0.744  77.792  1.00  0.00     0.293 HD
ENDBRANCH  17  20
ENDBRANCH   1  12
BRANCH   2  22
ATOM     22  O   UNL     1     -36.066   4.344  81.307  1.00  0.00    -0.502 OA
ATOM     23  H   UNL     1     -35.516   3.495  81.347  1.00  0.00     0.293 HD
ENDBRANCH   2  22
BRANCH   6  24
ATOM     24  O   UNL     1     -32.730   8.494  81.141  1.00  0.00    -0.507 OA
ATOM     25  H   UNL     1     -32.655   9.364  81.646  1.00  0.00     0.293 HD
ENDBRANCH   6  24
BRANCH   8  26
ATOM     26  O   UNL     1     -33.601  10.095  76.699  1.00  0.00    -0.508 OA
ATOM     27  H   UNL     1     -32.695  10.544  76.624  1.00  0.00     0.293 HD
ENDBRANCH   8  26
TORSDOF 6
ENDMDL
MODEL 8
REMARK VINA RESULT:    -5.976      9.000     11.388
REMARK INTER + INTRA:          -7.531
REMARK INTER:                  -7.215
REMARK INTRA:                  -0.315
REMARK UNBOUND:                -0.332
REMARK SMILES O=c1c(O)c(-c2ccc(O)c(O)c2)oc2cc(O)cc(O)c12
REMARK SMILES IDX 5 1 3 2 2 3 1 4 22 5 20 6 19 7 17 8 16 9 15 10 14 11 6 12
REMARK SMILES IDX 7 13 8 14 9 15 13 16 11 17 10 18 12 20 4 22 21 24 18 26
REMARK H PARENT 10 19 12 21 4 23 21 25 18 27
REMARK Flexibility Score: inf
ROOT
ATOM      1  C   UNL     1     -42.447  -4.964  82.090  1.00  0.00     0.180 A 
ATOM      2  C   UNL     1     -42.842  -6.130  82.769  1.00  0.00     0.208 A 
ATOM      3  C   UNL     1     -43.923  -6.875  82.271  1.00  0.00     0.238 A 
ATOM      4  O   UNL     1     -44.306  -7.887  82.913  1.00  0.00    -0.285 OA
ATOM      5  C   UNL     1     -44.586  -6.454  81.093  1.00  0.00     0.111 A 
ATOM      6  C   UNL     1     -45.667  -7.153  80.477  1.00  0.00     0.134 A 
ATOM      7  C   UNL     1     -46.332  -6.576  79.388  1.00  0.00     0.093 A 
ATOM      8  C   UNL     1     -45.912  -5.356  78.852  1.00  0.00     0.123 A 
ATOM      9  C   UNL     1     -44.820  -4.695  79.410  1.00  0.00     0.094 A 
ATOM     10  C   UNL     1     -44.160  -5.228  80.519  1.00  0.00     0.146 A 
ATOM     11  O   UNL     1     -43.130  -4.560  81.025  1.00  0.00    -0.452 OA
ENDROOT
BRANCH   1  12
ATOM     12  C   UNL     1     -41.301  -4.141  82.539  1.00  0.00     0.025 A 
ATOM     13  C   UNL     1     -41.481  -3.035  83.384  1.00  0.00     0.016 A 
ATOM     14  C   UNL     1     -40.381  -2.289  83.812  1.00  0.00     0.051 A 
ATOM     15  C   UNL     1     -39.084  -2.636  83.420  1.00  0.00     0.157 A 
ATOM     16  C   UNL     1     -39.999  -4.505  82.160  1.00  0.00     0.062 A 
ATOM     17  C   UNL     1     -38.890  -3.762  82.584  1.00  0.00     0.158 A 
BRANCH  15  18
ATOM     18  O   UNL     1     -38.029  -1.845  83.879  1.00  0.00    -0.504 OA
ATOM     19  H   UNL     1     -38.151  -0.981  84.387  1.00  0.00     0.293 HD
ENDBRANCH  15  18
BRANCH  17  20
ATOM     20  O   UNL     1     -37.626  -4.176  82.158  1.00  0.00    -0.504 OA
ATOM     21  H   UNL     1     -36.769  -3.966  82.649  1.00  0.00     0.293 HD
ENDBRANCH  17  20
ENDBRANCH   1  12
BRANCH   2  22
ATOM     22  O   UNL     1     -42.187  -6.517  83.942  1.00  0.00    -0.502 OA
ATOM     23  H   UNL     1     -42.663  -6.585  84.833  1.00  0.00     0.293 HD
ENDBRANCH   2  22
BRANCH   6  24
ATOM     24  O   UNL     1     -46.106  -8.420  80.876  1.00  0.00    -0.507 OA
ATOM     25  H   UNL     1     -45.569  -9.062  81.441  1.00  0.00     0.293 HD
ENDBRANCH   6  24
BRANCH   8  26
ATOM     26  O   UNL     1     -46.569  -4.797  77.759  1.00  0.00    -0.508 OA
ATOM     27  H   UNL     1     -46.968  -3.865  77.800  1.00  0.00     0.293 HD
ENDBRANCH   8  26
TORSDOF 6
ENDMDL
