MODEL 1
REMARK VINA RESULT:    -2.017      0.000      0.000
REMARK INTER + INTRA:          -2.816
REMARK INTER:                  -2.489
REMARK INTRA:                  -0.327
REMARK UNBOUND:                -0.327
REMARK SMILES Oc1cc(O)c2cc(O)c(-c3cc(O)c(O)c(O)c3)[o+]c2c1
REMARK SMILES IDX 10 1 20 2 21 3 22 4 2 5 3 6 4 7 6 8 7 9 8 10 11 11 12 12
REMARK SMILES IDX 13 13 19 14 15 15 17 16 14 17 16 19 18 21 9 23 1 25 5 27
REMARK H PARENT 14 18 16 20 18 22 9 24 1 26 5 28
REMARK Flexibility Score: inf
ROOT
ATOM      1  C   UNL     1     -13.045 -15.659  32.321  1.00  0.00     0.402 A 
ATOM      2  O   UNL     1     -12.046 -15.672  33.199  1.00  0.00    -0.202 OA
ATOM      3  C   UNL     1     -12.079 -15.011  34.352  1.00  0.00     0.368 A 
ATOM      4  C   UNL     1     -10.977 -15.083  35.209  1.00  0.00     0.162 A 
ATOM      5  C   UNL     1     -10.983 -14.398  36.424  1.00  0.00     0.128 A 
ATOM      6  C   UNL     1     -12.097 -13.632  36.787  1.00  0.00     0.093 A 
ATOM      7  C   UNL     1     -13.213 -13.543  35.946  1.00  0.00     0.136 A 
ATOM      8  C   UNL     1     -13.213 -14.242  34.711  1.00  0.00     0.125 A 
ATOM      9  C   UNL     1     -14.290 -14.221  33.811  1.00  0.00     0.078 A 
ATOM     10  C   UNL     1     -14.218 -14.939  32.614  1.00  0.00     0.223 A 
ENDROOT
BRANCH   1  11
ATOM     11  C   UNL     1     -12.885 -16.428  31.067  1.00  0.00     0.091 A 
ATOM     12  C   UNL     1     -12.884 -17.829  31.112  1.00  0.00     0.068 A 
ATOM     13  C   UNL     1     -12.716 -18.580  29.941  1.00  0.00     0.162 A 
ATOM     14  C   UNL     1     -12.673 -15.785  29.836  1.00  0.00     0.068 A 
ATOM     15  C   UNL     1     -12.527 -17.937  28.710  1.00  0.00     0.200 A 
ATOM     16  C   UNL     1     -12.499 -16.523  28.658  1.00  0.00     0.162 A 
BRANCH  13  17
ATOM     17  O   UNL     1     -12.733 -19.973  29.995  1.00  0.00    -0.504 OA
ATOM     18  H   UNL     1     -13.483 -20.477  30.452  1.00  0.00     0.293 HD
ENDBRANCH  13  17
BRANCH  15  19
ATOM     19  O   UNL     1     -12.372 -18.732  27.571  1.00  0.00    -0.502 OA
ATOM     20  H   UNL     1     -13.028 -19.444  27.284  1.00  0.00     0.293 HD
ENDBRANCH  15  19
BRANCH  16  21
ATOM     21  O   UNL     1     -12.296 -15.815  27.473  1.00  0.00    -0.504 OA
ATOM     22  H   UNL     1     -11.418 -15.388  27.211  1.00  0.00     0.293 HD
ENDBRANCH  16  21
ENDBRANCH   1  11
BRANCH  10  23
ATOM     23  O   UNL     1     -15.309 -14.960  31.744  1.00  0.00    -0.500 OA
ATOM     24  H   UNL     1     -16.239 -14.700  32.049  1.00  0.00     0.294 HD
ENDBRANCH  10  23
BRANCH   5  25
ATOM     25  O   UNL     1      -9.875 -14.482  37.265  1.00  0.00    -0.507 OA
ATOM     26  H   UNL     1      -9.069 -15.047  37.023  1.00  0.00     0.293 HD
ENDBRANCH   5  25
BRANCH   7  27
ATOM     27  O   UNL     1     -14.285 -12.757  36.379  1.00  0.00    -0.507 OA
ATOM     28  H   UNL     1     -14.242 -12.109  37.151  1.00  0.00     0.293 HD
ENDBRANCH   7  27
TORSDOF 7
ENDMDL
MODEL 2
REMARK VINA RESULT:    -1.854      0.065      1.800
REMARK INTER + INTRA:          -2.614
REMARK INTER:                  -2.315
REMARK INTRA:                  -0.300
REMARK UNBOUND:                -0.327
REMARK SMILES Oc1cc(O)c2cc(O)c(-c3cc(O)c(O)c(O)c3)[o+]c2c1
REMARK SMILES IDX 10 1 20 2 21 3 22 4 2 5 3 6 4 7 6 8 7 9 8 10 11 11 12 12
REMARK SMILES IDX 13 13 19 14 15 15 17 16 14 17 16 19 18 21 9 23 1 25 5 27
REMARK H PARENT 14 18 16 20 18 22 9 24 1 26 5 28
REMARK Flexibility Score: inf
ROOT
ATOM      1  C   UNL     1     -13.002 -15.682  32.362  1.00  0.00     0.402 A 
ATOM      2  O   UNL     1     -12.011 -15.684  33.249  1.00  0.00    -0.202 OA
ATOM      3  C   UNL     1     -12.054 -15.009  34.394  1.00  0.00     0.368 A 
ATOM      4  C   UNL     1     -10.960 -15.072  35.261  1.00  0.00     0.162 A 
ATOM      5  C   UNL     1     -10.975 -14.371  36.468  1.00  0.00     0.128 A 
ATOM      6  C   UNL     1     -12.092 -13.600  36.810  1.00  0.00     0.093 A 
ATOM      7  C   UNL     1     -13.200 -13.520  35.959  1.00  0.00     0.136 A 
ATOM      8  C   UNL     1     -13.189 -14.235  34.732  1.00  0.00     0.125 A 
ATOM      9  C   UNL     1     -14.259 -14.224  33.823  1.00  0.00     0.078 A 
ATOM     10  C   UNL     1     -14.177 -14.957  32.635  1.00  0.00     0.223 A 
ENDROOT
BRANCH   1  11
ATOM     11  C   UNL     1     -12.832 -16.467  31.119  1.00  0.00     0.091 A 
ATOM     12  C   UNL     1     -12.655 -15.799  29.900  1.00  0.00     0.068 A 
ATOM     13  C   UNL     1     -12.510 -16.520  28.707  1.00  0.00     0.162 A 
ATOM     14  C   UNL     1     -12.903 -17.870  31.125  1.00  0.00     0.068 A 
ATOM     15  C   UNL     1     -12.558 -17.921  28.717  1.00  0.00     0.200 A 
ATOM     16  C   UNL     1     -12.764 -18.603  29.940  1.00  0.00     0.162 A 
BRANCH  13  17
ATOM     17  O   UNL     1     -12.318 -15.846  27.502  1.00  0.00    -0.504 OA
ATOM     18  H   UNL     1     -13.093 -15.438  26.992  1.00  0.00     0.293 HD
ENDBRANCH  13  17
BRANCH  15  19
ATOM     19  O   UNL     1     -12.400 -18.591  27.501  1.00  0.00    -0.502 OA
ATOM     20  H   UNL     1     -13.165 -18.864  26.901  1.00  0.00     0.293 HD
ENDBRANCH  15  19
BRANCH  16  21
ATOM     21  O   UNL     1     -12.843 -19.994  30.023  1.00  0.00    -0.504 OA
ATOM     22  H   UNL     1     -13.096 -20.595  29.251  1.00  0.00     0.293 HD
ENDBRANCH  16  21
ENDBRANCH   1  11
BRANCH  10  23
ATOM     23  O   UNL     1     -15.260 -14.988  31.756  1.00  0.00    -0.500 OA
ATOM     24  H   UNL     1     -15.878 -15.789  31.700  1.00  0.00     0.294 HD
ENDBRANCH  10  23
BRANCH   5  25
ATOM     25  O   UNL     1      -9.875 -14.447  37.319  1.00  0.00    -0.507 OA
ATOM     26  H   UNL     1      -9.728 -13.766  38.055  1.00  0.00     0.293 HD
ENDBRANCH   5  25
BRANCH   7  27
ATOM     27  O   UNL     1     -14.274 -12.728  36.372  1.00  0.00    -0.507 OA
ATOM     28  H   UNL     1     -14.971 -13.015  37.044  1.00  0.00     0.293 HD
ENDBRANCH   7  27
TORSDOF 7
ENDMDL
MODEL 3
REMARK VINA RESULT:     0.912      1.375      7.036
REMARK INTER + INTRA:           0.798
REMARK INTER:                   1.061
REMARK INTRA:                  -0.264
REMARK UNBOUND:                -0.327
REMARK SMILES Oc1cc(O)c2cc(O)c(-c3cc(O)c(O)c(O)c3)[o+]c2c1
REMARK SMILES IDX 10 1 20 2 21 3 22 4 2 5 3 6 4 7 6 8 7 9 8 10 11 11 12 12
REMARK SMILES IDX 13 13 19 14 15 15 17 16 14 17 16 19 18 21 9 23 1 25 5 27
REMARK H PARENT 14 18 16 20 18 22 9 24 1 26 5 28
REMARK Flexibility Score: inf
ROOT
ATOM      1  C   UNL     1     -12.565 -16.010  32.512  1.00  0.00     0.402 A 
ATOM      2  O   UNL     1     -11.787 -15.784  31.456  1.00  0.00    -0.202 OA
ATOM      3  C   UNL     1     -11.874 -16.475  30.325  1.00  0.00     0.368 A 
ATOM      4  C   UNL     1     -11.010 -16.165  29.271  1.00  0.00     0.162 A 
ATOM      5  C   UNL     1     -11.076 -16.877  28.072  1.00  0.00     0.128 A 
ATOM      6  C   UNL     1     -12.011 -17.908  27.925  1.00  0.00     0.093 A 
ATOM      7  C   UNL     1     -12.888 -18.238  28.966  1.00  0.00     0.136 A 
ATOM      8  C   UNL     1     -12.826 -17.514  30.185  1.00  0.00     0.125 A 
ATOM      9  C   UNL     1     -13.671 -17.767  31.277  1.00  0.00     0.078 A 
ATOM     10  C   UNL     1     -13.554 -17.008  32.445  1.00  0.00     0.223 A 
ENDROOT
BRANCH   1  11
ATOM     11  C   UNL     1     -12.365 -15.177  33.720  1.00  0.00     0.091 A 
ATOM     12  C   UNL     1     -11.224 -15.370  34.510  1.00  0.00     0.068 A 
ATOM     13  C   UNL     1     -11.022 -14.607  35.667  1.00  0.00     0.162 A 
ATOM     14  C   UNL     1     -13.326 -14.235  34.126  1.00  0.00     0.068 A 
ATOM     15  C   UNL     1     -11.970 -13.652  36.060  1.00  0.00     0.200 A 
ATOM     16  C   UNL     1     -13.139 -13.470  35.283  1.00  0.00     0.162 A 
BRANCH  13  17
ATOM     17  O   UNL     1      -9.875 -14.795  36.438  1.00  0.00    -0.504 OA
ATOM     18  H   UNL     1      -9.419 -14.023  36.908  1.00  0.00     0.293 HD
ENDBRANCH  13  17
BRANCH  15  19
ATOM     19  O   UNL     1     -11.716 -12.913  37.218  1.00  0.00    -0.502 OA
ATOM     20  H   UNL     1     -11.046 -12.159  37.274  1.00  0.00     0.293 HD
ENDBRANCH  15  19
BRANCH  16  21
ATOM     21  O   UNL     1     -14.135 -12.552  35.622  1.00  0.00    -0.504 OA
ATOM     22  H   UNL     1     -14.085 -11.563  35.425  1.00  0.00     0.293 HD
ENDBRANCH  16  21
ENDBRANCH   1  11
BRANCH  10  23
ATOM     23  O   UNL     1     -14.427 -17.225  33.512  1.00  0.00    -0.500 OA
ATOM     24  H   UNL     1     -14.144 -17.071  34.472  1.00  0.00     0.294 HD
ENDBRANCH  10  23
BRANCH   5  25
ATOM     25  O   UNL     1     -10.207 -16.553  27.033  1.00  0.00    -0.507 OA
ATOM     26  H   UNL     1      -9.645 -17.260  26.573  1.00  0.00     0.293 HD
ENDBRANCH   5  25
BRANCH   7  27
ATOM     27  O   UNL     1     -13.791 -19.281  28.742  1.00  0.00    -0.507 OA
ATOM     28  H   UNL     1     -14.558 -19.242  28.087  1.00  0.00     0.293 HD
ENDBRANCH   7  27
TORSDOF 7
ENDMDL
MODEL 4
REMARK VINA RESULT:     0.914      1.997      7.584
REMARK INTER + INTRA:           0.801
REMARK INTER:                   0.627
REMARK INTRA:                   0.174
REMARK UNBOUND:                -0.327
REMARK SMILES Oc1cc(O)c2cc(O)c(-c3cc(O)c(O)c(O)c3)[o+]c2c1
REMARK SMILES IDX 10 1 20 2 21 3 22 4 2 5 3 6 4 7 6 8 7 9 8 10 11 11 12 12
REMARK SMILES IDX 13 13 19 14 15 15 17 16 14 17 16 19 18 21 9 23 1 25 5 27
REMARK H PARENT 14 18 16 20 18 22 9 24 1 26 5 28
REMARK Flexibility Score: inf
ROOT
ATOM      1  C   UNL     1     -11.761 -16.075  30.851  1.00  0.00     0.402 A 
ATOM      2  O   UNL     1     -12.614 -15.640  29.927  1.00  0.00    -0.202 OA
ATOM      3  C   UNL     1     -12.550 -15.996  28.648  1.00  0.00     0.368 A 
ATOM      4  C   UNL     1     -13.491 -15.484  27.751  1.00  0.00     0.162 A 
ATOM      5  C   UNL     1     -13.446 -15.838  26.402  1.00  0.00     0.128 A 
ATOM      6  C   UNL     1     -12.450 -16.709  25.944  1.00  0.00     0.093 A 
ATOM      7  C   UNL     1     -11.495 -17.236  26.822  1.00  0.00     0.136 A 
ATOM      8  C   UNL     1     -11.541 -16.881  28.196  1.00  0.00     0.125 A 
ATOM      9  C   UNL     1     -10.634 -17.369  29.150  1.00  0.00     0.078 A 
ATOM     10  C   UNL     1     -10.744 -16.977  30.487  1.00  0.00     0.223 A 
ENDROOT
BRANCH   1  11
ATOM     11  C   UNL     1     -11.932 -15.598  32.242  1.00  0.00     0.091 A 
ATOM     12  C   UNL     1     -13.199 -15.193  32.681  1.00  0.00     0.068 A 
ATOM     13  C   UNL     1     -13.383 -14.721  33.987  1.00  0.00     0.162 A 
ATOM     14  C   UNL     1     -10.838 -15.487  33.117  1.00  0.00     0.068 A 
ATOM     15  C   UNL     1     -12.296 -14.632  34.867  1.00  0.00     0.200 A 
ATOM     16  C   UNL     1     -11.007 -15.013  34.423  1.00  0.00     0.162 A 
BRANCH  13  17
ATOM     17  O   UNL     1     -14.652 -14.336  34.419  1.00  0.00    -0.504 OA
ATOM     18  H   UNL     1     -14.901 -13.360  34.532  1.00  0.00     0.293 HD
ENDBRANCH  13  17
BRANCH  15  19
ATOM     19  O   UNL     1     -12.535 -14.162  36.161  1.00  0.00    -0.502 OA
ATOM     20  H   UNL     1     -13.129 -13.374  36.376  1.00  0.00     0.293 HD
ENDBRANCH  15  19
BRANCH  16  21
ATOM     21  O   UNL     1      -9.875 -14.933  35.236  1.00  0.00    -0.504 OA
ATOM     22  H   UNL     1      -8.940 -15.163  34.930  1.00  0.00     0.293 HD
ENDBRANCH  16  21
ENDBRANCH   1  11
BRANCH  10  23
ATOM     23  O   UNL     1      -9.875 -17.501  31.444  1.00  0.00    -0.500 OA
ATOM     24  H   UNL     1      -9.713 -18.498  31.527  1.00  0.00     0.294 HD
ENDBRANCH  10  23
BRANCH   5  25
ATOM     25  O   UNL     1     -14.393 -15.317  25.524  1.00  0.00    -0.507 OA
ATOM     26  H   UNL     1     -15.366 -15.595  25.569  1.00  0.00     0.293 HD
ENDBRANCH   5  25
BRANCH   7  27
ATOM     27  O   UNL     1     -10.533 -18.097  26.287  1.00  0.00    -0.507 OA
ATOM     28  H   UNL     1     -10.431 -18.297  25.303  1.00  0.00     0.293 HD
ENDBRANCH   7  27
TORSDOF 7
ENDMDL
MODEL 5
REMARK VINA RESULT:     0.917      1.396      7.121
REMARK INTER + INTRA:           0.804
REMARK INTER:                   1.083
REMARK INTRA:                  -0.278
REMARK UNBOUND:                -0.327
REMARK SMILES Oc1cc(O)c2cc(O)c(-c3cc(O)c(O)c(O)c3)[o+]c2c1
REMARK SMILES IDX 10 1 20 2 21 3 22 4 2 5 3 6 4 7 6 8 7 9 8 10 11 11 12 12
REMARK SMILES IDX 13 13 19 14 15 15 17 16 14 17 16 19 18 21 9 23 1 25 5 27
REMARK H PARENT 14 18 16 20 18 22 9 24 1 26 5 28
REMARK Flexibility Score: inf
ROOT
ATOM      1  C   UNL     1     -12.543 -15.981  32.587  1.00  0.00     0.402 A 
ATOM      2  O   UNL     1     -11.737 -15.758  31.552  1.00  0.00    -0.202 OA
ATOM      3  C   UNL     1     -11.823 -16.421  30.403  1.00  0.00     0.368 A 
ATOM      4  C   UNL     1     -10.929 -16.117  29.373  1.00  0.00     0.162 A 
ATOM      5  C   UNL     1     -10.994 -16.799  28.158  1.00  0.00     0.128 A 
ATOM      6  C   UNL     1     -11.958 -17.796  27.970  1.00  0.00     0.093 A 
ATOM      7  C   UNL     1     -12.866 -18.120  28.985  1.00  0.00     0.136 A 
ATOM      8  C   UNL     1     -12.805 -17.425  30.221  1.00  0.00     0.125 A 
ATOM      9  C   UNL     1     -13.681 -17.674  31.291  1.00  0.00     0.078 A 
ATOM     10  C   UNL     1     -13.562 -16.945  32.478  1.00  0.00     0.223 A 
ENDROOT
BRANCH   1  11
ATOM     11  C   UNL     1     -12.341 -15.182  33.816  1.00  0.00     0.091 A 
ATOM     12  C   UNL     1     -13.262 -14.179  34.145  1.00  0.00     0.068 A 
ATOM     13  C   UNL     1     -13.083 -13.397  35.294  1.00  0.00     0.162 A 
ATOM     14  C   UNL     1     -11.213 -15.368  34.632  1.00  0.00     0.068 A 
ATOM     15  C   UNL     1     -11.968 -13.597  36.120  1.00  0.00     0.200 A 
ATOM     16  C   UNL     1     -11.019 -14.590  35.780  1.00  0.00     0.162 A 
BRANCH  13  17
ATOM     17  O   UNL     1     -14.014 -12.411  35.621  1.00  0.00    -0.504 OA
ATOM     18  H   UNL     1     -14.758 -12.584  36.287  1.00  0.00     0.293 HD
ENDBRANCH  13  17
BRANCH  15  19
ATOM     19  O   UNL     1     -11.842 -12.795  37.257  1.00  0.00    -0.502 OA
ATOM     20  H   UNL     1     -11.639 -13.150  38.181  1.00  0.00     0.293 HD
ENDBRANCH  15  19
BRANCH  16  21
ATOM     21  O   UNL     1      -9.876 -14.833  36.544  1.00  0.00    -0.504 OA
ATOM     22  H   UNL     1      -9.725 -15.671  37.088  1.00  0.00     0.293 HD
ENDBRANCH  16  21
ENDBRANCH   1  11
BRANCH  10  23
ATOM     23  O   UNL     1     -14.464 -17.156  33.521  1.00  0.00    -0.500 OA
ATOM     24  H   UNL     1     -14.242 -16.901  34.477  1.00  0.00     0.294 HD
ENDBRANCH  10  23
BRANCH   5  25
ATOM     25  O   UNL     1     -10.093 -16.481  27.144  1.00  0.00    -0.507 OA
ATOM     26  H   UNL     1     -10.404 -16.087  26.264  1.00  0.00     0.293 HD
ENDBRANCH   5  25
BRANCH   7  27
ATOM     27  O   UNL     1     -13.797 -19.127  28.720  1.00  0.00    -0.507 OA
ATOM     28  H   UNL     1     -13.704 -20.085  29.024  1.00  0.00     0.293 HD
ENDBRANCH   7  27
TORSDOF 7
ENDMDL
