MODEL 1
REMARK VINA RESULT:    -3.952      0.000      0.000
REMARK INTER + INTRA:          -9.841
REMARK INTER:                  -7.186
REMARK INTRA:                  -2.655
REMARK UNBOUND:                -2.655
REMARK SMILES CCCCCCCCCCCCCCCC(=O)[O-]
REMARK SMILES IDX 9 1 10 2 11 3 12 4 13 5 14 6 15 7 16 8 17 9 18 10 8 11 7 12
REMARK SMILES IDX 6 13 5 14 4 15 3 16 2 17 1 18
REMARK H PARENT
REMARK Flexibility Score: inf
ROOT
ATOM      1  C   UNL     1      25.909   8.024   8.234  1.00  0.00     0.000 C 
ENDROOT
BRANCH   1   2
ATOM      2  C   UNL     1      26.375   7.288   9.505  1.00  0.00     0.000 C 
BRANCH   2   3
ATOM      3  C   UNL     1      27.413   6.176   9.263  1.00  0.00     0.000 C 
BRANCH   3   4
ATOM      4  C   UNL     1      27.817   5.375  10.519  1.00  0.00     0.000 C 
BRANCH   4   5
ATOM      5  C   UNL     1      27.951   3.856  10.311  1.00  0.00     0.000 C 
BRANCH   5   6
ATOM      6  C   UNL     1      27.736   3.431   8.851  1.00  0.00     0.006 C 
BRANCH   6   7
ATOM      7  C   UNL     1      27.872   1.913   8.697  1.00  0.00     0.053 C 
BRANCH   7   8
ATOM      8  C   UNL     1      26.886   1.397   7.696  1.00  0.00     0.041 C 
ATOM      9  O   UNL     1      27.013   1.683   6.476  1.00  0.00    -0.550 OA
ATOM     10  O   UNL     1      25.799   0.642   8.117  1.00  0.00    -0.550 OA
ENDBRANCH   7   8
ENDBRANCH   6   7
ENDBRANCH   5   6
ENDBRANCH   4   5
ENDBRANCH   3   4
ENDBRANCH   2   3
ENDBRANCH   1   2
BRANCH   1  11
ATOM     11  C   UNL     1      26.500   7.445   6.930  1.00  0.00     0.000 C 
BRANCH  11  12
ATOM     12  C   UNL     1      25.420   7.146   5.876  1.00  0.00    -0.000 C 
BRANCH  12  13
ATOM     13  C   UNL     1      24.390   6.117   6.369  1.00  0.00    -0.000 C 
BRANCH  13  14
ATOM     14  C   UNL     1      25.024   4.748   6.668  1.00  0.00    -0.000 C 
BRANCH  14  15
ATOM     15  C   UNL     1      24.194   3.929   7.680  1.00  0.00    -0.000 C 
BRANCH  15  16
ATOM     16  C   UNL     1      23.758   4.735   8.918  1.00  0.00    -0.000 C 
BRANCH  16  17
ATOM     17  C   UNL     1      24.240   4.160  10.260  1.00  0.00    -0.003 C 
ATOM     18  C   UNL     1      24.160   5.173  11.402  1.00  0.00     0.004 C 
ENDBRANCH  16  17
ENDBRANCH  15  16
ENDBRANCH  14  15
ENDBRANCH  13  14
ENDBRANCH  12  13
ENDBRANCH  11  12
ENDBRANCH   1  11
TORSDOF 14
ENDMDL
MODEL 2
REMARK VINA RESULT:    -3.924      1.593      2.684
REMARK INTER + INTRA:          -9.790
REMARK INTER:                  -7.542
REMARK INTRA:                  -2.248
REMARK UNBOUND:                -2.655
REMARK SMILES CCCCCCCCCCCCCCCC(=O)[O-]
REMARK SMILES IDX 9 1 10 2 11 3 12 4 13 5 14 6 15 7 16 8 17 9 18 10 8 11 7 12
REMARK SMILES IDX 6 13 5 14 4 15 3 16 2 17 1 18
REMARK H PARENT
REMARK Flexibility Score: inf
ROOT
ATOM      1  C   UNL     1      27.040   6.388   9.579  1.00  0.00     0.000 C 
ENDROOT
BRANCH   1   2
ATOM      2  C   UNL     1      26.572   5.174  10.404  1.00  0.00     0.000 C 
BRANCH   2   3
ATOM      3  C   UNL     1      27.416   3.900  10.213  1.00  0.00     0.000 C 
BRANCH   3   4
ATOM      4  C   UNL     1      28.010   3.714   8.801  1.00  0.00     0.000 C 
BRANCH   4   5
ATOM      5  C   UNL     1      27.079   3.030   7.785  1.00  0.00     0.000 C 
BRANCH   5   6
ATOM      6  C   UNL     1      26.901   1.528   8.052  1.00  0.00     0.006 C 
BRANCH   6   7
ATOM      7  C   UNL     1      28.258   0.827   8.167  1.00  0.00     0.053 C 
BRANCH   7   8
ATOM      8  C   UNL     1      28.325   0.017   9.423  1.00  0.00     0.041 C 
ATOM      9  O   UNL     1      28.785   0.523  10.480  1.00  0.00    -0.550 OA
ATOM     10  O   UNL     1      27.925  -1.313   9.413  1.00  0.00    -0.550 OA
ENDBRANCH   7   8
ENDBRANCH   6   7
ENDBRANCH   5   6
ENDBRANCH   4   5
ENDBRANCH   3   4
ENDBRANCH   2   3
ENDBRANCH   1   2
BRANCH   1  11
ATOM     11  C   UNL     1      25.991   7.518   9.490  1.00  0.00     0.000 C 
BRANCH  11  12
ATOM     12  C   UNL     1      25.983   8.205   8.113  1.00  0.00    -0.000 C 
BRANCH  12  13
ATOM     13  C   UNL     1      26.517   7.290   6.999  1.00  0.00    -0.000 C 
BRANCH  13  14
ATOM     14  C   UNL     1      25.533   7.159   5.824  1.00  0.00    -0.000 C 
BRANCH  14  15
ATOM     15  C   UNL     1      24.182   6.550   6.258  1.00  0.00    -0.000 C 
BRANCH  15  16
ATOM     16  C   UNL     1      24.312   5.156   6.902  1.00  0.00    -0.000 C 
BRANCH  16  17
ATOM     17  C   UNL     1      23.512   4.974   8.203  1.00  0.00    -0.003 C 
ATOM     18  C   UNL     1      23.647   3.570   8.790  1.00  0.00     0.004 C 
ENDBRANCH  16  17
ENDBRANCH  15  16
ENDBRANCH  14  15
ENDBRANCH  13  14
ENDBRANCH  12  13
ENDBRANCH  11  12
ENDBRANCH   1  11
TORSDOF 14
ENDMDL
MODEL 3
REMARK VINA RESULT:    -3.858      1.848      3.508
REMARK INTER + INTRA:          -9.670
REMARK INTER:                  -7.596
REMARK INTRA:                  -2.074
REMARK UNBOUND:                -2.655
REMARK SMILES CCCCCCCCCCCCCCCC(=O)[O-]
REMARK SMILES IDX 9 1 10 2 11 3 12 4 13 5 14 6 15 7 16 8 17 9 18 10 8 11 7 12
REMARK SMILES IDX 6 13 5 14 4 15 3 16 2 17 1 18
REMARK H PARENT
REMARK Flexibility Score: inf
ROOT
ATOM      1  C   UNL     1      24.934   7.142   7.162  1.00  0.00     0.000 C 
ENDROOT
BRANCH   1   2
ATOM      2  C   UNL     1      26.120   6.168   7.030  1.00  0.00     0.000 C 
BRANCH   2   3
ATOM      3  C   UNL     1      25.729   4.681   6.945  1.00  0.00     0.000 C 
BRANCH   3   4
ATOM      4  C   UNL     1      26.910   3.689   7.004  1.00  0.00     0.000 C 
BRANCH   4   5
ATOM      5  C   UNL     1      26.664   2.430   7.855  1.00  0.00     0.000 C 
BRANCH   5   6
ATOM      6  C   UNL     1      27.957   1.834   8.430  1.00  0.00     0.006 C 
BRANCH   6   7
ATOM      7  C   UNL     1      27.995   0.316   8.232  1.00  0.00     0.053 C 
BRANCH   7   8
ATOM      8  C   UNL     1      28.185  -0.380   9.544  1.00  0.00     0.041 C 
ATOM      9  O   UNL     1      27.779  -1.561   9.698  1.00  0.00    -0.550 OA
ATOM     10  O   UNL     1      28.764   0.295  10.610  1.00  0.00    -0.550 OA
ENDBRANCH   7   8
ENDBRANCH   6   7
ENDBRANCH   5   6
ENDBRANCH   4   5
ENDBRANCH   3   4
ENDBRANCH   2   3
ENDBRANCH   1   2
BRANCH   1  11
ATOM     11  C   UNL     1      24.776   7.738   8.578  1.00  0.00     0.000 C 
BRANCH  11  12
ATOM     12  C   UNL     1      23.750   6.969   9.428  1.00  0.00    -0.000 C 
BRANCH  12  13
ATOM     13  C   UNL     1      24.361   6.421  10.728  1.00  0.00    -0.000 C 
BRANCH  13  14
ATOM     14  C   UNL     1      24.494   4.888  10.715  1.00  0.00    -0.000 C 
BRANCH  14  15
ATOM     15  C   UNL     1      25.966   4.431  10.623  1.00  0.00    -0.000 C 
BRANCH  15  16
ATOM     16  C   UNL     1      26.973   5.596  10.576  1.00  0.00    -0.000 C 
BRANCH  16  17
ATOM     17  C   UNL     1      28.443   5.168  10.436  1.00  0.00    -0.003 C 
ATOM     18  C   UNL     1      28.819   4.024  11.378  1.00  0.00     0.004 C 
ENDBRANCH  16  17
ENDBRANCH  15  16
ENDBRANCH  14  15
ENDBRANCH  13  14
ENDBRANCH  12  13
ENDBRANCH  11  12
ENDBRANCH   1  11
TORSDOF 14
ENDMDL
MODEL 4
REMARK VINA RESULT:    -3.855      1.315      3.250
REMARK INTER + INTRA:          -9.664
REMARK INTER:                  -7.660
REMARK INTRA:                  -2.004
REMARK UNBOUND:                -2.655
REMARK SMILES CCCCCCCCCCCCCCCC(=O)[O-]
REMARK SMILES IDX 9 1 10 2 11 3 12 4 13 5 14 6 15 7 16 8 17 9 18 10 8 11 7 12
REMARK SMILES IDX 6 13 5 14 4 15 3 16 2 17 1 18
REMARK H PARENT
REMARK Flexibility Score: inf
ROOT
ATOM      1  C   UNL     1      26.313   7.701   8.323  1.00  0.00     0.000 C 
ENDROOT
BRANCH   1   2
ATOM      2  C   UNL     1      26.008   7.853   6.821  1.00  0.00     0.000 C 
BRANCH   2   3
ATOM      3  C   UNL     1      26.313   6.606   5.970  1.00  0.00     0.000 C 
BRANCH   3   4
ATOM      4  C   UNL     1      26.323   5.271   6.745  1.00  0.00     0.000 C 
BRANCH   4   5
ATOM      5  C   UNL     1      24.995   4.494   6.723  1.00  0.00     0.000 C 
BRANCH   5   6
ATOM      6  C   UNL     1      25.157   3.021   7.127  1.00  0.00     0.006 C 
BRANCH   6   7
ATOM      7  C   UNL     1      26.613   2.570   6.981  1.00  0.00     0.053 C 
BRANCH   7   8
ATOM      8  C   UNL     1      26.907   1.434   7.911  1.00  0.00     0.041 C 
ATOM      9  O   UNL     1      26.111   0.463   7.995  1.00  0.00    -0.550 OA
ATOM     10  O   UNL     1      28.034   1.474   8.721  1.00  0.00    -0.550 OA
ENDBRANCH   7   8
ENDBRANCH   6   7
ENDBRANCH   5   6
ENDBRANCH   4   5
ENDBRANCH   3   4
ENDBRANCH   2   3
ENDBRANCH   1   2
BRANCH   1  11
ATOM     11  C   UNL     1      25.416   8.572   9.230  1.00  0.00     0.000 C 
BRANCH  11  12
ATOM     12  C   UNL     1      23.972   8.047   9.307  1.00  0.00    -0.000 C 
BRANCH  12  13
ATOM     13  C   UNL     1      23.913   6.522   9.489  1.00  0.00    -0.000 C 
BRANCH  13  14
ATOM     14  C   UNL     1      24.805   6.032  10.642  1.00  0.00    -0.000 C 
BRANCH  14  15
ATOM     15  C   UNL     1      25.197   4.546  10.486  1.00  0.00    -0.000 C 
BRANCH  15  16
ATOM     16  C   UNL     1      26.719   4.310  10.451  1.00  0.00    -0.000 C 
BRANCH  16  17
ATOM     17  C   UNL     1      27.567   5.526  10.865  1.00  0.00    -0.003 C 
ATOM     18  C   UNL     1      28.860   5.131  11.577  1.00  0.00     0.004 C 
ENDBRANCH  16  17
ENDBRANCH  15  16
ENDBRANCH  14  15
ENDBRANCH  13  14
ENDBRANCH  12  13
ENDBRANCH  11  12
ENDBRANCH   1  11
TORSDOF 14
ENDMDL
MODEL 5
REMARK VINA RESULT:    -3.847      3.106      5.238
REMARK INTER + INTRA:          -9.651
REMARK INTER:                  -7.278
REMARK INTRA:                  -2.372
REMARK UNBOUND:                -2.655
REMARK SMILES CCCCCCCCCCCCCCCC(=O)[O-]
REMARK SMILES IDX 9 1 10 2 11 3 12 4 13 5 14 6 15 7 16 8 17 9 18 10 8 11 7 12
REMARK SMILES IDX 6 13 5 14 4 15 3 16 2 17 1 18
REMARK H PARENT
REMARK Flexibility Score: inf
ROOT
ATOM      1  C   UNL     1      24.552   6.393   6.263  1.00  0.00     0.000 C 
ENDROOT
BRANCH   1   2
ATOM      2  C   UNL     1      26.092   6.421   6.310  1.00  0.00     0.000 C 
BRANCH   2   3
ATOM      3  C   UNL     1      26.691   7.522   7.204  1.00  0.00     0.000 C 
BRANCH   3   4
ATOM      4  C   UNL     1      25.659   8.436   7.898  1.00  0.00     0.000 C 
BRANCH   4   5
ATOM      5  C   UNL     1      25.357   8.084   9.366  1.00  0.00     0.000 C 
BRANCH   5   6
ATOM      6  C   UNL     1      23.988   8.596   9.835  1.00  0.00     0.006 C 
BRANCH   6   7
ATOM      7  C   UNL     1      22.910   7.523   9.654  1.00  0.00     0.053 C 
BRANCH   7   8
ATOM      8  C   UNL     1      22.527   6.935  10.975  1.00  0.00     0.041 C 
ATOM      9  O   UNL     1      23.276   7.086  11.976  1.00  0.00    -0.550 OA
ATOM     10  O   UNL     1      21.368   6.178  11.089  1.00  0.00    -0.550 OA
ENDBRANCH   7   8
ENDBRANCH   6   7
ENDBRANCH   5   6
ENDBRANCH   4   5
ENDBRANCH   3   4
ENDBRANCH   2   3
ENDBRANCH   1   2
BRANCH   1  11
ATOM     11  C   UNL     1      23.930   5.205   7.030  1.00  0.00     0.000 C 
BRANCH  11  12
ATOM     12  C   UNL     1      24.965   4.449   7.882  1.00  0.00    -0.000 C 
BRANCH  12  13
ATOM     13  C   UNL     1      24.452   4.151   9.299  1.00  0.00    -0.000 C 
BRANCH  13  14
ATOM     14  C   UNL     1      25.439   4.601  10.389  1.00  0.00    -0.000 C 
BRANCH  14  15
ATOM     15  C   UNL     1      26.892   4.665   9.872  1.00  0.00    -0.000 C 
BRANCH  15  16
ATOM     16  C   UNL     1      27.756   5.722  10.585  1.00  0.00    -0.000 C 
BRANCH  16  17
ATOM     17  C   UNL     1      28.779   5.149  11.580  1.00  0.00    -0.003 C 
ATOM     18  C   UNL     1      28.854   3.624  11.540  1.00  0.00     0.004 C 
ENDBRANCH  16  17
ENDBRANCH  15  16
ENDBRANCH  14  15
ENDBRANCH  13  14
ENDBRANCH  12  13
ENDBRANCH  11  12
ENDBRANCH   1  11
TORSDOF 14
ENDMDL
MODEL 6
REMARK VINA RESULT:    -3.824      1.577      3.602
REMARK INTER + INTRA:          -9.608
REMARK INTER:                  -7.285
REMARK INTRA:                  -2.323
REMARK UNBOUND:                -2.655
REMARK SMILES CCCCCCCCCCCCCCCC(=O)[O-]
REMARK SMILES IDX 9 1 10 2 11 3 12 4 13 5 14 6 15 7 16 8 17 9 18 10 8 11 7 12
REMARK SMILES IDX 6 13 5 14 4 15 3 16 2 17 1 18
REMARK H PARENT
REMARK Flexibility Score: inf
ROOT
ATOM      1  C   UNL     1      25.443   5.265  10.366  1.00  0.00     0.000 C 
ENDROOT
BRANCH   1   2
ATOM      2  C   UNL     1      26.893   4.753  10.268  1.00  0.00     0.000 C 
BRANCH   2   3
ATOM      3  C   UNL     1      27.350   4.377   8.846  1.00  0.00     0.000 C 
BRANCH   3   4
ATOM      4  C   UNL     1      27.881   2.937   8.689  1.00  0.00     0.000 C 
BRANCH   4   5
ATOM      5  C   UNL     1      27.067   2.041   7.738  1.00  0.00     0.000 C 
BRANCH   5   6
ATOM      6  C   UNL     1      26.818   2.691   6.369  1.00  0.00     0.006 C 
BRANCH   6   7
ATOM      7  C   UNL     1      25.680   1.984   5.626  1.00  0.00     0.053 C 
BRANCH   7   8
ATOM      8  C   UNL     1      26.226   0.948   4.695  1.00  0.00     0.041 C 
ATOM      9  O   UNL     1      26.836  -0.055   5.151  1.00  0.00    -0.550 OA
ATOM     10  O   UNL     1      26.105   1.115   3.322  1.00  0.00    -0.550 OA
ENDBRANCH   7   8
ENDBRANCH   6   7
ENDBRANCH   5   6
ENDBRANCH   4   5
ENDBRANCH   3   4
ENDBRANCH   2   3
ENDBRANCH   1   2
BRANCH   1  11
ATOM     11  C   UNL     1      24.386   4.139  10.366  1.00  0.00     0.000 C 
BRANCH  11  12
ATOM     12  C   UNL     1      23.822   3.862   8.961  1.00  0.00    -0.000 C 
BRANCH  12  13
ATOM     13  C   UNL     1      23.537   5.154   8.180  1.00  0.00    -0.000 C 
BRANCH  13  14
ATOM     14  C   UNL     1      24.239   5.181   6.811  1.00  0.00    -0.000 C 
BRANCH  14  15
ATOM     15  C   UNL     1      24.607   6.614   6.371  1.00  0.00    -0.000 C 
BRANCH  15  16
ATOM     16  C   UNL     1      26.125   6.856   6.264  1.00  0.00    -0.000 C 
BRANCH  16  17
ATOM     17  C   UNL     1      26.711   7.757   7.364  1.00  0.00    -0.003 C 
ATOM     18  C   UNL     1      25.646   8.296   8.318  1.00  0.00     0.004 C 
ENDBRANCH  16  17
ENDBRANCH  15  16
ENDBRANCH  14  15
ENDBRANCH  13  14
ENDBRANCH  12  13
ENDBRANCH  11  12
ENDBRANCH   1  11
TORSDOF 14
ENDMDL
MODEL 7
REMARK VINA RESULT:    -3.808      2.362      5.160
REMARK INTER + INTRA:          -9.580
REMARK INTER:                  -7.054
REMARK INTRA:                  -2.526
REMARK UNBOUND:                -2.655
REMARK SMILES CCCCCCCCCCCCCCCC(=O)[O-]
REMARK SMILES IDX 9 1 10 2 11 3 12 4 13 5 14 6 15 7 16 8 17 9 18 10 8 11 7 12
REMARK SMILES IDX 6 13 5 14 4 15 3 16 2 17 1 18
REMARK H PARENT
REMARK Flexibility Score: inf
ROOT
ATOM      1  C   UNL     1      25.351   5.759  10.835  1.00  0.00     0.000 C 
ENDROOT
BRANCH   1   2
ATOM      2  C   UNL     1      24.502   4.477  10.939  1.00  0.00     0.000 C 
BRANCH   2   3
ATOM      3  C   UNL     1      24.360   3.688   9.624  1.00  0.00     0.000 C 
BRANCH   3   4
ATOM      4  C   UNL     1      23.506   4.374   8.537  1.00  0.00     0.000 C 
BRANCH   4   5
ATOM      5  C   UNL     1      23.980   4.144   7.091  1.00  0.00     0.000 C 
BRANCH   5   6
ATOM      6  C   UNL     1      25.009   5.184   6.626  1.00  0.00     0.006 C 
BRANCH   6   7
ATOM      7  C   UNL     1      24.657   6.578   7.154  1.00  0.00     0.053 C 
BRANCH   7   8
ATOM      8  C   UNL     1      25.839   7.490   7.056  1.00  0.00     0.041 C 
ATOM      9  O   UNL     1      26.075   8.321   7.972  1.00  0.00    -0.550 OA
ATOM     10  O   UNL     1      26.650   7.457   5.929  1.00  0.00    -0.550 OA
ENDBRANCH   7   8
ENDBRANCH   6   7
ENDBRANCH   5   6
ENDBRANCH   4   5
ENDBRANCH   3   4
ENDBRANCH   2   3
ENDBRANCH   1   2
BRANCH   1  11
ATOM     11  C   UNL     1      26.691   5.557  10.094  1.00  0.00     0.000 C 
BRANCH  11  12
ATOM     12  C   UNL     1      27.707   4.753  10.925  1.00  0.00    -0.000 C 
BRANCH  12  13
ATOM     13  C   UNL     1      28.155   3.466  10.216  1.00  0.00    -0.000 C 
BRANCH  13  14
ATOM     14  C   UNL     1      27.886   3.504   8.701  1.00  0.00    -0.000 C 
BRANCH  14  15
ATOM     15  C   UNL     1      27.692   2.092   8.107  1.00  0.00    -0.000 C 
BRANCH  15  16
ATOM     16  C   UNL     1      27.053   2.095   6.705  1.00  0.00    -0.000 C 
BRANCH  16  17
ATOM     17  C   UNL     1      25.949   1.043   6.502  1.00  0.00    -0.003 C 
ATOM     18  C   UNL     1      25.321   0.582   7.816  1.00  0.00     0.004 C 
ENDBRANCH  16  17
ENDBRANCH  15  16
ENDBRANCH  14  15
ENDBRANCH  13  14
ENDBRANCH  12  13
ENDBRANCH  11  12
ENDBRANCH   1  11
TORSDOF 14
ENDMDL
MODEL 8
REMARK VINA RESULT:    -3.787      3.164      4.840
REMARK INTER + INTRA:          -9.541
REMARK INTER:                  -6.903
REMARK INTRA:                  -2.639
REMARK UNBOUND:                -2.655
REMARK SMILES CCCCCCCCCCCCCCCC(=O)[O-]
REMARK SMILES IDX 9 1 10 2 11 3 12 4 13 5 14 6 15 7 16 8 17 9 18 10 8 11 7 12
REMARK SMILES IDX 6 13 5 14 4 15 3 16 2 17 1 18
REMARK H PARENT
REMARK Flexibility Score: inf
ROOT
ATOM      1  C   UNL     1      27.178   6.378   9.238  1.00  0.00     0.000 C 
ENDROOT
BRANCH   1   2
ATOM      2  C   UNL     1      26.872   5.623  10.545  1.00  0.00     0.000 C 
BRANCH   2   3
ATOM      3  C   UNL     1      25.994   4.369  10.376  1.00  0.00     0.000 C 
BRANCH   3   4
ATOM      4  C   UNL     1      24.476   4.611  10.515  1.00  0.00     0.000 C 
BRANCH   4   5
ATOM      5  C   UNL     1      24.070   5.609  11.614  1.00  0.00     0.000 C 
BRANCH   5   6
ATOM      6  C   UNL     1      23.406   6.876  11.057  1.00  0.00     0.006 C 
BRANCH   6   7
ATOM      7  C   UNL     1      22.569   6.555   9.815  1.00  0.00     0.053 C 
BRANCH   7   8
ATOM      8  C   UNL     1      22.293   7.799   9.032  1.00  0.00     0.041 C 
ATOM      9  O   UNL     1      22.922   8.860   9.285  1.00  0.00    -0.550 OA
ATOM     10  O   UNL     1      21.305   7.801   8.055  1.00  0.00    -0.550 OA
ENDBRANCH   7   8
ENDBRANCH   6   7
ENDBRANCH   5   6
ENDBRANCH   4   5
ENDBRANCH   3   4
ENDBRANCH   2   3
ENDBRANCH   1   2
BRANCH   1  11
ATOM     11  C   UNL     1      26.227   7.566   8.970  1.00  0.00     0.000 C 
BRANCH  11  12
ATOM     12  C   UNL     1      26.087   7.879   7.470  1.00  0.00    -0.000 C 
BRANCH  12  13
ATOM     13  C   UNL     1      26.001   6.607   6.611  1.00  0.00    -0.000 C 
BRANCH  13  14
ATOM     14  C   UNL     1      24.650   5.886   6.763  1.00  0.00    -0.000 C 
BRANCH  14  15
ATOM     15  C   UNL     1      24.807   4.350   6.778  1.00  0.00    -0.000 C 
BRANCH  15  16
ATOM     16  C   UNL     1      26.266   3.877   6.638  1.00  0.00    -0.000 C 
BRANCH  16  17
ATOM     17  C   UNL     1      26.543   2.474   7.203  1.00  0.00    -0.003 C 
ATOM     18  C   UNL     1      27.858   2.395   7.977  1.00  0.00     0.004 C 
ENDBRANCH  16  17
ENDBRANCH  15  16
ENDBRANCH  14  15
ENDBRANCH  13  14
ENDBRANCH  12  13
ENDBRANCH  11  12
ENDBRANCH   1  11
TORSDOF 14
ENDMDL
MODEL 9
REMARK VINA RESULT:    -3.743      9.601     11.176
REMARK INTER + INTRA:          -9.462
REMARK INTER:                  -7.158
REMARK INTRA:                  -2.303
REMARK UNBOUND:                -2.655
REMARK SMILES CCCCCCCCCCCCCCCC(=O)[O-]
REMARK SMILES IDX 9 1 10 2 11 3 12 4 13 5 14 6 15 7 16 8 17 9 18 10 8 11 7 12
REMARK SMILES IDX 6 13 5 14 4 15 3 16 2 17 1 18
REMARK H PARENT
REMARK Flexibility Score: inf
ROOT
ATOM      1  C   UNL     1      24.717   2.728  18.242  1.00  0.00     0.000 C 
ENDROOT
BRANCH   1   2
ATOM      2  C   UNL     1      24.989   1.357  17.596  1.00  0.00     0.000 C 
BRANCH   2   3
ATOM      3  C   UNL     1      24.962   0.165  18.571  1.00  0.00     0.000 C 
BRANCH   3   4
ATOM      4  C   UNL     1      24.596  -1.192  17.936  1.00  0.00     0.000 C 
BRANCH   4   5
ATOM      5  C   UNL     1      24.234  -1.138  16.441  1.00  0.00     0.000 C 
BRANCH   5   6
ATOM      6  C   UNL     1      23.077  -2.077  16.071  1.00  0.00     0.006 C 
BRANCH   6   7
ATOM      7  C   UNL     1      22.719  -2.996  17.243  1.00  0.00     0.053 C 
BRANCH   7   8
ATOM      8  C   UNL     1      23.032  -4.420  16.907  1.00  0.00     0.041 C 
ATOM      9  O   UNL     1      24.194  -4.872  17.082  1.00  0.00    -0.550 OA
ATOM     10  O   UNL     1      22.052  -5.234  16.354  1.00  0.00    -0.550 OA
ENDBRANCH   7   8
ENDBRANCH   6   7
ENDBRANCH   5   6
ENDBRANCH   4   5
ENDBRANCH   3   4
ENDBRANCH   2   3
ENDBRANCH   1   2
BRANCH   1  11
ATOM     11  C   UNL     1      24.266   3.809  17.236  1.00  0.00     0.000 C 
BRANCH  11  12
ATOM     12  C   UNL     1      23.316   4.842  17.869  1.00  0.00    -0.000 C 
BRANCH  12  13
ATOM     13  C   UNL     1      23.040   4.551  19.352  1.00  0.00    -0.000 C 
BRANCH  13  14
ATOM     14  C   UNL     1      21.537   4.548  19.681  1.00  0.00    -0.000 C 
BRANCH  14  15
ATOM     15  C   UNL     1      20.844   3.242  19.234  1.00  0.00    -0.000 C 
BRANCH  15  16
ATOM     16  C   UNL     1      21.543   1.967  19.743  1.00  0.00    -0.000 C 
BRANCH  16  17
ATOM     17  C   UNL     1      21.360   0.733  18.843  1.00  0.00    -0.003 C 
ATOM     18  C   UNL     1      21.329   1.083  17.356  1.00  0.00     0.004 C 
ENDBRANCH  16  17
ENDBRANCH  15  16
ENDBRANCH  14  15
ENDBRANCH  13  14
ENDBRANCH  12  13
ENDBRANCH  11  12
ENDBRANCH   1  11
TORSDOF 14
ENDMDL
