MODEL 1
REMARK VINA RESULT:    -4.740      0.000      0.000
REMARK INTER + INTRA:          -5.569
REMARK INTER:                  -5.432
REMARK INTRA:                  -0.137
REMARK UNBOUND:                -0.137
REMARK SMILES O=C([O-])C=Cc1ccc(O)cc1
REMARK SMILES IDX 6 1 7 2 12 3 8 4 11 5 9 6 5 7 4 8 2 9 1 10 3 11 10 12
REMARK H PARENT 10 13
REMARK Flexibility Score: inf
ROOT
ATOM      1  C   UNL     1      -7.342 -25.178  35.225  1.00  0.00    -0.025 A 
ATOM      2  C   UNL     1      -8.431 -25.238  36.118  1.00  0.00     0.012 A 
ATOM      3  C   UNL     1      -7.049 -26.305  34.437  1.00  0.00     0.012 A 
ATOM      4  C   UNL     1      -9.219 -26.391  36.196  1.00  0.00     0.047 A 
ATOM      5  C   UNL     1      -7.840 -27.454  34.517  1.00  0.00     0.047 A 
ATOM      6  C   UNL     1      -8.927 -27.501  35.394  1.00  0.00     0.115 A 
ENDROOT
BRANCH   1   7
ATOM      7  C   UNL     1      -6.466 -23.985  35.111  1.00  0.00     0.010 C 
ATOM      8  C   UNL     1      -6.729 -22.942  34.311  1.00  0.00     0.025 C 
BRANCH   8   9
ATOM      9  C   UNL     1      -5.827 -21.784  34.221  1.00  0.00     0.064 C 
ATOM     10  O   UNL     1      -4.688 -21.841  34.755  1.00  0.00    -0.545 OA
ATOM     11  O   UNL     1      -6.209 -20.626  33.553  1.00  0.00    -0.545 OA
ENDBRANCH   8   9
ENDBRANCH   1   7
BRANCH   6  12
ATOM     12  O   UNL     1      -9.707 -28.653  35.464  1.00  0.00    -0.508 OA
ATOM     13  H   UNL     1     -10.570 -28.741  34.941  1.00  0.00     0.293 HD
ENDBRANCH   6  12
TORSDOF 3
ENDMDL
MODEL 2
REMARK VINA RESULT:    -4.719      0.128      1.683
REMARK INTER + INTRA:          -5.545
REMARK INTER:                  -5.409
REMARK INTRA:                  -0.136
REMARK UNBOUND:                -0.137
REMARK SMILES O=C([O-])C=Cc1ccc(O)cc1
REMARK SMILES IDX 6 1 7 2 12 3 8 4 11 5 9 6 5 7 4 8 2 9 1 10 3 11 10 12
REMARK H PARENT 10 13
REMARK Flexibility Score: inf
ROOT
ATOM      1  C   UNL     1      -7.337 -25.147  35.222  1.00  0.00    -0.025 A 
ATOM      2  C   UNL     1      -6.991 -26.276  34.450  1.00  0.00     0.012 A 
ATOM      3  C   UNL     1      -8.473 -25.212  36.046  1.00  0.00     0.012 A 
ATOM      4  C   UNL     1      -7.755 -27.445  34.525  1.00  0.00     0.047 A 
ATOM      5  C   UNL     1      -9.233 -26.383  36.119  1.00  0.00     0.047 A 
ATOM      6  C   UNL     1      -8.876 -27.502  35.362  1.00  0.00     0.115 A 
ENDROOT
BRANCH   1   7
ATOM      7  C   UNL     1      -6.568 -23.878  35.171  1.00  0.00     0.010 C 
ATOM      8  C   UNL     1      -6.754 -22.931  34.241  1.00  0.00     0.025 C 
BRANCH   8   9
ATOM      9  C   UNL     1      -5.960 -21.693  34.222  1.00  0.00     0.064 C 
ATOM     10  O   UNL     1      -6.416 -20.672  33.644  1.00  0.00    -0.545 OA
ATOM     11  O   UNL     1      -4.714 -21.631  34.835  1.00  0.00    -0.545 OA
ENDBRANCH   8   9
ENDBRANCH   1   7
BRANCH   6  12
ATOM     12  O   UNL     1      -9.643 -28.663  35.445  1.00  0.00    -0.508 OA
ATOM     13  H   UNL     1     -10.654 -28.627  35.500  1.00  0.00     0.293 HD
ENDBRANCH   6  12
TORSDOF 3
ENDMDL
MODEL 3
REMARK VINA RESULT:    -4.287      2.255      2.576
REMARK INTER + INTRA:          -5.050
REMARK INTER:                  -4.899
REMARK INTRA:                  -0.151
REMARK UNBOUND:                -0.137
REMARK SMILES O=C([O-])C=Cc1ccc(O)cc1
REMARK SMILES IDX 6 1 7 2 12 3 8 4 11 5 9 6 5 7 4 8 2 9 1 10 3 11 10 12
REMARK H PARENT 10 13
REMARK Flexibility Score: inf
ROOT
ATOM      1  C   UNL     1      -5.846 -25.127  35.580  1.00  0.00    -0.025 A 
ATOM      2  C   UNL     1      -6.109 -26.406  36.114  1.00  0.00     0.012 A 
ATOM      3  C   UNL     1      -6.242 -24.849  34.260  1.00  0.00     0.012 A 
ATOM      4  C   UNL     1      -6.774 -27.369  35.348  1.00  0.00     0.047 A 
ATOM      5  C   UNL     1      -6.907 -25.814  33.499  1.00  0.00     0.047 A 
ATOM      6  C   UNL     1      -7.177 -27.074  34.040  1.00  0.00     0.115 A 
ENDROOT
BRANCH   1   7
ATOM      7  C   UNL     1      -5.133 -24.073  36.345  1.00  0.00     0.010 C 
ATOM      8  C   UNL     1      -4.634 -22.959  35.791  1.00  0.00     0.025 C 
BRANCH   8   9
ATOM      9  C   UNL     1      -3.925 -21.946  36.587  1.00  0.00     0.064 C 
ATOM     10  O   UNL     1      -2.825 -22.237  37.125  1.00  0.00    -0.545 OA
ATOM     11  O   UNL     1      -4.448 -20.668  36.752  1.00  0.00    -0.545 OA
ENDBRANCH   8   9
ENDBRANCH   1   7
BRANCH   6  12
ATOM     12  O   UNL     1      -7.841 -28.027  33.270  1.00  0.00    -0.508 OA
ATOM     13  H   UNL     1      -8.332 -27.773  32.420  1.00  0.00     0.293 HD
ENDBRANCH   6  12
TORSDOF 3
ENDMDL
MODEL 4
REMARK VINA RESULT:    -4.265      4.720      5.443
REMARK INTER + INTRA:          -5.025
REMARK INTER:                  -4.890
REMARK INTRA:                  -0.136
REMARK UNBOUND:                -0.137
REMARK SMILES O=C([O-])C=Cc1ccc(O)cc1
REMARK SMILES IDX 6 1 7 2 12 3 8 4 11 5 9 6 5 7 4 8 2 9 1 10 3 11 10 12
REMARK H PARENT 10 13
REMARK Flexibility Score: inf
ROOT
ATOM      1  C   UNL     1      -6.171 -20.283  34.152  1.00  0.00    -0.025 A 
ATOM      2  C   UNL     1      -7.064 -19.979  35.201  1.00  0.00     0.012 A 
ATOM      3  C   UNL     1      -6.604 -21.131  33.119  1.00  0.00     0.012 A 
ATOM      4  C   UNL     1      -8.363 -20.496  35.196  1.00  0.00     0.047 A 
ATOM      5  C   UNL     1      -7.903 -21.645  33.117  1.00  0.00     0.047 A 
ATOM      6  C   UNL     1      -8.787 -21.329  34.152  1.00  0.00     0.115 A 
ENDROOT
BRANCH   1   7
ATOM      7  C   UNL     1      -4.779 -19.770  34.114  1.00  0.00     0.010 C 
ATOM      8  C   UNL     1      -4.364 -18.799  33.289  1.00  0.00     0.025 C 
BRANCH   8   9
ATOM      9  C   UNL     1      -2.969 -18.331  33.278  1.00  0.00     0.064 C 
ATOM     10  O   UNL     1      -2.061 -19.095  32.861  1.00  0.00    -0.545 OA
ATOM     11  O   UNL     1      -2.638 -17.055  33.720  1.00  0.00    -0.545 OA
ENDBRANCH   8   9
ENDBRANCH   1   7
BRANCH   6  12
ATOM     12  O   UNL     1     -10.080 -21.848  34.138  1.00  0.00    -0.508 OA
ATOM     13  H   UNL     1     -10.874 -21.301  34.450  1.00  0.00     0.293 HD
ENDBRANCH   6  12
TORSDOF 3
ENDMDL
MODEL 5
REMARK VINA RESULT:    -4.237      1.978      2.377
REMARK INTER + INTRA:          -4.993
REMARK INTER:                  -4.842
REMARK INTRA:                  -0.151
REMARK UNBOUND:                -0.137
REMARK SMILES O=C([O-])C=Cc1ccc(O)cc1
REMARK SMILES IDX 6 1 7 2 12 3 8 4 11 5 9 6 5 7 4 8 2 9 1 10 3 11 10 12
REMARK H PARENT 10 13
REMARK Flexibility Score: inf
ROOT
ATOM      1  C   UNL     1      -5.744 -24.709  34.838  1.00  0.00    -0.025 A 
ATOM      2  C   UNL     1      -5.964 -25.833  35.662  1.00  0.00     0.012 A 
ATOM      3  C   UNL     1      -6.246 -24.724  33.525  1.00  0.00     0.012 A 
ATOM      4  C   UNL     1      -6.690 -26.929  35.185  1.00  0.00     0.047 A 
ATOM      5  C   UNL     1      -6.972 -25.821  33.053  1.00  0.00     0.047 A 
ATOM      6  C   UNL     1      -7.198 -26.924  33.880  1.00  0.00     0.115 A 
ENDROOT
BRANCH   1   7
ATOM      7  C   UNL     1      -4.971 -23.526  35.289  1.00  0.00     0.010 C 
ATOM      8  C   UNL     1      -5.016 -22.331  34.684  1.00  0.00     0.025 C 
BRANCH   8   9
ATOM      9  C   UNL     1      -4.222 -21.188  35.160  1.00  0.00     0.064 C 
ATOM     10  O   UNL     1      -3.910 -20.271  34.356  1.00  0.00    -0.545 OA
ATOM     11  O   UNL     1      -3.813 -21.101  36.486  1.00  0.00    -0.545 OA
ENDBRANCH   8   9
ENDBRANCH   1   7
BRANCH   6  12
ATOM     12  O   UNL     1      -7.924 -28.011  33.397  1.00  0.00    -0.508 OA
ATOM     13  H   UNL     1      -7.491 -28.721  32.817  1.00  0.00     0.293 HD
ENDBRANCH   6  12
TORSDOF 3
ENDMDL
MODEL 6
REMARK VINA RESULT:    -4.209      3.816      4.549
REMARK INTER + INTRA:          -4.961
REMARK INTER:                  -4.823
REMARK INTRA:                  -0.138
REMARK UNBOUND:                -0.137
REMARK SMILES O=C([O-])C=Cc1ccc(O)cc1
REMARK SMILES IDX 6 1 7 2 12 3 8 4 11 5 9 6 5 7 4 8 2 9 1 10 3 11 10 12
REMARK H PARENT 10 13
REMARK Flexibility Score: inf
ROOT
ATOM      1  C   UNL     1      -6.918 -21.544  33.772  1.00  0.00    -0.025 A 
ATOM      2  C   UNL     1      -7.780 -21.643  32.660  1.00  0.00     0.012 A 
ATOM      3  C   UNL     1      -6.104 -22.642  34.099  1.00  0.00     0.012 A 
ATOM      4  C   UNL     1      -7.802 -22.806  31.884  1.00  0.00     0.047 A 
ATOM      5  C   UNL     1      -6.129 -23.802  33.320  1.00  0.00     0.047 A 
ATOM      6  C   UNL     1      -6.974 -23.888  32.211  1.00  0.00     0.115 A 
ENDROOT
BRANCH   1   7
ATOM      7  C   UNL     1      -6.863 -20.338  34.636  1.00  0.00     0.010 C 
ATOM      8  C   UNL     1      -5.928 -19.384  34.525  1.00  0.00     0.025 C 
BRANCH   8   9
ATOM      9  C   UNL     1      -5.906 -18.210  35.411  1.00  0.00     0.064 C 
ATOM     10  O   UNL     1      -6.807 -18.069  36.278  1.00  0.00    -0.545 OA
ATOM     11  O   UNL     1      -4.903 -17.252  35.308  1.00  0.00    -0.545 OA
ENDBRANCH   8   9
ENDBRANCH   1   7
BRANCH   6  12
ATOM     12  O   UNL     1      -6.989 -25.051  31.444  1.00  0.00    -0.508 OA
ATOM     13  H   UNL     1      -7.330 -25.929  31.819  1.00  0.00     0.293 HD
ENDBRANCH   6  12
TORSDOF 3
ENDMDL
MODEL 7
REMARK VINA RESULT:    -4.184      1.874      5.935
REMARK INTER + INTRA:          -4.932
REMARK INTER:                  -4.797
REMARK INTRA:                  -0.135
REMARK UNBOUND:                -0.137
REMARK SMILES O=C([O-])C=Cc1ccc(O)cc1
REMARK SMILES IDX 6 1 7 2 12 3 8 4 11 5 9 6 5 7 4 8 2 9 1 10 3 11 10 12
REMARK H PARENT 10 13
REMARK Flexibility Score: inf
ROOT
ATOM      1  C   UNL     1      -6.331 -23.329  33.751  1.00  0.00    -0.025 A 
ATOM      2  C   UNL     1      -7.261 -22.393  33.253  1.00  0.00     0.012 A 
ATOM      3  C   UNL     1      -5.156 -22.857  34.362  1.00  0.00     0.012 A 
ATOM      4  C   UNL     1      -7.026 -21.022  33.389  1.00  0.00     0.047 A 
ATOM      5  C   UNL     1      -4.926 -21.485  34.496  1.00  0.00     0.047 A 
ATOM      6  C   UNL     1      -5.859 -20.564  34.013  1.00  0.00     0.115 A 
ENDROOT
BRANCH   1   7
ATOM      7  C   UNL     1      -6.525 -24.795  33.623  1.00  0.00     0.010 C 
ATOM      8  C   UNL     1      -6.975 -25.577  34.614  1.00  0.00     0.025 C 
BRANCH   8   9
ATOM      9  C   UNL     1      -7.141 -27.028  34.446  1.00  0.00     0.064 C 
ATOM     10  O   UNL     1      -6.864 -27.800  35.401  1.00  0.00    -0.545 OA
ATOM     11  O   UNL     1      -7.602 -27.563  33.248  1.00  0.00    -0.545 OA
ENDBRANCH   8   9
ENDBRANCH   1   7
BRANCH   6  12
ATOM     12  O   UNL     1      -5.617 -19.199  34.154  1.00  0.00    -0.508 OA
ATOM     13  H   UNL     1      -5.791 -18.718  35.029  1.00  0.00     0.293 HD
ENDBRANCH   6  12
TORSDOF 3
ENDMDL
MODEL 8
REMARK VINA RESULT:    -4.180      4.275      8.014
REMARK INTER + INTRA:          -4.927
REMARK INTER:                  -4.776
REMARK INTRA:                  -0.151
REMARK UNBOUND:                -0.137
REMARK SMILES O=C([O-])C=Cc1ccc(O)cc1
REMARK SMILES IDX 6 1 7 2 12 3 8 4 11 5 9 6 5 7 4 8 2 9 1 10 3 11 10 12
REMARK H PARENT 10 13
REMARK Flexibility Score: inf
ROOT
ATOM      1  C   UNL     1      -5.251 -19.079  34.295  1.00  0.00    -0.025 A 
ATOM      2  C   UNL     1      -4.921 -17.941  35.060  1.00  0.00     0.012 A 
ATOM      3  C   UNL     1      -4.409 -19.448  33.232  1.00  0.00     0.012 A 
ATOM      4  C   UNL     1      -3.764 -17.210  34.777  1.00  0.00     0.047 A 
ATOM      5  C   UNL     1      -3.252 -18.715  32.953  1.00  0.00     0.047 A 
ATOM      6  C   UNL     1      -2.925 -17.597  33.724  1.00  0.00     0.115 A 
ENDROOT
BRANCH   1   7
ATOM      7  C   UNL     1      -6.473 -19.884  34.546  1.00  0.00     0.010 C 
ATOM      8  C   UNL     1      -6.799 -20.981  33.849  1.00  0.00     0.025 C 
BRANCH   8   9
ATOM      9  C   UNL     1      -8.027 -21.741  34.124  1.00  0.00     0.064 C 
ATOM     10  O   UNL     1      -7.956 -22.829  34.754  1.00  0.00    -0.545 OA
ATOM     11  O   UNL     1      -9.268 -21.277  33.703  1.00  0.00    -0.545 OA
ENDBRANCH   8   9
ENDBRANCH   1   7
BRANCH   6  12
ATOM     12  O   UNL     1      -1.768 -16.875  33.435  1.00  0.00    -0.508 OA
ATOM     13  H   UNL     1      -1.424 -16.784  32.486  1.00  0.00     0.293 HD
ENDBRANCH   6  12
TORSDOF 3
ENDMDL
MODEL 9
REMARK VINA RESULT:    -4.169      2.210      5.976
REMARK INTER + INTRA:          -4.915
REMARK INTER:                  -4.779
REMARK INTRA:                  -0.136
REMARK UNBOUND:                -0.137
REMARK SMILES O=C([O-])C=Cc1ccc(O)cc1
REMARK SMILES IDX 6 1 7 2 12 3 8 4 11 5 9 6 5 7 4 8 2 9 1 10 3 11 10 12
REMARK H PARENT 10 13
REMARK Flexibility Score: inf
ROOT
ATOM      1  C   UNL     1      -7.917 -23.207  35.692  1.00  0.00    -0.025 A 
ATOM      2  C   UNL     1      -8.253 -22.386  34.595  1.00  0.00     0.012 A 
ATOM      3  C   UNL     1      -7.537 -22.599  36.901  1.00  0.00     0.012 A 
ATOM      4  C   UNL     1      -8.230 -20.994  34.720  1.00  0.00     0.047 A 
ATOM      5  C   UNL     1      -7.516 -21.207  37.022  1.00  0.00     0.047 A 
ATOM      6  C   UNL     1      -7.864 -20.401  35.935  1.00  0.00     0.115 A 
ENDROOT
BRANCH   1   7
ATOM      7  C   UNL     1      -7.913 -24.689  35.610  1.00  0.00     0.010 C 
ATOM      8  C   UNL     1      -8.794 -25.473  36.247  1.00  0.00     0.025 C 
BRANCH   8   9
ATOM      9  C   UNL     1      -8.745 -26.939  36.146  1.00  0.00     0.064 C 
ATOM     10  O   UNL     1      -8.024 -27.594  36.943  1.00  0.00    -0.545 OA
ATOM     11  O   UNL     1      -9.486 -27.617  35.184  1.00  0.00    -0.545 OA
ENDBRANCH   8   9
ENDBRANCH   1   7
BRANCH   6  12
ATOM     12  O   UNL     1      -7.839 -19.014  36.070  1.00  0.00    -0.508 OA
ATOM     13  H   UNL     1      -8.522 -18.425  35.609  1.00  0.00     0.293 HD
ENDBRANCH   6  12
TORSDOF 3
ENDMDL
