MODEL 1
REMARK VINA RESULT:    -3.510      0.000      0.000
REMARK INTER + INTRA:          -9.350
REMARK INTER:                  -6.587
REMARK INTRA:                  -2.763
REMARK UNBOUND:                -2.763
REMARK SMILES CCCCCCCCC=CCCCCCCCC(=O)[O-]
REMARK SMILES IDX 10 1 9 2 11 3 12 4 13 5 14 6 15 7 16 8 17 9 18 10 19 11
REMARK SMILES IDX 20 12 8 13 7 14 6 15 5 16 4 17 3 18 2 19 1 20
REMARK H PARENT
REMARK Flexibility Score: inf
ROOT
ATOM      1  C   UNL     1     149.420  -4.030   6.564  1.00  0.00    -0.031 C 
ATOM      2  C   UNL     1     149.909  -3.042   5.799  1.00  0.00    -0.031 C 
ENDROOT
BRANCH   1   3
ATOM      3  C   UNL     1     150.189  -4.573   7.738  1.00  0.00     0.027 C 
BRANCH   3   4
ATOM      4  C   UNL     1     151.149  -3.535   8.340  1.00  0.00     0.004 C 
BRANCH   4   5
ATOM      5  C   UNL     1     150.563  -2.861   9.589  1.00  0.00     0.000 C 
BRANCH   5   6
ATOM      6  C   UNL     1     149.898  -1.523   9.231  1.00  0.00     0.000 C 
BRANCH   6   7
ATOM      7  C   UNL     1     148.362  -1.609   9.186  1.00  0.00     0.000 C 
BRANCH   7   8
ATOM      8  C   UNL     1     147.696  -0.749   8.096  1.00  0.00     0.006 C 
BRANCH   8   9
ATOM      9  C   UNL     1     146.670  -1.529   7.263  1.00  0.00     0.053 C 
BRANCH   9  10
ATOM     10  C   UNL     1     145.342  -1.541   7.950  1.00  0.00     0.041 C 
ATOM     11  O   UNL     1     144.490  -2.423   7.666  1.00  0.00    -0.550 OA
ATOM     12  O   UNL     1     145.025  -0.549   8.869  1.00  0.00    -0.550 OA
ENDBRANCH   9  10
ENDBRANCH   8   9
ENDBRANCH   7   8
ENDBRANCH   6   7
ENDBRANCH   5   6
ENDBRANCH   4   5
ENDBRANCH   3   4
ENDBRANCH   1   3
BRANCH   2  13
ATOM     13  C   UNL     1     149.162  -2.529   4.598  1.00  0.00     0.027 C 
BRANCH  13  14
ATOM     14  C   UNL     1     149.446  -1.043   4.349  1.00  0.00     0.004 C 
BRANCH  14  15
ATOM     15  C   UNL     1     149.752  -0.750   2.872  1.00  0.00     0.000 C 
BRANCH  15  16
ATOM     16  C   UNL     1     151.257  -0.855   2.592  1.00  0.00     0.000 C 
BRANCH  16  17
ATOM     17  C   UNL     1     152.075  -0.292   3.764  1.00  0.00    -0.000 C 
BRANCH  17  18
ATOM     18  C   UNL     1     153.125  -1.300   4.280  1.00  0.00    -0.000 C 
BRANCH  18  19
ATOM     19  C   UNL     1     153.073  -1.519   5.801  1.00  0.00    -0.003 C 
ATOM     20  C   UNL     1     152.480  -0.333   6.557  1.00  0.00     0.004 C 
ENDBRANCH  18  19
ENDBRANCH  17  18
ENDBRANCH  16  17
ENDBRANCH  15  16
ENDBRANCH  14  15
ENDBRANCH  13  14
ENDBRANCH   2  13
TORSDOF 15
ENDMDL
MODEL 2
REMARK VINA RESULT:    -3.490      1.918      3.198
REMARK INTER + INTRA:          -9.314
REMARK INTER:                  -6.626
REMARK INTRA:                  -2.688
REMARK UNBOUND:                -2.763
REMARK SMILES CCCCCCCCC=CCCCCCCCC(=O)[O-]
REMARK SMILES IDX 10 1 9 2 11 3 12 4 13 5 14 6 15 7 16 8 17 9 18 10 19 11
REMARK SMILES IDX 20 12 8 13 7 14 6 15 5 16 4 17 3 18 2 19 1 20
REMARK H PARENT
REMARK Flexibility Score: inf
ROOT
ATOM      1  C   UNL     1     150.145  -3.770   5.790  1.00  0.00    -0.031 C 
ATOM      2  C   UNL     1     149.339  -2.856   5.228  1.00  0.00    -0.031 C 
ENDROOT
BRANCH   1   3
ATOM      3  C   UNL     1     149.664  -5.163   6.098  1.00  0.00     0.027 C 
BRANCH   3   4
ATOM      4  C   UNL     1     149.100  -5.286   7.521  1.00  0.00     0.004 C 
BRANCH   4   5
ATOM      5  C   UNL     1     149.875  -4.423   8.528  1.00  0.00     0.000 C 
BRANCH   5   6
ATOM      6  C   UNL     1     148.922  -3.525   9.331  1.00  0.00     0.000 C 
BRANCH   6   7
ATOM      7  C   UNL     1     147.574  -3.298   8.626  1.00  0.00     0.000 C 
BRANCH   7   8
ATOM      8  C   UNL     1     147.169  -1.822   8.456  1.00  0.00     0.006 C 
BRANCH   8   9
ATOM      9  C   UNL     1     146.305  -1.578   7.212  1.00  0.00     0.053 C 
BRANCH   9  10
ATOM     10  C   UNL     1     144.854  -1.596   7.573  1.00  0.00     0.041 C 
ATOM     11  O   UNL     1     144.076  -2.425   7.033  1.00  0.00    -0.550 OA
ATOM     12  O   UNL     1     144.350  -0.663   8.471  1.00  0.00    -0.550 OA
ENDBRANCH   9  10
ENDBRANCH   8   9
ENDBRANCH   7   8
ENDBRANCH   6   7
ENDBRANCH   5   6
ENDBRANCH   4   5
ENDBRANCH   3   4
ENDBRANCH   1   3
BRANCH   2  13
ATOM     13  C   UNL     1     149.805  -1.451   4.960  1.00  0.00     0.027 C 
BRANCH  13  14
ATOM     14  C   UNL     1     151.259  -1.243   5.403  1.00  0.00     0.004 C 
BRANCH  14  15
ATOM     15  C   UNL     1     151.389  -0.149   6.473  1.00  0.00     0.000 C 
BRANCH  15  16
ATOM     16  C   UNL     1     150.555  -0.492   7.714  1.00  0.00     0.000 C 
BRANCH  16  17
ATOM     17  C   UNL     1     149.870   0.761   8.280  1.00  0.00    -0.000 C 
BRANCH  17  18
ATOM     18  C   UNL     1     148.751   1.283   7.353  1.00  0.00    -0.000 C 
BRANCH  18  19
ATOM     19  C   UNL     1     148.570   2.810   7.405  1.00  0.00    -0.003 C 
ATOM     20  C   UNL     1     149.880   3.561   7.631  1.00  0.00     0.004 C 
ENDBRANCH  18  19
ENDBRANCH  17  18
ENDBRANCH  16  17
ENDBRANCH  15  16
ENDBRANCH  14  15
ENDBRANCH  13  14
ENDBRANCH   2  13
TORSDOF 15
ENDMDL
MODEL 3
REMARK VINA RESULT:    -3.376      1.353      3.375
REMARK INTER + INTRA:          -9.098
REMARK INTER:                  -7.060
REMARK INTRA:                  -2.038
REMARK UNBOUND:                -2.763
REMARK SMILES CCCCCCCCC=CCCCCCCCC(=O)[O-]
REMARK SMILES IDX 10 1 9 2 11 3 12 4 13 5 14 6 15 7 16 8 17 9 18 10 19 11
REMARK SMILES IDX 20 12 8 13 7 14 6 15 5 16 4 17 3 18 2 19 1 20
REMARK H PARENT
REMARK Flexibility Score: inf
ROOT
ATOM      1  C   UNL     1     151.042  -1.885   9.313  1.00  0.00    -0.031 C 
ATOM      2  C   UNL     1     151.472  -2.210   8.084  1.00  0.00    -0.031 C 
ENDROOT
BRANCH   1   3
ATOM      3  C   UNL     1     150.851  -0.450   9.727  1.00  0.00     0.027 C 
BRANCH   3   4
ATOM      4  C   UNL     1     150.456   0.452   8.549  1.00  0.00     0.004 C 
BRANCH   4   5
ATOM      5  C   UNL     1     149.158   1.227   8.823  1.00  0.00     0.000 C 
BRANCH   5   6
ATOM      6  C   UNL     1     147.928   0.331   8.610  1.00  0.00     0.000 C 
BRANCH   6   7
ATOM      7  C   UNL     1     147.941  -0.394   7.253  1.00  0.00     0.000 C 
BRANCH   7   8
ATOM      8  C   UNL     1     146.812  -1.422   7.055  1.00  0.00     0.006 C 
BRANCH   8   9
ATOM      9  C   UNL     1     145.946  -1.607   8.308  1.00  0.00     0.053 C 
BRANCH   9  10
ATOM     10  C   UNL     1     144.495  -1.518   7.958  1.00  0.00     0.041 C 
ATOM     11  O   UNL     1     143.829  -0.497   8.270  1.00  0.00    -0.550 OA
ATOM     12  O   UNL     1     143.865  -2.584   7.329  1.00  0.00    -0.550 OA
ENDBRANCH   9  10
ENDBRANCH   8   9
ENDBRANCH   7   8
ENDBRANCH   6   7
ENDBRANCH   5   6
ENDBRANCH   4   5
ENDBRANCH   3   4
ENDBRANCH   1   3
BRANCH   2  13
ATOM     13  C   UNL     1     151.706  -3.641   7.683  1.00  0.00     0.027 C 
BRANCH  13  14
ATOM     14  C   UNL     1     151.106  -3.946   6.305  1.00  0.00     0.004 C 
BRANCH  14  15
ATOM     15  C   UNL     1     149.611  -3.600   6.233  1.00  0.00     0.000 C 
BRANCH  15  16
ATOM     16  C   UNL     1     149.256  -2.978   4.876  1.00  0.00     0.000 C 
BRANCH  16  17
ATOM     17  C   UNL     1     149.979  -1.637   4.680  1.00  0.00    -0.000 C 
BRANCH  17  18
ATOM     18  C   UNL     1     149.485  -0.885   3.425  1.00  0.00    -0.000 C 
BRANCH  18  19
ATOM     19  C   UNL     1     150.607  -0.541   2.431  1.00  0.00    -0.003 C 
ATOM     20  C   UNL     1     151.997  -0.573   3.063  1.00  0.00     0.004 C 
ENDBRANCH  18  19
ENDBRANCH  17  18
ENDBRANCH  16  17
ENDBRANCH  15  16
ENDBRANCH  14  15
ENDBRANCH  13  14
ENDBRANCH   2  13
TORSDOF 15
ENDMDL
MODEL 4
REMARK VINA RESULT:    -3.285      1.553      2.260
REMARK INTER + INTRA:          -8.928
REMARK INTER:                  -6.767
REMARK INTRA:                  -2.160
REMARK UNBOUND:                -2.763
REMARK SMILES CCCCCCCCC=CCCCCCCCC(=O)[O-]
REMARK SMILES IDX 10 1 9 2 11 3 12 4 13 5 14 6 15 7 16 8 17 9 18 10 19 11
REMARK SMILES IDX 20 12 8 13 7 14 6 15 5 16 4 17 3 18 2 19 1 20
REMARK H PARENT
REMARK Flexibility Score: inf
ROOT
ATOM      1  C   UNL     1     148.699  -1.033   6.199  1.00  0.00    -0.031 C 
ATOM      2  C   UNL     1     149.008  -2.126   5.485  1.00  0.00    -0.031 C 
ENDROOT
BRANCH   1   3
ATOM      3  C   UNL     1     148.362  -1.116   7.664  1.00  0.00     0.027 C 
BRANCH   3   4
ATOM      4  C   UNL     1     148.898  -2.399   8.316  1.00  0.00     0.004 C 
BRANCH   4   5
ATOM      5  C   UNL     1     147.805  -3.161   9.080  1.00  0.00     0.000 C 
BRANCH   5   6
ATOM      6  C   UNL     1     147.585  -2.555  10.474  1.00  0.00     0.000 C 
BRANCH   6   7
ATOM      7  C   UNL     1     146.225  -1.850  10.615  1.00  0.00     0.000 C 
BRANCH   7   8
ATOM      8  C   UNL     1     145.096  -2.436   9.747  1.00  0.00     0.006 C 
BRANCH   8   9
ATOM      9  C   UNL     1     144.439  -1.391   8.836  1.00  0.00     0.053 C 
BRANCH   9  10
ATOM     10  C   UNL     1     144.256  -1.942   7.457  1.00  0.00     0.041 C 
ATOM     11  O   UNL     1     144.921  -1.477   6.495  1.00  0.00    -0.550 OA
ATOM     12  O   UNL     1     143.314  -2.937   7.226  1.00  0.00    -0.550 OA
ENDBRANCH   9  10
ENDBRANCH   8   9
ENDBRANCH   7   8
ENDBRANCH   6   7
ENDBRANCH   5   6
ENDBRANCH   4   5
ENDBRANCH   3   4
ENDBRANCH   1   3
BRANCH   2  13
ATOM     13  C   UNL     1     149.301  -2.051   4.011  1.00  0.00     0.027 C 
BRANCH  13  14
ATOM     14  C   UNL     1     149.599  -0.613   3.568  1.00  0.00     0.004 C 
BRANCH  14  15
ATOM     15  C   UNL     1     150.630  -0.559   2.430  1.00  0.00     0.000 C 
BRANCH  15  16
ATOM     16  C   UNL     1     152.022  -0.965   2.930  1.00  0.00     0.000 C 
BRANCH  16  17
ATOM     17  C   UNL     1     152.565   0.059   3.938  1.00  0.00    -0.000 C 
BRANCH  17  18
ATOM     18  C   UNL     1     152.907  -0.587   5.298  1.00  0.00    -0.000 C 
BRANCH  18  19
ATOM     19  C   UNL     1     152.789  -2.120   5.300  1.00  0.00    -0.003 C 
ATOM     20  C   UNL     1     152.377  -2.687   6.656  1.00  0.00     0.004 C 
ENDBRANCH  18  19
ENDBRANCH  17  18
ENDBRANCH  16  17
ENDBRANCH  15  16
ENDBRANCH  14  15
ENDBRANCH  13  14
ENDBRANCH   2  13
TORSDOF 15
ENDMDL
MODEL 5
REMARK VINA RESULT:    -3.224      1.455      3.277
REMARK INTER + INTRA:          -8.814
REMARK INTER:                  -6.471
REMARK INTRA:                  -2.343
REMARK UNBOUND:                -2.763
REMARK SMILES CCCCCCCCC=CCCCCCCCC(=O)[O-]
REMARK SMILES IDX 10 1 9 2 11 3 12 4 13 5 14 6 15 7 16 8 17 9 18 10 19 11
REMARK SMILES IDX 20 12 8 13 7 14 6 15 5 16 4 17 3 18 2 19 1 20
REMARK H PARENT
REMARK Flexibility Score: inf
ROOT
ATOM      1  C   UNL     1     149.682  -1.604   4.338  1.00  0.00    -0.031 C 
ATOM      2  C   UNL     1     151.009  -1.431   4.443  1.00  0.00    -0.031 C 
ENDROOT
BRANCH   1   3
ATOM      3  C   UNL     1     148.934  -2.541   5.248  1.00  0.00     0.027 C 
BRANCH   3   4
ATOM      4  C   UNL     1     149.780  -3.754   5.663  1.00  0.00     0.004 C 
BRANCH   4   5
ATOM      5  C   UNL     1     149.430  -4.247   7.075  1.00  0.00     0.000 C 
BRANCH   5   6
ATOM      6  C   UNL     1     148.964  -3.085   7.964  1.00  0.00     0.000 C 
BRANCH   6   7
ATOM      7  C   UNL     1     147.947  -3.517   9.035  1.00  0.00     0.000 C 
BRANCH   7   8
ATOM      8  C   UNL     1     146.861  -2.474   9.358  1.00  0.00     0.006 C 
BRANCH   8   9
ATOM      9  C   UNL     1     146.081  -2.020   8.118  1.00  0.00     0.053 C 
BRANCH   9  10
ATOM     10  C   UNL     1     144.632  -1.848   8.447  1.00  0.00     0.041 C 
ATOM     11  O   UNL     1     144.077  -0.728   8.300  1.00  0.00    -0.550 OA
ATOM     12  O   UNL     1     143.906  -2.913   8.965  1.00  0.00    -0.550 OA
ENDBRANCH   9  10
ENDBRANCH   8   9
ENDBRANCH   7   8
ENDBRANCH   6   7
ENDBRANCH   5   6
ENDBRANCH   4   5
ENDBRANCH   3   4
ENDBRANCH   1   3
BRANCH   2  13
ATOM     13  C   UNL     1     151.765  -0.529   3.506  1.00  0.00     0.027 C 
BRANCH  13  14
ATOM     14  C   UNL     1     153.000   0.079   4.181  1.00  0.00     0.004 C 
BRANCH  14  15
ATOM     15  C   UNL     1     153.125  -0.344   5.652  1.00  0.00     0.000 C 
BRANCH  15  16
ATOM     16  C   UNL     1     152.866   0.842   6.590  1.00  0.00     0.000 C 
BRANCH  16  17
ATOM     17  C   UNL     1     152.346   0.363   7.953  1.00  0.00    -0.000 C 
BRANCH  17  18
ATOM     18  C   UNL     1     150.866  -0.071   7.894  1.00  0.00    -0.000 C 
BRANCH  18  19
ATOM     19  C   UNL     1     149.899   1.079   7.565  1.00  0.00    -0.003 C 
ATOM     20  C   UNL     1     148.517   0.594   7.135  1.00  0.00     0.004 C 
ENDBRANCH  18  19
ENDBRANCH  17  18
ENDBRANCH  16  17
ENDBRANCH  15  16
ENDBRANCH  14  15
ENDBRANCH  13  14
ENDBRANCH   2  13
TORSDOF 15
ENDMDL
MODEL 6
REMARK VINA RESULT:    -3.170      1.248      2.907
REMARK INTER + INTRA:          -8.712
REMARK INTER:                  -6.237
REMARK INTRA:                  -2.475
REMARK UNBOUND:                -2.763
REMARK SMILES CCCCCCCCC=CCCCCCCCC(=O)[O-]
REMARK SMILES IDX 10 1 9 2 11 3 12 4 13 5 14 6 15 7 16 8 17 9 18 10 19 11
REMARK SMILES IDX 20 12 8 13 7 14 6 15 5 16 4 17 3 18 2 19 1 20
REMARK H PARENT
REMARK Flexibility Score: inf
ROOT
ATOM      1  C   UNL     1     151.837  -3.747   9.072  1.00  0.00    -0.031 C 
ATOM      2  C   UNL     1     151.745  -3.511   7.755  1.00  0.00    -0.031 C 
ENDROOT
BRANCH   1   3
ATOM      3  C   UNL     1     151.348  -2.750  10.088  1.00  0.00     0.027 C 
BRANCH   3   4
ATOM      4  C   UNL     1     150.388  -1.717   9.480  1.00  0.00     0.004 C 
BRANCH   4   5
ATOM      5  C   UNL     1     148.959  -1.866  10.023  1.00  0.00     0.000 C 
BRANCH   5   6
ATOM      6  C   UNL     1     148.317  -3.171   9.530  1.00  0.00     0.000 C 
BRANCH   6   7
ATOM      7  C   UNL     1     147.017  -2.940   8.740  1.00  0.00     0.000 C 
BRANCH   7   8
ATOM      8  C   UNL     1     146.800  -1.494   8.254  1.00  0.00     0.006 C 
BRANCH   8   9
ATOM      9  C   UNL     1     145.834  -1.402   7.066  1.00  0.00     0.053 C 
BRANCH   9  10
ATOM     10  C   UNL     1     144.423  -1.596   7.524  1.00  0.00     0.041 C 
ATOM     11  O   UNL     1     143.811  -2.662   7.255  1.00  0.00    -0.550 OA
ATOM     12  O   UNL     1     143.768  -0.578   8.205  1.00  0.00    -0.550 OA
ENDBRANCH   9  10
ENDBRANCH   8   9
ENDBRANCH   7   8
ENDBRANCH   6   7
ENDBRANCH   5   6
ENDBRANCH   4   5
ENDBRANCH   3   4
ENDBRANCH   1   3
BRANCH   2  13
ATOM     13  C   UNL     1     152.273  -4.487   6.739  1.00  0.00     0.027 C 
BRANCH  13  14
ATOM     14  C   UNL     1     151.151  -5.045   5.855  1.00  0.00     0.004 C 
BRANCH  14  15
ATOM     15  C   UNL     1     149.779  -4.460   6.220  1.00  0.00     0.000 C 
BRANCH  15  16
ATOM     16  C   UNL     1     149.241  -3.572   5.091  1.00  0.00     0.000 C 
BRANCH  16  17
ATOM     17  C   UNL     1     149.274  -2.090   5.492  1.00  0.00    -0.000 C 
BRANCH  17  18
ATOM     18  C   UNL     1     149.736  -1.181   4.333  1.00  0.00    -0.000 C 
BRANCH  18  19
ATOM     19  C   UNL     1     151.263  -1.133   4.159  1.00  0.00    -0.003 C 
ATOM     20  C   UNL     1     152.002  -0.790   5.449  1.00  0.00     0.004 C 
ENDBRANCH  18  19
ENDBRANCH  17  18
ENDBRANCH  16  17
ENDBRANCH  15  16
ENDBRANCH  14  15
ENDBRANCH  13  14
ENDBRANCH   2  13
TORSDOF 15
ENDMDL
MODEL 7
REMARK VINA RESULT:    -3.154      9.062     10.942
REMARK INTER + INTRA:          -8.683
REMARK INTER:                  -7.032
REMARK INTRA:                  -1.651
REMARK UNBOUND:                -2.763
REMARK SMILES CCCCCCCCC=CCCCCCCCC(=O)[O-]
REMARK SMILES IDX 10 1 9 2 11 3 12 4 13 5 14 6 15 7 16 8 17 9 18 10 19 11
REMARK SMILES IDX 20 12 8 13 7 14 6 15 5 16 4 17 3 18 2 19 1 20
REMARK H PARENT
REMARK Flexibility Score: inf
ROOT
ATOM      1  C   UNL     1     149.525   8.863   1.933  1.00  0.00    -0.031 C 
ATOM      2  C   UNL     1     149.008  10.006   1.458  1.00  0.00    -0.031 C 
ENDROOT
BRANCH   1   3
ATOM      3  C   UNL     1     150.974   8.756   2.327  1.00  0.00     0.027 C 
BRANCH   3   4
ATOM      4  C   UNL     1     151.158   8.140   3.722  1.00  0.00     0.004 C 
BRANCH   4   5
ATOM      5  C   UNL     1     150.344   8.881   4.793  1.00  0.00     0.000 C 
BRANCH   5   6
ATOM      6  C   UNL     1     149.433   7.911   5.560  1.00  0.00     0.000 C 
BRANCH   6   7
ATOM      7  C   UNL     1     149.618   6.446   5.129  1.00  0.00     0.000 C 
BRANCH   7   8
ATOM      8  C   UNL     1     150.078   5.493   6.248  1.00  0.00     0.006 C 
BRANCH   8   9
ATOM      9  C   UNL     1     149.148   5.509   7.468  1.00  0.00     0.053 C 
BRANCH   9  10
ATOM     10  C   UNL     1     148.149   4.400   7.377  1.00  0.00     0.041 C 
ATOM     11  O   UNL     1     148.417   3.357   6.725  1.00  0.00    -0.550 OA
ATOM     12  O   UNL     1     146.900   4.538   7.970  1.00  0.00    -0.550 OA
ENDBRANCH   9  10
ENDBRANCH   8   9
ENDBRANCH   7   8
ENDBRANCH   6   7
ENDBRANCH   5   6
ENDBRANCH   4   5
ENDBRANCH   3   4
ENDBRANCH   1   3
BRANCH   2  13
ATOM     13  C   UNL     1     147.571  10.102   1.021  1.00  0.00     0.027 C 
BRANCH  13  14
ATOM     14  C   UNL     1     147.323   9.325  -0.278  1.00  0.00     0.004 C 
BRANCH  14  15
ATOM     15  C   UNL     1     148.180   9.850  -1.440  1.00  0.00     0.000 C 
BRANCH  15  16
ATOM     16  C   UNL     1     148.318   8.792  -2.542  1.00  0.00     0.000 C 
BRANCH  16  17
ATOM     17  C   UNL     1     149.794   8.454  -2.798  1.00  0.00    -0.000 C 
BRANCH  17  18
ATOM     18  C   UNL     1     150.653   8.585  -1.522  1.00  0.00    -0.000 C 
BRANCH  18  19
ATOM     19  C   UNL     1     152.010   7.868  -1.616  1.00  0.00    -0.003 C 
ATOM     20  C   UNL     1     152.081   6.605  -0.761  1.00  0.00     0.004 C 
ENDBRANCH  18  19
ENDBRANCH  17  18
ENDBRANCH  16  17
ENDBRANCH  15  16
ENDBRANCH  14  15
ENDBRANCH  13  14
ENDBRANCH   2  13
TORSDOF 15
ENDMDL
MODEL 8
REMARK VINA RESULT:    -3.118      8.875     10.701
REMARK INTER + INTRA:          -8.615
REMARK INTER:                  -7.154
REMARK INTRA:                  -1.461
REMARK UNBOUND:                -2.763
REMARK SMILES CCCCCCCCC=CCCCCCCCC(=O)[O-]
REMARK SMILES IDX 10 1 9 2 11 3 12 4 13 5 14 6 15 7 16 8 17 9 18 10 19 11
REMARK SMILES IDX 20 12 8 13 7 14 6 15 5 16 4 17 3 18 2 19 1 20
REMARK H PARENT
REMARK Flexibility Score: inf
ROOT
ATOM      1  C   UNL     1     149.059   9.522   1.332  1.00  0.00    -0.031 C 
ATOM      2  C   UNL     1     147.771   9.694   0.996  1.00  0.00    -0.031 C 
ENDROOT
BRANCH   1   3
ATOM      3  C   UNL     1     149.543   9.740   2.740  1.00  0.00     0.027 C 
BRANCH   3   4
ATOM      4  C   UNL     1     150.187   8.480   3.340  1.00  0.00     0.004 C 
BRANCH   4   5
ATOM      5  C   UNL     1     149.456   8.002   4.603  1.00  0.00     0.000 C 
BRANCH   5   6
ATOM      6  C   UNL     1     150.098   6.722   5.158  1.00  0.00     0.000 C 
BRANCH   6   7
ATOM      7  C   UNL     1     149.376   6.179   6.404  1.00  0.00     0.000 C 
BRANCH   7   8
ATOM      8  C   UNL     1     149.641   4.694   6.713  1.00  0.00     0.006 C 
BRANCH   8   9
ATOM      9  C   UNL     1     148.356   3.899   6.975  1.00  0.00     0.053 C 
BRANCH   9  10
ATOM     10  C   UNL     1     148.675   2.589   7.622  1.00  0.00     0.041 C 
ATOM     11  O   UNL     1     147.859   2.060   8.421  1.00  0.00    -0.550 OA
ATOM     12  O   UNL     1     149.898   1.975   7.381  1.00  0.00    -0.550 OA
ENDBRANCH   9  10
ENDBRANCH   8   9
ENDBRANCH   7   8
ENDBRANCH   6   7
ENDBRANCH   5   6
ENDBRANCH   4   5
ENDBRANCH   3   4
ENDBRANCH   1   3
BRANCH   2  13
ATOM     13  C   UNL     1     147.294   9.521  -0.420  1.00  0.00     0.027 C 
BRANCH  13  14
ATOM     14  C   UNL     1     148.406   9.825  -1.432  1.00  0.00     0.004 C 
BRANCH  14  15
ATOM     15  C   UNL     1     148.437   8.808  -2.583  1.00  0.00     0.000 C 
BRANCH  15  16
ATOM     16  C   UNL     1     149.880   8.440  -2.951  1.00  0.00     0.000 C 
BRANCH  16  17
ATOM     17  C   UNL     1     150.836   8.724  -1.782  1.00  0.00    -0.000 C 
BRANCH  17  18
ATOM     18  C   UNL     1     151.436   7.431  -1.191  1.00  0.00    -0.000 C 
BRANCH  18  19
ATOM     19  C   UNL     1     151.996   7.605   0.231  1.00  0.00    -0.003 C 
ATOM     20  C   UNL     1     152.639   8.971   0.457  1.00  0.00     0.004 C 
ENDBRANCH  18  19
ENDBRANCH  17  18
ENDBRANCH  16  17
ENDBRANCH  15  16
ENDBRANCH  14  15
ENDBRANCH  13  14
ENDBRANCH   2  13
TORSDOF 15
ENDMDL
MODEL 9
REMARK VINA RESULT:    -3.048      1.795      3.022
REMARK INTER + INTRA:          -8.484
REMARK INTER:                  -5.661
REMARK INTRA:                  -2.823
REMARK UNBOUND:                -2.763
REMARK SMILES CCCCCCCCC=CCCCCCCCC(=O)[O-]
REMARK SMILES IDX 10 1 9 2 11 3 12 4 13 5 14 6 15 7 16 8 17 9 18 10 19 11
REMARK SMILES IDX 20 12 8 13 7 14 6 15 5 16 4 17 3 18 2 19 1 20
REMARK H PARENT
REMARK Flexibility Score: inf
ROOT
ATOM      1  C   UNL     1     149.339  -3.526   5.794  1.00  0.00    -0.031 C 
ATOM      2  C   UNL     1     150.151  -2.639   5.198  1.00  0.00    -0.031 C 
ENDROOT
BRANCH   1   3
ATOM      3  C   UNL     1     149.791  -4.929   6.099  1.00  0.00     0.027 C 
BRANCH   3   4
ATOM      4  C   UNL     1     149.443  -5.357   7.532  1.00  0.00     0.004 C 
BRANCH   4   5
ATOM      5  C   UNL     1     149.157  -4.154   8.443  1.00  0.00     0.000 C 
BRANCH   5   6
ATOM      6  C   UNL     1     147.855  -4.358   9.231  1.00  0.00     0.000 C 
BRANCH   6   7
ATOM      7  C   UNL     1     147.376  -3.081   9.942  1.00  0.00     0.000 C 
BRANCH   7   8
ATOM      8  C   UNL     1     145.946  -2.635   9.585  1.00  0.00     0.006 C 
BRANCH   8   9
ATOM      9  C   UNL     1     145.869  -1.891   8.246  1.00  0.00     0.053 C 
BRANCH   9  10
ATOM     10  C   UNL     1     144.446  -1.761   7.802  1.00  0.00     0.041 C 
ATOM     11  O   UNL     1     143.849  -2.745   7.293  1.00  0.00    -0.550 OA
ATOM     12  O   UNL     1     143.795  -0.538   7.906  1.00  0.00    -0.550 OA
ENDBRANCH   9  10
ENDBRANCH   8   9
ENDBRANCH   7   8
ENDBRANCH   6   7
ENDBRANCH   5   6
ENDBRANCH   4   5
ENDBRANCH   3   4
ENDBRANCH   1   3
BRANCH   2  13
ATOM     13  C   UNL     1     149.687  -1.251   4.852  1.00  0.00     0.027 C 
BRANCH  13  14
ATOM     14  C   UNL     1     148.904  -0.613   6.006  1.00  0.00     0.004 C 
BRANCH  14  15
ATOM     15  C   UNL     1     149.831  -0.002   7.068  1.00  0.00     0.000 C 
BRANCH  15  16
ATOM     16  C   UNL     1     149.300  -0.271   8.481  1.00  0.00     0.000 C 
BRANCH  16  17
ATOM     17  C   UNL     1     150.377  -0.926   9.359  1.00  0.00    -0.000 C 
BRANCH  17  18
ATOM     18  C   UNL     1     151.722  -1.076   8.616  1.00  0.00    -0.000 C 
BRANCH  18  19
ATOM     19  C   UNL     1     152.350  -2.474   8.755  1.00  0.00    -0.003 C 
ATOM     20  C   UNL     1     152.882  -3.024   7.434  1.00  0.00     0.004 C 
ENDBRANCH  18  19
ENDBRANCH  17  18
ENDBRANCH  16  17
ENDBRANCH  15  16
ENDBRANCH  14  15
ENDBRANCH  13  14
ENDBRANCH   2  13
TORSDOF 15
ENDMDL
