MODEL 1
REMARK VINA RESULT:    -4.566      0.000      0.000
REMARK INTER + INTRA:         -13.235
REMARK INTER:                  -9.905
REMARK INTRA:                  -3.330
REMARK UNBOUND:                -3.330
REMARK SMILES CCCCCCCCCCCCCCCCCCCCCC(=O)[O-]
REMARK SMILES IDX 12 1 11 2 10 3 9 4 8 5 7 6 6 7 5 8 4 9 3 10 2 11 1 12 13 13
REMARK SMILES IDX 14 14 15 15 16 16 17 17 18 18 19 19 20 20 21 21 22 22 23 23
REMARK SMILES IDX 24 24
REMARK H PARENT
REMARK Flexibility Score: inf
ROOT
ATOM      1  C   UNL     1      47.155  34.481 -13.005  1.00  0.00     0.000 C 
ENDROOT
BRANCH   1   2
ATOM      2  C   UNL     1      47.860  35.747 -12.481  1.00  0.00     0.000 C 
BRANCH   2   3
ATOM      3  C   UNL     1      49.299  35.888 -12.997  1.00  0.00     0.000 C 
BRANCH   3   4
ATOM      4  C   UNL     1      49.519  37.270 -13.633  1.00  0.00    -0.000 C 
BRANCH   4   5
ATOM      5  C   UNL     1      50.920  37.423 -14.250  1.00  0.00    -0.000 C 
BRANCH   5   6
ATOM      6  C   UNL     1      50.878  37.556 -15.782  1.00  0.00    -0.000 C 
BRANCH   6   7
ATOM      7  C   UNL     1      51.097  36.213 -16.503  1.00  0.00    -0.000 C 
BRANCH   7   8
ATOM      8  C   UNL     1      49.873  35.671 -17.269  1.00  0.00    -0.000 C 
BRANCH   8   9
ATOM      9  C   UNL     1      48.959  34.733 -16.460  1.00  0.00    -0.000 C 
BRANCH   9  10
ATOM     10  C   UNL     1      47.482  35.145 -16.517  1.00  0.00    -0.000 C 
BRANCH  10  11
ATOM     11  C   UNL     1      47.319  36.514 -17.187  1.00  0.00    -0.003 C 
ATOM     12  C   UNL     1      46.877  37.571 -16.181  1.00  0.00     0.004 C 
ENDBRANCH  10  11
ENDBRANCH   9  10
ENDBRANCH   8   9
ENDBRANCH   7   8
ENDBRANCH   6   7
ENDBRANCH   5   6
ENDBRANCH   4   5
ENDBRANCH   3   4
ENDBRANCH   2   3
ENDBRANCH   1   2
BRANCH   1  13
ATOM     13  C   UNL     1      45.625  34.599 -13.144  1.00  0.00     0.000 C 
BRANCH  13  14
ATOM     14  C   UNL     1      45.107  36.008 -13.493  1.00  0.00     0.000 C 
BRANCH  14  15
ATOM     15  C   UNL     1      43.668  36.283 -13.005  1.00  0.00     0.000 C 
BRANCH  15  16
ATOM     16  C   UNL     1      43.569  37.553 -12.142  1.00  0.00     0.000 C 
BRANCH  16  17
ATOM     17  C   UNL     1      44.905  37.892 -11.446  1.00  0.00     0.000 C 
BRANCH  17  18
ATOM     18  C   UNL     1      44.946  37.503  -9.956  1.00  0.00     0.000 C 
BRANCH  18  19
ATOM     19  C   UNL     1      43.625  36.950  -9.393  1.00  0.00     0.000 C 
BRANCH  19  20
ATOM     20  C   UNL     1      43.733  35.479  -8.957  1.00  0.00     0.006 C 
BRANCH  20  21
ATOM     21  C   UNL     1      44.871  35.258  -7.951  1.00  0.00     0.053 C 
BRANCH  21  22
ATOM     22  C   UNL     1      45.850  34.233  -8.433  1.00  0.00     0.041 C 
ATOM     23  O   UNL     1      46.349  34.325  -9.584  1.00  0.00    -0.550 OA
ATOM     24  O   UNL     1      46.235  33.192  -7.598  1.00  0.00    -0.550 OA
ENDBRANCH  21  22
ENDBRANCH  20  21
ENDBRANCH  19  20
ENDBRANCH  18  19
ENDBRANCH  17  18
ENDBRANCH  16  17
ENDBRANCH  15  16
ENDBRANCH  14  15
ENDBRANCH  13  14
ENDBRANCH   1  13
TORSDOF 20
ENDMDL
MODEL 2
REMARK VINA RESULT:    -4.467      2.777      7.595
REMARK INTER + INTRA:         -13.021
REMARK INTER:                  -9.122
REMARK INTRA:                  -3.899
REMARK UNBOUND:                -3.330
REMARK SMILES CCCCCCCCCCCCCCCCCCCCCC(=O)[O-]
REMARK SMILES IDX 12 1 11 2 10 3 9 4 8 5 7 6 6 7 5 8 4 9 3 10 2 11 1 12 13 13
REMARK SMILES IDX 14 14 15 15 16 16 17 17 18 18 19 19 20 20 21 21 22 22 23 23
REMARK SMILES IDX 24 24
REMARK H PARENT
REMARK Flexibility Score: inf
ROOT
ATOM      1  C   UNL     1      48.348  34.674 -13.597  1.00  0.00     0.000 C 
ENDROOT
BRANCH   1   2
ATOM      2  C   UNL     1      46.998  35.228 -14.092  1.00  0.00     0.000 C 
BRANCH   2   3
ATOM      3  C   UNL     1      45.792  34.541 -13.434  1.00  0.00     0.000 C 
BRANCH   3   4
ATOM      4  C   UNL     1      44.700  35.565 -13.089  1.00  0.00    -0.000 C 
BRANCH   4   5
ATOM      5  C   UNL     1      45.199  37.017 -13.180  1.00  0.00    -0.000 C 
BRANCH   5   6
ATOM      6  C   UNL     1      44.852  37.840 -11.928  1.00  0.00    -0.000 C 
BRANCH   6   7
ATOM      7  C   UNL     1      45.230  37.122 -10.619  1.00  0.00    -0.000 C 
BRANCH   7   8
ATOM      8  C   UNL     1      46.744  36.984 -10.359  1.00  0.00    -0.000 C 
BRANCH   8   9
ATOM      9  C   UNL     1      47.237  35.545 -10.121  1.00  0.00    -0.000 C 
BRANCH   9  10
ATOM     10  C   UNL     1      46.104  34.580  -9.750  1.00  0.00    -0.000 C 
BRANCH  10  11
ATOM     11  C   UNL     1      46.276  34.057  -8.319  1.00  0.00    -0.003 C 
ATOM     12  C   UNL     1      44.981  34.193  -7.523  1.00  0.00     0.004 C 
ENDBRANCH  10  11
ENDBRANCH   9  10
ENDBRANCH   8   9
ENDBRANCH   7   8
ENDBRANCH   6   7
ENDBRANCH   5   6
ENDBRANCH   4   5
ENDBRANCH   3   4
ENDBRANCH   2   3
ENDBRANCH   1   2
BRANCH   1  13
ATOM     13  C   UNL     1      49.358  35.742 -13.135  1.00  0.00     0.000 C 
BRANCH  13  14
ATOM     14  C   UNL     1      48.895  37.200 -13.312  1.00  0.00     0.000 C 
BRANCH  14  15
ATOM     15  C   UNL     1      49.959  38.121 -13.947  1.00  0.00     0.000 C 
BRANCH  15  16
ATOM     16  C   UNL     1      51.393  37.735 -13.542  1.00  0.00     0.000 C 
BRANCH  16  17
ATOM     17  C   UNL     1      52.268  37.377 -14.762  1.00  0.00     0.000 C 
BRANCH  17  18
ATOM     18  C   UNL     1      51.518  37.442 -16.106  1.00  0.00     0.000 C 
BRANCH  18  19
ATOM     19  C   UNL     1      51.181  36.076 -16.728  1.00  0.00     0.000 C 
BRANCH  19  20
ATOM     20  C   UNL     1      49.667  35.856 -16.895  1.00  0.00     0.006 C 
BRANCH  20  21
ATOM     21  C   UNL     1      48.958  37.107 -17.429  1.00  0.00     0.053 C 
BRANCH  21  22
ATOM     22  C   UNL     1      47.499  37.108 -17.092  1.00  0.00     0.041 C 
ATOM     23  O   UNL     1      46.725  36.270 -17.623  1.00  0.00    -0.550 OA
ATOM     24  O   UNL     1      46.999  38.016 -16.167  1.00  0.00    -0.550 OA
ENDBRANCH  21  22
ENDBRANCH  20  21
ENDBRANCH  19  20
ENDBRANCH  18  19
ENDBRANCH  17  18
ENDBRANCH  16  17
ENDBRANCH  15  16
ENDBRANCH  14  15
ENDBRANCH  13  14
ENDBRANCH   1  13
TORSDOF 20
ENDMDL
MODEL 3
REMARK VINA RESULT:    -4.427      1.234      2.893
REMARK INTER + INTRA:         -12.934
REMARK INTER:                  -9.969
REMARK INTRA:                  -2.965
REMARK UNBOUND:                -3.330
REMARK SMILES CCCCCCCCCCCCCCCCCCCCCC(=O)[O-]
REMARK SMILES IDX 12 1 11 2 10 3 9 4 8 5 7 6 6 7 5 8 4 9 3 10 2 11 1 12 13 13
REMARK SMILES IDX 14 14 15 15 16 16 17 17 18 18 19 19 20 20 21 21 22 22 23 23
REMARK SMILES IDX 24 24
REMARK H PARENT
REMARK Flexibility Score: inf
ROOT
ATOM      1  C   UNL     1      46.351  34.686 -13.791  1.00  0.00     0.000 C 
ENDROOT
BRANCH   1   2
ATOM      2  C   UNL     1      46.788  35.516 -15.013  1.00  0.00     0.000 C 
BRANCH   2   3
ATOM      3  C   UNL     1      47.653  34.719 -16.001  1.00  0.00     0.000 C 
BRANCH   3   4
ATOM      4  C   UNL     1      48.409  35.662 -16.950  1.00  0.00    -0.000 C 
BRANCH   4   5
ATOM      5  C   UNL     1      49.918  35.371 -16.997  1.00  0.00    -0.000 C 
BRANCH   5   6
ATOM      6  C   UNL     1      50.745  36.426 -16.243  1.00  0.00    -0.000 C 
BRANCH   6   7
ATOM      7  C   UNL     1      49.875  37.536 -15.626  1.00  0.00    -0.000 C 
BRANCH   7   8
ATOM      8  C   UNL     1      49.857  37.577 -14.085  1.00  0.00    -0.000 C 
BRANCH   8   9
ATOM      9  C   UNL     1      49.899  36.202 -13.395  1.00  0.00    -0.000 C 
BRANCH   9  10
ATOM     10  C   UNL     1      49.225  36.205 -12.016  1.00  0.00    -0.000 C 
BRANCH  10  11
ATOM     11  C   UNL     1      48.153  37.298 -11.933  1.00  0.00    -0.003 C 
ATOM     12  C   UNL     1      47.312  37.150 -10.668  1.00  0.00     0.004 C 
ENDBRANCH  10  11
ENDBRANCH   9  10
ENDBRANCH   8   9
ENDBRANCH   7   8
ENDBRANCH   6   7
ENDBRANCH   5   6
ENDBRANCH   4   5
ENDBRANCH   3   4
ENDBRANCH   2   3
ENDBRANCH   1   2
BRANCH   1  13
ATOM     13  C   UNL     1      45.234  35.320 -12.940  1.00  0.00     0.000 C 
BRANCH  13  14
ATOM     14  C   UNL     1      44.661  36.640 -13.492  1.00  0.00     0.000 C 
BRANCH  14  15
ATOM     15  C   UNL     1      43.928  37.493 -12.434  1.00  0.00     0.000 C 
BRANCH  15  16
ATOM     16  C   UNL     1      42.563  36.901 -12.041  1.00  0.00     0.000 C 
BRANCH  16  17
ATOM     17  C   UNL     1      41.917  37.656 -10.858  1.00  0.00     0.000 C 
BRANCH  17  18
ATOM     18  C   UNL     1      42.465  37.238  -9.481  1.00  0.00     0.000 C 
BRANCH  18  19
ATOM     19  C   UNL     1      43.076  35.826  -9.427  1.00  0.00     0.000 C 
BRANCH  19  20
ATOM     20  C   UNL     1      44.312  35.748  -8.515  1.00  0.00     0.006 C 
BRANCH  20  21
ATOM     21  C   UNL     1      45.292  34.655  -8.963  1.00  0.00     0.053 C 
BRANCH  21  22
ATOM     22  C   UNL     1      45.475  33.604  -7.913  1.00  0.00     0.041 C 
ATOM     23  O   UNL     1      44.483  33.175  -7.266  1.00  0.00    -0.550 OA
ATOM     24  O   UNL     1      46.736  33.076  -7.668  1.00  0.00    -0.550 OA
ENDBRANCH  21  22
ENDBRANCH  20  21
ENDBRANCH  19  20
ENDBRANCH  18  19
ENDBRANCH  17  18
ENDBRANCH  16  17
ENDBRANCH  15  16
ENDBRANCH  14  15
ENDBRANCH  13  14
ENDBRANCH   1  13
TORSDOF 20
ENDMDL
MODEL 4
REMARK VINA RESULT:    -4.366      2.126      7.677
REMARK INTER + INTRA:         -12.802
REMARK INTER:                  -9.897
REMARK INTRA:                  -2.905
REMARK UNBOUND:                -3.330
REMARK SMILES CCCCCCCCCCCCCCCCCCCCCC(=O)[O-]
REMARK SMILES IDX 12 1 11 2 10 3 9 4 8 5 7 6 6 7 5 8 4 9 3 10 2 11 1 12 13 13
REMARK SMILES IDX 14 14 15 15 16 16 17 17 18 18 19 19 20 20 21 21 22 22 23 23
REMARK SMILES IDX 24 24
REMARK H PARENT
REMARK Flexibility Score: inf
ROOT
ATOM      1  C   UNL     1      45.608  34.881 -13.384  1.00  0.00     0.000 C 
ENDROOT
BRANCH   1   2
ATOM      2  C   UNL     1      44.463  35.776 -12.875  1.00  0.00     0.000 C 
BRANCH   2   3
ATOM      3  C   UNL     1      44.741  37.274 -13.069  1.00  0.00     0.000 C 
BRANCH   3   4
ATOM      4  C   UNL     1      43.708  38.125 -12.315  1.00  0.00    -0.000 C 
BRANCH   4   5
ATOM      5  C   UNL     1      42.416  37.351 -12.004  1.00  0.00    -0.000 C 
BRANCH   5   6
ATOM      6  C   UNL     1      41.701  37.878 -10.748  1.00  0.00    -0.000 C 
BRANCH   6   7
ATOM      7  C   UNL     1      41.871  36.950  -9.531  1.00  0.00    -0.000 C 
BRANCH   7   8
ATOM      8  C   UNL     1      43.122  37.216  -8.671  1.00  0.00    -0.000 C 
BRANCH   8   9
ATOM      9  C   UNL     1      44.226  36.148  -8.776  1.00  0.00    -0.000 C 
BRANCH   9  10
ATOM     10  C   UNL     1      45.520  36.687  -9.400  1.00  0.00    -0.000 C 
BRANCH  10  11
ATOM     11  C   UNL     1      46.429  35.539  -9.856  1.00  0.00    -0.003 C 
ATOM     12  C   UNL     1      47.695  36.070 -10.522  1.00  0.00     0.004 C 
ENDBRANCH  10  11
ENDBRANCH   9  10
ENDBRANCH   8   9
ENDBRANCH   7   8
ENDBRANCH   6   7
ENDBRANCH   5   6
ENDBRANCH   4   5
ENDBRANCH   3   4
ENDBRANCH   2   3
ENDBRANCH   1   2
BRANCH   1  13
ATOM     13  C   UNL     1      46.761  35.632 -14.078  1.00  0.00     0.000 C 
BRANCH  13  14
ATOM     14  C   UNL     1      47.756  34.739 -14.843  1.00  0.00     0.000 C 
BRANCH  14  15
ATOM     15  C   UNL     1      47.530  34.719 -16.370  1.00  0.00     0.000 C 
BRANCH  15  16
ATOM     16  C   UNL     1      47.496  36.131 -16.981  1.00  0.00     0.000 C 
BRANCH  16  17
ATOM     17  C   UNL     1      48.893  36.788 -17.014  1.00  0.00     0.000 C 
BRANCH  17  18
ATOM     18  C   UNL     1      50.045  35.788 -17.229  1.00  0.00     0.000 C 
BRANCH  18  19
ATOM     19  C   UNL     1      51.383  36.193 -16.585  1.00  0.00     0.000 C 
BRANCH  19  20
ATOM     20  C   UNL     1      51.292  37.518 -15.809  1.00  0.00     0.006 C 
BRANCH  20  21
ATOM     21  C   UNL     1      51.629  37.341 -14.323  1.00  0.00     0.053 C 
BRANCH  21  22
ATOM     22  C   UNL     1      50.406  37.080 -13.500  1.00  0.00     0.041 C 
ATOM     23  O   UNL     1      49.434  37.878 -13.539  1.00  0.00    -0.550 OA
ATOM     24  O   UNL     1      50.327  35.938 -12.712  1.00  0.00    -0.550 OA
ENDBRANCH  21  22
ENDBRANCH  20  21
ENDBRANCH  19  20
ENDBRANCH  18  19
ENDBRANCH  17  18
ENDBRANCH  16  17
ENDBRANCH  15  16
ENDBRANCH  14  15
ENDBRANCH  13  14
ENDBRANCH   1  13
TORSDOF 20
ENDMDL
MODEL 5
REMARK VINA RESULT:    -4.311      1.329      2.681
REMARK INTER + INTRA:         -12.683
REMARK INTER:                  -9.314
REMARK INTRA:                  -3.369
REMARK UNBOUND:                -3.330
REMARK SMILES CCCCCCCCCCCCCCCCCCCCCC(=O)[O-]
REMARK SMILES IDX 12 1 11 2 10 3 9 4 8 5 7 6 6 7 5 8 4 9 3 10 2 11 1 12 13 13
REMARK SMILES IDX 14 14 15 15 16 16 17 17 18 18 19 19 20 20 21 21 22 22 23 23
REMARK SMILES IDX 24 24
REMARK H PARENT
REMARK Flexibility Score: inf
ROOT
ATOM      1  C   UNL     1      44.452  36.135 -13.322  1.00  0.00     0.000 C 
ENDROOT
BRANCH   1   2
ATOM      2  C   UNL     1      45.120  37.298 -14.081  1.00  0.00     0.000 C 
BRANCH   2   3
ATOM      3  C   UNL     1      46.459  37.726 -13.463  1.00  0.00     0.000 C 
BRANCH   3   4
ATOM      4  C   UNL     1      47.310  36.500 -13.097  1.00  0.00    -0.000 C 
BRANCH   4   5
ATOM      5  C   UNL     1      48.638  36.880 -12.421  1.00  0.00    -0.000 C 
BRANCH   5   6
ATOM      6  C   UNL     1      49.840  36.133 -13.023  1.00  0.00    -0.000 C 
BRANCH   6   7
ATOM      7  C   UNL     1      50.749  37.047 -13.865  1.00  0.00    -0.000 C 
BRANCH   7   8
ATOM      8  C   UNL     1      50.568  36.928 -15.391  1.00  0.00    -0.000 C 
BRANCH   8   9
ATOM      9  C   UNL     1      49.385  37.724 -15.972  1.00  0.00    -0.000 C 
BRANCH   9  10
ATOM     10  C   UNL     1      48.540  36.902 -16.956  1.00  0.00    -0.000 C 
BRANCH  10  11
ATOM     11  C   UNL     1      48.810  35.402 -16.792  1.00  0.00    -0.003 C 
ATOM     12  C   UNL     1      47.612  34.690 -16.173  1.00  0.00     0.004 C 
ENDBRANCH  10  11
ENDBRANCH   9  10
ENDBRANCH   8   9
ENDBRANCH   7   8
ENDBRANCH   6   7
ENDBRANCH   5   6
ENDBRANCH   4   5
ENDBRANCH   3   4
ENDBRANCH   2   3
ENDBRANCH   1   2
BRANCH   1  13
ATOM     13  C   UNL     1      43.027  36.425 -12.813  1.00  0.00     0.000 C 
BRANCH  13  14
ATOM     14  C   UNL     1      42.867  37.743 -12.032  1.00  0.00     0.000 C 
BRANCH  14  15
ATOM     15  C   UNL     1      41.738  37.712 -10.979  1.00  0.00     0.000 C 
BRANCH  15  16
ATOM     16  C   UNL     1      42.254  37.969  -9.552  1.00  0.00     0.000 C 
BRANCH  16  17
ATOM     17  C   UNL     1      43.353  36.967  -9.139  1.00  0.00     0.000 C 
BRANCH  17  18
ATOM     18  C   UNL     1      44.738  37.611  -8.937  1.00  0.00     0.000 C 
BRANCH  18  19
ATOM     19  C   UNL     1      45.893  36.908  -9.671  1.00  0.00     0.000 C 
BRANCH  19  20
ATOM     20  C   UNL     1      45.574  35.443 -10.017  1.00  0.00     0.006 C 
BRANCH  20  21
ATOM     21  C   UNL     1      46.340  34.459  -9.124  1.00  0.00     0.053 C 
BRANCH  21  22
ATOM     22  C   UNL     1      45.466  33.875  -8.058  1.00  0.00     0.041 C 
ATOM     23  O   UNL     1      45.147  32.658  -8.097  1.00  0.00    -0.550 OA
ATOM     24  O   UNL     1      45.029  34.668  -7.005  1.00  0.00    -0.550 OA
ENDBRANCH  21  22
ENDBRANCH  20  21
ENDBRANCH  19  20
ENDBRANCH  18  19
ENDBRANCH  17  18
ENDBRANCH  16  17
ENDBRANCH  15  16
ENDBRANCH  14  15
ENDBRANCH  13  14
ENDBRANCH   1  13
TORSDOF 20
ENDMDL
MODEL 6
REMARK VINA RESULT:    -4.272      3.279      7.655
REMARK INTER + INTRA:         -12.597
REMARK INTER:                  -9.424
REMARK INTRA:                  -3.173
REMARK UNBOUND:                -3.330
REMARK SMILES CCCCCCCCCCCCCCCCCCCCCC(=O)[O-]
REMARK SMILES IDX 12 1 11 2 10 3 9 4 8 5 7 6 6 7 5 8 4 9 3 10 2 11 1 12 13 13
REMARK SMILES IDX 14 14 15 15 16 16 17 17 18 18 19 19 20 20 21 21 22 22 23 23
REMARK SMILES IDX 24 24
REMARK H PARENT
REMARK Flexibility Score: inf
ROOT
ATOM      1  C   UNL     1      44.957  37.293 -13.587  1.00  0.00     0.000 C 
ENDROOT
BRANCH   1   2
ATOM      2  C   UNL     1      43.938  36.235 -13.124  1.00  0.00     0.000 C 
BRANCH   2   3
ATOM      3  C   UNL     1      43.013  36.740 -12.007  1.00  0.00     0.000 C 
BRANCH   3   4
ATOM      4  C   UNL     1      43.706  37.831 -11.176  1.00  0.00    -0.000 C 
BRANCH   4   5
ATOM      5  C   UNL     1      43.680  37.534  -9.668  1.00  0.00    -0.000 C 
BRANCH   5   6
ATOM      6  C   UNL     1      43.019  36.183  -9.344  1.00  0.00    -0.000 C 
BRANCH   6   7
ATOM      7  C   UNL     1      44.024  35.133  -8.838  1.00  0.00    -0.000 C 
BRANCH   7   8
ATOM      8  C   UNL     1      45.503  35.567  -8.877  1.00  0.00    -0.000 C 
BRANCH   8   9
ATOM      9  C   UNL     1      46.261  35.188 -10.163  1.00  0.00    -0.000 C 
BRANCH   9  10
ATOM     10  C   UNL     1      47.710  35.694 -10.173  1.00  0.00    -0.000 C 
BRANCH  10  11
ATOM     11  C   UNL     1      47.910  36.762 -11.255  1.00  0.00    -0.003 C 
ATOM     12  C   UNL     1      47.412  38.125 -10.783  1.00  0.00     0.004 C 
ENDBRANCH  10  11
ENDBRANCH   9  10
ENDBRANCH   8   9
ENDBRANCH   7   8
ENDBRANCH   6   7
ENDBRANCH   5   6
ENDBRANCH   4   5
ENDBRANCH   3   4
ENDBRANCH   2   3
ENDBRANCH   1   2
BRANCH   1  13
ATOM     13  C   UNL     1      46.208  36.729 -14.287  1.00  0.00     0.000 C 
BRANCH  13  14
ATOM     14  C   UNL     1      46.378  35.201 -14.191  1.00  0.00     0.000 C 
BRANCH  14  15
ATOM     15  C   UNL     1      47.782  34.702 -14.595  1.00  0.00     0.000 C 
BRANCH  15  16
ATOM     16  C   UNL     1      47.986  34.681 -16.120  1.00  0.00     0.000 C 
BRANCH  16  17
ATOM     17  C   UNL     1      49.275  35.415 -16.549  1.00  0.00     0.000 C 
BRANCH  17  18
ATOM     18  C   UNL     1      49.104  36.940 -16.690  1.00  0.00     0.000 C 
BRANCH  18  19
ATOM     19  C   UNL     1      49.595  37.761 -15.484  1.00  0.00     0.000 C 
BRANCH  19  20
ATOM     20  C   UNL     1      50.543  36.967 -14.570  1.00  0.00     0.006 C 
BRANCH  20  21
ATOM     21  C   UNL     1      51.798  37.769 -14.204  1.00  0.00     0.053 C 
BRANCH  21  22
ATOM     22  C   UNL     1      52.978  37.371 -15.035  1.00  0.00     0.041 C 
ATOM     23  O   UNL     1      52.815  36.689 -16.081  1.00  0.00    -0.550 OA
ATOM     24  O   UNL     1      54.255  37.778 -14.672  1.00  0.00    -0.550 OA
ENDBRANCH  21  22
ENDBRANCH  20  21
ENDBRANCH  19  20
ENDBRANCH  18  19
ENDBRANCH  17  18
ENDBRANCH  16  17
ENDBRANCH  15  16
ENDBRANCH  14  15
ENDBRANCH  13  14
ENDBRANCH   1  13
TORSDOF 20
ENDMDL
MODEL 7
REMARK VINA RESULT:    -4.252      3.045      8.065
REMARK INTER + INTRA:         -12.553
REMARK INTER:                  -9.390
REMARK INTRA:                  -3.163
REMARK UNBOUND:                -3.330
REMARK SMILES CCCCCCCCCCCCCCCCCCCCCC(=O)[O-]
REMARK SMILES IDX 12 1 11 2 10 3 9 4 8 5 7 6 6 7 5 8 4 9 3 10 2 11 1 12 13 13
REMARK SMILES IDX 14 14 15 15 16 16 17 17 18 18 19 19 20 20 21 21 22 22 23 23
REMARK SMILES IDX 24 24
REMARK H PARENT
REMARK Flexibility Score: inf
ROOT
ATOM      1  C   UNL     1      45.919  35.154 -11.337  1.00  0.00     0.000 C 
ENDROOT
BRANCH   1   2
ATOM      2  C   UNL     1      44.967  35.486 -12.502  1.00  0.00     0.000 C 
BRANCH   2   3
ATOM      3  C   UNL     1      45.046  36.955 -12.941  1.00  0.00     0.000 C 
BRANCH   3   4
ATOM      4  C   UNL     1      43.708  37.671 -12.700  1.00  0.00    -0.000 C 
BRANCH   4   5
ATOM      5  C   UNL     1      42.650  36.754 -12.065  1.00  0.00    -0.000 C 
BRANCH   5   6
ATOM      6  C   UNL     1      41.876  37.445 -10.930  1.00  0.00    -0.000 C 
BRANCH   6   7
ATOM      7  C   UNL     1      42.730  37.655  -9.667  1.00  0.00    -0.000 C 
BRANCH   7   8
ATOM      8  C   UNL     1      43.331  36.371  -9.059  1.00  0.00    -0.000 C 
BRANCH   8   9
ATOM      9  C   UNL     1      44.323  36.598  -7.903  1.00  0.00    -0.000 C 
BRANCH   9  10
ATOM     10  C   UNL     1      45.032  35.310  -7.464  1.00  0.00    -0.000 C 
BRANCH  10  11
ATOM     11  C   UNL     1      44.358  34.076  -8.077  1.00  0.00    -0.003 C 
ATOM     12  C   UNL     1      45.275  32.859  -8.013  1.00  0.00     0.004 C 
ENDBRANCH  10  11
ENDBRANCH   9  10
ENDBRANCH   8   9
ENDBRANCH   7   8
ENDBRANCH   6   7
ENDBRANCH   5   6
ENDBRANCH   4   5
ENDBRANCH   3   4
ENDBRANCH   2   3
ENDBRANCH   1   2
BRANCH   1  13
ATOM     13  C   UNL     1      46.752  36.342 -10.819  1.00  0.00     0.000 C 
BRANCH  13  14
ATOM     14  C   UNL     1      48.260  36.264 -11.121  1.00  0.00     0.000 C 
BRANCH  14  15
ATOM     15  C   UNL     1      48.635  36.707 -12.552  1.00  0.00     0.000 C 
BRANCH  15  16
ATOM     16  C   UNL     1      49.224  35.559 -13.391  1.00  0.00     0.000 C 
BRANCH  16  17
ATOM     17  C   UNL     1      48.129  34.688 -14.042  1.00  0.00     0.000 C 
BRANCH  17  18
ATOM     18  C   UNL     1      48.164  34.693 -15.582  1.00  0.00     0.000 C 
BRANCH  18  19
ATOM     19  C   UNL     1      47.578  35.955 -16.240  1.00  0.00     0.000 C 
BRANCH  19  20
ATOM     20  C   UNL     1      48.541  36.602 -17.250  1.00  0.00     0.006 C 
BRANCH  20  21
ATOM     21  C   UNL     1      49.466  37.631 -16.588  1.00  0.00     0.053 C 
BRANCH  21  22
ATOM     22  C   UNL     1      50.824  37.065 -16.312  1.00  0.00     0.041 C 
ATOM     23  O   UNL     1      51.596  37.638 -15.499  1.00  0.00    -0.550 OA
ATOM     24  O   UNL     1      51.227  35.887 -16.928  1.00  0.00    -0.550 OA
ENDBRANCH  21  22
ENDBRANCH  20  21
ENDBRANCH  19  20
ENDBRANCH  18  19
ENDBRANCH  17  18
ENDBRANCH  16  17
ENDBRANCH  15  16
ENDBRANCH  14  15
ENDBRANCH  13  14
ENDBRANCH   1  13
TORSDOF 20
ENDMDL
MODEL 8
REMARK VINA RESULT:    -4.223      1.319      5.189
REMARK INTER + INTRA:         -12.491
REMARK INTER:                  -9.504
REMARK INTRA:                  -2.987
REMARK UNBOUND:                -3.330
REMARK SMILES CCCCCCCCCCCCCCCCCCCCCC(=O)[O-]
REMARK SMILES IDX 12 1 11 2 10 3 9 4 8 5 7 6 6 7 5 8 4 9 3 10 2 11 1 12 13 13
REMARK SMILES IDX 14 14 15 15 16 16 17 17 18 18 19 19 20 20 21 21 22 22 23 23
REMARK SMILES IDX 24 24
REMARK H PARENT
REMARK Flexibility Score: inf
ROOT
ATOM      1  C   UNL     1      50.035  35.811 -16.999  1.00  0.00     0.000 C 
ENDROOT
BRANCH   1   2
ATOM      2  C   UNL     1      48.883  35.119 -16.247  1.00  0.00     0.000 C 
BRANCH   2   3
ATOM      3  C   UNL     1      47.503  35.433 -16.845  1.00  0.00     0.000 C 
BRANCH   3   4
ATOM      4  C   UNL     1      47.428  36.895 -17.310  1.00  0.00    -0.000 C 
BRANCH   4   5
ATOM      5  C   UNL     1      47.228  37.879 -16.144  1.00  0.00    -0.000 C 
BRANCH   5   6
ATOM      6  C   UNL     1      45.799  37.839 -15.578  1.00  0.00    -0.000 C 
BRANCH   6   7
ATOM      7  C   UNL     1      45.738  37.255 -14.154  1.00  0.00    -0.000 C 
BRANCH   7   8
ATOM      8  C   UNL     1      44.421  37.511 -13.394  1.00  0.00    -0.000 C 
BRANCH   8   9
ATOM      9  C   UNL     1      43.778  36.263 -12.763  1.00  0.00    -0.000 C 
BRANCH   9  10
ATOM     10  C   UNL     1      42.584  36.599 -11.859  1.00  0.00    -0.000 C 
BRANCH  10  11
ATOM     11  C   UNL     1      43.005  37.535 -10.720  1.00  0.00    -0.003 C 
ATOM     12  C   UNL     1      42.376  37.110  -9.397  1.00  0.00     0.004 C 
ENDBRANCH  10  11
ENDBRANCH   9  10
ENDBRANCH   8   9
ENDBRANCH   7   8
ENDBRANCH   6   7
ENDBRANCH   5   6
ENDBRANCH   4   5
ENDBRANCH   3   4
ENDBRANCH   2   3
ENDBRANCH   1   2
BRANCH   1  13
ATOM     13  C   UNL     1      50.899  36.755 -16.140  1.00  0.00     0.000 C 
BRANCH  13  14
ATOM     14  C   UNL     1      50.667  36.651 -14.621  1.00  0.00     0.000 C 
BRANCH  14  15
ATOM     15  C   UNL     1      50.281  37.989 -13.954  1.00  0.00     0.000 C 
BRANCH  15  16
ATOM     16  C   UNL     1      49.077  37.852 -13.006  1.00  0.00     0.000 C 
BRANCH  16  17
ATOM     17  C   UNL     1      48.724  36.377 -12.719  1.00  0.00     0.000 C 
BRANCH  17  18
ATOM     18  C   UNL     1      48.424  36.086 -11.236  1.00  0.00     0.000 C 
BRANCH  18  19
ATOM     19  C   UNL     1      47.492  37.102 -10.552  1.00  0.00     0.000 C 
BRANCH  19  20
ATOM     20  C   UNL     1      46.237  36.446  -9.950  1.00  0.00     0.006 C 
BRANCH  20  21
ATOM     21  C   UNL     1      46.404  34.931  -9.778  1.00  0.00     0.053 C 
BRANCH  21  22
ATOM     22  C   UNL     1      45.847  34.453  -8.473  1.00  0.00     0.041 C 
ATOM     23  O   UNL     1      44.933  35.100  -7.898  1.00  0.00    -0.550 OA
ATOM     24  O   UNL     1      46.316  33.275  -7.905  1.00  0.00    -0.550 OA
ENDBRANCH  21  22
ENDBRANCH  20  21
ENDBRANCH  19  20
ENDBRANCH  18  19
ENDBRANCH  17  18
ENDBRANCH  16  17
ENDBRANCH  15  16
ENDBRANCH  14  15
ENDBRANCH  13  14
ENDBRANCH   1  13
TORSDOF 20
ENDMDL
MODEL 9
REMARK VINA RESULT:    -4.213      2.724      7.768
REMARK INTER + INTRA:         -12.469
REMARK INTER:                  -8.941
REMARK INTRA:                  -3.527
REMARK UNBOUND:                -3.330
REMARK SMILES CCCCCCCCCCCCCCCCCCCCCC(=O)[O-]
REMARK SMILES IDX 12 1 11 2 10 3 9 4 8 5 7 6 6 7 5 8 4 9 3 10 2 11 1 12 13 13
REMARK SMILES IDX 14 14 15 15 16 16 17 17 18 18 19 19 20 20 21 21 22 22 23 23
REMARK SMILES IDX 24 24
REMARK H PARENT
REMARK Flexibility Score: inf
ROOT
ATOM      1  C   UNL     1      46.236  34.683 -13.367  1.00  0.00     0.000 C 
ENDROOT
BRANCH   1   2
ATOM      2  C   UNL     1      44.886  35.389 -13.140  1.00  0.00     0.000 C 
BRANCH   2   3
ATOM      3  C   UNL     1      44.957  36.905 -13.371  1.00  0.00     0.000 C 
BRANCH   3   4
ATOM      4  C   UNL     1      43.814  37.624 -12.637  1.00  0.00    -0.000 C 
BRANCH   4   5
ATOM      5  C   UNL     1      42.751  36.652 -12.098  1.00  0.00    -0.000 C 
BRANCH   5   6
ATOM      6  C   UNL     1      42.149  37.119 -10.761  1.00  0.00    -0.000 C 
BRANCH   6   7
ATOM      7  C   UNL     1      42.795  36.432  -9.544  1.00  0.00    -0.000 C 
BRANCH   7   8
ATOM      8  C   UNL     1      43.625  37.356  -8.631  1.00  0.00    -0.000 C 
BRANCH   8   9
ATOM      9  C   UNL     1      45.124  37.018  -8.549  1.00  0.00    -0.000 C 
BRANCH   9  10
ATOM     10  C   UNL     1      45.537  35.899  -9.515  1.00  0.00    -0.000 C 
BRANCH  10  11
ATOM     11  C   UNL     1      46.928  36.168 -10.103  1.00  0.00    -0.003 C 
ATOM     12  C   UNL     1      47.094  37.638 -10.475  1.00  0.00     0.004 C 
ENDBRANCH  10  11
ENDBRANCH   9  10
ENDBRANCH   8   9
ENDBRANCH   7   8
ENDBRANCH   6   7
ENDBRANCH   5   6
ENDBRANCH   4   5
ENDBRANCH   3   4
ENDBRANCH   2   3
ENDBRANCH   1   2
BRANCH   1  13
ATOM     13  C   UNL     1      47.408  35.619 -13.720  1.00  0.00     0.000 C 
BRANCH  13  14
ATOM     14  C   UNL     1      48.801  35.110 -13.302  1.00  0.00     0.000 C 
BRANCH  14  15
ATOM     15  C   UNL     1      49.766  36.229 -12.854  1.00  0.00     0.000 C 
BRANCH  15  16
ATOM     16  C   UNL     1      49.424  37.591 -13.481  1.00  0.00     0.000 C 
BRANCH  16  17
ATOM     17  C   UNL     1      50.559  38.121 -14.383  1.00  0.00     0.000 C 
BRANCH  17  18
ATOM     18  C   UNL     1      51.502  37.021 -14.906  1.00  0.00     0.000 C 
BRANCH  18  19
ATOM     19  C   UNL     1      51.392  36.736 -16.415  1.00  0.00     0.000 C 
BRANCH  19  20
ATOM     20  C   UNL     1      50.183  35.852 -16.766  1.00  0.00     0.006 C 
BRANCH  20  21
ATOM     21  C   UNL     1      49.002  36.674 -17.297  1.00  0.00     0.053 C 
BRANCH  21  22
ATOM     22  C   UNL     1      47.694  35.980 -17.077  1.00  0.00     0.041 C 
ATOM     23  O   UNL     1      47.662  34.738 -16.873  1.00  0.00    -0.550 OA
ATOM     24  O   UNL     1      46.511  36.708 -17.067  1.00  0.00    -0.550 OA
ENDBRANCH  21  22
ENDBRANCH  20  21
ENDBRANCH  19  20
ENDBRANCH  18  19
ENDBRANCH  17  18
ENDBRANCH  16  17
ENDBRANCH  15  16
ENDBRANCH  14  15
ENDBRANCH  13  14
ENDBRANCH   1  13
TORSDOF 20
ENDMDL
