MODEL 1
REMARK VINA RESULT:    -6.884      0.000      0.000
REMARK INTER + INTRA:          -8.616
REMARK INTER:                  -8.293
REMARK INTRA:                  -0.323
REMARK UNBOUND:                -0.323
REMARK SMILES O=c1c(O)c(-c2ccc(O)c(O)c2)oc2cc(O)cc(O)c12
REMARK SMILES IDX 5 1 3 2 2 3 1 4 22 5 20 6 19 7 17 8 16 9 15 10 14 11 6 12
REMARK SMILES IDX 7 13 8 14 9 15 13 16 11 17 10 18 12 20 4 22 21 24 18 26
REMARK H PARENT 10 19 12 21 4 23 21 25 18 27
REMARK Flexibility Score: inf
ROOT
ATOM      1  C   UNL     1      11.576   0.036  28.283  1.00  0.00     0.180 A 
ATOM      2  C   UNL     1      12.108  -0.716  29.345  1.00  0.00     0.208 A 
ATOM      3  C   UNL     1      13.386  -1.282  29.206  1.00  0.00     0.238 A 
ATOM      4  O   UNL     1      13.878  -1.909  30.181  1.00  0.00    -0.285 OA
ATOM      5  C   UNL     1      14.109  -1.102  28.003  1.00  0.00     0.111 A 
ATOM      6  C   UNL     1      15.394  -1.663  27.739  1.00  0.00     0.134 A 
ATOM      7  C   UNL     1      16.074  -1.312  26.567  1.00  0.00     0.093 A 
ATOM      8  C   UNL     1      15.489  -0.472  25.619  1.00  0.00     0.123 A 
ATOM      9  C   UNL     1      14.208   0.035  25.840  1.00  0.00     0.094 A 
ATOM     10  C   UNL     1      13.520  -0.269  27.017  1.00  0.00     0.146 A 
ATOM     11  O   UNL     1      12.307   0.242  27.193  1.00  0.00    -0.452 OA
ENDROOT
BRANCH   1  12
ATOM     12  C   UNL     1      10.227   0.642  28.344  1.00  0.00     0.025 A 
ATOM     13  C   UNL     1       9.114  -0.109  27.934  1.00  0.00     0.016 A 
ATOM     14  C   UNL     1       7.829   0.435  28.002  1.00  0.00     0.051 A 
ATOM     15  C   UNL     1       7.636   1.732  28.497  1.00  0.00     0.157 A 
ATOM     16  C   UNL     1      10.027   1.935  28.859  1.00  0.00     0.062 A 
ATOM     17  C   UNL     1       8.741   2.483  28.931  1.00  0.00     0.158 A 
BRANCH  15  18
ATOM     18  O   UNL     1       6.353   2.274  28.563  1.00  0.00    -0.504 OA
ATOM     19  H   UNL     1       5.811   2.457  27.726  1.00  0.00     0.293 HD
ENDBRANCH  15  18
BRANCH  17  20
ATOM     20  O   UNL     1       8.582   3.771  29.441  1.00  0.00    -0.504 OA
ATOM     21  H   UNL     1       8.551   4.587  28.841  1.00  0.00     0.293 HD
ENDBRANCH  17  20
ENDBRANCH   1  12
BRANCH   2  22
ATOM     22  O   UNL     1      11.386  -0.863  30.532  1.00  0.00    -0.502 OA
ATOM     23  H   UNL     1      11.438  -0.191  31.288  1.00  0.00     0.293 HD
ENDBRANCH   2  22
BRANCH   6  24
ATOM     24  O   UNL     1      16.031  -2.584  28.576  1.00  0.00    -0.507 OA
ATOM     25  H   UNL     1      16.930  -3.003  28.392  1.00  0.00     0.293 HD
ENDBRANCH   6  24
BRANCH   8  26
ATOM     26  O   UNL     1      16.187  -0.156  24.456  1.00  0.00    -0.508 OA
ATOM     27  H   UNL     1      16.234   0.795  24.108  1.00  0.00     0.293 HD
ENDBRANCH   8  26
TORSDOF 6
ENDMDL
MODEL 2
REMARK VINA RESULT:    -6.799      4.169      7.242
REMARK INTER + INTRA:          -8.513
REMARK INTER:                  -8.758
REMARK INTRA:                   0.245
REMARK UNBOUND:                -0.323
REMARK SMILES O=c1c(O)c(-c2ccc(O)c(O)c2)oc2cc(O)cc(O)c12
REMARK SMILES IDX 5 1 3 2 2 3 1 4 22 5 20 6 19 7 17 8 16 9 15 10 14 11 6 12
REMARK SMILES IDX 7 13 8 14 9 15 13 16 11 17 10 18 12 20 4 22 21 24 18 26
REMARK H PARENT 10 19 12 21 4 23 21 25 18 27
REMARK Flexibility Score: inf
ROOT
ATOM      1  C   UNL     1      13.570  -0.885  31.576  1.00  0.00     0.180 A 
ATOM      2  C   UNL     1      12.256  -1.023  32.055  1.00  0.00     0.208 A 
ATOM      3  C   UNL     1      12.004  -0.817  33.421  1.00  0.00     0.238 A 
ATOM      4  O   UNL     1      10.817  -0.889  33.834  1.00  0.00    -0.285 OA
ATOM      5  C   UNL     1      13.071  -0.493  34.294  1.00  0.00     0.111 A 
ATOM      6  C   UNL     1      12.937  -0.303  35.701  1.00  0.00     0.134 A 
ATOM      7  C   UNL     1      14.035   0.144  36.446  1.00  0.00     0.093 A 
ATOM      8  C   UNL     1      15.278   0.344  35.846  1.00  0.00     0.123 A 
ATOM      9  C   UNL     1      15.435   0.104  34.480  1.00  0.00     0.094 A 
ATOM     10  C   UNL     1      14.348  -0.307  33.705  1.00  0.00     0.146 A 
ATOM     11  O   UNL     1      14.537  -0.515  32.407  1.00  0.00    -0.452 OA
ENDROOT
BRANCH   1  12
ATOM     12  C   UNL     1      13.918  -1.110  30.154  1.00  0.00     0.025 A 
ATOM     13  C   UNL     1      15.151  -1.699  29.831  1.00  0.00     0.016 A 
ATOM     14  C   UNL     1      15.491  -1.940  28.497  1.00  0.00     0.051 A 
ATOM     15  C   UNL     1      14.598  -1.610  27.469  1.00  0.00     0.157 A 
ATOM     16  C   UNL     1      13.016  -0.799  29.121  1.00  0.00     0.062 A 
ATOM     17  C   UNL     1      13.353  -1.041  27.785  1.00  0.00     0.158 A 
BRANCH  15  18
ATOM     18  O   UNL     1      14.940  -1.849  26.138  1.00  0.00    -0.504 OA
ATOM     19  H   UNL     1      15.148  -1.090  25.500  1.00  0.00     0.293 HD
ENDBRANCH  15  18
BRANCH  17  20
ATOM     20  O   UNL     1      12.436  -0.714  26.786  1.00  0.00    -0.504 OA
ATOM     21  H   UNL     1      11.449  -0.929  26.870  1.00  0.00     0.293 HD
ENDBRANCH  17  20
ENDBRANCH   1  12
BRANCH   2  22
ATOM     22  O   UNL     1      11.214  -1.322  31.173  1.00  0.00    -0.502 OA
ATOM     23  H   UNL     1      11.367  -1.490  30.186  1.00  0.00     0.293 HD
ENDBRANCH   2  22
BRANCH   6  24
ATOM     24  O   UNL     1      11.764  -0.563  36.416  1.00  0.00    -0.507 OA
ATOM     25  H   UNL     1      11.253  -1.432  36.386  1.00  0.00     0.293 HD
ENDBRANCH   6  24
BRANCH   8  26
ATOM     26  O   UNL     1      16.353   0.774  36.620  1.00  0.00    -0.508 OA
ATOM     27  H   UNL     1      16.509   0.418  37.556  1.00  0.00     0.293 HD
ENDBRANCH   8  26
TORSDOF 6
ENDMDL
MODEL 3
REMARK VINA RESULT:    -6.769      3.789      7.539
REMARK INTER + INTRA:          -8.478
REMARK INTER:                  -8.220
REMARK INTRA:                  -0.258
REMARK UNBOUND:                -0.323
REMARK SMILES O=c1c(O)c(-c2ccc(O)c(O)c2)oc2cc(O)cc(O)c12
REMARK SMILES IDX 5 1 3 2 2 3 1 4 22 5 20 6 19 7 17 8 16 9 15 10 14 11 6 12
REMARK SMILES IDX 7 13 8 14 9 15 13 16 11 17 10 18 12 20 4 22 21 24 18 26
REMARK H PARENT 10 19 12 21 4 23 21 25 18 27
REMARK Flexibility Score: inf
ROOT
ATOM      1  C   UNL     1      11.823   0.105  31.143  1.00  0.00     0.180 A 
ATOM      2  C   UNL     1      11.731   1.471  31.459  1.00  0.00     0.208 A 
ATOM      3  C   UNL     1      10.959   1.864  32.565  1.00  0.00     0.238 A 
ATOM      4  O   UNL     1      10.925   3.084  32.874  1.00  0.00    -0.285 OA
ATOM      5  C   UNL     1      10.278   0.889  33.331  1.00  0.00     0.111 A 
ATOM      6  C   UNL     1       9.437   1.177  34.447  1.00  0.00     0.134 A 
ATOM      7  C   UNL     1       8.918   0.125  35.212  1.00  0.00     0.093 A 
ATOM      8  C   UNL     1       9.155  -1.204  34.862  1.00  0.00     0.123 A 
ATOM      9  C   UNL     1       9.927  -1.498  33.737  1.00  0.00     0.094 A 
ATOM     10  C   UNL     1      10.489  -0.469  32.976  1.00  0.00     0.146 A 
ATOM     11  O   UNL     1      11.226  -0.791  31.920  1.00  0.00    -0.452 OA
ENDROOT
BRANCH   1  12
ATOM     12  C   UNL     1      12.595  -0.384  29.978  1.00  0.00     0.025 A 
ATOM     13  C   UNL     1      13.778  -1.111  30.190  1.00  0.00     0.016 A 
ATOM     14  C   UNL     1      14.512  -1.599  29.106  1.00  0.00     0.051 A 
ATOM     15  C   UNL     1      14.066  -1.383  27.796  1.00  0.00     0.157 A 
ATOM     16  C   UNL     1      12.140  -0.187  28.662  1.00  0.00     0.062 A 
ATOM     17  C   UNL     1      12.872  -0.677  27.574  1.00  0.00     0.158 A 
BRANCH  15  18
ATOM     18  O   UNL     1      14.801  -1.871  26.715  1.00  0.00    -0.504 OA
ATOM     19  H   UNL     1      15.613  -1.379  26.362  1.00  0.00     0.293 HD
ENDBRANCH  15  18
BRANCH  17  20
ATOM     20  O   UNL     1      12.394  -0.457  26.283  1.00  0.00    -0.504 OA
ATOM     21  H   UNL     1      12.955  -0.004  25.571  1.00  0.00     0.293 HD
ENDBRANCH  17  20
ENDBRANCH   1  12
BRANCH   2  22
ATOM     22  O   UNL     1      12.429   2.417  30.703  1.00  0.00    -0.502 OA
ATOM     23  H   UNL     1      13.098   2.156  29.987  1.00  0.00     0.293 HD
ENDBRANCH   2  22
BRANCH   6  24
ATOM     24  O   UNL     1       9.061   2.469  34.828  1.00  0.00    -0.507 OA
ATOM     25  H   UNL     1       8.728   3.180  34.195  1.00  0.00     0.293 HD
ENDBRANCH   6  24
BRANCH   8  26
ATOM     26  O   UNL     1       8.610  -2.226  35.635  1.00  0.00    -0.508 OA
ATOM     27  H   UNL     1       8.612  -3.189  35.319  1.00  0.00     0.293 HD
ENDBRANCH   8  26
TORSDOF 6
ENDMDL
MODEL 4
REMARK VINA RESULT:    -6.679      4.383      6.102
REMARK INTER + INTRA:          -8.369
REMARK INTER:                  -8.753
REMARK INTRA:                   0.384
REMARK UNBOUND:                -0.323
REMARK SMILES O=c1c(O)c(-c2ccc(O)c(O)c2)oc2cc(O)cc(O)c12
REMARK SMILES IDX 5 1 3 2 2 3 1 4 22 5 20 6 19 7 17 8 16 9 15 10 14 11 6 12
REMARK SMILES IDX 7 13 8 14 9 15 13 16 11 17 10 18 12 20 4 22 21 24 18 26
REMARK H PARENT 10 19 12 21 4 23 21 25 18 27
REMARK Flexibility Score: inf
ROOT
ATOM      1  C   UNL     1      11.283   3.249  32.153  1.00  0.00     0.180 A 
ATOM      2  C   UNL     1      10.944   2.363  31.117  1.00  0.00     0.208 A 
ATOM      3  C   UNL     1      11.725   1.212  30.921  1.00  0.00     0.238 A 
ATOM      4  O   UNL     1      11.384   0.395  30.026  1.00  0.00    -0.285 OA
ATOM      5  C   UNL     1      12.844   0.971  31.754  1.00  0.00     0.111 A 
ATOM      6  C   UNL     1      13.728  -0.141  31.620  1.00  0.00     0.134 A 
ATOM      7  C   UNL     1      14.725  -0.351  32.580  1.00  0.00     0.093 A 
ATOM      8  C   UNL     1      14.912   0.546  33.632  1.00  0.00     0.123 A 
ATOM      9  C   UNL     1      14.091   1.669  33.738  1.00  0.00     0.094 A 
ATOM     10  C   UNL     1      13.064   1.885  32.816  1.00  0.00     0.146 A 
ATOM     11  O   UNL     1      12.298   2.961  32.959  1.00  0.00    -0.452 OA
ENDROOT
BRANCH   1  12
ATOM     12  C   UNL     1      10.523   4.495  32.406  1.00  0.00     0.025 A 
ATOM     13  C   UNL     1       9.786   5.077  31.362  1.00  0.00     0.016 A 
ATOM     14  C   UNL     1       9.045   6.241  31.583  1.00  0.00     0.051 A 
ATOM     15  C   UNL     1       9.017   6.830  32.854  1.00  0.00     0.157 A 
ATOM     16  C   UNL     1      10.476   5.078  33.684  1.00  0.00     0.062 A 
ATOM     17  C   UNL     1       9.733   6.242  33.910  1.00  0.00     0.158 A 
BRANCH  15  18
ATOM     18  O   UNL     1       8.279   7.993  33.072  1.00  0.00    -0.504 OA
ATOM     19  H   UNL     1       8.462   8.843  32.550  1.00  0.00     0.293 HD
ENDBRANCH  15  18
BRANCH  17  20
ATOM     20  O   UNL     1       9.715   6.797  35.189  1.00  0.00    -0.504 OA
ATOM     21  H   UNL     1       9.899   6.243  36.018  1.00  0.00     0.293 HD
ENDBRANCH  17  20
ENDBRANCH   1  12
BRANCH   2  22
ATOM     22  O   UNL     1       9.822   2.609  30.320  1.00  0.00    -0.502 OA
ATOM     23  H   UNL     1       9.648   2.110  29.455  1.00  0.00     0.293 HD
ENDBRANCH   2  22
BRANCH   6  24
ATOM     24  O   UNL     1      13.688  -1.047  30.556  1.00  0.00    -0.507 OA
ATOM     25  H   UNL     1      13.395  -2.009  30.631  1.00  0.00     0.293 HD
ENDBRANCH   6  24
BRANCH   8  26
ATOM     26  O   UNL     1      15.924   0.316  34.561  1.00  0.00    -0.508 OA
ATOM     27  H   UNL     1      15.716   0.047  35.515  1.00  0.00     0.293 HD
ENDBRANCH   8  26
TORSDOF 6
ENDMDL
MODEL 5
REMARK VINA RESULT:    -6.544      3.761      7.211
REMARK INTER + INTRA:          -8.207
REMARK INTER:                  -7.879
REMARK INTRA:                  -0.328
REMARK UNBOUND:                -0.323
REMARK SMILES O=c1c(O)c(-c2ccc(O)c(O)c2)oc2cc(O)cc(O)c12
REMARK SMILES IDX 5 1 3 2 2 3 1 4 22 5 20 6 19 7 17 8 16 9 15 10 14 11 6 12
REMARK SMILES IDX 7 13 8 14 9 15 13 16 11 17 10 18 12 20 4 22 21 24 18 26
REMARK H PARENT 10 19 12 21 4 23 21 25 18 27
REMARK Flexibility Score: inf
ROOT
ATOM      1  C   UNL     1      13.074  -1.248  31.131  1.00  0.00     0.180 A 
ATOM      2  C   UNL     1      13.136  -0.112  31.956  1.00  0.00     0.208 A 
ATOM      3  C   UNL     1      12.624  -0.188  33.262  1.00  0.00     0.238 A 
ATOM      4  O   UNL     1      12.731   0.816  34.013  1.00  0.00    -0.285 OA
ATOM      5  C   UNL     1      12.042  -1.395  33.720  1.00  0.00     0.111 A 
ATOM      6  C   UNL     1      11.456  -1.573  35.009  1.00  0.00     0.134 A 
ATOM      7  C   UNL     1      11.028  -2.846  35.404  1.00  0.00     0.093 A 
ATOM      8  C   UNL     1      11.104  -3.933  34.534  1.00  0.00     0.123 A 
ATOM      9  C   UNL     1      11.620  -3.757  33.249  1.00  0.00     0.094 A 
ATOM     10  C   UNL     1      12.089  -2.506  32.839  1.00  0.00     0.146 A 
ATOM     11  O   UNL     1      12.582  -2.384  31.613  1.00  0.00    -0.452 OA
ENDROOT
BRANCH   1  12
ATOM     12  C   UNL     1      13.570  -1.237  29.736  1.00  0.00     0.025 A 
ATOM     13  C   UNL     1      14.850  -1.740  29.455  1.00  0.00     0.016 A 
ATOM     14  C   UNL     1      15.330  -1.758  28.142  1.00  0.00     0.051 A 
ATOM     15  C   UNL     1      14.531  -1.290  27.091  1.00  0.00     0.157 A 
ATOM     16  C   UNL     1      12.763  -0.786  28.676  1.00  0.00     0.062 A 
ATOM     17  C   UNL     1      13.240  -0.806  27.360  1.00  0.00     0.158 A 
BRANCH  15  18
ATOM     18  O   UNL     1      15.013  -1.308  25.782  1.00  0.00    -0.504 OA
ATOM     19  H   UNL     1      14.390  -1.224  24.987  1.00  0.00     0.293 HD
ENDBRANCH  15  18
BRANCH  17  20
ATOM     20  O   UNL     1      12.415  -0.345  26.335  1.00  0.00    -0.504 OA
ATOM     21  H   UNL     1      12.653   0.466  25.776  1.00  0.00     0.293 HD
ENDBRANCH  17  20
ENDBRANCH   1  12
BRANCH   2  22
ATOM     22  O   UNL     1      13.734   1.063  31.491  1.00  0.00    -0.502 OA
ATOM     23  H   UNL     1      14.597   1.061  30.960  1.00  0.00     0.293 HD
ENDBRANCH   2  22
BRANCH   6  24
ATOM     24  O   UNL     1      11.249  -0.535  35.922  1.00  0.00    -0.507 OA
ATOM     25  H   UNL     1      10.352  -0.120  36.127  1.00  0.00     0.293 HD
ENDBRANCH   6  24
BRANCH   8  26
ATOM     26  O   UNL     1      10.654  -5.182  34.953  1.00  0.00    -0.508 OA
ATOM     27  H   UNL     1      10.049  -5.285  35.760  1.00  0.00     0.293 HD
ENDBRANCH   8  26
TORSDOF 6
ENDMDL
MODEL 6
REMARK VINA RESULT:    -6.451      3.297      4.568
REMARK INTER + INTRA:          -8.094
REMARK INTER:                  -8.113
REMARK INTRA:                   0.019
REMARK UNBOUND:                -0.323
REMARK SMILES O=c1c(O)c(-c2ccc(O)c(O)c2)oc2cc(O)cc(O)c12
REMARK SMILES IDX 5 1 3 2 2 3 1 4 22 5 20 6 19 7 17 8 16 9 15 10 14 11 6 12
REMARK SMILES IDX 7 13 8 14 9 15 13 16 11 17 10 18 12 20 4 22 21 24 18 26
REMARK H PARENT 10 19 12 21 4 23 21 25 18 27
REMARK Flexibility Score: inf
ROOT
ATOM      1  C   UNL     1      11.420  -0.298  31.133  1.00  0.00     0.180 A 
ATOM      2  C   UNL     1      10.759   0.129  29.969  1.00  0.00     0.208 A 
ATOM      3  C   UNL     1      11.387  -0.046  28.724  1.00  0.00     0.238 A 
ATOM      4  O   UNL     1      10.766   0.289  27.682  1.00  0.00    -0.285 OA
ATOM      5  C   UNL     1      12.674  -0.631  28.661  1.00  0.00     0.111 A 
ATOM      6  C   UNL     1      13.420  -0.820  27.460  1.00  0.00     0.134 A 
ATOM      7  C   UNL     1      14.628  -1.528  27.500  1.00  0.00     0.093 A 
ATOM      8  C   UNL     1      15.148  -1.996  28.706  1.00  0.00     0.123 A 
ATOM      9  C   UNL     1      14.456  -1.765  29.896  1.00  0.00     0.094 A 
ATOM     10  C   UNL     1      13.230  -1.094  29.882  1.00  0.00     0.146 A 
ATOM     11  O   UNL     1      12.599  -0.903  31.035  1.00  0.00    -0.452 OA
ENDROOT
BRANCH   1  12
ATOM     12  C   UNL     1      10.834  -0.125  32.481  1.00  0.00     0.025 A 
ATOM     13  C   UNL     1      10.890  -1.185  33.399  1.00  0.00     0.016 A 
ATOM     14  C   UNL     1      10.361  -1.037  34.684  1.00  0.00     0.051 A 
ATOM     15  C   UNL     1       9.784   0.179  35.075  1.00  0.00     0.157 A 
ATOM     16  C   UNL     1      10.272   1.100  32.884  1.00  0.00     0.062 A 
ATOM     17  C   UNL     1       9.744   1.253  34.170  1.00  0.00     0.158 A 
BRANCH  15  18
ATOM     18  O   UNL     1       9.255   0.324  36.357  1.00  0.00    -0.504 OA
ATOM     19  H   UNL     1       8.319   0.008  36.584  1.00  0.00     0.293 HD
ENDBRANCH  15  18
BRANCH  17  20
ATOM     20  O   UNL     1       9.189   2.479  34.533  1.00  0.00    -0.504 OA
ATOM     21  H   UNL     1       8.229   2.721  34.315  1.00  0.00     0.293 HD
ENDBRANCH  17  20
ENDBRANCH   1  12
BRANCH   2  22
ATOM     22  O   UNL     1       9.479   0.684  30.051  1.00  0.00    -0.502 OA
ATOM     23  H   UNL     1       9.297   1.567  30.513  1.00  0.00     0.293 HD
ENDBRANCH   2  22
BRANCH   6  24
ATOM     24  O   UNL     1      13.036  -0.312  26.215  1.00  0.00    -0.507 OA
ATOM     25  H   UNL     1      13.394   0.537  25.805  1.00  0.00     0.293 HD
ENDBRANCH   6  24
BRANCH   8  26
ATOM     26  O   UNL     1      16.359  -2.683  28.712  1.00  0.00    -0.508 OA
ATOM     27  H   UNL     1      17.228  -2.227  28.456  1.00  0.00     0.293 HD
ENDBRANCH   8  26
TORSDOF 6
ENDMDL
MODEL 7
REMARK VINA RESULT:    -6.401      1.583      7.106
REMARK INTER + INTRA:          -8.034
REMARK INTER:                  -7.815
REMARK INTRA:                  -0.219
REMARK UNBOUND:                -0.323
REMARK SMILES O=c1c(O)c(-c2ccc(O)c(O)c2)oc2cc(O)cc(O)c12
REMARK SMILES IDX 5 1 3 2 2 3 1 4 22 5 20 6 19 7 17 8 16 9 15 10 14 11 6 12
REMARK SMILES IDX 7 13 8 14 9 15 13 16 11 17 10 18 12 20 4 22 21 24 18 26
REMARK H PARENT 10 19 12 21 4 23 21 25 18 27
REMARK Flexibility Score: inf
ROOT
ATOM      1  C   UNL     1      10.951   0.189  28.282  1.00  0.00     0.180 A 
ATOM      2  C   UNL     1      10.718   1.434  28.892  1.00  0.00     0.208 A 
ATOM      3  C   UNL     1       9.419   1.968  28.878  1.00  0.00     0.238 A 
ATOM      4  O   UNL     1       9.207   3.057  29.473  1.00  0.00    -0.285 OA
ATOM      5  C   UNL     1       8.373   1.259  28.240  1.00  0.00     0.111 A 
ATOM      6  C   UNL     1       7.029   1.724  28.130  1.00  0.00     0.134 A 
ATOM      7  C   UNL     1       6.048   0.881  27.593  1.00  0.00     0.093 A 
ATOM      8  C   UNL     1       6.374  -0.383  27.102  1.00  0.00     0.123 A 
ATOM      9  C   UNL     1       7.697  -0.824  27.150  1.00  0.00     0.094 A 
ATOM     10  C   UNL     1       8.691  -0.021  27.714  1.00  0.00     0.146 A 
ATOM     11  O   UNL     1       9.936  -0.482  27.749  1.00  0.00    -0.452 OA
ENDROOT
BRANCH   1  12
ATOM     12  C   UNL     1      12.297  -0.426  28.234  1.00  0.00     0.025 A 
ATOM     13  C   UNL     1      12.852  -0.963  29.407  1.00  0.00     0.016 A 
ATOM     14  C   UNL     1      14.112  -1.566  29.380  1.00  0.00     0.051 A 
ATOM     15  C   UNL     1      14.828  -1.656  28.179  1.00  0.00     0.157 A 
ATOM     16  C   UNL     1      13.010  -0.536  27.027  1.00  0.00     0.062 A 
ATOM     17  C   UNL     1      14.270  -1.142  26.996  1.00  0.00     0.158 A 
BRANCH  15  18
ATOM     18  O   UNL     1      16.086  -2.258  28.156  1.00  0.00    -0.504 OA
ATOM     19  H   UNL     1      16.731  -2.107  27.389  1.00  0.00     0.293 HD
ENDBRANCH  15  18
BRANCH  17  20
ATOM     20  O   UNL     1      14.951  -1.228  25.783  1.00  0.00    -0.504 OA
ATOM     21  H   UNL     1      15.261  -0.404  25.280  1.00  0.00     0.293 HD
ENDBRANCH  17  20
ENDBRANCH   1  12
BRANCH   2  22
ATOM     22  O   UNL     1      11.760   2.107  29.536  1.00  0.00    -0.502 OA
ATOM     23  H   UNL     1      11.646   2.552  30.438  1.00  0.00     0.293 HD
ENDBRANCH   2  22
BRANCH   6  24
ATOM     24  O   UNL     1       6.613   3.004  28.505  1.00  0.00    -0.507 OA
ATOM     25  H   UNL     1       7.193   3.682  28.976  1.00  0.00     0.293 HD
ENDBRANCH   6  24
BRANCH   8  26
ATOM     26  O   UNL     1       5.376  -1.188  26.560  1.00  0.00    -0.508 OA
ATOM     27  H   UNL     1       4.973  -0.993  25.651  1.00  0.00     0.293 HD
ENDBRANCH   8  26
TORSDOF 6
ENDMDL
MODEL 8
REMARK VINA RESULT:    -6.288      3.994      6.480
REMARK INTER + INTRA:          -7.898
REMARK INTER:                  -7.694
REMARK INTRA:                  -0.204
REMARK UNBOUND:                -0.323
REMARK SMILES O=c1c(O)c(-c2ccc(O)c(O)c2)oc2cc(O)cc(O)c12
REMARK SMILES IDX 5 1 3 2 2 3 1 4 22 5 20 6 19 7 17 8 16 9 15 10 14 11 6 12
REMARK SMILES IDX 7 13 8 14 9 15 13 16 11 17 10 18 12 20 4 22 21 24 18 26
REMARK H PARENT 10 19 12 21 4 23 21 25 18 27
REMARK Flexibility Score: inf
ROOT
ATOM      1  C   UNL     1      13.294  -0.122  31.988  1.00  0.00     0.180 A 
ATOM      2  C   UNL     1      13.928  -1.081  31.179  1.00  0.00     0.208 A 
ATOM      3  C   UNL     1      13.588  -1.158  29.818  1.00  0.00     0.238 A 
ATOM      4  O   UNL     1      14.198  -1.982  29.089  1.00  0.00    -0.285 OA
ATOM      5  C   UNL     1      12.607  -0.285  29.287  1.00  0.00     0.111 A 
ATOM      6  C   UNL     1      12.157  -0.302  27.934  1.00  0.00     0.134 A 
ATOM      7  C   UNL     1      11.278   0.692  27.486  1.00  0.00     0.093 A 
ATOM      8  C   UNL     1      10.784   1.662  28.357  1.00  0.00     0.123 A 
ATOM      9  C   UNL     1      11.172   1.651  29.698  1.00  0.00     0.094 A 
ATOM     10  C   UNL     1      12.075   0.694  30.165  1.00  0.00     0.146 A 
ATOM     11  O   UNL     1      12.427   0.725  31.446  1.00  0.00    -0.452 OA
ENDROOT
BRANCH   1  12
ATOM     12  C   UNL     1      13.581   0.002  33.435  1.00  0.00     0.025 A 
ATOM     13  C   UNL     1      12.616  -0.408  34.368  1.00  0.00     0.016 A 
ATOM     14  C   UNL     1      12.873  -0.319  35.738  1.00  0.00     0.051 A 
ATOM     15  C   UNL     1      14.106   0.167  36.195  1.00  0.00     0.157 A 
ATOM     16  C   UNL     1      14.824   0.471  33.898  1.00  0.00     0.062 A 
ATOM     17  C   UNL     1      15.086   0.559  35.269  1.00  0.00     0.158 A 
BRANCH  15  18
ATOM     18  O   UNL     1      14.360   0.257  37.564  1.00  0.00    -0.504 OA
ATOM     19  H   UNL     1      14.089   1.073  38.101  1.00  0.00     0.293 HD
ENDBRANCH  15  18
BRANCH  17  20
ATOM     20  O   UNL     1      16.327   1.034  35.692  1.00  0.00    -0.504 OA
ATOM     21  H   UNL     1      16.986   0.448  36.191  1.00  0.00     0.293 HD
ENDBRANCH  17  20
ENDBRANCH   1  12
BRANCH   2  22
ATOM     22  O   UNL     1      14.909  -1.918  31.718  1.00  0.00    -0.502 OA
ATOM     23  H   UNL     1      14.684  -2.778  32.204  1.00  0.00     0.293 HD
ENDBRANCH   2  22
BRANCH   6  24
ATOM     24  O   UNL     1      12.517  -1.281  27.003  1.00  0.00    -0.507 OA
ATOM     25  H   UNL     1      12.313  -2.264  27.095  1.00  0.00     0.293 HD
ENDBRANCH   6  24
BRANCH   8  26
ATOM     26  O   UNL     1       9.899   2.627  27.882  1.00  0.00    -0.508 OA
ATOM     27  H   UNL     1       8.937   2.399  27.658  1.00  0.00     0.293 HD
ENDBRANCH   8  26
TORSDOF 6
ENDMDL
MODEL 9
REMARK VINA RESULT:    -6.235      4.004      6.140
REMARK INTER + INTRA:          -7.834
REMARK INTER:                  -7.675
REMARK INTRA:                  -0.159
REMARK UNBOUND:                -0.323
REMARK SMILES O=c1c(O)c(-c2ccc(O)c(O)c2)oc2cc(O)cc(O)c12
REMARK SMILES IDX 5 1 3 2 2 3 1 4 22 5 20 6 19 7 17 8 16 9 15 10 14 11 6 12
REMARK SMILES IDX 7 13 8 14 9 15 13 16 11 17 10 18 12 20 4 22 21 24 18 26
REMARK H PARENT 10 19 12 21 4 23 21 25 18 27
REMARK Flexibility Score: inf
ROOT
ATOM      1  C   UNL     1      12.714   0.185  31.993  1.00  0.00     0.180 A 
ATOM      2  C   UNL     1      11.588   0.888  31.533  1.00  0.00     0.208 A 
ATOM      3  C   UNL     1      11.315   0.912  30.156  1.00  0.00     0.238 A 
ATOM      4  O   UNL     1      10.275   1.498  29.756  1.00  0.00    -0.285 OA
ATOM      5  C   UNL     1      12.181   0.247  29.255  1.00  0.00     0.111 A 
ATOM      6  C   UNL     1      12.024   0.239  27.836  1.00  0.00     0.134 A 
ATOM      7  C   UNL     1      12.864  -0.560  27.052  1.00  0.00     0.093 A 
ATOM      8  C   UNL     1      13.896  -1.301  27.627  1.00  0.00     0.123 A 
ATOM      9  C   UNL     1      14.097  -1.254  29.008  1.00  0.00     0.094 A 
ATOM     10  C   UNL     1      13.251  -0.494  29.820  1.00  0.00     0.146 A 
ATOM     11  O   UNL     1      13.470  -0.484  31.130  1.00  0.00    -0.452 OA
ENDROOT
BRANCH   1  12
ATOM     12  C   UNL     1      13.081   0.135  33.427  1.00  0.00     0.025 A 
ATOM     13  C   UNL     1      12.242  -0.536  34.331  1.00  0.00     0.016 A 
ATOM     14  C   UNL     1      12.579  -0.613  35.685  1.00  0.00     0.051 A 
ATOM     15  C   UNL     1      13.767  -0.034  36.152  1.00  0.00     0.157 A 
ATOM     16  C   UNL     1      14.282   0.696  33.896  1.00  0.00     0.062 A 
ATOM     17  C   UNL     1      14.624   0.619  35.251  1.00  0.00     0.158 A 
BRANCH  15  18
ATOM     18  O   UNL     1      14.100  -0.111  37.504  1.00  0.00    -0.504 OA
ATOM     19  H   UNL     1      14.927  -0.605  37.819  1.00  0.00     0.293 HD
ENDBRANCH  15  18
BRANCH  17  20
ATOM     20  O   UNL     1      15.820   1.193  35.681  1.00  0.00    -0.504 OA
ATOM     21  H   UNL     1      16.684   0.665  35.725  1.00  0.00     0.293 HD
ENDBRANCH  17  20
ENDBRANCH   1  12
BRANCH   2  22
ATOM     22  O   UNL     1      10.734   1.520  32.442  1.00  0.00    -0.502 OA
ATOM     23  H   UNL     1      10.248   2.382  32.223  1.00  0.00     0.293 HD
ENDBRANCH   2  22
BRANCH   6  24
ATOM     24  O   UNL     1      11.083   1.014  27.151  1.00  0.00    -0.507 OA
ATOM     25  H   UNL     1      10.172   1.261  27.509  1.00  0.00     0.293 HD
ENDBRANCH   6  24
BRANCH   8  26
ATOM     26  O   UNL     1      14.723  -2.073  26.816  1.00  0.00    -0.508 OA
ATOM     27  H   UNL     1      14.619  -3.079  26.757  1.00  0.00     0.293 HD
ENDBRANCH   8  26
TORSDOF 6
ENDMDL
