MODEL 1
REMARK VINA RESULT:    -5.227      0.000      0.000
REMARK INTER + INTRA:         -16.626
REMARK INTER:                 -13.173
REMARK INTRA:                  -3.453
REMARK UNBOUND:                -3.453
REMARK SMILES CCCCCCCCCCCCCCCCCCCCCCCCCCCC(=O)[O-]
REMARK SMILES IDX 15 1 16 2 17 3 18 4 19 5 20 6 21 7 22 8 23 9 24 10 25 11
REMARK SMILES IDX 26 12 27 13 28 14 29 15 30 16 14 17 13 18 12 19 11 20 10 21
REMARK SMILES IDX 9 22 8 23 7 24 6 25 5 26 4 27 3 28 2 29 1 30
REMARK H PARENT
REMARK Flexibility Score: inf
ROOT
ATOM      1  C   UNL     1      44.189  26.256  19.506  1.00  0.00     0.000 C 
ENDROOT
BRANCH   1   2
ATOM      2  C   UNL     1      43.026  26.990  20.198  1.00  0.00     0.000 C 
BRANCH   2   3
ATOM      3  C   UNL     1      43.430  28.195  21.068  1.00  0.00     0.000 C 
BRANCH   3   4
ATOM      4  C   UNL     1      43.915  29.401  20.243  1.00  0.00     0.000 C 
BRANCH   4   5
ATOM      5  C   UNL     1      45.404  29.728  20.486  1.00  0.00     0.000 C 
BRANCH   5   6
ATOM      6  C   UNL     1      46.306  29.471  19.263  1.00  0.00     0.000 C 
BRANCH   6   7
ATOM      7  C   UNL     1      45.573  29.387  17.911  1.00  0.00     0.000 C 
BRANCH   7   8
ATOM      8  C   UNL     1      45.909  30.510  16.912  1.00  0.00     0.000 C 
BRANCH   8   9
ATOM      9  C   UNL     1      46.142  29.986  15.483  1.00  0.00     0.000 C 
BRANCH   9  10
ATOM     10  C   UNL     1      44.833  29.618  14.766  1.00  0.00     0.000 C 
BRANCH  10  11
ATOM     11  C   UNL     1      44.533  30.523  13.562  1.00  0.00     0.000 C 
BRANCH  11  12
ATOM     12  C   UNL     1      44.068  31.910  14.022  1.00  0.00     0.006 C 
BRANCH  12  13
ATOM     13  C   UNL     1      42.688  31.832  14.684  1.00  0.00     0.053 C 
BRANCH  13  14
ATOM     14  C   UNL     1      42.596  32.791  15.829  1.00  0.00     0.041 C 
ATOM     15  O   UNL     1      43.382  32.687  16.808  1.00  0.00    -0.550 OA
ATOM     16  O   UNL     1      41.631  33.792  15.825  1.00  0.00    -0.550 OA
ENDBRANCH  13  14
ENDBRANCH  12  13
ENDBRANCH  11  12
ENDBRANCH  10  11
ENDBRANCH   9  10
ENDBRANCH   8   9
ENDBRANCH   7   8
ENDBRANCH   6   7
ENDBRANCH   5   6
ENDBRANCH   4   5
ENDBRANCH   3   4
ENDBRANCH   2   3
ENDBRANCH   1   2
BRANCH   1  17
ATOM     17  C   UNL     1      45.225  25.689  20.493  1.00  0.00     0.000 C 
BRANCH  17  18
ATOM     18  C   UNL     1      46.397  24.980  19.789  1.00  0.00     0.000 C 
BRANCH  18  19
ATOM     19  C   UNL     1      46.191  23.476  19.537  1.00  0.00     0.000 C 
BRANCH  19  20
ATOM     20  C   UNL     1      46.794  22.598  20.648  1.00  0.00     0.000 C 
BRANCH  20  21
ATOM     21  C   UNL     1      45.731  22.099  21.643  1.00  0.00     0.000 C 
BRANCH  21  22
ATOM     22  C   UNL     1      44.950  20.886  21.107  1.00  0.00    -0.000 C 
BRANCH  22  23
ATOM     23  C   UNL     1      43.431  21.116  21.108  1.00  0.00    -0.000 C 
BRANCH  23  24
ATOM     24  C   UNL     1      43.038  22.508  21.634  1.00  0.00    -0.000 C 
BRANCH  24  25
ATOM     25  C   UNL     1      42.233  23.324  20.606  1.00  0.00    -0.000 C 
BRANCH  25  26
ATOM     26  C   UNL     1      42.522  22.976  19.130  1.00  0.00    -0.000 C 
BRANCH  26  27
ATOM     27  C   UNL     1      41.273  22.776  18.254  1.00  0.00    -0.000 C 
BRANCH  27  28
ATOM     28  C   UNL     1      40.116  23.704  18.648  1.00  0.00    -0.000 C 
BRANCH  28  29
ATOM     29  C   UNL     1      38.763  23.048  18.354  1.00  0.00    -0.003 C 
ATOM     30  C   UNL     1      38.501  22.972  16.853  1.00  0.00     0.004 C 
ENDBRANCH  28  29
ENDBRANCH  27  28
ENDBRANCH  26  27
ENDBRANCH  25  26
ENDBRANCH  24  25
ENDBRANCH  23  24
ENDBRANCH  22  23
ENDBRANCH  21  22
ENDBRANCH  20  21
ENDBRANCH  19  20
ENDBRANCH  18  19
ENDBRANCH  17  18
ENDBRANCH   1  17
TORSDOF 26
ENDMDL
MODEL 2
REMARK VINA RESULT:    -5.227      3.347      9.480
REMARK INTER + INTRA:         -16.624
REMARK INTER:                 -14.241
REMARK INTRA:                  -2.383
REMARK UNBOUND:                -3.453
REMARK SMILES CCCCCCCCCCCCCCCCCCCCCCCCCCCC(=O)[O-]
REMARK SMILES IDX 15 1 16 2 17 3 18 4 19 5 20 6 21 7 22 8 23 9 24 10 25 11
REMARK SMILES IDX 26 12 27 13 28 14 29 15 30 16 14 17 13 18 12 19 11 20 10 21
REMARK SMILES IDX 9 22 8 23 7 24 6 25 5 26 4 27 3 28 2 29 1 30
REMARK H PARENT
REMARK Flexibility Score: inf
ROOT
ATOM      1  C   UNL     1      44.464  27.107  19.483  1.00  0.00     0.000 C 
ENDROOT
BRANCH   1   2
ATOM      2  C   UNL     1      44.760  25.689  20.006  1.00  0.00     0.000 C 
BRANCH   2   3
ATOM      3  C   UNL     1      46.153  25.133  19.656  1.00  0.00     0.000 C 
BRANCH   3   4
ATOM      4  C   UNL     1      46.133  23.642  19.279  1.00  0.00     0.000 C 
BRANCH   4   5
ATOM      5  C   UNL     1      46.931  22.766  20.268  1.00  0.00     0.000 C 
BRANCH   5   6
ATOM      6  C   UNL     1      46.065  21.756  21.046  1.00  0.00     0.000 C 
BRANCH   6   7
ATOM      7  C   UNL     1      44.846  22.356  21.771  1.00  0.00     0.000 C 
BRANCH   7   8
ATOM      8  C   UNL     1      43.487  21.745  21.382  1.00  0.00     0.000 C 
BRANCH   8   9
ATOM      9  C   UNL     1      42.803  22.499  20.228  1.00  0.00     0.000 C 
BRANCH   9  10
ATOM     10  C   UNL     1      41.644  23.389  20.706  1.00  0.00     0.000 C 
BRANCH  10  11
ATOM     11  C   UNL     1      41.076  24.284  19.594  1.00  0.00     0.000 C 
BRANCH  11  12
ATOM     12  C   UNL     1      40.565  23.439  18.420  1.00  0.00     0.006 C 
BRANCH  12  13
ATOM     13  C   UNL     1      39.156  23.873  18.005  1.00  0.00     0.053 C 
BRANCH  13  14
ATOM     14  C   UNL     1      38.337  22.690  17.594  1.00  0.00     0.041 C 
ATOM     15  O   UNL     1      38.893  21.685  17.075  1.00  0.00    -0.550 OA
ATOM     16  O   UNL     1      36.958  22.702  17.765  1.00  0.00    -0.550 OA
ENDBRANCH  13  14
ENDBRANCH  12  13
ENDBRANCH  11  12
ENDBRANCH  10  11
ENDBRANCH   9  10
ENDBRANCH   8   9
ENDBRANCH   7   8
ENDBRANCH   6   7
ENDBRANCH   5   6
ENDBRANCH   4   5
ENDBRANCH   3   4
ENDBRANCH   2   3
ENDBRANCH   1   2
BRANCH   1  17
ATOM     17  C   UNL     1      45.732  27.893  19.104  1.00  0.00     0.000 C 
BRANCH  17  18
ATOM     18  C   UNL     1      45.423  29.196  18.343  1.00  0.00     0.000 C 
BRANCH  18  19
ATOM     19  C   UNL     1      44.345  30.086  18.987  1.00  0.00     0.000 C 
BRANCH  19  20
ATOM     20  C   UNL     1      43.972  31.297  18.113  1.00  0.00     0.000 C 
BRANCH  20  21
ATOM     21  C   UNL     1      45.141  32.285  17.950  1.00  0.00     0.000 C 
BRANCH  21  22
ATOM     22  C   UNL     1      44.770  33.492  17.071  1.00  0.00    -0.000 C 
BRANCH  22  23
ATOM     23  C   UNL     1      44.411  33.086  15.633  1.00  0.00    -0.000 C 
BRANCH  23  24
ATOM     24  C   UNL     1      42.956  32.608  15.494  1.00  0.00    -0.000 C 
BRANCH  24  25
ATOM     25  C   UNL     1      42.792  31.514  14.423  1.00  0.00    -0.000 C 
BRANCH  25  26
ATOM     26  C   UNL     1      43.585  30.218  14.691  1.00  0.00    -0.000 C 
BRANCH  26  27
ATOM     27  C   UNL     1      44.616  29.852  13.610  1.00  0.00    -0.000 C 
BRANCH  27  28
ATOM     28  C   UNL     1      44.752  30.933  12.528  1.00  0.00    -0.000 C 
BRANCH  28  29
ATOM     29  C   UNL     1      46.100  31.654  12.640  1.00  0.00    -0.003 C 
ATOM     30  C   UNL     1      46.015  33.071  12.083  1.00  0.00     0.004 C 
ENDBRANCH  28  29
ENDBRANCH  27  28
ENDBRANCH  26  27
ENDBRANCH  25  26
ENDBRANCH  24  25
ENDBRANCH  23  24
ENDBRANCH  22  23
ENDBRANCH  21  22
ENDBRANCH  20  21
ENDBRANCH  19  20
ENDBRANCH  18  19
ENDBRANCH  17  18
ENDBRANCH   1  17
TORSDOF 26
ENDMDL
MODEL 3
REMARK VINA RESULT:    -5.221      3.060      9.093
REMARK INTER + INTRA:         -16.611
REMARK INTER:                 -12.339
REMARK INTRA:                  -4.272
REMARK UNBOUND:                -3.453
REMARK SMILES CCCCCCCCCCCCCCCCCCCCCCCCCCCC(=O)[O-]
REMARK SMILES IDX 15 1 16 2 17 3 18 4 19 5 20 6 21 7 22 8 23 9 24 10 25 11
REMARK SMILES IDX 26 12 27 13 28 14 29 15 30 16 14 17 13 18 12 19 11 20 10 21
REMARK SMILES IDX 9 22 8 23 7 24 6 25 5 26 4 27 3 28 2 29 1 30
REMARK H PARENT
REMARK Flexibility Score: inf
ROOT
ATOM      1  C   UNL     1      45.040  28.353  18.561  1.00  0.00     0.000 C 
ENDROOT
BRANCH   1   2
ATOM      2  C   UNL     1      44.609  27.362  19.658  1.00  0.00     0.000 C 
BRANCH   2   3
ATOM      3  C   UNL     1      45.745  26.524  20.275  1.00  0.00     0.000 C 
BRANCH   3   4
ATOM      4  C   UNL     1      47.118  26.808  19.642  1.00  0.00     0.000 C 
BRANCH   4   5
ATOM      5  C   UNL     1      47.684  25.594  18.876  1.00  0.00     0.000 C 
BRANCH   5   6
ATOM      6  C   UNL     1      46.909  24.284  19.124  1.00  0.00     0.000 C 
BRANCH   6   7
ATOM      7  C   UNL     1      47.538  23.334  20.160  1.00  0.00     0.000 C 
BRANCH   7   8
ATOM      8  C   UNL     1      46.588  22.858  21.275  1.00  0.00     0.000 C 
BRANCH   8   9
ATOM      9  C   UNL     1      45.261  22.300  20.729  1.00  0.00     0.000 C 
BRANCH   9  10
ATOM     10  C   UNL     1      44.061  23.206  21.047  1.00  0.00     0.000 C 
BRANCH  10  11
ATOM     11  C   UNL     1      43.395  23.784  19.789  1.00  0.00     0.000 C 
BRANCH  11  12
ATOM     12  C   UNL     1      42.036  24.409  20.127  1.00  0.00     0.006 C 
BRANCH  12  13
ATOM     13  C   UNL     1      40.904  23.393  19.936  1.00  0.00     0.053 C 
BRANCH  13  14
ATOM     14  C   UNL     1      40.310  23.515  18.569  1.00  0.00     0.041 C 
ATOM     15  O   UNL     1      40.738  22.798  17.625  1.00  0.00    -0.550 OA
ATOM     16  O   UNL     1      39.295  24.433  18.328  1.00  0.00    -0.550 OA
ENDBRANCH  13  14
ENDBRANCH  12  13
ENDBRANCH  11  12
ENDBRANCH  10  11
ENDBRANCH   9  10
ENDBRANCH   8   9
ENDBRANCH   7   8
ENDBRANCH   6   7
ENDBRANCH   5   6
ENDBRANCH   4   5
ENDBRANCH   3   4
ENDBRANCH   2   3
ENDBRANCH   1   2
BRANCH   1  17
ATOM     17  C   UNL     1      44.579  29.797  18.829  1.00  0.00     0.000 C 
BRANCH  17  18
ATOM     18  C   UNL     1      45.748  30.752  19.133  1.00  0.00     0.000 C 
BRANCH  18  19
ATOM     19  C   UNL     1      47.084  30.379  18.466  1.00  0.00     0.000 C 
BRANCH  19  20
ATOM     20  C   UNL     1      47.269  31.044  17.090  1.00  0.00     0.000 C 
BRANCH  20  21
ATOM     21  C   UNL     1      47.107  30.046  15.930  1.00  0.00     0.000 C 
BRANCH  21  22
ATOM     22  C   UNL     1      46.033  30.489  14.921  1.00  0.00    -0.000 C 
BRANCH  22  23
ATOM     23  C   UNL     1      44.682  29.795  15.156  1.00  0.00    -0.000 C 
BRANCH  23  24
ATOM     24  C   UNL     1      43.502  30.558  14.531  1.00  0.00    -0.000 C 
BRANCH  24  25
ATOM     25  C   UNL     1      43.524  32.061  14.867  1.00  0.00    -0.000 C 
BRANCH  25  26
ATOM     26  C   UNL     1      43.255  32.400  16.348  1.00  0.00    -0.000 C 
BRANCH  26  27
ATOM     27  C   UNL     1      44.321  33.285  17.015  1.00  0.00    -0.000 C 
BRANCH  27  28
ATOM     28  C   UNL     1      45.265  33.947  16.001  1.00  0.00    -0.000 C 
BRANCH  28  29
ATOM     29  C   UNL     1      46.443  34.624  16.709  1.00  0.00    -0.003 C 
ATOM     30  C   UNL     1      46.083  34.998  18.143  1.00  0.00     0.004 C 
ENDBRANCH  28  29
ENDBRANCH  27  28
ENDBRANCH  26  27
ENDBRANCH  25  26
ENDBRANCH  24  25
ENDBRANCH  23  24
ENDBRANCH  22  23
ENDBRANCH  21  22
ENDBRANCH  20  21
ENDBRANCH  19  20
ENDBRANCH  18  19
ENDBRANCH  17  18
ENDBRANCH   1  17
TORSDOF 26
ENDMDL
MODEL 4
REMARK VINA RESULT:    -5.208      3.248      8.612
REMARK INTER + INTRA:         -16.576
REMARK INTER:                 -13.120
REMARK INTRA:                  -3.456
REMARK UNBOUND:                -3.453
REMARK SMILES CCCCCCCCCCCCCCCCCCCCCCCCCCCC(=O)[O-]
REMARK SMILES IDX 15 1 16 2 17 3 18 4 19 5 20 6 21 7 22 8 23 9 24 10 25 11
REMARK SMILES IDX 26 12 27 13 28 14 29 15 30 16 14 17 13 18 12 19 11 20 10 21
REMARK SMILES IDX 9 22 8 23 7 24 6 25 5 26 4 27 3 28 2 29 1 30
REMARK H PARENT
REMARK Flexibility Score: inf
ROOT
ATOM      1  C   UNL     1      45.247  25.318  19.549  1.00  0.00     0.000 C 
ENDROOT
BRANCH   1   2
ATOM      2  C   UNL     1      45.912  23.995  19.124  1.00  0.00     0.000 C 
BRANCH   2   3
ATOM      3  C   UNL     1      47.080  23.528  20.014  1.00  0.00     0.000 C 
BRANCH   3   4
ATOM      4  C   UNL     1      46.890  22.103  20.563  1.00  0.00     0.000 C 
BRANCH   4   5
ATOM      5  C   UNL     1      45.799  22.024  21.651  1.00  0.00     0.000 C 
BRANCH   5   6
ATOM      6  C   UNL     1      44.832  20.835  21.480  1.00  0.00     0.000 C 
BRANCH   6   7
ATOM      7  C   UNL     1      43.390  21.211  21.095  1.00  0.00     0.000 C 
BRANCH   7   8
ATOM      8  C   UNL     1      42.949  22.628  21.507  1.00  0.00     0.000 C 
BRANCH   8   9
ATOM      9  C   UNL     1      42.268  23.398  20.360  1.00  0.00     0.000 C 
BRANCH   9  10
ATOM     10  C   UNL     1      42.404  22.685  19.005  1.00  0.00     0.000 C 
BRANCH  10  11
ATOM     11  C   UNL     1      41.203  22.924  18.078  1.00  0.00     0.000 C 
BRANCH  11  12
ATOM     12  C   UNL     1      40.097  23.700  18.804  1.00  0.00     0.006 C 
BRANCH  12  13
ATOM     13  C   UNL     1      38.999  24.133  17.827  1.00  0.00     0.053 C 
BRANCH  13  14
ATOM     14  C   UNL     1      37.968  23.059  17.679  1.00  0.00     0.041 C 
ATOM     15  O   UNL     1      37.267  22.994  16.635  1.00  0.00    -0.550 OA
ATOM     16  O   UNL     1      37.767  22.140  18.701  1.00  0.00    -0.550 OA
ENDBRANCH  13  14
ENDBRANCH  12  13
ENDBRANCH  11  12
ENDBRANCH  10  11
ENDBRANCH   9  10
ENDBRANCH   8   9
ENDBRANCH   7   8
ENDBRANCH   6   7
ENDBRANCH   5   6
ENDBRANCH   4   5
ENDBRANCH   3   4
ENDBRANCH   2   3
ENDBRANCH   1   2
BRANCH   1  17
ATOM     17  C   UNL     1      45.510  25.688  21.020  1.00  0.00     0.000 C 
BRANCH  17  18
ATOM     18  C   UNL     1      46.054  27.119  21.189  1.00  0.00     0.000 C 
BRANCH  18  19
ATOM     19  C   UNL     1      47.509  27.320  20.730  1.00  0.00     0.000 C 
BRANCH  19  20
ATOM     20  C   UNL     1      47.671  28.511  19.768  1.00  0.00     0.000 C 
BRANCH  20  21
ATOM     21  C   UNL     1      47.131  28.204  18.360  1.00  0.00     0.000 C 
BRANCH  21  22
ATOM     22  C   UNL     1      45.766  28.865  18.099  1.00  0.00    -0.000 C 
BRANCH  22  23
ATOM     23  C   UNL     1      45.821  29.906  16.970  1.00  0.00    -0.000 C 
BRANCH  23  24
ATOM     24  C   UNL     1      46.057  31.335  17.487  1.00  0.00    -0.000 C 
BRANCH  24  25
ATOM     25  C   UNL     1      44.749  32.050  17.871  1.00  0.00    -0.000 C 
BRANCH  25  26
ATOM     26  C   UNL     1      43.575  31.827  16.894  1.00  0.00    -0.000 C 
BRANCH  26  27
ATOM     27  C   UNL     1      43.573  32.747  15.661  1.00  0.00    -0.000 C 
BRANCH  27  28
ATOM     28  C   UNL     1      43.754  31.977  14.345  1.00  0.00    -0.000 C 
BRANCH  28  29
ATOM     29  C   UNL     1      43.052  30.616  14.405  1.00  0.00    -0.003 C 
ATOM     30  C   UNL     1      43.961  29.504  13.891  1.00  0.00     0.004 C 
ENDBRANCH  28  29
ENDBRANCH  27  28
ENDBRANCH  26  27
ENDBRANCH  25  26
ENDBRANCH  24  25
ENDBRANCH  23  24
ENDBRANCH  22  23
ENDBRANCH  21  22
ENDBRANCH  20  21
ENDBRANCH  19  20
ENDBRANCH  18  19
ENDBRANCH  17  18
ENDBRANCH   1  17
TORSDOF 26
ENDMDL
MODEL 5
REMARK VINA RESULT:    -5.199      4.529      9.384
REMARK INTER + INTRA:         -16.555
REMARK INTER:                 -10.935
REMARK INTRA:                  -5.620
REMARK UNBOUND:                -3.453
REMARK SMILES CCCCCCCCCCCCCCCCCCCCCCCCCCCC(=O)[O-]
REMARK SMILES IDX 15 1 16 2 17 3 18 4 19 5 20 6 21 7 22 8 23 9 24 10 25 11
REMARK SMILES IDX 26 12 27 13 28 14 29 15 30 16 14 17 13 18 12 19 11 20 10 21
REMARK SMILES IDX 9 22 8 23 7 24 6 25 5 26 4 27 3 28 2 29 1 30
REMARK H PARENT
REMARK Flexibility Score: inf
ROOT
ATOM      1  C   UNL     1      45.975  33.234  12.588  1.00  0.00     0.000 C 
ENDROOT
BRANCH   1   2
ATOM      2  C   UNL     1      45.740  34.687  12.132  1.00  0.00     0.000 C 
BRANCH   2   3
ATOM      3  C   UNL     1      46.864  35.301  11.278  1.00  0.00     0.000 C 
BRANCH   3   4
ATOM      4  C   UNL     1      47.659  36.392  12.018  1.00  0.00     0.000 C 
BRANCH   4   5
ATOM      5  C   UNL     1      48.531  35.823  13.158  1.00  0.00     0.000 C 
BRANCH   5   6
ATOM      6  C   UNL     1      48.222  36.430  14.541  1.00  0.00     0.000 C 
BRANCH   6   7
ATOM      7  C   UNL     1      47.962  35.409  15.664  1.00  0.00     0.000 C 
BRANCH   7   8
ATOM      8  C   UNL     1      46.515  34.891  15.756  1.00  0.00     0.000 C 
BRANCH   8   9
ATOM      9  C   UNL     1      46.081  34.589  17.202  1.00  0.00     0.000 C 
BRANCH   9  10
ATOM     10  C   UNL     1      44.833  33.694  17.272  1.00  0.00     0.000 C 
BRANCH  10  11
ATOM     11  C   UNL     1      44.286  33.318  15.887  1.00  0.00     0.000 C 
BRANCH  11  12
ATOM     12  C   UNL     1      43.917  31.831  15.829  1.00  0.00     0.006 C 
BRANCH  12  13
ATOM     13  C   UNL     1      43.157  31.504  14.539  1.00  0.00     0.053 C 
BRANCH  13  14
ATOM     14  C   UNL     1      43.403  30.088  14.125  1.00  0.00     0.041 C 
ATOM     15  O   UNL     1      44.581  29.651  14.029  1.00  0.00    -0.550 OA
ATOM     16  O   UNL     1      42.333  29.253  13.825  1.00  0.00    -0.550 OA
ENDBRANCH  13  14
ENDBRANCH  12  13
ENDBRANCH  11  12
ENDBRANCH  10  11
ENDBRANCH   9  10
ENDBRANCH   8   9
ENDBRANCH   7   8
ENDBRANCH   6   7
ENDBRANCH   5   6
ENDBRANCH   4   5
ENDBRANCH   3   4
ENDBRANCH   2   3
ENDBRANCH   1   2
BRANCH   1  17
ATOM     17  C   UNL     1      45.387  32.190  11.623  1.00  0.00     0.000 C 
BRANCH  17  18
ATOM     18  C   UNL     1      46.424  31.147  11.166  1.00  0.00     0.000 C 
BRANCH  18  19
ATOM     19  C   UNL     1      47.776  31.728  10.714  1.00  0.00     0.000 C 
BRANCH  19  20
ATOM     20  C   UNL     1      48.947  31.271  11.602  1.00  0.00     0.000 C 
BRANCH  20  21
ATOM     21  C   UNL     1      49.648  32.450  12.300  1.00  0.00     0.000 C 
BRANCH  21  22
ATOM     22  C   UNL     1      49.447  32.431  13.825  1.00  0.00    -0.000 C 
BRANCH  22  23
ATOM     23  C   UNL     1      48.740  31.157  14.311  1.00  0.00    -0.000 C 
BRANCH  23  24
ATOM     24  C   UNL     1      47.602  31.448  15.304  1.00  0.00    -0.000 C 
BRANCH  24  25
ATOM     25  C   UNL     1      48.081  31.459  16.767  1.00  0.00    -0.000 C 
BRANCH  25  26
ATOM     26  C   UNL     1      47.070  30.897  17.788  1.00  0.00    -0.000 C 
BRANCH  26  27
ATOM     27  C   UNL     1      46.378  29.590  17.364  1.00  0.00    -0.000 C 
BRANCH  27  28
ATOM     28  C   UNL     1      45.062  29.344  18.115  1.00  0.00    -0.000 C 
BRANCH  28  29
ATOM     29  C   UNL     1      45.055  27.959  18.770  1.00  0.00    -0.003 C 
ATOM     30  C   UNL     1      46.432  27.604  19.325  1.00  0.00     0.004 C 
ENDBRANCH  28  29
ENDBRANCH  27  28
ENDBRANCH  26  27
ENDBRANCH  25  26
ENDBRANCH  24  25
ENDBRANCH  23  24
ENDBRANCH  22  23
ENDBRANCH  21  22
ENDBRANCH  20  21
ENDBRANCH  19  20
ENDBRANCH  18  19
ENDBRANCH  17  18
ENDBRANCH   1  17
TORSDOF 26
ENDMDL
MODEL 6
REMARK VINA RESULT:    -5.182      2.946      9.707
REMARK INTER + INTRA:         -16.510
REMARK INTER:                 -12.547
REMARK INTRA:                  -3.963
REMARK UNBOUND:                -3.453
REMARK SMILES CCCCCCCCCCCCCCCCCCCCCCCCCCCC(=O)[O-]
REMARK SMILES IDX 15 1 16 2 17 3 18 4 19 5 20 6 21 7 22 8 23 9 24 10 25 11
REMARK SMILES IDX 26 12 27 13 28 14 29 15 30 16 14 17 13 18 12 19 11 20 10 21
REMARK SMILES IDX 9 22 8 23 7 24 6 25 5 26 4 27 3 28 2 29 1 30
REMARK H PARENT
REMARK Flexibility Score: inf
ROOT
ATOM      1  C   UNL     1      45.316  28.882  17.933  1.00  0.00     0.000 C 
ENDROOT
BRANCH   1   2
ATOM      2  C   UNL     1      46.741  28.669  18.476  1.00  0.00     0.000 C 
BRANCH   2   3
ATOM      3  C   UNL     1      46.976  27.336  19.210  1.00  0.00     0.000 C 
BRANCH   3   4
ATOM      4  C   UNL     1      45.670  26.646  19.643  1.00  0.00     0.000 C 
BRANCH   4   5
ATOM      5  C   UNL     1      45.910  25.252  20.262  1.00  0.00     0.000 C 
BRANCH   5   6
ATOM      6  C   UNL     1      46.490  24.222  19.272  1.00  0.00     0.000 C 
BRANCH   6   7
ATOM      7  C   UNL     1      46.946  22.891  19.899  1.00  0.00     0.000 C 
BRANCH   7   8
ATOM      8  C   UNL     1      46.594  22.715  21.388  1.00  0.00     0.000 C 
BRANCH   8   9
ATOM      9  C   UNL     1      45.509  21.648  21.621  1.00  0.00     0.000 C 
BRANCH   9  10
ATOM     10  C   UNL     1      44.114  22.258  21.832  1.00  0.00     0.000 C 
BRANCH  10  11
ATOM     11  C   UNL     1      43.129  21.908  20.707  1.00  0.00     0.000 C 
BRANCH  11  12
ATOM     12  C   UNL     1      43.020  23.057  19.698  1.00  0.00     0.006 C 
BRANCH  12  13
ATOM     13  C   UNL     1      41.874  22.813  18.711  1.00  0.00     0.053 C 
BRANCH  13  14
ATOM     14  C   UNL     1      40.713  23.707  19.018  1.00  0.00     0.041 C 
ATOM     15  O   UNL     1      40.902  24.825  19.565  1.00  0.00    -0.550 OA
ATOM     16  O   UNL     1      39.420  23.298  18.716  1.00  0.00    -0.550 OA
ENDBRANCH  13  14
ENDBRANCH  12  13
ENDBRANCH  11  12
ENDBRANCH  10  11
ENDBRANCH   9  10
ENDBRANCH   8   9
ENDBRANCH   7   8
ENDBRANCH   6   7
ENDBRANCH   5   6
ENDBRANCH   4   5
ENDBRANCH   3   4
ENDBRANCH   2   3
ENDBRANCH   1   2
BRANCH   1  17
ATOM     17  C   UNL     1      44.607  30.103  18.546  1.00  0.00     0.000 C 
BRANCH  17  18
ATOM     18  C   UNL     1      45.374  31.419  18.313  1.00  0.00     0.000 C 
BRANCH  18  19
ATOM     19  C   UNL     1      44.508  32.602  17.843  1.00  0.00     0.000 C 
BRANCH  19  20
ATOM     20  C   UNL     1      45.134  33.364  16.661  1.00  0.00     0.000 C 
BRANCH  20  21
ATOM     21  C   UNL     1      44.196  33.428  15.443  1.00  0.00     0.000 C 
BRANCH  21  22
ATOM     22  C   UNL     1      42.959  32.528  15.607  1.00  0.00    -0.000 C 
BRANCH  22  23
ATOM     23  C   UNL     1      42.841  31.478  14.490  1.00  0.00    -0.000 C 
BRANCH  23  24
ATOM     24  C   UNL     1      43.541  30.153  14.840  1.00  0.00    -0.000 C 
BRANCH  24  25
ATOM     25  C   UNL     1      44.831  29.933  14.030  1.00  0.00    -0.000 C 
BRANCH  25  26
ATOM     26  C   UNL     1      46.117  30.461  14.699  1.00  0.00    -0.000 C 
BRANCH  26  27
ATOM     27  C   UNL     1      46.895  31.504  13.879  1.00  0.00    -0.000 C 
BRANCH  27  28
ATOM     28  C   UNL     1      46.218  31.834  12.541  1.00  0.00    -0.000 C 
BRANCH  28  29
ATOM     29  C   UNL     1      46.083  33.349  12.354  1.00  0.00    -0.003 C 
ATOM     30  C   UNL     1      47.216  34.094  13.053  1.00  0.00     0.004 C 
ENDBRANCH  28  29
ENDBRANCH  27  28
ENDBRANCH  26  27
ENDBRANCH  25  26
ENDBRANCH  24  25
ENDBRANCH  23  24
ENDBRANCH  22  23
ENDBRANCH  21  22
ENDBRANCH  20  21
ENDBRANCH  19  20
ENDBRANCH  18  19
ENDBRANCH  17  18
ENDBRANCH   1  17
TORSDOF 26
ENDMDL
MODEL 7
REMARK VINA RESULT:    -5.170      3.759     10.136
REMARK INTER + INTRA:         -16.482
REMARK INTER:                 -11.643
REMARK INTRA:                  -4.839
REMARK UNBOUND:                -3.453
REMARK SMILES CCCCCCCCCCCCCCCCCCCCCCCCCCCC(=O)[O-]
REMARK SMILES IDX 15 1 16 2 17 3 18 4 19 5 20 6 21 7 22 8 23 9 24 10 25 11
REMARK SMILES IDX 26 12 27 13 28 14 29 15 30 16 14 17 13 18 12 19 11 20 10 21
REMARK SMILES IDX 9 22 8 23 7 24 6 25 5 26 4 27 3 28 2 29 1 30
REMARK H PARENT
REMARK Flexibility Score: inf
ROOT
ATOM      1  C   UNL     1      42.766  33.359  16.114  1.00  0.00     0.000 C 
ENDROOT
BRANCH   1   2
ATOM      2  C   UNL     1      42.234  32.336  15.093  1.00  0.00     0.000 C 
BRANCH   2   3
ATOM      3  C   UNL     1      43.299  31.694  14.185  1.00  0.00     0.000 C 
BRANCH   3   4
ATOM      4  C   UNL     1      43.316  30.157  14.264  1.00  0.00     0.000 C 
BRANCH   4   5
ATOM      5  C   UNL     1      44.657  29.602  14.788  1.00  0.00     0.000 C 
BRANCH   5   6
ATOM      6  C   UNL     1      45.625  30.689  15.296  1.00  0.00     0.000 C 
BRANCH   6   7
ATOM      7  C   UNL     1      47.106  30.270  15.367  1.00  0.00     0.000 C 
BRANCH   7   8
ATOM      8  C   UNL     1      47.739  30.339  16.768  1.00  0.00     0.000 C 
BRANCH   8   9
ATOM      9  C   UNL     1      47.080  29.372  17.769  1.00  0.00     0.000 C 
BRANCH   9  10
ATOM     10  C   UNL     1      46.479  30.096  18.984  1.00  0.00     0.000 C 
BRANCH  10  11
ATOM     11  C   UNL     1      45.315  29.326  19.627  1.00  0.00     0.000 C 
BRANCH  11  12
ATOM     12  C   UNL     1      44.877  28.155  18.739  1.00  0.00     0.006 C 
BRANCH  12  13
ATOM     13  C   UNL     1      45.038  26.820  19.473  1.00  0.00     0.053 C 
BRANCH  13  14
ATOM     14  C   UNL     1      43.715  26.323  19.962  1.00  0.00     0.041 C 
ATOM     15  O   UNL     1      42.680  27.026  19.816  1.00  0.00    -0.550 OA
ATOM     16  O   UNL     1      43.624  25.090  20.597  1.00  0.00    -0.550 OA
ENDBRANCH  13  14
ENDBRANCH  12  13
ENDBRANCH  11  12
ENDBRANCH  10  11
ENDBRANCH   9  10
ENDBRANCH   8   9
ENDBRANCH   7   8
ENDBRANCH   6   7
ENDBRANCH   5   6
ENDBRANCH   4   5
ENDBRANCH   3   4
ENDBRANCH   2   3
ENDBRANCH   1   2
BRANCH   1  17
ATOM     17  C   UNL     1      43.359  32.708  17.377  1.00  0.00     0.000 C 
BRANCH  17  18
ATOM     18  C   UNL     1      44.876  32.935  17.511  1.00  0.00     0.000 C 
BRANCH  18  19
ATOM     19  C   UNL     1      45.285  34.024  18.519  1.00  0.00     0.000 C 
BRANCH  19  20
ATOM     20  C   UNL     1      46.414  34.928  17.993  1.00  0.00     0.000 C 
BRANCH  20  21
ATOM     21  C   UNL     1      46.411  35.039  16.458  1.00  0.00     0.000 C 
BRANCH  21  22
ATOM     22  C   UNL     1      47.710  34.507  15.829  1.00  0.00    -0.000 C 
BRANCH  22  23
ATOM     23  C   UNL     1      47.486  33.901  14.435  1.00  0.00    -0.000 C 
BRANCH  23  24
ATOM     24  C   UNL     1      46.094  34.220  13.862  1.00  0.00    -0.000 C 
BRANCH  24  25
ATOM     25  C   UNL     1      46.165  35.005  12.540  1.00  0.00    -0.000 C 
BRANCH  25  26
ATOM     26  C   UNL     1      47.369  34.657  11.640  1.00  0.00    -0.000 C 
BRANCH  26  27
ATOM     27  C   UNL     1      47.049  33.725  10.459  1.00  0.00    -0.000 C 
BRANCH  27  28
ATOM     28  C   UNL     1      47.835  32.407  10.512  1.00  0.00    -0.000 C 
BRANCH  28  29
ATOM     29  C   UNL     1      47.287  31.488  11.608  1.00  0.00    -0.003 C 
ATOM     30  C   UNL     1      45.781  31.291  11.463  1.00  0.00     0.004 C 
ENDBRANCH  28  29
ENDBRANCH  27  28
ENDBRANCH  26  27
ENDBRANCH  25  26
ENDBRANCH  24  25
ENDBRANCH  23  24
ENDBRANCH  22  23
ENDBRANCH  21  22
ENDBRANCH  20  21
ENDBRANCH  19  20
ENDBRANCH  18  19
ENDBRANCH  17  18
ENDBRANCH   1  17
TORSDOF 26
ENDMDL
MODEL 8
REMARK VINA RESULT:    -5.150      6.345     10.756
REMARK INTER + INTRA:         -16.432
REMARK INTER:                 -10.480
REMARK INTRA:                  -5.951
REMARK UNBOUND:                -3.453
REMARK SMILES CCCCCCCCCCCCCCCCCCCCCCCCCCCC(=O)[O-]
REMARK SMILES IDX 15 1 16 2 17 3 18 4 19 5 20 6 21 7 22 8 23 9 24 10 25 11
REMARK SMILES IDX 26 12 27 13 28 14 29 15 30 16 14 17 13 18 12 19 11 20 10 21
REMARK SMILES IDX 9 22 8 23 7 24 6 25 5 26 4 27 3 28 2 29 1 30
REMARK H PARENT
REMARK Flexibility Score: inf
ROOT
ATOM      1  C   UNL     1      46.467  34.583  14.642  1.00  0.00     0.000 C 
ENDROOT
BRANCH   1   2
ATOM      2  C   UNL     1      46.310  33.582  15.802  1.00  0.00     0.000 C 
BRANCH   2   3
ATOM      3  C   UNL     1      45.308  33.993  16.897  1.00  0.00     0.000 C 
BRANCH   3   4
ATOM      4  C   UNL     1      44.835  32.809  17.759  1.00  0.00     0.000 C 
BRANCH   4   5
ATOM      5  C   UNL     1      43.488  32.225  17.281  1.00  0.00     0.000 C 
BRANCH   5   6
ATOM      6  C   UNL     1      42.688  33.173  16.366  1.00  0.00     0.000 C 
BRANCH   6   7
ATOM      7  C   UNL     1      42.123  32.530  15.086  1.00  0.00     0.000 C 
BRANCH   7   8
ATOM      8  C   UNL     1      43.154  31.790  14.214  1.00  0.00     0.000 C 
BRANCH   8   9
ATOM      9  C   UNL     1      42.883  30.277  14.125  1.00  0.00     0.000 C 
BRANCH   9  10
ATOM     10  C   UNL     1      44.171  29.439  14.178  1.00  0.00     0.000 C 
BRANCH  10  11
ATOM     11  C   UNL     1      45.387  30.238  14.672  1.00  0.00     0.000 C 
BRANCH  11  12
ATOM     12  C   UNL     1      45.876  29.708  16.026  1.00  0.00     0.006 C 
BRANCH  12  13
ATOM     13  C   UNL     1      47.357  30.036  16.239  1.00  0.00     0.053 C 
BRANCH  13  14
ATOM     14  C   UNL     1      47.813  29.569  17.585  1.00  0.00     0.041 C 
ATOM     15  O   UNL     1      47.290  28.553  18.115  1.00  0.00    -0.550 OA
ATOM     16  O   UNL     1      48.804  30.266  18.266  1.00  0.00    -0.550 OA
ENDBRANCH  13  14
ENDBRANCH  12  13
ENDBRANCH  11  12
ENDBRANCH  10  11
ENDBRANCH   9  10
ENDBRANCH   8   9
ENDBRANCH   7   8
ENDBRANCH   6   7
ENDBRANCH   5   6
ENDBRANCH   4   5
ENDBRANCH   3   4
ENDBRANCH   2   3
ENDBRANCH   1   2
BRANCH   1  17
ATOM     17  C   UNL     1      47.626  35.575  14.847  1.00  0.00     0.000 C 
BRANCH  17  18
ATOM     18  C   UNL     1      48.008  36.324  13.556  1.00  0.00     0.000 C 
BRANCH  18  19
ATOM     19  C   UNL     1      47.203  35.921  12.308  1.00  0.00     0.000 C 
BRANCH  19  20
ATOM     20  C   UNL     1      48.044  35.136  11.285  1.00  0.00     0.000 C 
BRANCH  20  21
ATOM     21  C   UNL     1      49.556  35.273  11.539  1.00  0.00     0.000 C 
BRANCH  21  22
ATOM     22  C   UNL     1      50.358  34.101  10.950  1.00  0.00    -0.000 C 
BRANCH  22  23
ATOM     23  C   UNL     1      51.036  33.247  12.032  1.00  0.00    -0.000 C 
BRANCH  23  24
ATOM     24  C   UNL     1      50.687  33.705  13.459  1.00  0.00    -0.000 C 
BRANCH  24  25
ATOM     25  C   UNL     1      49.791  32.697  14.202  1.00  0.00    -0.000 C 
BRANCH  25  26
ATOM     26  C   UNL     1      49.260  31.537  13.334  1.00  0.00    -0.000 C 
BRANCH  26  27
ATOM     27  C   UNL     1      47.856  31.756  12.745  1.00  0.00    -0.000 C 
BRANCH  27  28
ATOM     28  C   UNL     1      47.779  31.413  11.250  1.00  0.00    -0.000 C 
BRANCH  28  29
ATOM     29  C   UNL     1      46.462  31.907  10.642  1.00  0.00    -0.003 C 
ATOM     30  C   UNL     1      45.537  32.473  11.715  1.00  0.00     0.004 C 
ENDBRANCH  28  29
ENDBRANCH  27  28
ENDBRANCH  26  27
ENDBRANCH  25  26
ENDBRANCH  24  25
ENDBRANCH  23  24
ENDBRANCH  22  23
ENDBRANCH  21  22
ENDBRANCH  20  21
ENDBRANCH  19  20
ENDBRANCH  18  19
ENDBRANCH  17  18
ENDBRANCH   1  17
TORSDOF 26
ENDMDL
MODEL 9
REMARK VINA RESULT:    -5.064      5.748     10.812
REMARK INTER + INTRA:         -16.213
REMARK INTER:                 -10.318
REMARK INTRA:                  -5.895
REMARK UNBOUND:                -3.453
REMARK SMILES CCCCCCCCCCCCCCCCCCCCCCCCCCCC(=O)[O-]
REMARK SMILES IDX 15 1 16 2 17 3 18 4 19 5 20 6 21 7 22 8 23 9 24 10 25 11
REMARK SMILES IDX 26 12 27 13 28 14 29 15 30 16 14 17 13 18 12 19 11 20 10 21
REMARK SMILES IDX 9 22 8 23 7 24 6 25 5 26 4 27 3 28 2 29 1 30
REMARK H PARENT
REMARK Flexibility Score: inf
ROOT
ATOM      1  C   UNL     1      47.960  31.139  14.261  1.00  0.00     0.000 C 
ENDROOT
BRANCH   1   2
ATOM      2  C   UNL     1      46.520  31.654  14.447  1.00  0.00     0.000 C 
BRANCH   2   3
ATOM      3  C   UNL     1      45.462  31.000  13.539  1.00  0.00     0.000 C 
BRANCH   3   4
ATOM      4  C   UNL     1      44.740  29.816  14.206  1.00  0.00     0.000 C 
BRANCH   4   5
ATOM      5  C   UNL     1      43.213  30.020  14.290  1.00  0.00     0.000 C 
BRANCH   5   6
ATOM      6  C   UNL     1      42.764  31.476  14.051  1.00  0.00     0.000 C 
BRANCH   6   7
ATOM      7  C   UNL     1      42.427  32.277  15.323  1.00  0.00     0.000 C 
BRANCH   7   8
ATOM      8  C   UNL     1      43.489  33.306  15.750  1.00  0.00     0.000 C 
BRANCH   8   9
ATOM      9  C   UNL     1      44.027  33.053  17.171  1.00  0.00     0.000 C 
BRANCH   9  10
ATOM     10  C   UNL     1      43.914  31.580  17.593  1.00  0.00     0.000 C 
BRANCH  10  11
ATOM     11  C   UNL     1      45.207  31.033  18.217  1.00  0.00     0.000 C 
BRANCH  11  12
ATOM     12  C   UNL     1      45.488  29.606  17.731  1.00  0.00     0.006 C 
BRANCH  12  13
ATOM     13  C   UNL     1      46.976  29.417  17.419  1.00  0.00     0.053 C 
BRANCH  13  14
ATOM     14  C   UNL     1      47.656  28.662  18.517  1.00  0.00     0.041 C 
ATOM     15  O   UNL     1      46.977  27.982  19.332  1.00  0.00    -0.550 OA
ATOM     16  O   UNL     1      49.037  28.721  18.653  1.00  0.00    -0.550 OA
ENDBRANCH  13  14
ENDBRANCH  12  13
ENDBRANCH  11  12
ENDBRANCH  10  11
ENDBRANCH   9  10
ENDBRANCH   8   9
ENDBRANCH   7   8
ENDBRANCH   6   7
ENDBRANCH   5   6
ENDBRANCH   4   5
ENDBRANCH   3   4
ENDBRANCH   2   3
ENDBRANCH   1   2
BRANCH   1  17
ATOM     17  C   UNL     1      49.009  32.265  14.224  1.00  0.00     0.000 C 
BRANCH  17  18
ATOM     18  C   UNL     1      49.677  32.415  12.844  1.00  0.00     0.000 C 
BRANCH  18  19
ATOM     19  C   UNL     1      49.283  31.344  11.810  1.00  0.00     0.000 C 
BRANCH  19  20
ATOM     20  C   UNL     1      48.730  31.949  10.508  1.00  0.00     0.000 C 
BRANCH  20  21
ATOM     21  C   UNL     1      47.215  32.211  10.581  1.00  0.00     0.000 C 
BRANCH  21  22
ATOM     22  C   UNL     1      46.874  33.709  10.496  1.00  0.00    -0.000 C 
BRANCH  22  23
ATOM     23  C   UNL     1      46.245  34.245  11.791  1.00  0.00    -0.000 C 
BRANCH  23  24
ATOM     24  C   UNL     1      46.731  35.659  12.151  1.00  0.00    -0.000 C 
BRANCH  24  25
ATOM     25  C   UNL     1      48.014  35.646  13.002  1.00  0.00    -0.000 C 
BRANCH  25  26
ATOM     26  C   UNL     1      47.818  36.043  14.480  1.00  0.00    -0.000 C 
BRANCH  26  27
ATOM     27  C   UNL     1      46.852  35.146  15.272  1.00  0.00    -0.000 C 
BRANCH  27  28
ATOM     28  C   UNL     1      47.042  35.263  16.791  1.00  0.00    -0.000 C 
BRANCH  28  29
ATOM     29  C   UNL     1      47.531  33.938  17.385  1.00  0.00    -0.003 C 
ATOM     30  C   UNL     1      49.053  33.907  17.484  1.00  0.00     0.004 C 
ENDBRANCH  28  29
ENDBRANCH  27  28
ENDBRANCH  26  27
ENDBRANCH  25  26
ENDBRANCH  24  25
ENDBRANCH  23  24
ENDBRANCH  22  23
ENDBRANCH  21  22
ENDBRANCH  20  21
ENDBRANCH  19  20
ENDBRANCH  18  19
ENDBRANCH  17  18
ENDBRANCH   1  17
TORSDOF 26
ENDMDL
