MODEL 1
REMARK VINA RESULT:    -3.945      0.000      0.000
REMARK INTER + INTRA:          -7.939
REMARK INTER:                  -6.251
REMARK INTRA:                  -1.688
REMARK UNBOUND:                -1.688
REMARK SMILES CCCCCCCCCCCC(=O)[O-]
REMARK SMILES IDX 7 1 8 2 9 3 10 4 11 5 12 6 13 7 14 8 6 9 5 10 4 11 3 12 2 13
REMARK SMILES IDX 1 14
REMARK H PARENT
REMARK Flexibility Score: inf
ROOT
ATOM      1  C   UNL     1     -44.771   5.627  10.697  1.00  0.00     0.000 C 
ENDROOT
BRANCH   1   2
ATOM      2  C   UNL     1     -45.375   5.626   9.281  1.00  0.00     0.000 C 
BRANCH   2   3
ATOM      3  C   UNL     1     -45.671   7.022   8.696  1.00  0.00     0.000 C 
BRANCH   3   4
ATOM      4  C   UNL     1     -45.221   7.227   7.238  1.00  0.00     0.006 C 
BRANCH   4   5
ATOM      5  C   UNL     1     -44.738   5.930   6.577  1.00  0.00     0.053 C 
BRANCH   5   6
ATOM      6  C   UNL     1     -43.956   6.236   5.339  1.00  0.00     0.041 C 
ATOM      7  O   UNL     1     -43.664   7.427   5.051  1.00  0.00    -0.550 OA
ATOM      8  O   UNL     1     -43.507   5.203   4.526  1.00  0.00    -0.550 OA
ENDBRANCH   5   6
ENDBRANCH   4   5
ENDBRANCH   3   4
ENDBRANCH   2   3
ENDBRANCH   1   2
BRANCH   1   9
ATOM      9  C   UNL     1     -43.279   5.262  10.709  1.00  0.00     0.000 C 
BRANCH   9  10
ATOM     10  C   UNL     1     -42.869   4.579   9.399  1.00  0.00    -0.000 C 
BRANCH  10  11
ATOM     11  C   UNL     1     -41.703   5.319   8.733  1.00  0.00    -0.000 C 
BRANCH  11  12
ATOM     12  C   UNL     1     -41.431   6.659   9.434  1.00  0.00    -0.000 C 
BRANCH  12  13
ATOM     13  C   UNL     1     -41.794   7.868   8.557  1.00  0.00    -0.003 C 
ATOM     14  C   UNL     1     -42.573   8.940   9.320  1.00  0.00     0.004 C 
ENDBRANCH  12  13
ENDBRANCH  11  12
ENDBRANCH  10  11
ENDBRANCH   9  10
ENDBRANCH   1   9
TORSDOF 10
ENDMDL
MODEL 2
REMARK VINA RESULT:    -3.806      1.063      2.293
REMARK INTER + INTRA:          -7.719
REMARK INTER:                  -6.123
REMARK INTRA:                  -1.596
REMARK UNBOUND:                -1.688
REMARK SMILES CCCCCCCCCCCC(=O)[O-]
REMARK SMILES IDX 7 1 8 2 9 3 10 4 11 5 12 6 13 7 14 8 6 9 5 10 4 11 3 12 2 13
REMARK SMILES IDX 1 14
REMARK H PARENT
REMARK Flexibility Score: inf
ROOT
ATOM      1  C   UNL     1     -42.439   5.113   8.635  1.00  0.00     0.000 C 
ENDROOT
BRANCH   1   2
ATOM      2  C   UNL     1     -43.758   5.124   9.429  1.00  0.00     0.000 C 
BRANCH   2   3
ATOM      3  C   UNL     1     -45.009   5.510   8.613  1.00  0.00     0.000 C 
BRANCH   3   4
ATOM      4  C   UNL     1     -44.912   5.236   7.101  1.00  0.00     0.006 C 
BRANCH   4   5
ATOM      5  C   UNL     1     -45.006   6.514   6.257  1.00  0.00     0.053 C 
BRANCH   5   6
ATOM      6  C   UNL     1     -43.978   6.497   5.171  1.00  0.00     0.041 C 
ATOM      7  O   UNL     1     -43.550   7.577   4.685  1.00  0.00    -0.550 OA
ATOM      8  O   UNL     1     -43.457   5.288   4.726  1.00  0.00    -0.550 OA
ENDBRANCH   5   6
ENDBRANCH   4   5
ENDBRANCH   3   4
ENDBRANCH   2   3
ENDBRANCH   1   2
BRANCH   1   9
ATOM      9  C   UNL     1     -41.392   6.082   9.204  1.00  0.00     0.000 C 
BRANCH   9  10
ATOM     10  C   UNL     1     -41.985   7.484   9.391  1.00  0.00    -0.000 C 
BRANCH  10  11
ATOM     11  C   UNL     1     -41.805   8.331   8.127  1.00  0.00    -0.000 C 
BRANCH  11  12
ATOM     12  C   UNL     1     -43.058   9.176   7.848  1.00  0.00    -0.000 C 
BRANCH  12  13
ATOM     13  C   UNL     1     -44.087   9.097   8.986  1.00  0.00    -0.003 C 
ATOM     14  C   UNL     1     -45.520   9.327   8.505  1.00  0.00     0.004 C 
ENDBRANCH  12  13
ENDBRANCH  11  12
ENDBRANCH  10  11
ENDBRANCH   9  10
ENDBRANCH   1   9
TORSDOF 10
ENDMDL
MODEL 3
REMARK VINA RESULT:    -3.781      0.933      2.462
REMARK INTER + INTRA:          -7.679
REMARK INTER:                  -6.082
REMARK INTRA:                  -1.596
REMARK UNBOUND:                -1.688
REMARK SMILES CCCCCCCCCCCC(=O)[O-]
REMARK SMILES IDX 7 1 8 2 9 3 10 4 11 5 12 6 13 7 14 8 6 9 5 10 4 11 3 12 2 13
REMARK SMILES IDX 1 14
REMARK H PARENT
REMARK Flexibility Score: inf
ROOT
ATOM      1  C   UNL     1     -45.255   8.199   8.903  1.00  0.00     0.000 C 
ENDROOT
BRANCH   1   2
ATOM      2  C   UNL     1     -45.569   6.760   9.349  1.00  0.00     0.000 C 
BRANCH   2   3
ATOM      3  C   UNL     1     -45.751   5.744   8.203  1.00  0.00     0.000 C 
BRANCH   3   4
ATOM      4  C   UNL     1     -45.184   6.189   6.842  1.00  0.00     0.006 C 
BRANCH   4   5
ATOM      5  C   UNL     1     -44.384   5.083   6.141  1.00  0.00     0.053 C 
BRANCH   5   6
ATOM      6  C   UNL     1     -43.705   5.624   4.923  1.00  0.00     0.041 C 
ATOM      7  O   UNL     1     -43.720   6.860   4.685  1.00  0.00    -0.550 OA
ATOM      8  O   UNL     1     -43.013   4.768   4.075  1.00  0.00    -0.550 OA
ENDBRANCH   5   6
ENDBRANCH   4   5
ENDBRANCH   3   4
ENDBRANCH   2   3
ENDBRANCH   1   2
BRANCH   1   9
ATOM      9  C   UNL     1     -44.001   8.774   9.580  1.00  0.00     0.000 C 
BRANCH   9  10
ATOM     10  C   UNL     1     -42.962   9.203   8.538  1.00  0.00    -0.000 C 
BRANCH  10  11
ATOM     11  C   UNL     1     -42.096   8.015   8.101  1.00  0.00    -0.000 C 
BRANCH  11  12
ATOM     12  C   UNL     1     -41.796   7.088   9.289  1.00  0.00    -0.000 C 
BRANCH  12  13
ATOM     13  C   UNL     1     -41.882   5.601   8.912  1.00  0.00    -0.003 C 
ATOM     14  C   UNL     1     -42.593   4.761   9.974  1.00  0.00     0.004 C 
ENDBRANCH  12  13
ENDBRANCH  11  12
ENDBRANCH  10  11
ENDBRANCH   9  10
ENDBRANCH   1   9
TORSDOF 10
ENDMDL
MODEL 4
REMARK VINA RESULT:    -3.776      1.320      2.574
REMARK INTER + INTRA:          -7.671
REMARK INTER:                  -6.404
REMARK INTRA:                  -1.266
REMARK UNBOUND:                -1.688
REMARK SMILES CCCCCCCCCCCC(=O)[O-]
REMARK SMILES IDX 7 1 8 2 9 3 10 4 11 5 12 6 13 7 14 8 6 9 5 10 4 11 3 12 2 13
REMARK SMILES IDX 1 14
REMARK H PARENT
REMARK Flexibility Score: inf
ROOT
ATOM      1  C   UNL     1     -45.493   7.360   8.580  1.00  0.00     0.000 C 
ENDROOT
BRANCH   1   2
ATOM      2  C   UNL     1     -45.463   8.658   7.753  1.00  0.00     0.000 C 
BRANCH   2   3
ATOM      3  C   UNL     1     -44.102   8.992   7.110  1.00  0.00     0.000 C 
BRANCH   3   4
ATOM      4  C   UNL     1     -43.332   7.783   6.547  1.00  0.00     0.006 C 
BRANCH   4   5
ATOM      5  C   UNL     1     -43.960   7.223   5.265  1.00  0.00     0.053 C 
BRANCH   5   6
ATOM      6  C   UNL     1     -43.948   5.727   5.290  1.00  0.00     0.041 C 
ATOM      7  O   UNL     1     -44.595   5.102   6.170  1.00  0.00    -0.550 OA
ATOM      8  O   UNL     1     -43.259   5.021   4.311  1.00  0.00    -0.550 OA
ENDBRANCH   5   6
ENDBRANCH   4   5
ENDBRANCH   3   4
ENDBRANCH   2   3
ENDBRANCH   1   2
BRANCH   1   9
ATOM      9  C   UNL     1     -45.016   7.563  10.026  1.00  0.00     0.000 C 
BRANCH   9  10
ATOM     10  C   UNL     1     -44.904   6.221  10.761  1.00  0.00    -0.000 C 
BRANCH  10  11
ATOM     11  C   UNL     1     -44.514   5.096   9.796  1.00  0.00    -0.000 C 
BRANCH  11  12
ATOM     12  C   UNL     1     -43.036   4.713   9.966  1.00  0.00    -0.000 C 
BRANCH  12  13
ATOM     13  C   UNL     1     -42.157   5.230   8.816  1.00  0.00    -0.003 C 
ATOM     14  C   UNL     1     -41.335   6.459   9.205  1.00  0.00     0.004 C 
ENDBRANCH  12  13
ENDBRANCH  11  12
ENDBRANCH  10  11
ENDBRANCH   9  10
ENDBRANCH   1   9
TORSDOF 10
ENDMDL
MODEL 5
REMARK VINA RESULT:    -3.754      1.320      2.435
REMARK INTER + INTRA:          -7.635
REMARK INTER:                  -6.115
REMARK INTRA:                  -1.520
REMARK UNBOUND:                -1.688
REMARK SMILES CCCCCCCCCCCC(=O)[O-]
REMARK SMILES IDX 7 1 8 2 9 3 10 4 11 5 12 6 13 7 14 8 6 9 5 10 4 11 3 12 2 13
REMARK SMILES IDX 1 14
REMARK H PARENT
REMARK Flexibility Score: inf
ROOT
ATOM      1  C   UNL     1     -45.604   5.684   9.892  1.00  0.00     0.000 C 
ENDROOT
BRANCH   1   2
ATOM      2  C   UNL     1     -44.225   5.070   9.594  1.00  0.00     0.000 C 
BRANCH   2   3
ATOM      3  C   UNL     1     -43.714   5.278   8.153  1.00  0.00     0.000 C 
BRANCH   3   4
ATOM      4  C   UNL     1     -44.804   5.268   7.066  1.00  0.00     0.006 C 
BRANCH   4   5
ATOM      5  C   UNL     1     -44.900   6.598   6.307  1.00  0.00     0.053 C 
BRANCH   5   6
ATOM      6  C   UNL     1     -43.975   6.593   5.131  1.00  0.00     0.041 C 
ATOM      7  O   UNL     1     -43.609   7.678   4.608  1.00  0.00    -0.550 OA
ATOM      8  O   UNL     1     -43.479   5.391   4.641  1.00  0.00    -0.550 OA
ENDBRANCH   5   6
ENDBRANCH   4   5
ENDBRANCH   3   4
ENDBRANCH   2   3
ENDBRANCH   1   2
BRANCH   1   9
ATOM      9  C   UNL     1     -45.555   6.758  10.989  1.00  0.00     0.000 C 
BRANCH   9  10
ATOM     10  C   UNL     1     -44.647   7.923  10.577  1.00  0.00    -0.000 C 
BRANCH  10  11
ATOM     11  C   UNL     1     -45.206   8.651   9.349  1.00  0.00    -0.000 C 
BRANCH  11  12
ATOM     12  C   UNL     1     -44.091   9.387   8.591  1.00  0.00    -0.000 C 
BRANCH  12  13
ATOM     13  C   UNL     1     -42.737   8.666   8.687  1.00  0.00    -0.003 C 
ATOM     14  C   UNL     1     -41.835   8.938   7.483  1.00  0.00     0.004 C 
ENDBRANCH  12  13
ENDBRANCH  11  12
ENDBRANCH  10  11
ENDBRANCH   9  10
ENDBRANCH   1   9
TORSDOF 10
ENDMDL
MODEL 6
REMARK VINA RESULT:    -3.693      1.835      4.157
REMARK INTER + INTRA:          -7.539
REMARK INTER:                  -5.989
REMARK INTRA:                  -1.549
REMARK UNBOUND:                -1.688
REMARK SMILES CCCCCCCCCCCC(=O)[O-]
REMARK SMILES IDX 7 1 8 2 9 3 10 4 11 5 12 6 13 7 14 8 6 9 5 10 4 11 3 12 2 13
REMARK SMILES IDX 1 14
REMARK H PARENT
REMARK Flexibility Score: inf
ROOT
ATOM      1  C   UNL     1     -44.923   5.264  10.640  1.00  0.00     0.000 C 
ENDROOT
BRANCH   1   2
ATOM      2  C   UNL     1     -43.393   5.091  10.640  1.00  0.00     0.000 C 
BRANCH   2   3
ATOM      3  C   UNL     1     -42.772   4.768   9.266  1.00  0.00     0.000 C 
BRANCH   3   4
ATOM      4  C   UNL     1     -41.679   5.747   8.798  1.00  0.00     0.006 C 
BRANCH   4   5
ATOM      5  C   UNL     1     -41.445   6.895   9.788  1.00  0.00     0.053 C 
BRANCH   5   6
ATOM      6  C   UNL     1     -41.845   8.200   9.176  1.00  0.00     0.041 C 
ATOM      7  O   UNL     1     -42.558   9.012   9.822  1.00  0.00    -0.550 OA
ATOM      8  O   UNL     1     -41.390   8.541   7.909  1.00  0.00    -0.550 OA
ENDBRANCH   5   6
ENDBRANCH   4   5
ENDBRANCH   3   4
ENDBRANCH   2   3
ENDBRANCH   1   2
BRANCH   1   9
ATOM      9  C   UNL     1     -45.368   6.634  10.106  1.00  0.00     0.000 C 
BRANCH   9  10
ATOM     10  C   UNL     1     -45.848   6.528   8.653  1.00  0.00    -0.000 C 
BRANCH  10  11
ATOM     11  C   UNL     1     -45.379   7.733   7.829  1.00  0.00    -0.000 C 
BRANCH  11  12
ATOM     12  C   UNL     1     -44.427   7.293   6.706  1.00  0.00    -0.000 C 
BRANCH  12  13
ATOM     13  C   UNL     1     -44.708   5.863   6.220  1.00  0.00    -0.003 C 
ATOM     14  C   UNL     1     -43.719   5.395   5.152  1.00  0.00     0.004 C 
ENDBRANCH  12  13
ENDBRANCH  11  12
ENDBRANCH  10  11
ENDBRANCH   9  10
ENDBRANCH   1   9
TORSDOF 10
ENDMDL
MODEL 7
REMARK VINA RESULT:    -3.665      1.086      3.087
REMARK INTER + INTRA:          -7.495
REMARK INTER:                  -6.061
REMARK INTRA:                  -1.435
REMARK UNBOUND:                -1.688
REMARK SMILES CCCCCCCCCCCC(=O)[O-]
REMARK SMILES IDX 7 1 8 2 9 3 10 4 11 5 12 6 13 7 14 8 6 9 5 10 4 11 3 12 2 13
REMARK SMILES IDX 1 14
REMARK H PARENT
REMARK Flexibility Score: inf
ROOT
ATOM      1  C   UNL     1     -41.425   6.952   9.268  1.00  0.00     0.000 C 
ENDROOT
BRANCH   1   2
ATOM      2  C   UNL     1     -42.008   7.939   8.241  1.00  0.00     0.000 C 
BRANCH   2   3
ATOM      3  C   UNL     1     -43.505   8.262   8.421  1.00  0.00     0.000 C 
BRANCH   3   4
ATOM      4  C   UNL     1     -44.431   7.694   7.330  1.00  0.00     0.006 C 
BRANCH   4   5
ATOM      5  C   UNL     1     -43.692   7.399   6.018  1.00  0.00     0.053 C 
BRANCH   5   6
ATOM      6  C   UNL     1     -43.978   6.003   5.563  1.00  0.00     0.041 C 
ATOM      7  O   UNL     1     -43.563   5.603   4.443  1.00  0.00    -0.550 OA
ATOM      8  O   UNL     1     -44.663   5.127   6.395  1.00  0.00    -0.550 OA
ENDBRANCH   5   6
ENDBRANCH   4   5
ENDBRANCH   3   4
ENDBRANCH   2   3
ENDBRANCH   1   2
BRANCH   1   9
ATOM      9  C   UNL     1     -41.673   5.484   8.893  1.00  0.00     0.000 C 
BRANCH   9  10
ATOM     10  C   UNL     1     -42.443   4.756  10.001  1.00  0.00    -0.000 C 
BRANCH  10  11
ATOM     11  C   UNL     1     -43.956   4.863   9.783  1.00  0.00    -0.000 C 
BRANCH  11  12
ATOM     12  C   UNL     1     -44.608   5.734  10.869  1.00  0.00    -0.000 C 
BRANCH  12  13
ATOM     13  C   UNL     1     -46.079   6.056  10.564  1.00  0.00    -0.003 C 
ATOM     14  C   UNL     1     -46.614   5.287   9.355  1.00  0.00     0.004 C 
ENDBRANCH  12  13
ENDBRANCH  11  12
ENDBRANCH  10  11
ENDBRANCH   9  10
ENDBRANCH   1   9
TORSDOF 10
ENDMDL
MODEL 8
REMARK VINA RESULT:    -3.616      2.614      4.566
REMARK INTER + INTRA:          -7.417
REMARK INTER:                  -6.144
REMARK INTRA:                  -1.273
REMARK UNBOUND:                -1.688
REMARK SMILES CCCCCCCCCCCC(=O)[O-]
REMARK SMILES IDX 7 1 8 2 9 3 10 4 11 5 12 6 13 7 14 8 6 9 5 10 4 11 3 12 2 13
REMARK SMILES IDX 1 14
REMARK H PARENT
REMARK Flexibility Score: inf
ROOT
ATOM      1  C   UNL     1     -45.531   8.473   8.225  1.00  0.00     0.000 C 
ENDROOT
BRANCH   1   2
ATOM      2  C   UNL     1     -45.139   7.853   9.578  1.00  0.00     0.000 C 
BRANCH   2   3
ATOM      3  C   UNL     1     -45.446   6.348   9.721  1.00  0.00     0.000 C 
BRANCH   3   4
ATOM      4  C   UNL     1     -44.423   5.549  10.549  1.00  0.00     0.006 C 
BRANCH   4   5
ATOM      5  C   UNL     1     -43.326   4.914   9.685  1.00  0.00     0.053 C 
BRANCH   5   6
ATOM      6  C   UNL     1     -41.978   5.401  10.115  1.00  0.00     0.041 C 
ATOM      7  O   UNL     1     -41.275   4.711  10.900  1.00  0.00    -0.550 OA
ATOM      8  O   UNL     1     -41.478   6.595   9.612  1.00  0.00    -0.550 OA
ENDBRANCH   5   6
ENDBRANCH   4   5
ENDBRANCH   3   4
ENDBRANCH   2   3
ENDBRANCH   1   2
BRANCH   1   9
ATOM      9  C   UNL     1     -44.385   9.264   7.576  1.00  0.00     0.000 C 
BRANCH   9  10
ATOM     10  C   UNL     1     -43.283   8.324   7.074  1.00  0.00    -0.000 C 
BRANCH  10  11
ATOM     11  C   UNL     1     -43.275   8.253   5.543  1.00  0.00    -0.000 C 
BRANCH  11  12
ATOM     12  C   UNL     1     -43.938   6.959   5.048  1.00  0.00    -0.000 C 
BRANCH  12  13
ATOM     13  C   UNL     1     -43.768   5.794   6.036  1.00  0.00    -0.003 C 
ATOM     14  C   UNL     1     -45.102   5.182   6.465  1.00  0.00     0.004 C 
ENDBRANCH  12  13
ENDBRANCH  11  12
ENDBRANCH  10  11
ENDBRANCH   9  10
ENDBRANCH   1   9
TORSDOF 10
ENDMDL
MODEL 9
REMARK VINA RESULT:    -3.546      1.783      3.893
REMARK INTER + INTRA:          -7.306
REMARK INTER:                  -5.665
REMARK INTRA:                  -1.641
REMARK UNBOUND:                -1.688
REMARK SMILES CCCCCCCCCCCC(=O)[O-]
REMARK SMILES IDX 7 1 8 2 9 3 10 4 11 5 12 6 13 7 14 8 6 9 5 10 4 11 3 12 2 13
REMARK SMILES IDX 1 14
REMARK H PARENT
REMARK Flexibility Score: inf
ROOT
ATOM      1  C   UNL     1     -42.660   4.798   9.772  1.00  0.00     0.000 C 
ENDROOT
BRANCH   1   2
ATOM      2  C   UNL     1     -41.804   5.665   8.832  1.00  0.00     0.000 C 
BRANCH   2   3
ATOM      3  C   UNL     1     -41.755   7.165   9.187  1.00  0.00     0.000 C 
BRANCH   3   4
ATOM      4  C   UNL     1     -42.432   8.099   8.167  1.00  0.00     0.006 C 
BRANCH   4   5
ATOM      5  C   UNL     1     -43.438   9.058   8.816  1.00  0.00     0.053 C 
BRANCH   5   6
ATOM      6  C   UNL     1     -44.431   9.534   7.802  1.00  0.00     0.041 C 
ATOM      7  O   UNL     1     -44.042   9.945   6.678  1.00  0.00    -0.550 OA
ATOM      8  O   UNL     1     -45.790   9.479   8.083  1.00  0.00    -0.550 OA
ENDBRANCH   5   6
ENDBRANCH   4   5
ENDBRANCH   3   4
ENDBRANCH   2   3
ENDBRANCH   1   2
BRANCH   1   9
ATOM      9  C   UNL     1     -43.799   5.586  10.438  1.00  0.00     0.000 C 
BRANCH   9  10
ATOM     10  C   UNL     1     -45.164   5.129   9.912  1.00  0.00    -0.000 C 
BRANCH  10  11
ATOM     11  C   UNL     1     -45.646   6.034   8.772  1.00  0.00    -0.000 C 
BRANCH  11  12
ATOM     12  C   UNL     1     -45.518   5.324   7.415  1.00  0.00    -0.000 C 
BRANCH  12  13
ATOM     13  C   UNL     1     -44.927   6.234   6.327  1.00  0.00    -0.003 C 
ATOM     14  C   UNL     1     -43.779   5.574   5.562  1.00  0.00     0.004 C 
ENDBRANCH  12  13
ENDBRANCH  11  12
ENDBRANCH  10  11
ENDBRANCH   9  10
ENDBRANCH   1   9
TORSDOF 10
ENDMDL
