MODEL 1
REMARK VINA RESULT:    -6.111      0.000      0.000
REMARK INTER + INTRA:          -7.710
REMARK INTER:                  -7.362
REMARK INTRA:                  -0.349
REMARK UNBOUND:                -0.349
REMARK SMILES Oc1cc(O)c2cc(O)c(-c3ccc(O)c(O)c3)[o+]c2c1.[Cl-]
REMARK SMILES IDX 10 1 19 2 20 3 21 4 2 5 3 6 4 7 6 8 7 9 8 10 11 11 12 12
REMARK SMILES IDX 13 13 14 14 18 15 16 16 15 17 17 19 9 21 1 23 5 25
REMARK H PARENT 15 18 17 20 9 22 1 24 5 26
REMARK Flexibility Score: inf
ROOT
ATOM      1  C   UNL     1     137.135 142.921 123.319  1.00  0.00     0.402 A 
ATOM      2  O   UNL     1     137.762 142.865 122.147  1.00  0.00    -0.202 OA
ATOM      3  C   UNL     1     139.032 142.492 122.016  1.00  0.00     0.368 A 
ATOM      4  C   UNL     1     139.603 142.462 120.741  1.00  0.00     0.162 A 
ATOM      5  C   UNL     1     140.935 142.071 120.574  1.00  0.00     0.128 A 
ATOM      6  C   UNL     1     141.698 141.708 121.687  1.00  0.00     0.093 A 
ATOM      7  C   UNL     1     141.148 141.729 122.975  1.00  0.00     0.136 A 
ATOM      8  C   UNL     1     139.797 142.128 123.150  1.00  0.00     0.125 A 
ATOM      9  C   UNL     1     139.168 142.193 124.404  1.00  0.00     0.078 A 
ATOM     10  C   UNL     1     137.834 142.600 124.497  1.00  0.00     0.223 A 
ENDROOT
BRANCH   1  11
ATOM     11  C   UNL     1     135.715 143.343 123.333  1.00  0.00     0.087 A 
ATOM     12  C   UNL     1     135.354 144.691 123.497  1.00  0.00     0.022 A 
ATOM     13  C   UNL     1     134.007 145.062 123.531  1.00  0.00     0.051 A 
ATOM     14  C   UNL     1     133.003 144.092 123.412  1.00  0.00     0.157 A 
ATOM     15  C   UNL     1     134.705 142.372 123.236  1.00  0.00     0.068 A 
ATOM     16  C   UNL     1     133.353 142.744 123.268  1.00  0.00     0.158 A 
BRANCH  14  17
ATOM     17  O   UNL     1     131.659 144.458 123.443  1.00  0.00    -0.504 OA
ATOM     18  H   UNL     1     131.174 144.764 122.608  1.00  0.00     0.293 HD
ENDBRANCH  14  17
BRANCH  16  19
ATOM     19  O   UNL     1     132.354 141.779 123.159  1.00  0.00    -0.504 OA
ATOM     20  H   UNL     1     131.373 142.017 123.254  1.00  0.00     0.293 HD
ENDBRANCH  16  19
ENDBRANCH   1  11
BRANCH  10  21
ATOM     21  O   UNL     1     137.223 142.713 125.747  1.00  0.00    -0.500 OA
ATOM     22  H   UNL     1     137.351 143.531 126.331  1.00  0.00     0.294 HD
ENDBRANCH  10  21
BRANCH   5  23
ATOM     23  O   UNL     1     141.511 142.038 119.307  1.00  0.00    -0.507 OA
ATOM     24  H   UNL     1     142.502 142.199 119.171  1.00  0.00     0.293 HD
ENDBRANCH   5  23
BRANCH   7  25
ATOM     25  O   UNL     1     141.977 141.349 124.034  1.00  0.00    -0.507 OA
ATOM     26  H   UNL     1     142.269 141.966 124.778  1.00  0.00     0.293 HD
ENDBRANCH   7  25
TORSDOF 6
ENDMDL
MODEL 2
REMARK VINA RESULT:    -6.100      8.363     11.038
REMARK INTER + INTRA:          -7.697
REMARK INTER:                  -7.352
REMARK INTRA:                  -0.345
REMARK UNBOUND:                -0.349
REMARK SMILES Oc1cc(O)c2cc(O)c(-c3ccc(O)c(O)c3)[o+]c2c1.[Cl-]
REMARK SMILES IDX 10 1 19 2 20 3 21 4 2 5 3 6 4 7 6 8 7 9 8 10 11 11 12 12
REMARK SMILES IDX 13 13 14 14 18 15 16 16 15 17 17 19 9 21 1 23 5 25
REMARK H PARENT 15 18 17 20 9 22 1 24 5 26
REMARK Flexibility Score: inf
ROOT
ATOM      1  C   UNL     1     131.850 136.323 126.865  1.00  0.00     0.402 A 
ATOM      2  O   UNL     1     131.944 135.140 126.263  1.00  0.00    -0.202 OA
ATOM      3  C   UNL     1     131.358 134.038 126.722  1.00  0.00     0.368 A 
ATOM      4  C   UNL     1     131.512 132.842 126.017  1.00  0.00     0.162 A 
ATOM      5  C   UNL     1     130.905 131.670 126.476  1.00  0.00     0.128 A 
ATOM      6  C   UNL     1     130.139 131.694 127.644  1.00  0.00     0.093 A 
ATOM      7  C   UNL     1     129.969 132.881 128.369  1.00  0.00     0.136 A 
ATOM      8  C   UNL     1     130.586 134.073 127.909  1.00  0.00     0.125 A 
ATOM      9  C   UNL     1     130.482 135.304 128.578  1.00  0.00     0.078 A 
ATOM     10  C   UNL     1     131.122 136.436 128.065  1.00  0.00     0.223 A 
ENDROOT
BRANCH   1  11
ATOM     11  C   UNL     1     132.540 137.479 126.249  1.00  0.00     0.087 A 
ATOM     12  C   UNL     1     133.887 137.763 126.532  1.00  0.00     0.022 A 
ATOM     13  C   UNL     1     134.511 138.873 125.957  1.00  0.00     0.051 A 
ATOM     14  C   UNL     1     133.796 139.720 125.101  1.00  0.00     0.157 A 
ATOM     15  C   UNL     1     131.823 138.343 125.406  1.00  0.00     0.068 A 
ATOM     16  C   UNL     1     132.449 139.456 124.827  1.00  0.00     0.158 A 
BRANCH  14  17
ATOM     17  O   UNL     1     134.416 140.827 124.523  1.00  0.00    -0.504 OA
ATOM     18  H   UNL     1     135.079 140.727 123.763  1.00  0.00     0.293 HD
ENDBRANCH  14  17
BRANCH  16  19
ATOM     19  O   UNL     1     131.737 140.305 123.981  1.00  0.00    -0.504 OA
ATOM     20  H   UNL     1     131.163 139.944 123.228  1.00  0.00     0.293 HD
ENDBRANCH  16  19
ENDBRANCH   1  11
BRANCH  10  21
ATOM     21  O   UNL     1     131.061 137.647 128.756  1.00  0.00    -0.500 OA
ATOM     22  H   UNL     1     130.313 138.312 128.600  1.00  0.00     0.294 HD
ENDBRANCH  10  21
BRANCH   5  23
ATOM     23  O   UNL     1     131.054 130.474 125.778  1.00  0.00    -0.507 OA
ATOM     24  H   UNL     1     131.315 129.615 126.248  1.00  0.00     0.293 HD
ENDBRANCH   5  23
BRANCH   7  25
ATOM     25  O   UNL     1     129.187 132.821 129.526  1.00  0.00    -0.507 OA
ATOM     26  H   UNL     1     129.458 133.211 130.417  1.00  0.00     0.293 HD
ENDBRANCH   7  25
TORSDOF 6
ENDMDL
MODEL 3
REMARK VINA RESULT:    -5.992      9.292     12.001
REMARK INTER + INTRA:          -7.566
REMARK INTER:                  -7.463
REMARK INTRA:                  -0.103
REMARK UNBOUND:                -0.349
REMARK SMILES Oc1cc(O)c2cc(O)c(-c3ccc(O)c(O)c3)[o+]c2c1.[Cl-]
REMARK SMILES IDX 10 1 19 2 20 3 21 4 2 5 3 6 4 7 6 8 7 9 8 10 11 11 12 12
REMARK SMILES IDX 13 13 14 14 18 15 16 16 15 17 17 19 9 21 1 23 5 25
REMARK H PARENT 15 18 17 20 9 22 1 24 5 26
REMARK Flexibility Score: inf
ROOT
ATOM      1  C   UNL     1     132.769 134.030 126.074  1.00  0.00     0.402 A 
ATOM      2  O   UNL     1     133.105 134.754 127.138  1.00  0.00    -0.202 OA
ATOM      3  C   UNL     1     132.666 135.992 127.347  1.00  0.00     0.368 A 
ATOM      4  C   UNL     1     133.073 136.673 128.497  1.00  0.00     0.162 A 
ATOM      5  C   UNL     1     132.625 137.973 128.743  1.00  0.00     0.128 A 
ATOM      6  C   UNL     1     131.765 138.596 127.835  1.00  0.00     0.093 A 
ATOM      7  C   UNL     1     131.343 137.935 126.674  1.00  0.00     0.136 A 
ATOM      8  C   UNL     1     131.798 136.615 126.419  1.00  0.00     0.125 A 
ATOM      9  C   UNL     1     131.438 135.882 125.276  1.00  0.00     0.078 A 
ATOM     10  C   UNL     1     131.930 134.587 125.091  1.00  0.00     0.223 A 
ENDROOT
BRANCH   1  11
ATOM     11  C   UNL     1     133.316 132.659 125.960  1.00  0.00     0.087 A 
ATOM     12  C   UNL     1     133.105 131.700 126.966  1.00  0.00     0.022 A 
ATOM     13  C   UNL     1     133.651 130.420 126.849  1.00  0.00     0.051 A 
ATOM     14  C   UNL     1     134.424 130.081 125.730  1.00  0.00     0.157 A 
ATOM     15  C   UNL     1     134.109 132.320 124.851  1.00  0.00     0.068 A 
ATOM     16  C   UNL     1     134.656 131.035 124.731  1.00  0.00     0.158 A 
BRANCH  14  17
ATOM     17  O   UNL     1     134.968 128.804 125.608  1.00  0.00    -0.504 OA
ATOM     18  H   UNL     1     134.728 128.198 124.832  1.00  0.00     0.293 HD
ENDBRANCH  14  17
BRANCH  16  19
ATOM     19  O   UNL     1     135.433 130.699 123.624  1.00  0.00    -0.504 OA
ATOM     20  H   UNL     1     135.138 130.925 122.681  1.00  0.00     0.293 HD
ENDBRANCH  16  19
ENDBRANCH   1  11
BRANCH  10  21
ATOM     21  O   UNL     1     131.613 133.878 123.932  1.00  0.00    -0.500 OA
ATOM     22  H   UNL     1     132.265 133.226 123.511  1.00  0.00     0.294 HD
ENDBRANCH  10  21
BRANCH   5  23
ATOM     23  O   UNL     1     133.025 138.657 129.888  1.00  0.00    -0.507 OA
ATOM     24  H   UNL     1     133.361 138.167 130.709  1.00  0.00     0.293 HD
ENDBRANCH   5  23
BRANCH   7  25
ATOM     25  O   UNL     1     130.481 138.626 125.818  1.00  0.00    -0.507 OA
ATOM     26  H   UNL     1     129.634 138.239 125.428  1.00  0.00     0.293 HD
ENDBRANCH   7  25
TORSDOF 6
ENDMDL
MODEL 4
REMARK VINA RESULT:    -5.989      9.650     12.446
REMARK INTER + INTRA:          -7.564
REMARK INTER:                  -7.214
REMARK INTRA:                  -0.349
REMARK UNBOUND:                -0.349
REMARK SMILES Oc1cc(O)c2cc(O)c(-c3ccc(O)c(O)c3)[o+]c2c1.[Cl-]
REMARK SMILES IDX 10 1 19 2 20 3 21 4 2 5 3 6 4 7 6 8 7 9 8 10 11 11 12 12
REMARK SMILES IDX 13 13 14 14 18 15 16 16 15 17 17 19 9 21 1 23 5 25
REMARK H PARENT 15 18 17 20 9 22 1 24 5 26
REMARK Flexibility Score: inf
ROOT
ATOM      1  C   UNL     1     131.730 134.612 126.628  1.00  0.00     0.402 A 
ATOM      2  O   UNL     1     131.357 134.520 127.902  1.00  0.00    -0.202 OA
ATOM      3  C   UNL     1     130.816 133.425 128.428  1.00  0.00     0.368 A 
ATOM      4  C   UNL     1     130.459 133.424 129.779  1.00  0.00     0.162 A 
ATOM      5  C   UNL     1     129.891 132.286 130.357  1.00  0.00     0.128 A 
ATOM      6  C   UNL     1     129.679 131.143 129.582  1.00  0.00     0.093 A 
ATOM      7  C   UNL     1     130.028 131.119 128.225  1.00  0.00     0.136 A 
ATOM      8  C   UNL     1     130.603 132.274 127.633  1.00  0.00     0.125 A 
ATOM      9  C   UNL     1     130.971 132.345 126.279  1.00  0.00     0.078 A 
ATOM     10  C   UNL     1     131.528 133.519 125.765  1.00  0.00     0.223 A 
ENDROOT
BRANCH   1  11
ATOM     11  C   UNL     1     132.331 135.884 126.165  1.00  0.00     0.087 A 
ATOM     12  C   UNL     1     133.713 136.121 126.269  1.00  0.00     0.022 A 
ATOM     13  C   UNL     1     134.254 137.337 125.847  1.00  0.00     0.051 A 
ATOM     14  C   UNL     1     133.423 138.338 125.327  1.00  0.00     0.157 A 
ATOM     15  C   UNL     1     131.500 136.898 125.662  1.00  0.00     0.068 A 
ATOM     16  C   UNL     1     132.043 138.119 125.237  1.00  0.00     0.158 A 
BRANCH  14  17
ATOM     17  O   UNL     1     133.960 139.552 124.903  1.00  0.00    -0.504 OA
ATOM     18  H   UNL     1     133.751 139.934 123.987  1.00  0.00     0.293 HD
ENDBRANCH  14  17
BRANCH  16  19
ATOM     19  O   UNL     1     131.217 139.119 124.727  1.00  0.00    -0.504 OA
ATOM     20  H   UNL     1     131.266 139.404 123.756  1.00  0.00     0.293 HD
ENDBRANCH  16  19
ENDBRANCH   1  11
BRANCH  10  21
ATOM     21  O   UNL     1     131.846 133.607 124.409  1.00  0.00    -0.500 OA
ATOM     22  H   UNL     1     132.762 133.352 124.059  1.00  0.00     0.294 HD
ENDBRANCH  10  21
BRANCH   5  23
ATOM     23  O   UNL     1     129.533 132.277 131.703  1.00  0.00    -0.507 OA
ATOM     24  H   UNL     1     128.797 132.876 132.060  1.00  0.00     0.293 HD
ENDBRANCH   5  23
BRANCH   7  25
ATOM     25  O   UNL     1     129.786 129.937 127.520  1.00  0.00    -0.507 OA
ATOM     26  H   UNL     1     128.870 129.539 127.372  1.00  0.00     0.293 HD
ENDBRANCH   7  25
TORSDOF 6
ENDMDL
MODEL 5
REMARK VINA RESULT:    -5.926      8.619     10.583
REMARK INTER + INTRA:          -7.488
REMARK INTER:                  -7.151
REMARK INTRA:                  -0.337
REMARK UNBOUND:                -0.349
REMARK SMILES Oc1cc(O)c2cc(O)c(-c3ccc(O)c(O)c3)[o+]c2c1.[Cl-]
REMARK SMILES IDX 10 1 19 2 20 3 21 4 2 5 3 6 4 7 6 8 7 9 8 10 11 11 12 12
REMARK SMILES IDX 13 13 14 14 18 15 16 16 15 17 17 19 9 21 1 23 5 25
REMARK H PARENT 15 18 17 20 9 22 1 24 5 26
REMARK Flexibility Score: inf
ROOT
ATOM      1  C   UNL     1     131.199 137.109 126.717  1.00  0.00     0.402 A 
ATOM      2  O   UNL     1     130.744 136.010 127.312  1.00  0.00    -0.202 OA
ATOM      3  C   UNL     1     131.095 134.782 126.945  1.00  0.00     0.368 A 
ATOM      4  C   UNL     1     130.565 133.688 127.634  1.00  0.00     0.162 A 
ATOM      5  C   UNL     1     130.920 132.386 127.270  1.00  0.00     0.128 A 
ATOM      6  C   UNL     1     131.809 132.177 126.213  1.00  0.00     0.093 A 
ATOM      7  C   UNL     1     132.354 133.256 125.506  1.00  0.00     0.136 A 
ATOM      8  C   UNL     1     131.994 134.580 125.870  1.00  0.00     0.125 A 
ATOM      9  C   UNL     1     132.480 135.721 125.210  1.00  0.00     0.078 A 
ATOM     10  C   UNL     1     132.077 136.994 125.623  1.00  0.00     0.223 A 
ENDROOT
BRANCH   1  11
ATOM     11  C   UNL     1     130.740 138.422 127.227  1.00  0.00     0.087 A 
ATOM     12  C   UNL     1     129.658 139.098 126.638  1.00  0.00     0.022 A 
ATOM     13  C   UNL     1     129.258 140.347 127.120  1.00  0.00     0.051 A 
ATOM     14  C   UNL     1     129.939 140.942 128.190  1.00  0.00     0.157 A 
ATOM     15  C   UNL     1     131.432 139.033 128.285  1.00  0.00     0.068 A 
ATOM     16  C   UNL     1     131.031 140.286 128.771  1.00  0.00     0.158 A 
BRANCH  14  17
ATOM     17  O   UNL     1     129.542 142.187 128.675  1.00  0.00    -0.504 OA
ATOM     18  H   UNL     1     129.235 142.926 128.053  1.00  0.00     0.293 HD
ENDBRANCH  14  17
BRANCH  16  19
ATOM     19  O   UNL     1     131.713 140.883 129.829  1.00  0.00    -0.504 OA
ATOM     20  H   UNL     1     132.453 141.556 129.670  1.00  0.00     0.293 HD
ENDBRANCH  16  19
ENDBRANCH   1  11
BRANCH  10  21
ATOM     21  O   UNL     1     132.519 138.125 124.936  1.00  0.00    -0.500 OA
ATOM     22  H   UNL     1     133.426 138.154 124.484  1.00  0.00     0.294 HD
ENDBRANCH  10  21
BRANCH   5  23
ATOM     23  O   UNL     1     130.397 131.291 127.953  1.00  0.00    -0.507 OA
ATOM     24  H   UNL     1     129.675 130.707 127.545  1.00  0.00     0.293 HD
ENDBRANCH   5  23
BRANCH   7  25
ATOM     25  O   UNL     1     133.237 132.963 124.464  1.00  0.00    -0.507 OA
ATOM     26  H   UNL     1     133.266 132.081 123.973  1.00  0.00     0.293 HD
ENDBRANCH   7  25
TORSDOF 6
ENDMDL
MODEL 6
REMARK VINA RESULT:    -5.926      8.382      9.832
REMARK INTER + INTRA:          -7.487
REMARK INTER:                  -7.134
REMARK INTRA:                  -0.353
REMARK UNBOUND:                -0.349
REMARK SMILES Oc1cc(O)c2cc(O)c(-c3ccc(O)c(O)c3)[o+]c2c1.[Cl-]
REMARK SMILES IDX 10 1 19 2 20 3 21 4 2 5 3 6 4 7 6 8 7 9 8 10 11 11 12 12
REMARK SMILES IDX 13 13 14 14 18 15 16 16 15 17 17 19 9 21 1 23 5 25
REMARK H PARENT 15 18 17 20 9 22 1 24 5 26
REMARK Flexibility Score: inf
ROOT
ATOM      1  C   UNL     1     133.052 135.682 126.390  1.00  0.00     0.402 A 
ATOM      2  O   UNL     1     133.237 134.766 125.444  1.00  0.00    -0.202 OA
ATOM      3  C   UNL     1     133.631 133.521 125.699  1.00  0.00     0.368 A 
ATOM      4  C   UNL     1     133.796 132.629 124.637  1.00  0.00     0.162 A 
ATOM      5  C   UNL     1     134.206 131.315 124.877  1.00  0.00     0.128 A 
ATOM      6  C   UNL     1     134.451 130.891 126.185  1.00  0.00     0.093 A 
ATOM      7  C   UNL     1     134.293 131.766 127.267  1.00  0.00     0.136 A 
ATOM      8  C   UNL     1     133.879 133.102 127.028  1.00  0.00     0.125 A 
ATOM      9  C   UNL     1     133.709 134.052 128.049  1.00  0.00     0.078 A 
ATOM     10  C   UNL     1     133.303 135.352 127.735  1.00  0.00     0.223 A 
ENDROOT
BRANCH   1  11
ATOM     11  C   UNL     1     132.601 137.031 125.979  1.00  0.00     0.087 A 
ATOM     12  C   UNL     1     131.237 137.368 125.942  1.00  0.00     0.022 A 
ATOM     13  C   UNL     1     130.834 138.640 125.528  1.00  0.00     0.051 A 
ATOM     14  C   UNL     1     131.787 139.590 125.134  1.00  0.00     0.157 A 
ATOM     15  C   UNL     1     133.550 137.980 125.564  1.00  0.00     0.068 A 
ATOM     16  C   UNL     1     133.147 139.258 125.150  1.00  0.00     0.158 A 
BRANCH  14  17
ATOM     17  O   UNL     1     131.389 140.860 124.723  1.00  0.00    -0.504 OA
ATOM     18  H   UNL     1     130.790 140.993 123.916  1.00  0.00     0.293 HD
ENDBRANCH  14  17
BRANCH  16  19
ATOM     19  O   UNL     1     134.092 140.201 124.750  1.00  0.00    -0.504 OA
ATOM     20  H   UNL     1     135.036 139.932 124.499  1.00  0.00     0.293 HD
ENDBRANCH  16  19
ENDBRANCH   1  11
BRANCH  10  21
ATOM     21  O   UNL     1     133.181 136.309 128.743  1.00  0.00    -0.500 OA
ATOM     22  H   UNL     1     133.875 137.036 128.875  1.00  0.00     0.294 HD
ENDBRANCH  10  21
BRANCH   5  23
ATOM     23  O   UNL     1     134.372 130.420 123.823  1.00  0.00    -0.507 OA
ATOM     24  H   UNL     1     134.568 129.439 123.986  1.00  0.00     0.293 HD
ENDBRANCH   5  23
BRANCH   7  25
ATOM     25  O   UNL     1     134.556 131.264 128.544  1.00  0.00    -0.507 OA
ATOM     26  H   UNL     1     135.163 130.479 128.734  1.00  0.00     0.293 HD
ENDBRANCH   7  25
TORSDOF 6
ENDMDL
MODEL 7
REMARK VINA RESULT:    -5.829      6.827      9.705
REMARK INTER + INTRA:          -7.371
REMARK INTER:                  -7.029
REMARK INTRA:                  -0.342
REMARK UNBOUND:                -0.349
REMARK SMILES Oc1cc(O)c2cc(O)c(-c3ccc(O)c(O)c3)[o+]c2c1.[Cl-]
REMARK SMILES IDX 10 1 19 2 20 3 21 4 2 5 3 6 4 7 6 8 7 9 8 10 11 11 12 12
REMARK SMILES IDX 13 13 14 14 18 15 16 16 15 17 17 19 9 21 1 23 5 25
REMARK H PARENT 15 18 17 20 9 22 1 24 5 26
REMARK Flexibility Score: inf
ROOT
ATOM      1  C   UNL     1     131.878 138.092 126.211  1.00  0.00     0.402 A 
ATOM      2  O   UNL     1     132.052 136.889 125.672  1.00  0.00    -0.202 OA
ATOM      3  C   UNL     1     131.646 135.763 126.252  1.00  0.00     0.368 A 
ATOM      4  C   UNL     1     131.872 134.545 125.606  1.00  0.00     0.162 A 
ATOM      5  C   UNL     1     131.453 133.347 126.191  1.00  0.00     0.128 A 
ATOM      6  C   UNL     1     130.806 133.367 127.429  1.00  0.00     0.093 A 
ATOM      7  C   UNL     1     130.568 134.575 128.098  1.00  0.00     0.136 A 
ATOM      8  C   UNL     1     130.993 135.794 127.508  1.00  0.00     0.125 A 
ATOM      9  C   UNL     1     130.810 137.049 128.111  1.00  0.00     0.078 A 
ATOM     10  C   UNL     1     131.260 138.207 127.470  1.00  0.00     0.223 A 
ENDROOT
BRANCH   1  11
ATOM     11  C   UNL     1     132.366 139.272 125.461  1.00  0.00     0.087 A 
ATOM     12  C   UNL     1     131.494 140.061 124.691  1.00  0.00     0.022 A 
ATOM     13  C   UNL     1     131.980 141.156 123.972  1.00  0.00     0.051 A 
ATOM     14  C   UNL     1     133.345 141.471 124.003  1.00  0.00     0.157 A 
ATOM     15  C   UNL     1     133.736 139.580 125.471  1.00  0.00     0.068 A 
ATOM     16  C   UNL     1     134.225 140.680 124.751  1.00  0.00     0.158 A 
BRANCH  14  17
ATOM     17  O   UNL     1     133.834 142.564 123.289  1.00  0.00    -0.504 OA
ATOM     18  H   UNL     1     134.104 143.423 123.754  1.00  0.00     0.293 HD
ENDBRANCH  14  17
BRANCH  16  19
ATOM     19  O   UNL     1     135.583 140.989 124.774  1.00  0.00    -0.504 OA
ATOM     20  H   UNL     1     136.273 140.327 125.109  1.00  0.00     0.293 HD
ENDBRANCH  16  19
ENDBRANCH   1  11
BRANCH  10  21
ATOM     21  O   UNL     1     131.123 139.448 128.092  1.00  0.00    -0.500 OA
ATOM     22  H   UNL     1     131.862 139.843 128.663  1.00  0.00     0.294 HD
ENDBRANCH  10  21
BRANCH   5  23
ATOM     23  O   UNL     1     131.674 132.130 125.553  1.00  0.00    -0.507 OA
ATOM     24  H   UNL     1     131.503 132.012 124.560  1.00  0.00     0.293 HD
ENDBRANCH   5  23
BRANCH   7  25
ATOM     25  O   UNL     1     129.912 134.509 129.330  1.00  0.00    -0.507 OA
ATOM     26  H   UNL     1     130.192 133.910 130.093  1.00  0.00     0.293 HD
ENDBRANCH   7  25
TORSDOF 6
ENDMDL
MODEL 8
REMARK VINA RESULT:    -5.825      9.971     12.349
REMARK INTER + INTRA:          -7.365
REMARK INTER:                  -7.016
REMARK INTRA:                  -0.349
REMARK UNBOUND:                -0.349
REMARK SMILES Oc1cc(O)c2cc(O)c(-c3ccc(O)c(O)c3)[o+]c2c1.[Cl-]
REMARK SMILES IDX 10 1 19 2 20 3 21 4 2 5 3 6 4 7 6 8 7 9 8 10 11 11 12 12
REMARK SMILES IDX 13 13 14 14 18 15 16 16 15 17 17 19 9 21 1 23 5 25
REMARK H PARENT 15 18 17 20 9 22 1 24 5 26
REMARK Flexibility Score: inf
ROOT
ATOM      1  C   UNL     1     132.406 133.390 126.903  1.00  0.00     0.402 A 
ATOM      2  O   UNL     1     132.032 134.319 126.028  1.00  0.00    -0.202 OA
ATOM      3  C   UNL     1     131.876 135.601 126.345  1.00  0.00     0.368 A 
ATOM      4  C   UNL     1     131.483 136.504 125.354  1.00  0.00     0.162 A 
ATOM      5  C   UNL     1     131.313 137.857 125.660  1.00  0.00     0.128 A 
ATOM      6  C   UNL     1     131.538 138.309 126.963  1.00  0.00     0.093 A 
ATOM      7  C   UNL     1     131.933 137.424 127.974  1.00  0.00     0.136 A 
ATOM      8  C   UNL     1     132.103 136.048 127.669  1.00  0.00     0.125 A 
ATOM      9  C   UNL     1     132.482 135.087 128.621  1.00  0.00     0.078 A 
ATOM     10  C   UNL     1     132.627 133.749 128.246  1.00  0.00     0.223 A 
ENDROOT
BRANCH   1  11
ATOM     11  C   UNL     1     132.556 131.997 126.423  1.00  0.00     0.087 A 
ATOM     12  C   UNL     1     131.476 131.096 126.440  1.00  0.00     0.022 A 
ATOM     13  C   UNL     1     131.647 129.780 126.005  1.00  0.00     0.051 A 
ATOM     14  C   UNL     1     132.900 129.341 125.557  1.00  0.00     0.157 A 
ATOM     15  C   UNL     1     133.814 131.545 125.993  1.00  0.00     0.068 A 
ATOM     16  C   UNL     1     133.986 130.225 125.554  1.00  0.00     0.158 A 
BRANCH  14  17
ATOM     17  O   UNL     1     133.075 128.029 125.120  1.00  0.00    -0.504 OA
ATOM     18  H   UNL     1     132.398 127.578 124.515  1.00  0.00     0.293 HD
ENDBRANCH  14  17
BRANCH  16  19
ATOM     19  O   UNL     1     135.234 129.785 125.116  1.00  0.00    -0.504 OA
ATOM     20  H   UNL     1     136.081 129.989 125.633  1.00  0.00     0.293 HD
ENDBRANCH  16  19
ENDBRANCH   1  11
BRANCH  10  21
ATOM     21  O   UNL     1     132.954 132.786 129.201  1.00  0.00    -0.500 OA
ATOM     22  H   UNL     1     132.334 132.568 129.972  1.00  0.00     0.294 HD
ENDBRANCH  10  21
BRANCH   5  23
ATOM     23  O   UNL     1     130.923 138.763 124.678  1.00  0.00    -0.507 OA
ATOM     24  H   UNL     1     131.419 139.635 124.533  1.00  0.00     0.293 HD
ENDBRANCH   5  23
BRANCH   7  25
ATOM     25  O   UNL     1     132.139 137.956 129.250  1.00  0.00    -0.507 OA
ATOM     26  H   UNL     1     132.643 138.811 129.436  1.00  0.00     0.293 HD
ENDBRANCH   7  25
TORSDOF 6
ENDMDL
MODEL 9
REMARK VINA RESULT:    -5.793     10.427     11.891
REMARK INTER + INTRA:          -7.327
REMARK INTER:                  -6.992
REMARK INTRA:                  -0.335
REMARK UNBOUND:                -0.349
REMARK SMILES Oc1cc(O)c2cc(O)c(-c3ccc(O)c(O)c3)[o+]c2c1.[Cl-]
REMARK SMILES IDX 10 1 19 2 20 3 21 4 2 5 3 6 4 7 6 8 7 9 8 10 11 11 12 12
REMARK SMILES IDX 13 13 14 14 18 15 16 16 15 17 17 19 9 21 1 23 5 25
REMARK H PARENT 15 18 17 20 9 22 1 24 5 26
REMARK Flexibility Score: inf
ROOT
ATOM      1  C   UNL     1     134.033 134.098 128.573  1.00  0.00     0.402 A 
ATOM      2  O   UNL     1     135.212 134.552 128.990  1.00  0.00    -0.202 OA
ATOM      3  C   UNL     1     135.346 135.540 129.870  1.00  0.00     0.368 A 
ATOM      4  C   UNL     1     136.628 135.945 130.248  1.00  0.00     0.162 A 
ATOM      5  C   UNL     1     136.797 136.979 131.173  1.00  0.00     0.128 A 
ATOM      6  C   UNL     1     135.678 137.610 131.724  1.00  0.00     0.093 A 
ATOM      7  C   UNL     1     134.382 137.222 131.361  1.00  0.00     0.136 A 
ATOM      8  C   UNL     1     134.206 136.174 130.419  1.00  0.00     0.125 A 
ATOM      9  C   UNL     1     132.945 135.729 129.987  1.00  0.00     0.078 A 
ATOM     10  C   UNL     1     132.851 134.694 129.053  1.00  0.00     0.223 A 
ENDROOT
BRANCH   1  11
ATOM     11  C   UNL     1     134.017 132.985 127.597  1.00  0.00     0.087 A 
ATOM     12  C   UNL     1     134.137 131.647 128.011  1.00  0.00     0.022 A 
ATOM     13  C   UNL     1     134.143 130.614 127.070  1.00  0.00     0.051 A 
ATOM     14  C   UNL     1     134.040 130.904 125.703  1.00  0.00     0.157 A 
ATOM     15  C   UNL     1     133.935 133.270 126.225  1.00  0.00     0.068 A 
ATOM     16  C   UNL     1     133.938 132.234 125.279  1.00  0.00     0.158 A 
BRANCH  14  17
ATOM     17  O   UNL     1     134.043 129.876 124.761  1.00  0.00    -0.504 OA
ATOM     18  H   UNL     1     134.693 129.101 124.825  1.00  0.00     0.293 HD
ENDBRANCH  14  17
BRANCH  16  19
ATOM     19  O   UNL     1     133.845 132.521 123.919  1.00  0.00    -0.504 OA
ATOM     20  H   UNL     1     134.422 132.046 123.235  1.00  0.00     0.293 HD
ENDBRANCH  16  19
ENDBRANCH   1  11
BRANCH  10  21
ATOM     21  O   UNL     1     131.601 134.285 128.585  1.00  0.00    -0.500 OA
ATOM     22  H   UNL     1     130.741 134.677 128.951  1.00  0.00     0.294 HD
ENDBRANCH  10  21
BRANCH   5  23
ATOM     23  O   UNL     1     138.072 137.388 131.556  1.00  0.00    -0.507 OA
ATOM     24  H   UNL     1     138.485 137.088 132.431  1.00  0.00     0.293 HD
ENDBRANCH   5  23
BRANCH   7  25
ATOM     25  O   UNL     1     133.317 137.901 131.958  1.00  0.00    -0.507 OA
ATOM     26  H   UNL     1     133.265 138.904 132.058  1.00  0.00     0.293 HD
ENDBRANCH   7  25
TORSDOF 6
ENDMDL
