MODEL 1
REMARK VINA RESULT:    -7.194      0.000      0.000
REMARK INTER + INTRA:          -8.975
REMARK INTER:                  -8.666
REMARK INTRA:                  -0.309
REMARK UNBOUND:                -0.309
REMARK SMILES O=c1c(O)c(-c2ccc(O)c(O)c2)oc2cc(O)cc(O)c12
REMARK SMILES IDX 5 1 3 2 2 3 1 4 22 5 20 6 19 7 17 8 16 9 15 10 14 11 6 12
REMARK SMILES IDX 7 13 8 14 9 15 13 16 11 17 10 18 12 20 4 22 21 24 18 26
REMARK H PARENT 10 19 12 21 4 23 21 25 18 27
REMARK Flexibility Score: inf
ROOT
ATOM      1  C   UNL     1       9.717  11.362 -15.981  1.00  0.00     0.180 A 
ATOM      2  C   UNL     1      10.413  10.193 -16.334  1.00  0.00     0.208 A 
ATOM      3  C   UNL     1      10.098   8.990 -15.682  1.00  0.00     0.238 A 
ATOM      4  O   UNL     1      10.761   7.958 -15.964  1.00  0.00    -0.285 OA
ATOM      5  C   UNL     1       9.080   8.967 -14.698  1.00  0.00     0.111 A 
ATOM      6  C   UNL     1       8.652   7.798 -14.002  1.00  0.00     0.134 A 
ATOM      7  C   UNL     1       7.728   7.916 -12.955  1.00  0.00     0.093 A 
ATOM      8  C   UNL     1       7.170   9.150 -12.624  1.00  0.00     0.123 A 
ATOM      9  C   UNL     1       7.538  10.291 -13.336  1.00  0.00     0.094 A 
ATOM     10  C   UNL     1       8.484  10.212 -14.362  1.00  0.00     0.146 A 
ATOM     11  O   UNL     1       8.815  11.322 -15.008  1.00  0.00    -0.452 OA
ENDROOT
BRANCH   1  12
ATOM     12  C   UNL     1       9.976  12.663 -16.642  1.00  0.00     0.025 A 
ATOM     13  C   UNL     1      10.858  13.602 -16.085  1.00  0.00     0.016 A 
ATOM     14  C   UNL     1      11.105  14.811 -16.737  1.00  0.00     0.051 A 
ATOM     15  C   UNL     1      10.492  15.101 -17.961  1.00  0.00     0.157 A 
ATOM     16  C   UNL     1       9.376  12.942 -17.879  1.00  0.00     0.062 A 
ATOM     17  C   UNL     1       9.618  14.152 -18.541  1.00  0.00     0.158 A 
BRANCH  15  18
ATOM     18  O   UNL     1      10.777  16.329 -18.559  1.00  0.00    -0.504 OA
ATOM     19  H   UNL     1      10.518  17.223 -18.168  1.00  0.00     0.293 HD
ENDBRANCH  15  18
BRANCH  17  20
ATOM     20  O   UNL     1       8.976  14.366 -19.763  1.00  0.00    -0.504 OA
ATOM     21  H   UNL     1       8.769  15.280 -20.140  1.00  0.00     0.293 HD
ENDBRANCH  17  20
ENDBRANCH   1  12
BRANCH   2  22
ATOM     22  O   UNL     1      11.428  10.241 -17.293  1.00  0.00    -0.502 OA
ATOM     23  H   UNL     1      11.400  10.873 -18.085  1.00  0.00     0.293 HD
ENDBRANCH   2  22
BRANCH   6  24
ATOM     24  O   UNL     1       9.077   6.504 -14.315  1.00  0.00    -0.507 OA
ATOM     25  H   UNL     1       9.332   5.802 -13.637  1.00  0.00     0.293 HD
ENDBRANCH   6  24
BRANCH   8  26
ATOM     26  O   UNL     1       6.242   9.229 -11.587  1.00  0.00    -0.508 OA
ATOM     27  H   UNL     1       6.247   9.998 -10.928  1.00  0.00     0.293 HD
ENDBRANCH   8  26
TORSDOF 6
ENDMDL
MODEL 2
REMARK VINA RESULT:    -7.092      1.919      7.401
REMARK INTER + INTRA:          -8.852
REMARK INTER:                  -8.519
REMARK INTRA:                  -0.333
REMARK UNBOUND:                -0.309
REMARK SMILES O=c1c(O)c(-c2ccc(O)c(O)c2)oc2cc(O)cc(O)c12
REMARK SMILES IDX 5 1 3 2 2 3 1 4 22 5 20 6 19 7 17 8 16 9 15 10 14 11 6 12
REMARK SMILES IDX 7 13 8 14 9 15 13 16 11 17 10 18 12 20 4 22 21 24 18 26
REMARK H PARENT 10 19 12 21 4 23 21 25 18 27
REMARK Flexibility Score: inf
ROOT
ATOM      1  C   UNL     1       9.951  12.463 -17.230  1.00  0.00     0.180 A 
ATOM      2  C   UNL     1      10.686  13.554 -16.736  1.00  0.00     0.208 A 
ATOM      3  C   UNL     1      10.676  14.762 -17.451  1.00  0.00     0.238 A 
ATOM      4  O   UNL     1      11.380  15.718 -17.032  1.00  0.00    -0.285 OA
ATOM      5  C   UNL     1       9.918  14.870 -18.641  1.00  0.00     0.111 A 
ATOM      6  C   UNL     1       9.803  16.057 -19.425  1.00  0.00     0.134 A 
ATOM      7  C   UNL     1       9.133  16.012 -20.654  1.00  0.00     0.093 A 
ATOM      8  C   UNL     1       8.518  14.841 -21.096  1.00  0.00     0.123 A 
ATOM      9  C   UNL     1       8.573  13.689 -20.310  1.00  0.00     0.094 A 
ATOM     10  C   UNL     1       9.265  13.693 -19.096  1.00  0.00     0.146 A 
ATOM     11  O   UNL     1       9.303  12.575 -18.383  1.00  0.00    -0.452 OA
ENDROOT
BRANCH   1  12
ATOM     12  C   UNL     1       9.893  11.164 -16.519  1.00  0.00     0.025 A 
ATOM     13  C   UNL     1       8.939  10.921 -15.519  1.00  0.00     0.016 A 
ATOM     14  C   UNL     1       8.888   9.681 -14.879  1.00  0.00     0.051 A 
ATOM     15  C   UNL     1       9.775   8.658 -15.231  1.00  0.00     0.157 A 
ATOM     16  C   UNL     1      10.770  10.133 -16.889  1.00  0.00     0.062 A 
ATOM     17  C   UNL     1      10.727   8.886 -16.253  1.00  0.00     0.158 A 
BRANCH  15  18
ATOM     18  O   UNL     1       9.675   7.444 -14.550  1.00  0.00    -0.504 OA
ATOM     19  H   UNL     1      10.354   7.114 -13.880  1.00  0.00     0.293 HD
ENDBRANCH  15  18
BRANCH  17  20
ATOM     20  O   UNL     1      11.639   7.913 -16.666  1.00  0.00    -0.504 OA
ATOM     21  H   UNL     1      12.507   8.118 -17.141  1.00  0.00     0.293 HD
ENDBRANCH  17  20
ENDBRANCH   1  12
BRANCH   2  22
ATOM     22  O   UNL     1      11.445  13.420 -15.570  1.00  0.00    -0.502 OA
ATOM     23  H   UNL     1      11.134  13.775 -14.673  1.00  0.00     0.293 HD
ENDBRANCH   2  22
BRANCH   6  24
ATOM     24  O   UNL     1      10.302  17.302 -19.032  1.00  0.00    -0.507 OA
ATOM     25  H   UNL     1      10.876  17.899 -19.607  1.00  0.00     0.293 HD
ENDBRANCH   6  24
BRANCH   8  26
ATOM     26  O   UNL     1       7.845  14.836 -22.316  1.00  0.00    -0.508 OA
ATOM     27  H   UNL     1       7.318  15.640 -22.635  1.00  0.00     0.293 HD
ENDBRANCH   8  26
TORSDOF 6
ENDMDL
MODEL 3
REMARK VINA RESULT:    -6.627      2.057      7.310
REMARK INTER + INTRA:          -8.292
REMARK INTER:                  -7.970
REMARK INTRA:                  -0.322
REMARK UNBOUND:                -0.309
REMARK SMILES O=c1c(O)c(-c2ccc(O)c(O)c2)oc2cc(O)cc(O)c12
REMARK SMILES IDX 5 1 3 2 2 3 1 4 22 5 20 6 19 7 17 8 16 9 15 10 14 11 6 12
REMARK SMILES IDX 7 13 8 14 9 15 13 16 11 17 10 18 12 20 4 22 21 24 18 26
REMARK H PARENT 10 19 12 21 4 23 21 25 18 27
REMARK Flexibility Score: inf
ROOT
ATOM      1  C   UNL     1       8.938  11.819 -17.896  1.00  0.00     0.180 A 
ATOM      2  C   UNL     1       8.081  11.581 -18.985  1.00  0.00     0.208 A 
ATOM      3  C   UNL     1       7.879  12.601 -19.929  1.00  0.00     0.238 A 
ATOM      4  O   UNL     1       7.070  12.399 -20.871  1.00  0.00    -0.285 OA
ATOM      5  C   UNL     1       8.548  13.839 -19.781  1.00  0.00     0.111 A 
ATOM      6  C   UNL     1       8.449  14.928 -20.698  1.00  0.00     0.134 A 
ATOM      7  C   UNL     1       9.051  16.153 -20.384  1.00  0.00     0.093 A 
ATOM      8  C   UNL     1       9.802  16.308 -19.220  1.00  0.00     0.123 A 
ATOM      9  C   UNL     1       9.955  15.233 -18.345  1.00  0.00     0.094 A 
ATOM     10  C   UNL     1       9.337  14.008 -18.613  1.00  0.00     0.146 A 
ATOM     11  O   UNL     1       9.498  13.013 -17.750  1.00  0.00    -0.452 OA
ENDROOT
BRANCH   1  12
ATOM     12  C   UNL     1       9.219  10.784 -16.874  1.00  0.00     0.025 A 
ATOM     13  C   UNL     1       8.440  10.675 -15.711  1.00  0.00     0.016 A 
ATOM     14  C   UNL     1       8.709   9.677 -14.773  1.00  0.00     0.051 A 
ATOM     15  C   UNL     1       9.747   8.762 -14.981  1.00  0.00     0.157 A 
ATOM     16  C   UNL     1      10.247   9.855 -17.095  1.00  0.00     0.062 A 
ATOM     17  C   UNL     1      10.525   8.850 -16.160  1.00  0.00     0.158 A 
BRANCH  15  18
ATOM     18  O   UNL     1       9.967   7.791 -14.003  1.00  0.00    -0.504 OA
ATOM     19  H   UNL     1      10.882   7.478 -13.712  1.00  0.00     0.293 HD
ENDBRANCH  15  18
BRANCH  17  20
ATOM     20  O   UNL     1      11.571   7.969 -16.442  1.00  0.00    -0.504 OA
ATOM     21  H   UNL     1      12.036   7.404 -15.746  1.00  0.00     0.293 HD
ENDBRANCH  17  20
ENDBRANCH   1  12
BRANCH   2  22
ATOM     22  O   UNL     1       7.414  10.358 -19.100  1.00  0.00    -0.502 OA
ATOM     23  H   UNL     1       7.890   9.468 -19.017  1.00  0.00     0.293 HD
ENDBRANCH   2  22
BRANCH   6  24
ATOM     24  O   UNL     1       7.799  14.851 -21.933  1.00  0.00    -0.507 OA
ATOM     25  H   UNL     1       7.864  14.071 -22.569  1.00  0.00     0.293 HD
ENDBRANCH   6  24
BRANCH   8  26
ATOM     26  O   UNL     1      10.401  17.536 -18.946  1.00  0.00    -0.508 OA
ATOM     27  H   UNL     1      10.402  17.930 -18.013  1.00  0.00     0.293 HD
ENDBRANCH   8  26
TORSDOF 6
ENDMDL
MODEL 4
REMARK VINA RESULT:    -6.585      2.656      7.732
REMARK INTER + INTRA:          -8.241
REMARK INTER:                  -7.970
REMARK INTRA:                  -0.271
REMARK UNBOUND:                -0.309
REMARK SMILES O=c1c(O)c(-c2ccc(O)c(O)c2)oc2cc(O)cc(O)c12
REMARK SMILES IDX 5 1 3 2 2 3 1 4 22 5 20 6 19 7 17 8 16 9 15 10 14 11 6 12
REMARK SMILES IDX 7 13 8 14 9 15 13 16 11 17 10 18 12 20 4 22 21 24 18 26
REMARK H PARENT 10 19 12 21 4 23 21 25 18 27
REMARK Flexibility Score: inf
ROOT
ATOM      1  C   UNL     1       9.299  12.263 -18.347  1.00  0.00     0.180 A 
ATOM      2  C   UNL     1       9.938  13.201 -17.518  1.00  0.00     0.208 A 
ATOM      3  C   UNL     1      10.075  14.525 -17.966  1.00  0.00     0.238 A 
ATOM      4  O   UNL     1      10.695  15.346 -17.241  1.00  0.00    -0.285 OA
ATOM      5  C   UNL     1       9.556  14.898 -19.229  1.00  0.00     0.111 A 
ATOM      6  C   UNL     1       9.604  16.220 -19.766  1.00  0.00     0.134 A 
ATOM      7  C   UNL     1       9.177  16.447 -21.080  1.00  0.00     0.093 A 
ATOM      8  C   UNL     1       8.646  15.415 -21.853  1.00  0.00     0.123 A 
ATOM      9  C   UNL     1       8.541  14.131 -21.318  1.00  0.00     0.094 A 
ATOM     10  C   UNL     1       8.991  13.865 -20.022  1.00  0.00     0.146 A 
ATOM     11  O   UNL     1       8.883  12.629 -19.553  1.00  0.00    -0.452 OA
ENDROOT
BRANCH   1  12
ATOM     12  C   UNL     1       9.095  10.855 -17.934  1.00  0.00     0.025 A 
ATOM     13  C   UNL     1      10.151   9.930 -17.946  1.00  0.00     0.016 A 
ATOM     14  C   UNL     1       9.941   8.615 -17.529  1.00  0.00     0.051 A 
ATOM     15  C   UNL     1       8.683   8.199 -17.080  1.00  0.00     0.157 A 
ATOM     16  C   UNL     1       7.838  10.447 -17.464  1.00  0.00     0.062 A 
ATOM     17  C   UNL     1       7.618   9.129 -17.044  1.00  0.00     0.158 A 
BRANCH  15  18
ATOM     18  O   UNL     1       8.538   6.869 -16.682  1.00  0.00    -0.504 OA
ATOM     19  H   UNL     1       8.681   6.544 -15.737  1.00  0.00     0.293 HD
ENDBRANCH  15  18
BRANCH  17  20
ATOM     20  O   UNL     1       6.337   8.792 -16.600  1.00  0.00    -0.504 OA
ATOM     21  H   UNL     1       5.499   8.909 -17.153  1.00  0.00     0.293 HD
ENDBRANCH  17  20
ENDBRANCH   1  12
BRANCH   2  22
ATOM     22  O   UNL     1      10.461  12.806 -16.283  1.00  0.00    -0.502 OA
ATOM     23  H   UNL     1      11.270  12.202 -16.203  1.00  0.00     0.293 HD
ENDBRANCH   2  22
BRANCH   6  24
ATOM     24  O   UNL     1      10.030  17.339 -19.046  1.00  0.00    -0.507 OA
ATOM     25  H   UNL     1      10.048  18.281 -19.406  1.00  0.00     0.293 HD
ENDBRANCH   6  24
BRANCH   8  26
ATOM     26  O   UNL     1       8.217  15.680 -23.152  1.00  0.00    -0.508 OA
ATOM     27  H   UNL     1       7.425  15.196 -23.558  1.00  0.00     0.293 HD
ENDBRANCH   8  26
TORSDOF 6
ENDMDL
MODEL 5
REMARK VINA RESULT:    -6.424      2.048      3.056
REMARK INTER + INTRA:          -8.047
REMARK INTER:                  -7.996
REMARK INTRA:                  -0.052
REMARK UNBOUND:                -0.309
REMARK SMILES O=c1c(O)c(-c2ccc(O)c(O)c2)oc2cc(O)cc(O)c12
REMARK SMILES IDX 5 1 3 2 2 3 1 4 22 5 20 6 19 7 17 8 16 9 15 10 14 11 6 12
REMARK SMILES IDX 7 13 8 14 9 15 13 16 11 17 10 18 12 20 4 22 21 24 18 26
REMARK H PARENT 10 19 12 21 4 23 21 25 18 27
REMARK Flexibility Score: inf
ROOT
ATOM      1  C   UNL     1       9.048  12.604 -18.244  1.00  0.00     0.180 A 
ATOM      2  C   UNL     1       9.458  11.306 -18.598  1.00  0.00     0.208 A 
ATOM      3  C   UNL     1       9.448  10.298 -17.621  1.00  0.00     0.238 A 
ATOM      4  O   UNL     1       9.867   9.152 -17.931  1.00  0.00    -0.285 OA
ATOM      5  C   UNL     1       9.011  10.594 -16.308  1.00  0.00     0.111 A 
ATOM      6  C   UNL     1       8.921   9.641 -15.249  1.00  0.00     0.134 A 
ATOM      7  C   UNL     1       8.601  10.074 -13.956  1.00  0.00     0.093 A 
ATOM      8  C   UNL     1       8.305  11.411 -13.696  1.00  0.00     0.123 A 
ATOM      9  C   UNL     1       8.332  12.341 -14.735  1.00  0.00     0.094 A 
ATOM     10  C   UNL     1       8.683  11.948 -16.030  1.00  0.00     0.146 A 
ATOM     11  O   UNL     1       8.707  12.865 -16.988  1.00  0.00    -0.452 OA
ENDROOT
BRANCH   1  12
ATOM     12  C   UNL     1       9.009  13.713 -19.225  1.00  0.00     0.025 A 
ATOM     13  C   UNL     1       8.338  13.581 -20.451  1.00  0.00     0.016 A 
ATOM     14  C   UNL     1       8.294  14.648 -21.349  1.00  0.00     0.051 A 
ATOM     15  C   UNL     1       8.903  15.869 -21.039  1.00  0.00     0.157 A 
ATOM     16  C   UNL     1       9.602  14.943 -18.902  1.00  0.00     0.062 A 
ATOM     17  C   UNL     1       9.563  16.020 -19.796  1.00  0.00     0.158 A 
BRANCH  15  18
ATOM     18  O   UNL     1       8.827  16.895 -21.982  1.00  0.00    -0.504 OA
ATOM     19  H   UNL     1       8.693  16.745 -22.971  1.00  0.00     0.293 HD
ENDBRANCH  15  18
BRANCH  17  20
ATOM     20  O   UNL     1      10.186  17.209 -19.412  1.00  0.00    -0.504 OA
ATOM     21  H   UNL     1      10.800  17.743 -20.009  1.00  0.00     0.293 HD
ENDBRANCH  17  20
ENDBRANCH   1  12
BRANCH   2  22
ATOM     22  O   UNL     1       9.906  11.041 -19.895  1.00  0.00    -0.502 OA
ATOM     23  H   UNL     1       9.573  10.250 -20.435  1.00  0.00     0.293 HD
ENDBRANCH   2  22
BRANCH   6  24
ATOM     24  O   UNL     1       9.108   8.267 -15.419  1.00  0.00    -0.507 OA
ATOM     25  H   UNL     1       9.258   7.610 -14.669  1.00  0.00     0.293 HD
ENDBRANCH   6  24
BRANCH   8  26
ATOM     26  O   UNL     1       7.975  11.803 -12.401  1.00  0.00    -0.508 OA
ATOM     27  H   UNL     1       8.671  12.172 -11.764  1.00  0.00     0.293 HD
ENDBRANCH   8  26
TORSDOF 6
ENDMDL
MODEL 6
REMARK VINA RESULT:    -6.399      1.883      2.345
REMARK INTER + INTRA:          -8.017
REMARK INTER:                  -7.735
REMARK INTRA:                  -0.282
REMARK UNBOUND:                -0.309
REMARK SMILES O=c1c(O)c(-c2ccc(O)c(O)c2)oc2cc(O)cc(O)c12
REMARK SMILES IDX 5 1 3 2 2 3 1 4 22 5 20 6 19 7 17 8 16 9 15 10 14 11 6 12
REMARK SMILES IDX 7 13 8 14 9 15 13 16 11 17 10 18 12 20 4 22 21 24 18 26
REMARK H PARENT 10 19 12 21 4 23 21 25 18 27
REMARK Flexibility Score: inf
ROOT
ATOM      1  C   UNL     1       8.356  10.754 -17.391  1.00  0.00     0.180 A 
ATOM      2  C   UNL     1       9.280   9.705 -17.532  1.00  0.00     0.208 A 
ATOM      3  C   UNL     1       9.360   8.727 -16.527  1.00  0.00     0.238 A 
ATOM      4  O   UNL     1      10.226   7.820 -16.634  1.00  0.00    -0.285 OA
ATOM      5  C   UNL     1       8.503   8.801 -15.404  1.00  0.00     0.111 A 
ATOM      6  C   UNL     1       8.469   7.844 -14.345  1.00  0.00     0.134 A 
ATOM      7  C   UNL     1       7.674   8.087 -13.218  1.00  0.00     0.093 A 
ATOM      8  C   UNL     1       6.862   9.219 -13.141  1.00  0.00     0.123 A 
ATOM      9  C   UNL     1       6.843  10.131 -14.195  1.00  0.00     0.094 A 
ATOM     10  C   UNL     1       7.652   9.935 -15.317  1.00  0.00     0.146 A 
ATOM     11  O   UNL     1       7.613  10.832 -16.294  1.00  0.00    -0.452 OA
ENDROOT
BRANCH   1  12
ATOM     12  C   UNL     1       8.197  11.808 -18.420  1.00  0.00     0.025 A 
ATOM     13  C   UNL     1       9.114  12.865 -18.530  1.00  0.00     0.016 A 
ATOM     14  C   UNL     1       8.957  13.834 -19.523  1.00  0.00     0.051 A 
ATOM     15  C   UNL     1       7.896  13.761 -20.432  1.00  0.00     0.157 A 
ATOM     16  C   UNL     1       7.144  11.721 -19.343  1.00  0.00     0.062 A 
ATOM     17  C   UNL     1       6.979  12.688 -20.343  1.00  0.00     0.158 A 
BRANCH  15  18
ATOM     18  O   UNL     1       7.793  14.763 -21.398  1.00  0.00    -0.504 OA
ATOM     19  H   UNL     1       7.706  14.587 -22.388  1.00  0.00     0.293 HD
ENDBRANCH  15  18
BRANCH  17  20
ATOM     20  O   UNL     1       5.900  12.542 -21.218  1.00  0.00    -0.504 OA
ATOM     21  H   UNL     1       4.947  12.784 -20.985  1.00  0.00     0.293 HD
ENDBRANCH  17  20
ENDBRANCH   1  12
BRANCH   2  22
ATOM     22  O   UNL     1      10.132   9.662 -18.640  1.00  0.00    -0.502 OA
ATOM     23  H   UNL     1      10.375  10.490 -19.172  1.00  0.00     0.293 HD
ENDBRANCH   2  22
BRANCH   6  24
ATOM     24  O   UNL     1       9.171   6.635 -14.365  1.00  0.00    -0.507 OA
ATOM     25  H   UNL     1      10.161   6.543 -14.200  1.00  0.00     0.293 HD
ENDBRANCH   6  24
BRANCH   8  26
ATOM     26  O   UNL     1       6.071   9.421 -12.012  1.00  0.00    -0.508 OA
ATOM     27  H   UNL     1       5.306   8.799 -11.782  1.00  0.00     0.293 HD
ENDBRANCH   8  26
TORSDOF 6
ENDMDL
MODEL 7
REMARK VINA RESULT:    -6.381      1.243      2.974
REMARK INTER + INTRA:          -7.996
REMARK INTER:                  -7.665
REMARK INTRA:                  -0.331
REMARK UNBOUND:                -0.309
REMARK SMILES O=c1c(O)c(-c2ccc(O)c(O)c2)oc2cc(O)cc(O)c12
REMARK SMILES IDX 5 1 3 2 2 3 1 4 22 5 20 6 19 7 17 8 16 9 15 10 14 11 6 12
REMARK SMILES IDX 7 13 8 14 9 15 13 16 11 17 10 18 12 20 4 22 21 24 18 26
REMARK H PARENT 10 19 12 21 4 23 21 25 18 27
REMARK Flexibility Score: inf
ROOT
ATOM      1  C   UNL     1       8.778  12.300 -15.449  1.00  0.00     0.180 A 
ATOM      2  C   UNL     1       7.674  12.606 -14.634  1.00  0.00     0.208 A 
ATOM      3  C   UNL     1       7.107  11.591 -13.846  1.00  0.00     0.238 A 
ATOM      4  O   UNL     1       6.086  11.859 -13.161  1.00  0.00    -0.285 OA
ATOM      5  C   UNL     1       7.660  10.289 -13.870  1.00  0.00     0.111 A 
ATOM      6  C   UNL     1       7.190   9.195 -13.083  1.00  0.00     0.134 A 
ATOM      7  C   UNL     1       7.729   7.918 -13.284  1.00  0.00     0.093 A 
ATOM      8  C   UNL     1       8.764   7.708 -14.195  1.00  0.00     0.123 A 
ATOM      9  C   UNL     1       9.271   8.782 -14.928  1.00  0.00     0.094 A 
ATOM     10  C   UNL     1       8.729  10.061 -14.776  1.00  0.00     0.146 A 
ATOM     11  O   UNL     1       9.232  11.054 -15.498  1.00  0.00    -0.452 OA
ENDROOT
BRANCH   1  12
ATOM     12  C   UNL     1       9.446  13.322 -16.288  1.00  0.00     0.025 A 
ATOM     13  C   UNL     1      10.504  14.098 -15.791  1.00  0.00     0.016 A 
ATOM     14  C   UNL     1      11.134  15.038 -16.609  1.00  0.00     0.051 A 
ATOM     15  C   UNL     1      10.732  15.213 -17.937  1.00  0.00     0.157 A 
ATOM     16  C   UNL     1       9.055  13.480 -17.626  1.00  0.00     0.062 A 
ATOM     17  C   UNL     1       9.681  14.421 -18.454  1.00  0.00     0.158 A 
BRANCH  15  18
ATOM     18  O   UNL     1      11.400  16.173 -18.700  1.00  0.00    -0.504 OA
ATOM     19  H   UNL     1      11.073  16.512 -19.593  1.00  0.00     0.293 HD
ENDBRANCH  15  18
BRANCH  17  20
ATOM     20  O   UNL     1       9.230  14.531 -19.772  1.00  0.00    -0.504 OA
ATOM     21  H   UNL     1       9.424  15.321 -20.370  1.00  0.00     0.293 HD
ENDBRANCH  17  20
ENDBRANCH   1  12
BRANCH   2  22
ATOM     22  O   UNL     1       7.131  13.893 -14.642  1.00  0.00    -0.502 OA
ATOM     23  H   UNL     1       6.922  14.402 -13.791  1.00  0.00     0.293 HD
ENDBRANCH   2  22
BRANCH   6  24
ATOM     24  O   UNL     1       6.225   9.314 -12.079  1.00  0.00    -0.507 OA
ATOM     25  H   UNL     1       6.105  10.123 -11.490  1.00  0.00     0.293 HD
ENDBRANCH   6  24
BRANCH   8  26
ATOM     26  O   UNL     1       9.287   6.427 -14.358  1.00  0.00    -0.508 OA
ATOM     27  H   UNL     1       9.828   5.978 -13.629  1.00  0.00     0.293 HD
ENDBRANCH   8  26
TORSDOF 6
ENDMDL
MODEL 8
REMARK VINA RESULT:    -6.359      2.252      4.177
REMARK INTER + INTRA:          -7.969
REMARK INTER:                  -7.660
REMARK INTRA:                  -0.309
REMARK UNBOUND:                -0.309
REMARK SMILES O=c1c(O)c(-c2ccc(O)c(O)c2)oc2cc(O)cc(O)c12
REMARK SMILES IDX 5 1 3 2 2 3 1 4 22 5 20 6 19 7 17 8 16 9 15 10 14 11 6 12
REMARK SMILES IDX 7 13 8 14 9 15 13 16 11 17 10 18 12 20 4 22 21 24 18 26
REMARK H PARENT 10 19 12 21 4 23 21 25 18 27
REMARK Flexibility Score: inf
ROOT
ATOM      1  C   UNL     1       9.011  12.475 -18.158  1.00  0.00     0.180 A 
ATOM      2  C   UNL     1       8.136  12.395 -17.061  1.00  0.00     0.208 A 
ATOM      3  C   UNL     1       8.278  11.334 -16.152  1.00  0.00     0.238 A 
ATOM      4  O   UNL     1       7.457  11.239 -15.202  1.00  0.00    -0.285 OA
ATOM      5  C   UNL     1       9.303  10.377 -16.341  1.00  0.00     0.111 A 
ATOM      6  C   UNL     1       9.564   9.284 -15.462  1.00  0.00     0.134 A 
ATOM      7  C   UNL     1      10.519   8.324 -15.818  1.00  0.00     0.093 A 
ATOM      8  C   UNL     1      11.268   8.452 -16.987  1.00  0.00     0.123 A 
ATOM      9  C   UNL     1      11.062   9.548 -17.825  1.00  0.00     0.094 A 
ATOM     10  C   UNL     1      10.091  10.504 -17.516  1.00  0.00     0.146 A 
ATOM     11  O   UNL     1       9.919  11.525 -18.344  1.00  0.00    -0.452 OA
ENDROOT
BRANCH   1  12
ATOM     12  C   UNL     1       8.938  13.578 -19.145  1.00  0.00     0.025 A 
ATOM     13  C   UNL     1       8.224  13.438 -20.345  1.00  0.00     0.016 A 
ATOM     14  C   UNL     1       8.150  14.499 -21.249  1.00  0.00     0.051 A 
ATOM     15  C   UNL     1       8.772  15.721 -20.970  1.00  0.00     0.157 A 
ATOM     16  C   UNL     1       9.545  14.809 -18.852  1.00  0.00     0.062 A 
ATOM     17  C   UNL     1       9.476  15.879 -19.753  1.00  0.00     0.158 A 
BRANCH  15  18
ATOM     18  O   UNL     1       8.664  16.740 -21.917  1.00  0.00    -0.504 OA
ATOM     19  H   UNL     1       7.840  17.310 -22.043  1.00  0.00     0.293 HD
ENDBRANCH  15  18
BRANCH  17  20
ATOM     20  O   UNL     1      10.115  17.070 -19.400  1.00  0.00    -0.504 OA
ATOM     21  H   UNL     1       9.941  17.958 -19.848  1.00  0.00     0.293 HD
ENDBRANCH  17  20
ENDBRANCH   1  12
BRANCH   2  22
ATOM     22  O   UNL     1       7.117  13.339 -16.904  1.00  0.00    -0.502 OA
ATOM     23  H   UNL     1       6.359  13.438 -17.569  1.00  0.00     0.293 HD
ENDBRANCH   2  22
BRANCH   6  24
ATOM     24  O   UNL     1       8.937   9.112 -14.224  1.00  0.00    -0.507 OA
ATOM     25  H   UNL     1       9.362   8.675 -13.421  1.00  0.00     0.293 HD
ENDBRANCH   6  24
BRANCH   8  26
ATOM     26  O   UNL     1      12.221   7.486 -17.302  1.00  0.00    -0.508 OA
ATOM     27  H   UNL     1      13.206   7.714 -17.367  1.00  0.00     0.293 HD
ENDBRANCH   8  26
TORSDOF 6
ENDMDL
MODEL 9
REMARK VINA RESULT:    -6.224      1.663      7.201
REMARK INTER + INTRA:          -7.806
REMARK INTER:                  -7.637
REMARK INTRA:                  -0.169
REMARK UNBOUND:                -0.309
REMARK SMILES O=c1c(O)c(-c2ccc(O)c(O)c2)oc2cc(O)cc(O)c12
REMARK SMILES IDX 5 1 3 2 2 3 1 4 22 5 20 6 19 7 17 8 16 9 15 10 14 11 6 12
REMARK SMILES IDX 7 13 8 14 9 15 13 16 11 17 10 18 12 20 4 22 21 24 18 26
REMARK H PARENT 10 19 12 21 4 23 21 25 18 27
REMARK Flexibility Score: inf
ROOT
ATOM      1  C   UNL     1       8.455  11.732 -15.293  1.00  0.00     0.180 A 
ATOM      2  C   UNL     1       8.899  12.967 -14.790  1.00  0.00     0.208 A 
ATOM      3  C   UNL     1       9.276  13.974 -15.693  1.00  0.00     0.238 A 
ATOM      4  O   UNL     1       9.724  15.058 -15.235  1.00  0.00    -0.285 OA
ATOM      5  C   UNL     1       9.189  13.740 -17.086  1.00  0.00     0.111 A 
ATOM      6  C   UNL     1       9.507  14.702 -18.091  1.00  0.00     0.134 A 
ATOM      7  C   UNL     1       9.510  14.319 -19.438  1.00  0.00     0.093 A 
ATOM      8  C   UNL     1       9.143  13.029 -19.820  1.00  0.00     0.123 A 
ATOM      9  C   UNL     1       8.773  12.097 -18.850  1.00  0.00     0.094 A 
ATOM     10  C   UNL     1       8.795  12.439 -17.495  1.00  0.00     0.146 A 
ATOM     11  O   UNL     1       8.447  11.521 -16.603  1.00  0.00    -0.452 OA
ENDROOT
BRANCH   1  12
ATOM     12  C   UNL     1       8.017  10.630 -14.404  1.00  0.00     0.025 A 
ATOM     13  C   UNL     1       6.911  10.774 -13.553  1.00  0.00     0.016 A 
ATOM     14  C   UNL     1       6.502   9.714 -12.742  1.00  0.00     0.051 A 
ATOM     15  C   UNL     1       7.176   8.489 -12.773  1.00  0.00     0.157 A 
ATOM     16  C   UNL     1       8.682   9.396 -14.453  1.00  0.00     0.062 A 
ATOM     17  C   UNL     1       8.280   8.327 -13.643  1.00  0.00     0.158 A 
BRANCH  15  18
ATOM     18  O   UNL     1       6.720   7.471 -11.934  1.00  0.00    -0.504 OA
ATOM     19  H   UNL     1       5.747   7.306 -11.723  1.00  0.00     0.293 HD
ENDBRANCH  15  18
BRANCH  17  20
ATOM     20  O   UNL     1       8.998   7.132 -13.737  1.00  0.00    -0.504 OA
ATOM     21  H   UNL     1       9.996   7.061 -13.599  1.00  0.00     0.293 HD
ENDBRANCH  17  20
ENDBRANCH   1  12
BRANCH   2  22
ATOM     22  O   UNL     1       8.998  13.169 -13.411  1.00  0.00    -0.502 OA
ATOM     23  H   UNL     1       9.660  12.665 -12.832  1.00  0.00     0.293 HD
ENDBRANCH   2  22
BRANCH   6  24
ATOM     24  O   UNL     1       9.798  16.043 -17.823  1.00  0.00    -0.507 OA
ATOM     25  H   UNL     1       9.766  16.466 -16.908  1.00  0.00     0.293 HD
ENDBRANCH   6  24
BRANCH   8  26
ATOM     26  O   UNL     1       9.141  12.687 -21.171  1.00  0.00    -0.508 OA
ATOM     27  H   UNL     1       9.870  12.109 -21.573  1.00  0.00     0.293 HD
ENDBRANCH   8  26
TORSDOF 6
ENDMDL
