MODEL 1
REMARK VINA RESULT:     5.426      0.000      0.000
REMARK INTER + INTRA:           6.951
REMARK INTER:                   6.536
REMARK INTRA:                   0.416
REMARK UNBOUND:                 0.416
REMARK SMILES O=c1c(O)c(-c2ccc(O)c(O)c2)oc2cc(O)cc(O)c12
REMARK SMILES IDX 5 1 3 2 2 3 1 4 22 5 20 6 19 7 17 8 16 9 15 10 14 11 6 12
REMARK SMILES IDX 7 13 8 14 9 15 13 16 11 17 10 18 12 20 4 22 21 24 18 26
REMARK H PARENT 10 19 12 21 4 23 21 25 18 27
REMARK Flexibility Score: inf
ROOT
ATOM      1  C   UNL     1      21.309   8.304   6.152  1.00  0.00     0.180 A 
ATOM      2  C   UNL     1      20.740   7.025   6.306  1.00  0.00     0.208 A 
ATOM      3  C   UNL     1      21.584   5.904   6.324  1.00  0.00     0.238 A 
ATOM      4  O   UNL     1      21.084   4.753   6.451  1.00  0.00    -0.285 OA
ATOM      5  C   UNL     1      22.978   6.079   6.207  1.00  0.00     0.111 A 
ATOM      6  C   UNL     1      23.898   5.003   6.220  1.00  0.00     0.134 A 
ATOM      7  C   UNL     1      25.272   5.261   6.107  1.00  0.00     0.093 A 
ATOM      8  C   UNL     1      25.743   6.569   5.985  1.00  0.00     0.123 A 
ATOM      9  C   UNL     1      24.840   7.637   5.971  1.00  0.00     0.094 A 
ATOM     10  C   UNL     1      23.467   7.401   6.080  1.00  0.00     0.146 A 
ATOM     11  O   UNL     1      22.630   8.431   6.059  1.00  0.00    -0.452 OA
ENDROOT
BRANCH   1  12
ATOM     12  C   UNL     1      20.484   9.532   6.106  1.00  0.00     0.025 A 
ATOM     13  C   UNL     1      19.089   9.471   5.946  1.00  0.00     0.016 A 
ATOM     14  C   UNL     1      18.333  10.645   5.881  1.00  0.00     0.051 A 
ATOM     15  C   UNL     1      18.961  11.895   5.960  1.00  0.00     0.157 A 
ATOM     16  C   UNL     1      21.111  10.788   6.162  1.00  0.00     0.062 A 
ATOM     17  C   UNL     1      20.353  11.967   6.097  1.00  0.00     0.158 A 
BRANCH  15  18
ATOM     18  O   UNL     1      18.211  13.067   5.896  1.00  0.00    -0.504 OA
ATOM     19  H   UNL     1      17.993  13.510   5.012  1.00  0.00     0.293 HD
ENDBRANCH  15  18
BRANCH  17  20
ATOM     20  O   UNL     1      20.976  13.210   6.167  1.00  0.00    -0.504 OA
ATOM     21  H   UNL     1      21.925  13.310   6.510  1.00  0.00     0.293 HD
ENDBRANCH  17  20
ENDBRANCH   1  12
BRANCH   2  22
ATOM     22  O   UNL     1      19.360   6.882   6.470  1.00  0.00    -0.502 OA
ATOM     23  H   UNL     1      18.808   7.531   7.020  1.00  0.00     0.293 HD
ENDBRANCH   2  22
BRANCH   6  24
ATOM     24  O   UNL     1      23.458   3.684   6.342  1.00  0.00    -0.507 OA
ATOM     25  H   UNL     1      23.254   3.113   5.529  1.00  0.00     0.293 HD
ENDBRANCH   6  24
BRANCH   8  26
ATOM     26  O   UNL     1      27.114   6.798   5.875  1.00  0.00    -0.508 OA
ATOM     27  H   UNL     1      27.671   7.076   6.675  1.00  0.00     0.293 HD
ENDBRANCH   8  26
TORSDOF 6
ENDMDL
