MODEL 1
REMARK VINA RESULT:    -5.278      0.000      0.000
REMARK INTER + INTRA:          -6.337
REMARK INTER:                  -6.204
REMARK INTRA:                  -0.133
REMARK UNBOUND:                -0.133
REMARK SMILES O=c1c(O)c(-c2ccc(O)cc2)oc2cc(O)cc(O)c12
REMARK SMILES IDX 5 1 3 2 2 3 1 4 21 5 19 6 18 7 16 8 15 9 14 10 13 11 6 12
REMARK SMILES IDX 7 13 8 14 9 15 12 16 11 17 10 18 4 20 20 22 17 24
REMARK H PARENT 10 19 4 21 20 23 17 25
REMARK Flexibility Score: inf
ROOT
ATOM      1  C   UNL     1     -33.895  10.116 -36.438  1.00  0.00     0.180 A 
ATOM      2  C   UNL     1     -32.612   9.543 -36.381  1.00  0.00     0.208 A 
ATOM      3  C   UNL     1     -31.901   9.584 -35.171  1.00  0.00     0.238 A 
ATOM      4  O   UNL     1     -30.732   9.118 -35.142  1.00  0.00    -0.285 OA
ATOM      5  C   UNL     1     -32.486  10.183 -34.029  1.00  0.00     0.111 A 
ATOM      6  C   UNL     1     -31.873  10.246 -32.743  1.00  0.00     0.134 A 
ATOM      7  C   UNL     1     -32.488  10.977 -31.719  1.00  0.00     0.093 A 
ATOM      8  C   UNL     1     -33.723  11.593 -31.916  1.00  0.00     0.123 A 
ATOM      9  C   UNL     1     -34.360  11.488 -33.152  1.00  0.00     0.094 A 
ATOM     10  C   UNL     1     -33.755  10.795 -34.204  1.00  0.00     0.146 A 
ATOM     11  O   UNL     1     -34.390  10.728 -35.368  1.00  0.00    -0.452 OA
ENDROOT
BRANCH   1  12
ATOM     12  C   UNL     1     -34.716  10.089 -37.670  1.00  0.00     0.021 A 
ATOM     13  C   UNL     1     -35.134   8.875 -38.246  1.00  0.00     0.016 A 
ATOM     14  C   UNL     1     -35.929   8.876 -39.396  1.00  0.00     0.047 A 
ATOM     15  C   UNL     1     -36.328  10.084 -39.977  1.00  0.00     0.115 A 
ATOM     16  C   UNL     1     -35.138  11.299 -38.246  1.00  0.00     0.016 A 
ATOM     17  C   UNL     1     -35.931  11.296 -39.397  1.00  0.00     0.047 A 
BRANCH  15  18
ATOM     18  O   UNL     1     -37.119  10.069 -41.123  1.00  0.00    -0.508 OA
ATOM     19  H   UNL     1     -37.541  10.915 -41.485  1.00  0.00     0.293 HD
ENDBRANCH  15  18
ENDBRANCH   1  12
BRANCH   2  20
ATOM     20  O   UNL     1     -32.045   8.975 -37.525  1.00  0.00    -0.502 OA
ATOM     21  H   UNL     1     -31.148   9.271 -37.892  1.00  0.00     0.293 HD
ENDBRANCH   2  20
BRANCH   6  22
ATOM     22  O   UNL     1     -30.683   9.589 -32.412  1.00  0.00    -0.507 OA
ATOM     23  H   UNL     1     -30.510   8.606 -32.560  1.00  0.00     0.293 HD
ENDBRANCH   6  22
BRANCH   8  24
ATOM     24  O   UNL     1     -34.312  12.299 -30.870  1.00  0.00    -0.508 OA
ATOM     25  H   UNL     1     -35.311  12.264 -30.704  1.00  0.00     0.293 HD
ENDBRANCH   8  24
TORSDOF 5
ENDMDL
MODEL 2
REMARK VINA RESULT:    -4.525      1.422      6.578
REMARK INTER + INTRA:          -5.452
REMARK INTER:                  -5.883
REMARK INTRA:                   0.431
REMARK UNBOUND:                -0.133
REMARK SMILES O=c1c(O)c(-c2ccc(O)cc2)oc2cc(O)cc(O)c12
REMARK SMILES IDX 5 1 3 2 2 3 1 4 21 5 19 6 18 7 16 8 15 9 14 10 13 11 6 12
REMARK SMILES IDX 7 13 8 14 9 15 12 16 11 17 10 18 4 20 20 22 17 24
REMARK H PARENT 10 19 4 21 20 23 17 25
REMARK Flexibility Score: inf
ROOT
ATOM      1  C   UNL     1     -32.984  10.942 -33.745  1.00  0.00     0.180 A 
ATOM      2  C   UNL     1     -31.922  10.124 -34.166  1.00  0.00     0.208 A 
ATOM      3  C   UNL     1     -31.909   9.653 -35.489  1.00  0.00     0.238 A 
ATOM      4  O   UNL     1     -30.984   8.876 -35.844  1.00  0.00    -0.285 OA
ATOM      5  C   UNL     1     -32.948  10.019 -36.378  1.00  0.00     0.111 A 
ATOM      6  C   UNL     1     -33.015   9.632 -37.750  1.00  0.00     0.134 A 
ATOM      7  C   UNL     1     -34.155   9.944 -38.500  1.00  0.00     0.093 A 
ATOM      8  C   UNL     1     -35.201  10.682 -37.949  1.00  0.00     0.123 A 
ATOM      9  C   UNL     1     -35.119  11.117 -36.626  1.00  0.00     0.094 A 
ATOM     10  C   UNL     1     -34.011  10.791 -35.841  1.00  0.00     0.146 A 
ATOM     11  O   UNL     1     -33.977  11.215 -34.583  1.00  0.00    -0.452 OA
ENDROOT
BRANCH   1  12
ATOM     12  C   UNL     1     -33.054  11.499 -32.374  1.00  0.00     0.021 A 
ATOM     13  C   UNL     1     -31.928  11.514 -31.531  1.00  0.00     0.016 A 
ATOM     14  C   UNL     1     -32.014  12.067 -30.249  1.00  0.00     0.047 A 
ATOM     15  C   UNL     1     -33.216  12.621 -29.799  1.00  0.00     0.115 A 
ATOM     16  C   UNL     1     -34.253  12.076 -31.923  1.00  0.00     0.016 A 
ATOM     17  C   UNL     1     -34.336  12.626 -30.640  1.00  0.00     0.047 A 
BRANCH  15  18
ATOM     18  O   UNL     1     -33.286  13.167 -28.519  1.00  0.00    -0.508 OA
ATOM     19  H   UNL     1     -34.113  13.655 -28.197  1.00  0.00     0.293 HD
ENDBRANCH  15  18
ENDBRANCH   1  12
BRANCH   2  20
ATOM     20  O   UNL     1     -30.917   9.757 -33.266  1.00  0.00    -0.502 OA
ATOM     21  H   UNL     1     -31.086   9.130 -32.489  1.00  0.00     0.293 HD
ENDBRANCH   2  20
BRANCH   6  22
ATOM     22  O   UNL     1     -31.984   8.971 -38.425  1.00  0.00    -0.507 OA
ATOM     23  H   UNL     1     -31.838   7.972 -38.415  1.00  0.00     0.293 HD
ENDBRANCH   6  22
BRANCH   8  24
ATOM     24  O   UNL     1     -36.313  10.987 -38.731  1.00  0.00    -0.508 OA
ATOM     25  H   UNL     1     -36.337  10.777 -39.722  1.00  0.00     0.293 HD
ENDBRANCH   8  24
TORSDOF 5
ENDMDL
MODEL 3
REMARK VINA RESULT:    -2.303     19.196     21.662
REMARK INTER + INTRA:          -2.840
REMARK INTER:                  -2.552
REMARK INTRA:                  -0.288
REMARK UNBOUND:                -0.133
REMARK SMILES O=c1c(O)c(-c2ccc(O)cc2)oc2cc(O)cc(O)c12
REMARK SMILES IDX 5 1 3 2 2 3 1 4 21 5 19 6 18 7 16 8 15 9 14 10 13 11 6 12
REMARK SMILES IDX 7 13 8 14 9 15 12 16 11 17 10 18 4 20 20 22 17 24
REMARK H PARENT 10 19 4 21 20 23 17 25
REMARK Flexibility Score: inf
ROOT
ATOM      1  C   UNL     1     -23.013  27.328 -30.945  1.00  0.00     0.180 A 
ATOM      2  C   UNL     1     -23.737  26.131 -31.085  1.00  0.00     0.208 A 
ATOM      3  C   UNL     1     -24.119  25.712 -32.369  1.00  0.00     0.238 A 
ATOM      4  O   UNL     1     -24.814  24.669 -32.483  1.00  0.00    -0.285 OA
ATOM      5  C   UNL     1     -23.761  26.487 -33.499  1.00  0.00     0.111 A 
ATOM      6  C   UNL     1     -24.061  26.138 -34.849  1.00  0.00     0.134 A 
ATOM      7  C   UNL     1     -23.772  27.043 -35.877  1.00  0.00     0.093 A 
ATOM      8  C   UNL     1     -23.136  28.255 -35.612  1.00  0.00     0.123 A 
ATOM      9  C   UNL     1     -22.784  28.580 -34.302  1.00  0.00     0.094 A 
ATOM     10  C   UNL     1     -23.091  27.713 -33.250  1.00  0.00     0.146 A 
ATOM     11  O   UNL     1     -22.748  28.065 -32.017  1.00  0.00    -0.452 OA
ENDROOT
BRANCH   1  12
ATOM     12  C   UNL     1     -22.552  27.821 -29.627  1.00  0.00     0.021 A 
ATOM     13  C   UNL     1     -23.342  28.689 -28.851  1.00  0.00     0.016 A 
ATOM     14  C   UNL     1     -22.895  29.122 -27.598  1.00  0.00     0.047 A 
ATOM     15  C   UNL     1     -21.664  28.685 -27.100  1.00  0.00     0.115 A 
ATOM     16  C   UNL     1     -21.326  27.369 -29.111  1.00  0.00     0.016 A 
ATOM     17  C   UNL     1     -20.881  27.805 -27.859  1.00  0.00     0.047 A 
BRANCH  15  18
ATOM     18  O   UNL     1     -21.232  29.125 -25.851  1.00  0.00    -0.508 OA
ATOM     19  H   UNL     1     -21.880  29.496 -25.168  1.00  0.00     0.293 HD
ENDBRANCH  15  18
ENDBRANCH   1  12
BRANCH   2  20
ATOM     20  O   UNL     1     -24.099  25.392 -29.955  1.00  0.00    -0.502 OA
ATOM     21  H   UNL     1     -23.422  25.075 -29.272  1.00  0.00     0.293 HD
ENDBRANCH   2  20
BRANCH   6  22
ATOM     22  O   UNL     1     -24.613  24.913 -35.234  1.00  0.00    -0.507 OA
ATOM     23  H   UNL     1     -24.693  24.104 -34.635  1.00  0.00     0.293 HD
ENDBRANCH   6  22
BRANCH   8  24
ATOM     24  O   UNL     1     -22.850  29.125 -36.662  1.00  0.00    -0.508 OA
ATOM     25  H   UNL     1     -21.934  29.147 -37.096  1.00  0.00     0.293 HD
ENDBRANCH   8  24
TORSDOF 5
ENDMDL
