MODEL 1
REMARK VINA RESULT:    -5.407      0.000      0.000
REMARK INTER + INTRA:          -6.776
REMARK INTER:                  -6.513
REMARK INTRA:                  -0.263
REMARK UNBOUND:                -0.263
REMARK SMILES O=c1c(O)c(-c2ccc(O)c(O)c2)oc2cc(O)cc(O)c12
REMARK SMILES IDX 5 1 3 2 2 3 1 4 22 5 20 6 19 7 17 8 16 9 15 10 14 11 6 12
REMARK SMILES IDX 7 13 8 14 9 15 13 16 11 17 10 18 12 20 4 22 21 24 18 26
REMARK H PARENT 10 19 12 21 4 23 21 25 18 27
REMARK Flexibility Score: inf
ROOT
ATOM      1  C   UNL     1     -14.543  -4.366 -23.825  1.00  0.00     0.180 A 
ATOM      2  C   UNL     1     -15.038  -3.095 -23.485  1.00  0.00     0.208 A 
ATOM      3  C   UNL     1     -14.245  -2.243 -22.699  1.00  0.00     0.238 A 
ATOM      4  O   UNL     1     -14.716  -1.128 -22.354  1.00  0.00    -0.285 OA
ATOM      5  C   UNL     1     -12.962  -2.666 -22.276  1.00  0.00     0.111 A 
ATOM      6  C   UNL     1     -12.058  -1.870 -21.511  1.00  0.00     0.134 A 
ATOM      7  C   UNL     1     -10.869  -2.437 -21.038  1.00  0.00     0.093 A 
ATOM      8  C   UNL     1     -10.520  -3.749 -21.356  1.00  0.00     0.123 A 
ATOM      9  C   UNL     1     -11.369  -4.518 -22.154  1.00  0.00     0.094 A 
ATOM     10  C   UNL     1     -12.580  -3.991 -22.610  1.00  0.00     0.146 A 
ATOM     11  O   UNL     1     -13.363  -4.759 -23.359  1.00  0.00    -0.452 OA
ENDROOT
BRANCH   1  12
ATOM     12  C   UNL     1     -15.309  -5.310 -24.671  1.00  0.00     0.025 A 
ATOM     13  C   UNL     1     -16.376  -6.029 -24.111  1.00  0.00     0.016 A 
ATOM     14  C   UNL     1     -17.099  -6.941 -24.886  1.00  0.00     0.051 A 
ATOM     15  C   UNL     1     -16.755  -7.156 -26.226  1.00  0.00     0.157 A 
ATOM     16  C   UNL     1     -14.955  -5.544 -26.012  1.00  0.00     0.062 A 
ATOM     17  C   UNL     1     -15.680  -6.459 -26.790  1.00  0.00     0.158 A 
BRANCH  15  18
ATOM     18  O   UNL     1     -17.476  -8.062 -27.003  1.00  0.00    -0.504 OA
ATOM     19  H   UNL     1     -17.342  -8.124 -28.005  1.00  0.00     0.293 HD
ENDBRANCH  15  18
BRANCH  17  20
ATOM     20  O   UNL     1     -15.331  -6.686 -28.120  1.00  0.00    -0.504 OA
ATOM     21  H   UNL     1     -15.897  -6.334 -28.884  1.00  0.00     0.293 HD
ENDBRANCH  17  20
ENDBRANCH   1  12
BRANCH   2  22
ATOM     22  O   UNL     1     -16.316  -2.706 -23.895  1.00  0.00    -0.502 OA
ATOM     23  H   UNL     1     -16.594  -2.687 -24.869  1.00  0.00     0.293 HD
ENDBRANCH   2  22
BRANCH   6  24
ATOM     24  O   UNL     1     -12.267  -0.519 -21.213  1.00  0.00    -0.507 OA
ATOM     25  H   UNL     1     -12.910  -0.178 -20.516  1.00  0.00     0.293 HD
ENDBRANCH   6  24
BRANCH   8  26
ATOM     26  O   UNL     1      -9.321  -4.277 -20.881  1.00  0.00    -0.508 OA
ATOM     27  H   UNL     1      -8.502  -4.347 -21.472  1.00  0.00     0.293 HD
ENDBRANCH   8  26
TORSDOF 6
ENDMDL
MODEL 2
REMARK VINA RESULT:    -5.383     13.072     16.407
REMARK INTER + INTRA:          -6.748
REMARK INTER:                  -6.452
REMARK INTRA:                  -0.295
REMARK UNBOUND:                -0.263
REMARK SMILES O=c1c(O)c(-c2ccc(O)c(O)c2)oc2cc(O)cc(O)c12
REMARK SMILES IDX 5 1 3 2 2 3 1 4 22 5 20 6 19 7 17 8 16 9 15 10 14 11 6 12
REMARK SMILES IDX 7 13 8 14 9 15 13 16 11 17 10 18 12 20 4 22 21 24 18 26
REMARK H PARENT 10 19 12 21 4 23 21 25 18 27
REMARK Flexibility Score: inf
ROOT
ATOM      1  C   UNL     1     -10.716  -3.787 -38.468  1.00  0.00     0.180 A 
ATOM      2  C   UNL     1     -10.193  -2.547 -38.873  1.00  0.00     0.208 A 
ATOM      3  C   UNL     1     -10.997  -1.687 -39.639  1.00  0.00     0.238 A 
ATOM      4  O   UNL     1     -10.505  -0.602 -40.045  1.00  0.00    -0.285 OA
ATOM      5  C   UNL     1     -12.317  -2.071 -39.977  1.00  0.00     0.111 A 
ATOM      6  C   UNL     1     -13.233  -1.262 -40.715  1.00  0.00     0.134 A 
ATOM      7  C   UNL     1     -14.467  -1.796 -41.104  1.00  0.00     0.093 A 
ATOM      8  C   UNL     1     -14.846  -3.083 -40.727  1.00  0.00     0.123 A 
ATOM      9  C   UNL     1     -13.983  -3.862 -39.954  1.00  0.00     0.094 A 
ATOM     10  C   UNL     1     -12.730  -3.370 -39.582  1.00  0.00     0.146 A 
ATOM     11  O   UNL     1     -11.934  -4.147 -38.856  1.00  0.00    -0.452 OA
ENDROOT
BRANCH   1  12
ATOM     12  C   UNL     1      -9.939  -4.736 -37.637  1.00  0.00     0.025 A 
ATOM     13  C   UNL     1      -9.010  -5.591 -38.251  1.00  0.00     0.016 A 
ATOM     14  C   UNL     1      -8.282  -6.508 -37.489  1.00  0.00     0.051 A 
ATOM     15  C   UNL     1      -8.483  -6.595 -36.106  1.00  0.00     0.157 A 
ATOM     16  C   UNL     1     -10.153  -4.840 -36.251  1.00  0.00     0.062 A 
ATOM     17  C   UNL     1      -9.423  -5.761 -35.486  1.00  0.00     0.158 A 
BRANCH  15  18
ATOM     18  O   UNL     1      -7.757  -7.506 -35.342  1.00  0.00    -0.504 OA
ATOM     19  H   UNL     1      -7.202  -7.209 -34.548  1.00  0.00     0.293 HD
ENDBRANCH  15  18
BRANCH  17  20
ATOM     20  O   UNL     1      -9.631  -5.859 -34.111  1.00  0.00    -0.504 OA
ATOM     21  H   UNL     1      -9.197  -6.591 -33.560  1.00  0.00     0.293 HD
ENDBRANCH  17  20
ENDBRANCH   1  12
BRANCH   2  22
ATOM     22  O   UNL     1      -8.881  -2.197 -38.547  1.00  0.00    -0.502 OA
ATOM     23  H   UNL     1      -8.635  -1.765 -37.664  1.00  0.00     0.293 HD
ENDBRANCH   2  22
BRANCH   6  24
ATOM     24  O   UNL     1     -12.990   0.070 -41.065  1.00  0.00    -0.507 OA
ATOM     25  H   UNL     1     -12.080   0.503 -41.081  1.00  0.00     0.293 HD
ENDBRANCH   6  24
BRANCH   8  26
ATOM     26  O   UNL     1     -16.089  -3.577 -41.119  1.00  0.00    -0.508 OA
ATOM     27  H   UNL     1     -16.217  -4.548 -41.376  1.00  0.00     0.293 HD
ENDBRANCH   8  26
TORSDOF 6
ENDMDL
MODEL 3
REMARK VINA RESULT:    -5.299     15.192     16.911
REMARK INTER + INTRA:          -6.646
REMARK INTER:                  -6.362
REMARK INTRA:                  -0.284
REMARK UNBOUND:                -0.263
REMARK SMILES O=c1c(O)c(-c2ccc(O)c(O)c2)oc2cc(O)cc(O)c12
REMARK SMILES IDX 5 1 3 2 2 3 1 4 22 5 20 6 19 7 17 8 16 9 15 10 14 11 6 12
REMARK SMILES IDX 7 13 8 14 9 15 13 16 11 17 10 18 12 20 4 22 21 24 18 26
REMARK H PARENT 10 19 12 21 4 23 21 25 18 27
REMARK Flexibility Score: inf
ROOT
ATOM      1  C   UNL     1     -18.113   6.039 -35.016  1.00  0.00     0.180 A 
ATOM      2  C   UNL     1     -18.498   5.238 -33.928  1.00  0.00     0.208 A 
ATOM      3  C   UNL     1     -19.487   5.712 -33.051  1.00  0.00     0.238 A 
ATOM      4  O   UNL     1     -19.789   5.014 -32.048  1.00  0.00    -0.285 OA
ATOM      5  C   UNL     1     -20.090   6.972 -33.282  1.00  0.00     0.111 A 
ATOM      6  C   UNL     1     -21.129   7.533 -32.481  1.00  0.00     0.134 A 
ATOM      7  C   UNL     1     -21.559   8.842 -32.725  1.00  0.00     0.093 A 
ATOM      8  C   UNL     1     -21.035   9.587 -33.780  1.00  0.00     0.123 A 
ATOM      9  C   UNL     1     -20.059   9.028 -34.607  1.00  0.00     0.094 A 
ATOM     10  C   UNL     1     -19.584   7.736 -34.365  1.00  0.00     0.146 A 
ATOM     11  O   UNL     1     -18.649   7.244 -35.170  1.00  0.00    -0.452 OA
ENDROOT
BRANCH   1  12
ATOM     12  C   UNL     1     -17.096   5.598 -35.998  1.00  0.00     0.025 A 
ATOM     13  C   UNL     1     -15.821   6.186 -35.984  1.00  0.00     0.016 A 
ATOM     14  C   UNL     1     -14.853   5.799 -36.915  1.00  0.00     0.051 A 
ATOM     15  C   UNL     1     -15.150   4.831 -37.882  1.00  0.00     0.157 A 
ATOM     16  C   UNL     1     -17.396   4.640 -36.984  1.00  0.00     0.062 A 
ATOM     17  C   UNL     1     -16.425   4.252 -37.919  1.00  0.00     0.158 A 
BRANCH  15  18
ATOM     18  O   UNL     1     -14.187   4.440 -38.810  1.00  0.00    -0.504 OA
ATOM     19  H   UNL     1     -13.389   3.877 -38.541  1.00  0.00     0.293 HD
ENDBRANCH  15  18
BRANCH  17  20
ATOM     20  O   UNL     1     -16.723   3.299 -38.891  1.00  0.00    -0.504 OA
ATOM     21  H   UNL     1     -17.494   2.650 -38.779  1.00  0.00     0.293 HD
ENDBRANCH  17  20
ENDBRANCH   1  12
BRANCH   2  22
ATOM     22  O   UNL     1     -17.876   4.007 -33.706  1.00  0.00    -0.502 OA
ATOM     23  H   UNL     1     -18.398   3.155 -33.538  1.00  0.00     0.293 HD
ENDBRANCH   2  22
BRANCH   6  24
ATOM     24  O   UNL     1     -21.787   6.840 -31.459  1.00  0.00    -0.507 OA
ATOM     25  H   UNL     1     -21.344   6.190 -30.829  1.00  0.00     0.293 HD
ENDBRANCH   6  24
BRANCH   8  26
ATOM     26  O   UNL     1     -21.496  10.883 -34.004  1.00  0.00    -0.508 OA
ATOM     27  H   UNL     1     -22.486  11.091 -34.057  1.00  0.00     0.293 HD
ENDBRANCH   8  26
TORSDOF 6
ENDMDL
MODEL 4
REMARK VINA RESULT:    -5.138      1.488      3.077
REMARK INTER + INTRA:          -6.452
REMARK INTER:                  -6.178
REMARK INTRA:                  -0.275
REMARK UNBOUND:                -0.263
REMARK SMILES O=c1c(O)c(-c2ccc(O)c(O)c2)oc2cc(O)cc(O)c12
REMARK SMILES IDX 5 1 3 2 2 3 1 4 22 5 20 6 19 7 17 8 16 9 15 10 14 11 6 12
REMARK SMILES IDX 7 13 8 14 9 15 13 16 11 17 10 18 12 20 4 22 21 24 18 26
REMARK H PARENT 10 19 12 21 4 23 21 25 18 27
REMARK Flexibility Score: inf
ROOT
ATOM      1  C   UNL     1     -14.540  -4.072 -23.998  1.00  0.00     0.180 A 
ATOM      2  C   UNL     1     -13.570  -4.407 -23.037  1.00  0.00     0.208 A 
ATOM      3  C   UNL     1     -12.901  -3.376 -22.359  1.00  0.00     0.238 A 
ATOM      4  O   UNL     1     -11.995  -3.681 -21.540  1.00  0.00    -0.285 OA
ATOM      5  C   UNL     1     -13.220  -2.025 -22.636  1.00  0.00     0.111 A 
ATOM      6  C   UNL     1     -12.634  -0.901 -21.980  1.00  0.00     0.134 A 
ATOM      7  C   UNL     1     -12.930   0.391 -22.427  1.00  0.00     0.093 A 
ATOM      8  C   UNL     1     -13.841   0.605 -23.460  1.00  0.00     0.123 A 
ATOM      9  C   UNL     1     -14.466  -0.483 -24.070  1.00  0.00     0.094 A 
ATOM     10  C   UNL     1     -14.162  -1.787 -23.671  1.00  0.00     0.146 A 
ATOM     11  O   UNL     1     -14.772  -2.796 -24.283  1.00  0.00    -0.452 OA
ENDROOT
BRANCH   1  12
ATOM     12  C   UNL     1     -15.307  -5.102 -24.736  1.00  0.00     0.025 A 
ATOM     13  C   UNL     1     -16.346  -5.787 -24.087  1.00  0.00     0.016 A 
ATOM     14  C   UNL     1     -17.068  -6.778 -24.758  1.00  0.00     0.051 A 
ATOM     15  C   UNL     1     -16.751  -7.109 -26.081  1.00  0.00     0.157 A 
ATOM     16  C   UNL     1     -14.978  -5.452 -26.058  1.00  0.00     0.062 A 
ATOM     17  C   UNL     1     -15.702  -6.447 -26.732  1.00  0.00     0.158 A 
BRANCH  15  18
ATOM     18  O   UNL     1     -17.470  -8.094 -26.755  1.00  0.00    -0.504 OA
ATOM     19  H   UNL     1     -17.586  -9.023 -26.368  1.00  0.00     0.293 HD
ENDBRANCH  15  18
BRANCH  17  20
ATOM     20  O   UNL     1     -15.379  -6.788 -28.044  1.00  0.00    -0.504 OA
ATOM     21  H   UNL     1     -15.354  -6.093 -28.782  1.00  0.00     0.293 HD
ENDBRANCH  17  20
ENDBRANCH   1  12
BRANCH   2  22
ATOM     22  O   UNL     1     -13.254  -5.746 -22.794  1.00  0.00    -0.502 OA
ATOM     23  H   UNL     1     -13.421  -6.477 -23.475  1.00  0.00     0.293 HD
ENDBRANCH   2  22
BRANCH   6  24
ATOM     24  O   UNL     1     -11.781  -1.000 -20.876  1.00  0.00    -0.507 OA
ATOM     25  H   UNL     1     -10.872  -1.436 -20.890  1.00  0.00     0.293 HD
ENDBRANCH   6  24
BRANCH   8  26
ATOM     26  O   UNL     1     -14.124   1.907 -23.869  1.00  0.00    -0.508 OA
ATOM     27  H   UNL     1     -13.440   2.468 -24.363  1.00  0.00     0.293 HD
ENDBRANCH   8  26
TORSDOF 6
ENDMDL
MODEL 5
REMARK VINA RESULT:    -5.125     11.125     13.669
REMARK INTER + INTRA:          -6.436
REMARK INTER:                  -6.178
REMARK INTRA:                  -0.258
REMARK UNBOUND:                -0.263
REMARK SMILES O=c1c(O)c(-c2ccc(O)c(O)c2)oc2cc(O)cc(O)c12
REMARK SMILES IDX 5 1 3 2 2 3 1 4 22 5 20 6 19 7 17 8 16 9 15 10 14 11 6 12
REMARK SMILES IDX 7 13 8 14 9 15 13 16 11 17 10 18 12 20 4 22 21 24 18 26
REMARK H PARENT 10 19 12 21 4 23 21 25 18 27
REMARK Flexibility Score: inf
ROOT
ATOM      1  C   UNL     1      -7.303   5.617 -26.690  1.00  0.00     0.180 A 
ATOM      2  C   UNL     1      -6.986   4.887 -27.848  1.00  0.00     0.208 A 
ATOM      3  C   UNL     1      -5.992   5.377 -28.710  1.00  0.00     0.238 A 
ATOM      4  O   UNL     1      -5.750   4.747 -29.773  1.00  0.00    -0.285 OA
ATOM      5  C   UNL     1      -5.317   6.581 -28.396  1.00  0.00     0.111 A 
ATOM      6  C   UNL     1      -4.266   7.149 -29.177  1.00  0.00     0.134 A 
ATOM      7  C   UNL     1      -3.760   8.410 -28.842  1.00  0.00     0.093 A 
ATOM      8  C   UNL     1      -4.220   9.095 -27.717  1.00  0.00     0.123 A 
ATOM      9  C   UNL     1      -5.206   8.523 -26.912  1.00  0.00     0.094 A 
ATOM     10  C   UNL     1      -5.756   7.282 -27.243  1.00  0.00     0.146 A 
ATOM     11  O   UNL     1      -6.699   6.776 -26.456  1.00  0.00    -0.452 OA
ENDROOT
BRANCH   1  12
ATOM     12  C   UNL     1      -8.321   5.152 -25.719  1.00  0.00     0.025 A 
ATOM     13  C   UNL     1      -9.531   5.853 -25.598  1.00  0.00     0.016 A 
ATOM     14  C   UNL     1     -10.497   5.444 -24.674  1.00  0.00     0.051 A 
ATOM     15  C   UNL     1     -10.260   4.339 -23.848  1.00  0.00     0.157 A 
ATOM     16  C   UNL     1      -8.079   4.055 -24.874  1.00  0.00     0.062 A 
ATOM     17  C   UNL     1      -9.047   3.644 -23.946  1.00  0.00     0.158 A 
BRANCH  15  18
ATOM     18  O   UNL     1     -11.221   3.926 -22.928  1.00  0.00    -0.504 OA
ATOM     19  H   UNL     1     -12.169   4.283 -22.955  1.00  0.00     0.293 HD
ENDBRANCH  15  18
BRANCH  17  20
ATOM     20  O   UNL     1      -8.809   2.552 -23.113  1.00  0.00    -0.504 OA
ATOM     21  H   UNL     1      -9.305   1.676 -23.231  1.00  0.00     0.293 HD
ENDBRANCH  17  20
ENDBRANCH   1  12
BRANCH   2  22
ATOM     22  O   UNL     1      -7.679   3.712 -28.151  1.00  0.00    -0.502 OA
ATOM     23  H   UNL     1      -7.310   3.008 -28.778  1.00  0.00     0.293 HD
ENDBRANCH   2  22
BRANCH   6  24
ATOM     24  O   UNL     1      -3.670   6.508 -30.268  1.00  0.00    -0.507 OA
ATOM     25  H   UNL     1      -3.101   5.678 -30.205  1.00  0.00     0.293 HD
ENDBRANCH   6  24
BRANCH   8  26
ATOM     26  O   UNL     1      -3.683  10.342 -27.404  1.00  0.00    -0.508 OA
ATOM     27  H   UNL     1      -3.348  10.971 -28.124  1.00  0.00     0.293 HD
ENDBRANCH   8  26
TORSDOF 6
ENDMDL
MODEL 6
REMARK VINA RESULT:    -5.052     10.554     12.006
REMARK INTER + INTRA:          -6.349
REMARK INTER:                  -6.059
REMARK INTRA:                  -0.290
REMARK UNBOUND:                -0.263
REMARK SMILES O=c1c(O)c(-c2ccc(O)c(O)c2)oc2cc(O)cc(O)c12
REMARK SMILES IDX 5 1 3 2 2 3 1 4 22 5 20 6 19 7 17 8 16 9 15 10 14 11 6 12
REMARK SMILES IDX 7 13 8 14 9 15 13 16 11 17 10 18 12 20 4 22 21 24 18 26
REMARK H PARENT 10 19 12 21 4 23 21 25 18 27
REMARK Flexibility Score: inf
ROOT
ATOM      1  C   UNL     1     -10.539   5.566 -24.285  1.00  0.00     0.180 A 
ATOM      2  C   UNL     1     -10.574   5.605 -22.880  1.00  0.00     0.208 A 
ATOM      3  C   UNL     1     -11.799   5.844 -22.237  1.00  0.00     0.238 A 
ATOM      4  O   UNL     1     -11.814   5.931 -20.981  1.00  0.00    -0.285 OA
ATOM      5  C   UNL     1     -12.975   6.024 -23.003  1.00  0.00     0.111 A 
ATOM      6  C   UNL     1     -14.276   6.232 -22.455  1.00  0.00     0.134 A 
ATOM      7  C   UNL     1     -15.346   6.528 -23.308  1.00  0.00     0.093 A 
ATOM      8  C   UNL     1     -15.176   6.559 -24.692  1.00  0.00     0.123 A 
ATOM      9  C   UNL     1     -13.920   6.299 -25.243  1.00  0.00     0.094 A 
ATOM     10  C   UNL     1     -12.826   6.036 -24.415  1.00  0.00     0.146 A 
ATOM     11  O   UNL     1     -11.646   5.803 -24.978  1.00  0.00    -0.452 OA
ENDROOT
BRANCH   1  12
ATOM     12  C   UNL     1      -9.291   5.295 -25.035  1.00  0.00     0.025 A 
ATOM     13  C   UNL     1      -8.821   3.976 -25.140  1.00  0.00     0.016 A 
ATOM     14  C   UNL     1      -7.635   3.699 -25.825  1.00  0.00     0.051 A 
ATOM     15  C   UNL     1      -6.893   4.739 -26.399  1.00  0.00     0.157 A 
ATOM     16  C   UNL     1      -8.532   6.337 -25.596  1.00  0.00     0.062 A 
ATOM     17  C   UNL     1      -7.341   6.061 -26.283  1.00  0.00     0.158 A 
BRANCH  15  18
ATOM     18  O   UNL     1      -5.711   4.467 -27.085  1.00  0.00    -0.504 OA
ATOM     19  H   UNL     1      -4.810   4.506 -26.624  1.00  0.00     0.293 HD
ENDBRANCH  15  18
BRANCH  17  20
ATOM     20  O   UNL     1      -6.593   7.095 -26.844  1.00  0.00    -0.504 OA
ATOM     21  H   UNL     1      -6.645   8.041 -26.486  1.00  0.00     0.293 HD
ENDBRANCH  17  20
ENDBRANCH   1  12
BRANCH   2  22
ATOM     22  O   UNL     1      -9.398   5.446 -22.143  1.00  0.00    -0.502 OA
ATOM     23  H   UNL     1      -8.906   6.228 -21.726  1.00  0.00     0.293 HD
ENDBRANCH   2  22
BRANCH   6  24
ATOM     24  O   UNL     1     -14.574   6.132 -21.092  1.00  0.00    -0.507 OA
ATOM     25  H   UNL     1     -14.624   5.267 -20.577  1.00  0.00     0.293 HD
ENDBRANCH   6  24
BRANCH   8  26
ATOM     26  O   UNL     1     -16.266   6.843 -25.513  1.00  0.00    -0.508 OA
ATOM     27  H   UNL     1     -16.207   6.759 -26.520  1.00  0.00     0.293 HD
ENDBRANCH   8  26
TORSDOF 6
ENDMDL
MODEL 7
REMARK VINA RESULT:    -5.006     16.496     18.421
REMARK INTER + INTRA:          -6.293
REMARK INTER:                  -5.972
REMARK INTRA:                  -0.321
REMARK UNBOUND:                -0.263
REMARK SMILES O=c1c(O)c(-c2ccc(O)c(O)c2)oc2cc(O)cc(O)c12
REMARK SMILES IDX 5 1 3 2 2 3 1 4 22 5 20 6 19 7 17 8 16 9 15 10 14 11 6 12
REMARK SMILES IDX 7 13 8 14 9 15 13 16 11 17 10 18 12 20 4 22 21 24 18 26
REMARK H PARENT 10 19 12 21 4 23 21 25 18 27
REMARK Flexibility Score: inf
ROOT
ATOM      1  C   UNL     1     -13.980   5.682 -38.173  1.00  0.00     0.180 A 
ATOM      2  C   UNL     1     -15.339   5.749 -37.821  1.00  0.00     0.208 A 
ATOM      3  C   UNL     1     -16.043   4.556 -37.594  1.00  0.00     0.238 A 
ATOM      4  O   UNL     1     -17.273   4.620 -37.333  1.00  0.00    -0.285 OA
ATOM      5  C   UNL     1     -15.376   3.312 -37.705  1.00  0.00     0.111 A 
ATOM      6  C   UNL     1     -15.981   2.043 -37.458  1.00  0.00     0.134 A 
ATOM      7  C   UNL     1     -15.263   0.872 -37.725  1.00  0.00     0.093 A 
ATOM      8  C   UNL     1     -13.941   0.922 -38.167  1.00  0.00     0.123 A 
ATOM      9  C   UNL     1     -13.319   2.158 -38.355  1.00  0.00     0.094 A 
ATOM     10  C   UNL     1     -14.023   3.344 -38.132  1.00  0.00     0.146 A 
ATOM     11  O   UNL     1     -13.399   4.499 -38.332  1.00  0.00    -0.452 OA
ENDROOT
BRANCH   1  12
ATOM     12  C   UNL     1     -13.164   6.897 -38.403  1.00  0.00     0.025 A 
ATOM     13  C   UNL     1     -12.478   7.482 -37.327  1.00  0.00     0.016 A 
ATOM     14  C   UNL     1     -11.720   8.641 -37.517  1.00  0.00     0.051 A 
ATOM     15  C   UNL     1     -11.651   9.239 -38.782  1.00  0.00     0.157 A 
ATOM     16  C   UNL     1     -13.107   7.512 -39.666  1.00  0.00     0.062 A 
ATOM     17  C   UNL     1     -12.348   8.676 -39.858  1.00  0.00     0.158 A 
BRANCH  15  18
ATOM     18  O   UNL     1     -10.894  10.393 -38.976  1.00  0.00    -0.504 OA
ATOM     19  H   UNL     1     -11.299  11.316 -38.875  1.00  0.00     0.293 HD
ENDBRANCH  15  18
BRANCH  17  20
ATOM     20  O   UNL     1     -12.287   9.281 -41.112  1.00  0.00    -0.504 OA
ATOM     21  H   UNL     1     -12.509   8.769 -41.959  1.00  0.00     0.293 HD
ENDBRANCH  17  20
ENDBRANCH   1  12
BRANCH   2  22
ATOM     22  O   UNL     1     -15.983   6.986 -37.738  1.00  0.00    -0.502 OA
ATOM     23  H   UNL     1     -16.965   7.074 -37.505  1.00  0.00     0.293 HD
ENDBRANCH   2  22
BRANCH   6  24
ATOM     24  O   UNL     1     -17.265   1.880 -36.929  1.00  0.00    -0.507 OA
ATOM     25  H   UNL     1     -18.109   1.818 -37.477  1.00  0.00     0.293 HD
ENDBRANCH   6  24
BRANCH   8  26
ATOM     26  O   UNL     1     -13.250  -0.264 -38.408  1.00  0.00    -0.508 OA
ATOM     27  H   UNL     1     -12.824  -0.792 -37.656  1.00  0.00     0.293 HD
ENDBRANCH   8  26
TORSDOF 6
ENDMDL
MODEL 8
REMARK VINA RESULT:    -5.000     10.741     12.827
REMARK INTER + INTRA:          -6.286
REMARK INTER:                  -6.039
REMARK INTRA:                  -0.248
REMARK UNBOUND:                -0.263
REMARK SMILES O=c1c(O)c(-c2ccc(O)c(O)c2)oc2cc(O)cc(O)c12
REMARK SMILES IDX 5 1 3 2 2 3 1 4 22 5 20 6 19 7 17 8 16 9 15 10 14 11 6 12
REMARK SMILES IDX 7 13 8 14 9 15 13 16 11 17 10 18 12 20 4 22 21 24 18 26
REMARK H PARENT 10 19 12 21 4 23 21 25 18 27
REMARK Flexibility Score: inf
ROOT
ATOM      1  C   UNL     1      -8.964   5.670 -25.730  1.00  0.00     0.180 A 
ATOM      2  C   UNL     1      -8.823   4.525 -26.534  1.00  0.00     0.208 A 
ATOM      3  C   UNL     1      -7.670   4.387 -27.324  1.00  0.00     0.238 A 
ATOM      4  O   UNL     1      -7.575   3.386 -28.082  1.00  0.00    -0.285 OA
ATOM      5  C   UNL     1      -6.668   5.386 -27.290  1.00  0.00     0.111 A 
ATOM      6  C   UNL     1      -5.442   5.330 -28.019  1.00  0.00     0.134 A 
ATOM      7  C   UNL     1      -4.583   6.434 -28.011  1.00  0.00     0.093 A 
ATOM      8  C   UNL     1      -4.871   7.566 -27.249  1.00  0.00     0.123 A 
ATOM      9  C   UNL     1      -6.039   7.608 -26.485  1.00  0.00     0.094 A 
ATOM     10  C   UNL     1      -6.934   6.536 -26.502  1.00  0.00     0.146 A 
ATOM     11  O   UNL     1      -8.038   6.620 -25.769  1.00  0.00    -0.452 OA
ENDROOT
BRANCH   1  12
ATOM     12  C   UNL     1     -10.138   5.874 -24.851  1.00  0.00     0.025 A 
ATOM     13  C   UNL     1     -11.366   6.253 -25.415  1.00  0.00     0.016 A 
ATOM     14  C   UNL     1     -12.482   6.472 -24.601  1.00  0.00     0.051 A 
ATOM     15  C   UNL     1     -12.380   6.330 -23.212  1.00  0.00     0.157 A 
ATOM     16  C   UNL     1     -10.036   5.752 -23.453  1.00  0.00     0.062 A 
ATOM     17  C   UNL     1     -11.155   5.972 -22.636  1.00  0.00     0.158 A 
BRANCH  15  18
ATOM     18  O   UNL     1     -13.491   6.544 -22.398  1.00  0.00    -0.504 OA
ATOM     19  H   UNL     1     -14.394   6.141 -22.617  1.00  0.00     0.293 HD
ENDBRANCH  15  18
BRANCH  17  20
ATOM     20  O   UNL     1     -11.054   5.845 -21.252  1.00  0.00    -0.504 OA
ATOM     21  H   UNL     1     -11.826   6.082 -20.640  1.00  0.00     0.293 HD
ENDBRANCH  17  20
ENDBRANCH   1  12
BRANCH   2  22
ATOM     22  O   UNL     1      -9.834   3.561 -26.570  1.00  0.00    -0.502 OA
ATOM     23  H   UNL     1     -10.795   3.771 -26.327  1.00  0.00     0.293 HD
ENDBRANCH   2  22
BRANCH   6  24
ATOM     24  O   UNL     1      -5.013   4.210 -28.739  1.00  0.00    -0.507 OA
ATOM     25  H   UNL     1      -5.609   3.632 -29.310  1.00  0.00     0.293 HD
ENDBRANCH   6  24
BRANCH   8  26
ATOM     26  O   UNL     1      -3.986   8.642 -27.252  1.00  0.00    -0.508 OA
ATOM     27  H   UNL     1      -4.235   9.535 -26.844  1.00  0.00     0.293 HD
ENDBRANCH   8  26
TORSDOF 6
ENDMDL
MODEL 9
REMARK VINA RESULT:    -4.311     13.175     15.996
REMARK INTER + INTRA:          -5.456
REMARK INTER:                  -5.143
REMARK INTRA:                  -0.313
REMARK UNBOUND:                -0.263
REMARK SMILES O=c1c(O)c(-c2ccc(O)c(O)c2)oc2cc(O)cc(O)c12
REMARK SMILES IDX 5 1 3 2 2 3 1 4 22 5 20 6 19 7 17 8 16 9 15 10 14 11 6 12
REMARK SMILES IDX 7 13 8 14 9 15 13 16 11 17 10 18 12 20 4 22 21 24 18 26
REMARK H PARENT 10 19 12 21 4 23 21 25 18 27
REMARK Flexibility Score: inf
ROOT
ATOM      1  C   UNL     1     -10.529  -3.430 -38.275  1.00  0.00     0.180 A 
ATOM      2  C   UNL     1     -11.640  -3.688 -39.096  1.00  0.00     0.208 A 
ATOM      3  C   UNL     1     -12.291  -2.610 -39.719  1.00  0.00     0.238 A 
ATOM      4  O   UNL     1     -13.318  -2.843 -40.408  1.00  0.00    -0.285 OA
ATOM      5  C   UNL     1     -11.814  -1.292 -39.526  1.00  0.00     0.111 A 
ATOM      6  C   UNL     1     -12.371  -0.130 -40.139  1.00  0.00     0.134 A 
ATOM      7  C   UNL     1     -11.901   1.137 -39.775  1.00  0.00     0.093 A 
ATOM      8  C   UNL     1     -10.850   1.282 -38.870  1.00  0.00     0.123 A 
ATOM      9  C   UNL     1     -10.257   0.150 -38.309  1.00  0.00     0.094 A 
ATOM     10  C   UNL     1     -10.730  -1.126 -38.625  1.00  0.00     0.146 A 
ATOM     11  O   UNL     1     -10.144  -2.177 -38.062  1.00  0.00    -0.452 OA
ENDROOT
BRANCH   1  12
ATOM     12  C   UNL     1      -9.775  -4.515 -37.606  1.00  0.00     0.025 A 
ATOM     13  C   UNL     1      -8.788  -5.212 -38.320  1.00  0.00     0.016 A 
ATOM     14  C   UNL     1      -8.079  -6.254 -37.715  1.00  0.00     0.051 A 
ATOM     15  C   UNL     1      -8.358  -6.622 -36.393  1.00  0.00     0.157 A 
ATOM     16  C   UNL     1     -10.065  -4.902 -36.286  1.00  0.00     0.062 A 
ATOM     17  C   UNL     1      -9.355  -5.948 -35.678  1.00  0.00     0.158 A 
BRANCH  15  18
ATOM     18  O   UNL     1      -7.652  -7.658 -35.785  1.00  0.00    -0.504 OA
ATOM     19  H   UNL     1      -7.797  -8.626 -36.050  1.00  0.00     0.293 HD
ENDBRANCH  15  18
BRANCH  17  20
ATOM     20  O   UNL     1      -9.640  -6.326 -34.367  1.00  0.00    -0.504 OA
ATOM     21  H   UNL     1      -8.922  -6.693 -33.753  1.00  0.00     0.293 HD
ENDBRANCH  17  20
ENDBRANCH   1  12
BRANCH   2  22
ATOM     22  O   UNL     1     -12.108  -4.995 -39.256  1.00  0.00    -0.502 OA
ATOM     23  H   UNL     1     -12.847  -5.233 -39.906  1.00  0.00     0.293 HD
ENDBRANCH   2  22
BRANCH   6  24
ATOM     24  O   UNL     1     -13.363  -0.168 -41.125  1.00  0.00    -0.507 OA
ATOM     25  H   UNL     1     -13.286  -0.666 -41.998  1.00  0.00     0.293 HD
ENDBRANCH   6  24
BRANCH   8  26
ATOM     26  O   UNL     1     -10.396   2.558 -38.541  1.00  0.00    -0.508 OA
ATOM     27  H   UNL     1      -9.628   2.992 -39.038  1.00  0.00     0.293 HD
ENDBRANCH   8  26
TORSDOF 6
ENDMDL
