MODEL 1
REMARK VINA RESULT:    -4.384      0.000      0.000
REMARK INTER + INTRA:         -16.114
REMARK INTER:                 -11.559
REMARK INTRA:                  -4.555
REMARK UNBOUND:                -4.555
REMARK SMILES CCCCCCCCCCCCCCCCCCCCCCCCCCCCCC(=O)[O-]
REMARK SMILES IDX 16 1 17 2 18 3 19 4 20 5 21 6 22 7 23 8 24 9 25 10 26 11
REMARK SMILES IDX 27 12 28 13 29 14 30 15 31 16 32 17 15 18 14 19 13 20 12 21
REMARK SMILES IDX 11 22 10 23 9 24 8 25 7 26 6 27 5 28 4 29 3 30 2 31 1 32
REMARK H PARENT
REMARK Flexibility Score: inf
ROOT
ATOM      1  C   UNL     1     184.183 187.241 170.436  1.00  0.00     0.000 C 
ENDROOT
BRANCH   1   2
ATOM      2  C   UNL     1     182.690 187.346 170.781  1.00  0.00     0.000 C 
BRANCH   2   3
ATOM      3  C   UNL     1     181.983 188.477 170.015  1.00  0.00     0.000 C 
BRANCH   3   4
ATOM      4  C   UNL     1     180.483 188.613 170.351  1.00  0.00     0.000 C 
BRANCH   4   5
ATOM      5  C   UNL     1     179.580 188.375 169.129  1.00  0.00     0.000 C 
BRANCH   5   6
ATOM      6  C   UNL     1     179.948 187.075 168.399  1.00  0.00     0.000 C 
BRANCH   6   7
ATOM      7  C   UNL     1     180.085 187.276 166.875  1.00  0.00     0.000 C 
BRANCH   7   8
ATOM      8  C   UNL     1     181.492 187.742 166.458  1.00  0.00     0.000 C 
BRANCH   8   9
ATOM      9  C   UNL     1     181.636 189.275 166.311  1.00  0.00     0.000 C 
BRANCH   9  10
ATOM     10  C   UNL     1     180.377 190.005 165.797  1.00  0.00     0.000 C 
BRANCH  10  11
ATOM     11  C   UNL     1     180.313 191.475 166.239  1.00  0.00     0.000 C 
BRANCH  11  12
ATOM     12  C   UNL     1     180.840 191.642 167.673  1.00  0.00     0.000 C 
BRANCH  12  13
ATOM     13  C   UNL     1     179.755 192.118 168.657  1.00  0.00     0.006 C 
BRANCH  13  14
ATOM     14  C   UNL     1     180.256 193.109 169.723  1.00  0.00     0.053 C 
BRANCH  14  15
ATOM     15  C   UNL     1     180.841 192.406 170.911  1.00  0.00     0.041 C 
ATOM     16  O   UNL     1     180.113 192.106 171.894  1.00  0.00    -0.550 OA
ATOM     17  O   UNL     1     182.185 192.055 170.916  1.00  0.00    -0.550 OA
ENDBRANCH  14  15
ENDBRANCH  13  14
ENDBRANCH  12  13
ENDBRANCH  11  12
ENDBRANCH  10  11
ENDBRANCH   9  10
ENDBRANCH   8   9
ENDBRANCH   7   8
ENDBRANCH   6   7
ENDBRANCH   5   6
ENDBRANCH   4   5
ENDBRANCH   3   4
ENDBRANCH   2   3
ENDBRANCH   1   2
BRANCH   1  18
ATOM     18  C   UNL     1     184.525 187.858 169.071  1.00  0.00     0.000 C 
BRANCH  18  19
ATOM     19  C   UNL     1     185.376 186.931 168.189  1.00  0.00     0.000 C 
BRANCH  19  20
ATOM     20  C   UNL     1     185.963 185.770 169.008  1.00  0.00     0.000 C 
BRANCH  20  21
ATOM     21  C   UNL     1     186.699 184.731 168.142  1.00  0.00     0.000 C 
BRANCH  21  22
ATOM     22  C   UNL     1     187.684 185.312 167.111  1.00  0.00     0.000 C 
BRANCH  22  23
ATOM     23  C   UNL     1     189.148 185.247 167.574  1.00  0.00     0.000 C 
BRANCH  23  24
ATOM     24  C   UNL     1     189.854 186.614 167.506  1.00  0.00    -0.000 C 
BRANCH  24  25
ATOM     25  C   UNL     1     188.912 187.833 167.449  1.00  0.00    -0.000 C 
BRANCH  25  26
ATOM     26  C   UNL     1     188.812 188.647 168.755  1.00  0.00    -0.000 C 
BRANCH  26  27
ATOM     27  C   UNL     1     189.614 188.075 169.941  1.00  0.00    -0.000 C 
BRANCH  27  28
ATOM     28  C   UNL     1     188.756 187.590 171.127  1.00  0.00    -0.000 C 
BRANCH  28  29
ATOM     29  C   UNL     1     188.649 186.058 171.269  1.00  0.00    -0.000 C 
BRANCH  29  30
ATOM     30  C   UNL     1     188.153 185.562 172.641  1.00  0.00    -0.000 C 
BRANCH  30  31
ATOM     31  C   UNL     1     189.219 184.850 173.494  1.00  0.00    -0.003 C 
ATOM     32  C   UNL     1     190.254 185.812 174.076  1.00  0.00     0.004 C 
ENDBRANCH  30  31
ENDBRANCH  29  30
ENDBRANCH  28  29
ENDBRANCH  27  28
ENDBRANCH  26  27
ENDBRANCH  25  26
ENDBRANCH  24  25
ENDBRANCH  23  24
ENDBRANCH  22  23
ENDBRANCH  21  22
ENDBRANCH  20  21
ENDBRANCH  19  20
ENDBRANCH  18  19
ENDBRANCH   1  18
TORSDOF 28
ENDMDL
MODEL 2
REMARK VINA RESULT:    -4.116      1.293      1.983
REMARK INTER + INTRA:         -15.408
REMARK INTER:                 -11.322
REMARK INTRA:                  -4.086
REMARK UNBOUND:                -4.555
REMARK SMILES CCCCCCCCCCCCCCCCCCCCCCCCCCCCCC(=O)[O-]
REMARK SMILES IDX 16 1 17 2 18 3 19 4 20 5 21 6 22 7 23 8 24 9 25 10 26 11
REMARK SMILES IDX 27 12 28 13 29 14 30 15 31 16 32 17 15 18 14 19 13 20 12 21
REMARK SMILES IDX 11 22 10 23 9 24 8 25 7 26 6 27 5 28 4 29 3 30 2 31 1 32
REMARK H PARENT
REMARK Flexibility Score: inf
ROOT
ATOM      1  C   UNL     1     184.435 186.975 170.270  1.00  0.00     0.000 C 
ENDROOT
BRANCH   1   2
ATOM      2  C   UNL     1     183.094 187.440 170.859  1.00  0.00     0.000 C 
BRANCH   2   3
ATOM      3  C   UNL     1     182.243 188.225 169.847  1.00  0.00     0.000 C 
BRANCH   3   4
ATOM      4  C   UNL     1     180.955 188.826 170.450  1.00  0.00     0.000 C 
BRANCH   4   5
ATOM      5  C   UNL     1     179.679 188.236 169.826  1.00  0.00     0.000 C 
BRANCH   5   6
ATOM      6  C   UNL     1     179.880 186.772 169.408  1.00  0.00     0.000 C 
BRANCH   6   7
ATOM      7  C   UNL     1     179.198 186.447 168.062  1.00  0.00     0.000 C 
BRANCH   7   8
ATOM      8  C   UNL     1     179.385 187.560 167.014  1.00  0.00     0.000 C 
BRANCH   8   9
ATOM      9  C   UNL     1     180.834 187.701 166.490  1.00  0.00     0.000 C 
BRANCH   9  10
ATOM     10  C   UNL     1     181.344 189.151 166.353  1.00  0.00     0.000 C 
BRANCH  10  11
ATOM     11  C   UNL     1     180.268 190.199 166.681  1.00  0.00     0.000 C 
BRANCH  11  12
ATOM     12  C   UNL     1     180.898 191.466 167.278  1.00  0.00     0.000 C 
BRANCH  12  13
ATOM     13  C   UNL     1     180.171 191.956 168.544  1.00  0.00     0.006 C 
BRANCH  13  14
ATOM     14  C   UNL     1     181.106 192.466 169.655  1.00  0.00     0.053 C 
BRANCH  14  15
ATOM     15  C   UNL     1     180.418 193.443 170.562  1.00  0.00     0.041 C 
ATOM     16  O   UNL     1     180.798 193.581 171.754  1.00  0.00    -0.550 OA
ATOM     17  O   UNL     1     179.374 194.221 170.076  1.00  0.00    -0.550 OA
ENDBRANCH  14  15
ENDBRANCH  13  14
ENDBRANCH  12  13
ENDBRANCH  11  12
ENDBRANCH  10  11
ENDBRANCH   9  10
ENDBRANCH   8   9
ENDBRANCH   7   8
ENDBRANCH   6   7
ENDBRANCH   5   6
ENDBRANCH   4   5
ENDBRANCH   3   4
ENDBRANCH   2   3
ENDBRANCH   1   2
BRANCH   1  18
ATOM     18  C   UNL     1     184.676 187.504 168.847  1.00  0.00     0.000 C 
BRANCH  18  19
ATOM     19  C   UNL     1     185.872 186.834 168.152  1.00  0.00     0.000 C 
BRANCH  19  20
ATOM     20  C   UNL     1     186.047 185.382 168.626  1.00  0.00     0.000 C 
BRANCH  20  21
ATOM     21  C   UNL     1     187.310 184.708 168.055  1.00  0.00     0.000 C 
BRANCH  21  22
ATOM     22  C   UNL     1     188.417 185.672 167.593  1.00  0.00     0.000 C 
BRANCH  22  23
ATOM     23  C   UNL     1     189.427 186.006 168.702  1.00  0.00     0.000 C 
BRANCH  23  24
ATOM     24  C   UNL     1     189.481 187.512 169.022  1.00  0.00    -0.000 C 
BRANCH  24  25
ATOM     25  C   UNL     1     188.717 187.936 170.292  1.00  0.00    -0.000 C 
BRANCH  25  26
ATOM     26  C   UNL     1     188.256 186.777 171.199  1.00  0.00    -0.000 C 
BRANCH  26  27
ATOM     27  C   UNL     1     189.178 186.484 172.399  1.00  0.00    -0.000 C 
BRANCH  27  28
ATOM     28  C   UNL     1     188.744 185.289 173.272  1.00  0.00    -0.000 C 
BRANCH  28  29
ATOM     29  C   UNL     1     189.809 184.187 173.442  1.00  0.00    -0.000 C 
BRANCH  29  30
ATOM     30  C   UNL     1     191.270 184.674 173.376  1.00  0.00    -0.000 C 
BRANCH  30  31
ATOM     31  C   UNL     1     192.134 183.978 172.309  1.00  0.00    -0.003 C 
ATOM     32  C   UNL     1     191.465 183.937 170.936  1.00  0.00     0.004 C 
ENDBRANCH  30  31
ENDBRANCH  29  30
ENDBRANCH  28  29
ENDBRANCH  27  28
ENDBRANCH  26  27
ENDBRANCH  25  26
ENDBRANCH  24  25
ENDBRANCH  23  24
ENDBRANCH  22  23
ENDBRANCH  21  22
ENDBRANCH  20  21
ENDBRANCH  19  20
ENDBRANCH  18  19
ENDBRANCH   1  18
TORSDOF 28
ENDMDL
MODEL 3
REMARK VINA RESULT:    -3.884      5.005      7.775
REMARK INTER + INTRA:         -14.798
REMARK INTER:                  -8.811
REMARK INTRA:                  -5.986
REMARK UNBOUND:                -4.555
REMARK SMILES CCCCCCCCCCCCCCCCCCCCCCCCCCCCCC(=O)[O-]
REMARK SMILES IDX 16 1 17 2 18 3 19 4 20 5 21 6 22 7 23 8 24 9 25 10 26 11
REMARK SMILES IDX 27 12 28 13 29 14 30 15 31 16 32 17 15 18 14 19 13 20 12 21
REMARK SMILES IDX 11 22 10 23 9 24 8 25 7 26 6 27 5 28 4 29 3 30 2 31 1 32
REMARK H PARENT
REMARK Flexibility Score: inf
ROOT
ATOM      1  C   UNL     1     187.289 188.331 170.455  1.00  0.00     0.000 C 
ENDROOT
BRANCH   1   2
ATOM      2  C   UNL     1     186.244 187.280 170.859  1.00  0.00     0.000 C 
BRANCH   2   3
ATOM      3  C   UNL     1     185.088 187.176 169.849  1.00  0.00     0.000 C 
BRANCH   3   4
ATOM      4  C   UNL     1     185.527 186.703 168.448  1.00  0.00     0.000 C 
BRANCH   4   5
ATOM      5  C   UNL     1     186.076 185.266 168.455  1.00  0.00     0.000 C 
BRANCH   5   6
ATOM      6  C   UNL     1     187.214 185.091 167.438  1.00  0.00     0.000 C 
BRANCH   6   7
ATOM      7  C   UNL     1     187.668 186.435 166.829  1.00  0.00     0.000 C 
BRANCH   7   8
ATOM      8  C   UNL     1     188.977 186.314 166.026  1.00  0.00     0.000 C 
BRANCH   8   9
ATOM      9  C   UNL     1     190.145 187.159 166.587  1.00  0.00     0.000 C 
BRANCH   9  10
ATOM     10  C   UNL     1     189.754 188.561 167.099  1.00  0.00     0.000 C 
BRANCH  10  11
ATOM     11  C   UNL     1     190.970 189.442 167.425  1.00  0.00     0.000 C 
BRANCH  11  12
ATOM     12  C   UNL     1     192.212 188.582 167.708  1.00  0.00     0.000 C 
BRANCH  12  13
ATOM     13  C   UNL     1     192.458 188.365 169.213  1.00  0.00     0.006 C 
BRANCH  13  14
ATOM     14  C   UNL     1     191.974 189.519 170.108  1.00  0.00     0.053 C 
BRANCH  14  15
ATOM     15  C   UNL     1     193.102 190.149 170.869  1.00  0.00     0.041 C 
ATOM     16  O   UNL     1     193.949 189.429 171.462  1.00  0.00    -0.550 OA
ATOM     17  O   UNL     1     193.233 191.532 170.896  1.00  0.00    -0.550 OA
ENDBRANCH  14  15
ENDBRANCH  13  14
ENDBRANCH  12  13
ENDBRANCH  11  12
ENDBRANCH  10  11
ENDBRANCH   9  10
ENDBRANCH   8   9
ENDBRANCH   7   8
ENDBRANCH   6   7
ENDBRANCH   5   6
ENDBRANCH   4   5
ENDBRANCH   3   4
ENDBRANCH   2   3
ENDBRANCH   1   2
BRANCH   1  18
ATOM     18  C   UNL     1     188.726 187.787 170.488  1.00  0.00     0.000 C 
BRANCH  18  19
ATOM     19  C   UNL     1     188.793 186.286 170.810  1.00  0.00     0.000 C 
BRANCH  19  20
ATOM     20  C   UNL     1     189.784 185.562 169.885  1.00  0.00     0.000 C 
BRANCH  20  21
ATOM     21  C   UNL     1     190.096 184.124 170.339  1.00  0.00     0.000 C 
BRANCH  21  22
ATOM     22  C   UNL     1     191.571 183.849 170.686  1.00  0.00     0.000 C 
BRANCH  22  23
ATOM     23  C   UNL     1     192.476 185.074 170.481  1.00  0.00     0.000 C 
BRANCH  23  24
ATOM     24  C   UNL     1     192.994 185.659 171.808  1.00  0.00    -0.000 C 
BRANCH  24  25
ATOM     25  C   UNL     1     192.039 186.653 172.499  1.00  0.00    -0.000 C 
BRANCH  25  26
ATOM     26  C   UNL     1     191.611 186.266 173.929  1.00  0.00    -0.000 C 
BRANCH  26  27
ATOM     27  C   UNL     1     190.426 185.284 174.010  1.00  0.00    -0.000 C 
BRANCH  27  28
ATOM     28  C   UNL     1     190.823 183.803 174.173  1.00  0.00    -0.000 C 
BRANCH  28  29
ATOM     29  C   UNL     1     191.888 183.530 175.254  1.00  0.00    -0.000 C 
BRANCH  29  30
ATOM     30  C   UNL     1     192.882 182.400 174.922  1.00  0.00    -0.000 C 
BRANCH  30  31
ATOM     31  C   UNL     1     193.306 182.327 173.444  1.00  0.00    -0.003 C 
ATOM     32  C   UNL     1     194.405 181.296 173.191  1.00  0.00     0.004 C 
ENDBRANCH  30  31
ENDBRANCH  29  30
ENDBRANCH  28  29
ENDBRANCH  27  28
ENDBRANCH  26  27
ENDBRANCH  25  26
ENDBRANCH  24  25
ENDBRANCH  23  24
ENDBRANCH  22  23
ENDBRANCH  21  22
ENDBRANCH  20  21
ENDBRANCH  19  20
ENDBRANCH  18  19
ENDBRANCH   1  18
TORSDOF 28
ENDMDL
MODEL 4
REMARK VINA RESULT:    -3.877      1.277      2.221
REMARK INTER + INTRA:         -14.779
REMARK INTER:                 -10.719
REMARK INTRA:                  -4.059
REMARK UNBOUND:                -4.555
REMARK SMILES CCCCCCCCCCCCCCCCCCCCCCCCCCCCCC(=O)[O-]
REMARK SMILES IDX 16 1 17 2 18 3 19 4 20 5 21 6 22 7 23 8 24 9 25 10 26 11
REMARK SMILES IDX 27 12 28 13 29 14 30 15 31 16 32 17 15 18 14 19 13 20 12 21
REMARK SMILES IDX 11 22 10 23 9 24 8 25 7 26 6 27 5 28 4 29 3 30 2 31 1 32
REMARK H PARENT
REMARK Flexibility Score: inf
ROOT
ATOM      1  C   UNL     1     183.534 187.907 169.045  1.00  0.00     0.000 C 
ENDROOT
BRANCH   1   2
ATOM      2  C   UNL     1     182.446 188.895 169.489  1.00  0.00     0.000 C 
BRANCH   2   3
ATOM      3  C   UNL     1     181.222 188.193 170.102  1.00  0.00     0.000 C 
BRANCH   3   4
ATOM      4  C   UNL     1     179.909 188.991 169.956  1.00  0.00     0.000 C 
BRANCH   4   5
ATOM      5  C   UNL     1     178.875 188.271 169.073  1.00  0.00     0.000 C 
BRANCH   5   6
ATOM      6  C   UNL     1     179.513 187.123 168.278  1.00  0.00     0.000 C 
BRANCH   6   7
ATOM      7  C   UNL     1     179.581 187.424 166.765  1.00  0.00     0.000 C 
BRANCH   7   8
ATOM      8  C   UNL     1     181.024 187.586 166.253  1.00  0.00     0.000 C 
BRANCH   8   9
ATOM      9  C   UNL     1     181.460 189.054 166.039  1.00  0.00     0.000 C 
BRANCH   9  10
ATOM     10  C   UNL     1     180.318 190.091 166.086  1.00  0.00     0.000 C 
BRANCH  10  11
ATOM     11  C   UNL     1     180.771 191.459 166.618  1.00  0.00     0.000 C 
BRANCH  11  12
ATOM     12  C   UNL     1     179.994 191.840 167.888  1.00  0.00     0.000 C 
BRANCH  12  13
ATOM     13  C   UNL     1     180.874 192.544 168.938  1.00  0.00     0.006 C 
BRANCH  13  14
ATOM     14  C   UNL     1     180.086 193.236 170.065  1.00  0.00     0.053 C 
BRANCH  14  15
ATOM     15  C   UNL     1     180.414 192.662 171.411  1.00  0.00     0.041 C 
ATOM     16  O   UNL     1     179.582 191.933 172.012  1.00  0.00    -0.550 OA
ATOM     17  O   UNL     1     181.655 192.910 171.987  1.00  0.00    -0.550 OA
ENDBRANCH  14  15
ENDBRANCH  13  14
ENDBRANCH  12  13
ENDBRANCH  11  12
ENDBRANCH  10  11
ENDBRANCH   9  10
ENDBRANCH   8   9
ENDBRANCH   7   8
ENDBRANCH   6   7
ENDBRANCH   5   6
ENDBRANCH   4   5
ENDBRANCH   3   4
ENDBRANCH   2   3
ENDBRANCH   1   2
BRANCH   1  18
ATOM     18  C   UNL     1     184.275 187.264 170.228  1.00  0.00     0.000 C 
BRANCH  18  19
ATOM     19  C   UNL     1     185.642 186.681 169.836  1.00  0.00     0.000 C 
BRANCH  19  20
ATOM     20  C   UNL     1     186.722 187.059 170.863  1.00  0.00     0.000 C 
BRANCH  20  21
ATOM     21  C   UNL     1     187.528 188.308 170.460  1.00  0.00     0.000 C 
BRANCH  21  22
ATOM     22  C   UNL     1     188.190 188.244 169.071  1.00  0.00     0.000 C 
BRANCH  22  23
ATOM     23  C   UNL     1     189.590 187.612 169.100  1.00  0.00     0.000 C 
BRANCH  23  24
ATOM     24  C   UNL     1     189.625 186.215 168.454  1.00  0.00    -0.000 C 
BRANCH  24  25
ATOM     25  C   UNL     1     189.182 185.060 169.373  1.00  0.00    -0.000 C 
BRANCH  25  26
ATOM     26  C   UNL     1     190.323 184.338 170.118  1.00  0.00    -0.000 C 
BRANCH  26  27
ATOM     27  C   UNL     1     190.156 184.263 171.648  1.00  0.00    -0.000 C 
BRANCH  27  28
ATOM     28  C   UNL     1     189.338 185.413 172.268  1.00  0.00    -0.000 C 
BRANCH  28  29
ATOM     29  C   UNL     1     190.156 186.667 172.638  1.00  0.00    -0.000 C 
BRANCH  29  30
ATOM     30  C   UNL     1     191.521 186.387 173.295  1.00  0.00    -0.000 C 
BRANCH  30  31
ATOM     31  C   UNL     1     191.522 186.444 174.833  1.00  0.00    -0.003 C 
ATOM     32  C   UNL     1     192.282 185.283 175.472  1.00  0.00     0.004 C 
ENDBRANCH  30  31
ENDBRANCH  29  30
ENDBRANCH  28  29
ENDBRANCH  27  28
ENDBRANCH  26  27
ENDBRANCH  25  26
ENDBRANCH  24  25
ENDBRANCH  23  24
ENDBRANCH  22  23
ENDBRANCH  21  22
ENDBRANCH  20  21
ENDBRANCH  19  20
ENDBRANCH  18  19
ENDBRANCH   1  18
TORSDOF 28
ENDMDL
MODEL 5
REMARK VINA RESULT:    -3.875      3.381      7.532
REMARK INTER + INTRA:         -14.772
REMARK INTER:                  -9.120
REMARK INTRA:                  -5.651
REMARK UNBOUND:                -4.555
REMARK SMILES CCCCCCCCCCCCCCCCCCCCCCCCCCCCCC(=O)[O-]
REMARK SMILES IDX 16 1 17 2 18 3 19 4 20 5 21 6 22 7 23 8 24 9 25 10 26 11
REMARK SMILES IDX 27 12 28 13 29 14 30 15 31 16 32 17 15 18 14 19 13 20 12 21
REMARK SMILES IDX 11 22 10 23 9 24 8 25 7 26 6 27 5 28 4 29 3 30 2 31 1 32
REMARK H PARENT
REMARK Flexibility Score: inf
ROOT
ATOM      1  C   UNL     1     188.028 185.841 172.396  1.00  0.00     0.000 C 
ENDROOT
BRANCH   1   2
ATOM      2  C   UNL     1     188.984 186.301 171.284  1.00  0.00     0.000 C 
BRANCH   2   3
ATOM      3  C   UNL     1     188.732 187.755 170.850  1.00  0.00     0.000 C 
BRANCH   3   4
ATOM      4  C   UNL     1     189.702 188.255 169.759  1.00  0.00     0.000 C 
BRANCH   4   5
ATOM      5  C   UNL     1     189.027 188.389 168.384  1.00  0.00     0.000 C 
BRANCH   5   6
ATOM      6  C   UNL     1     190.026 188.162 167.240  1.00  0.00     0.000 C 
BRANCH   6   7
ATOM      7  C   UNL     1     189.343 187.639 165.959  1.00  0.00     0.000 C 
BRANCH   7   8
ATOM      8  C   UNL     1     189.885 186.268 165.511  1.00  0.00     0.000 C 
BRANCH   8   9
ATOM      9  C   UNL     1     189.372 185.077 166.354  1.00  0.00     0.000 C 
BRANCH   9  10
ATOM     10  C   UNL     1     187.862 185.098 166.668  1.00  0.00     0.000 C 
BRANCH  10  11
ATOM     11  C   UNL     1     187.557 184.939 168.166  1.00  0.00     0.000 C 
BRANCH  11  12
ATOM     12  C   UNL     1     186.069 185.191 168.454  1.00  0.00     0.000 C 
BRANCH  12  13
ATOM     13  C   UNL     1     185.841 186.353 169.440  1.00  0.00     0.006 C 
BRANCH  13  14
ATOM     14  C   UNL     1     185.041 187.532 168.856  1.00  0.00     0.053 C 
BRANCH  14  15
ATOM     15  C   UNL     1     183.775 187.782 169.620  1.00  0.00     0.041 C 
ATOM     16  O   UNL     1     182.921 188.600 169.186  1.00  0.00    -0.550 OA
ATOM     17  O   UNL     1     183.527 187.087 170.797  1.00  0.00    -0.550 OA
ENDBRANCH  14  15
ENDBRANCH  13  14
ENDBRANCH  12  13
ENDBRANCH  11  12
ENDBRANCH  10  11
ENDBRANCH   9  10
ENDBRANCH   8   9
ENDBRANCH   7   8
ENDBRANCH   6   7
ENDBRANCH   5   6
ENDBRANCH   4   5
ENDBRANCH   3   4
ENDBRANCH   2   3
ENDBRANCH   1   2
BRANCH   1  18
ATOM     18  C   UNL     1     188.762 185.208 173.589  1.00  0.00     0.000 C 
BRANCH  18  19
ATOM     19  C   UNL     1     190.276 185.077 173.362  1.00  0.00     0.000 C 
BRANCH  19  20
ATOM     20  C   UNL     1     191.067 185.624 174.561  1.00  0.00     0.000 C 
BRANCH  20  21
ATOM     21  C   UNL     1     192.090 184.619 175.121  1.00  0.00     0.000 C 
BRANCH  21  22
ATOM     22  C   UNL     1     191.735 183.135 174.915  1.00  0.00     0.000 C 
BRANCH  22  23
ATOM     23  C   UNL     1     192.901 182.308 174.351  1.00  0.00     0.000 C 
BRANCH  23  24
ATOM     24  C   UNL     1     193.969 183.180 173.664  1.00  0.00    -0.000 C 
BRANCH  24  25
ATOM     25  C   UNL     1     193.940 183.153 172.123  1.00  0.00    -0.000 C 
BRANCH  25  26
ATOM     26  C   UNL     1     194.377 184.462 171.435  1.00  0.00    -0.000 C 
BRANCH  26  27
ATOM     27  C   UNL     1     193.753 185.744 172.021  1.00  0.00    -0.000 C 
BRANCH  27  28
ATOM     28  C   UNL     1     192.787 186.485 171.074  1.00  0.00    -0.000 C 
BRANCH  28  29
ATOM     29  C   UNL     1     193.202 186.480 169.589  1.00  0.00    -0.000 C 
BRANCH  29  30
ATOM     30  C   UNL     1     192.299 185.645 168.660  1.00  0.00    -0.000 C 
BRANCH  30  31
ATOM     31  C   UNL     1     191.250 184.782 169.385  1.00  0.00    -0.003 C 
ATOM     32  C   UNL     1     191.548 183.286 169.300  1.00  0.00     0.004 C 
ENDBRANCH  30  31
ENDBRANCH  29  30
ENDBRANCH  28  29
ENDBRANCH  27  28
ENDBRANCH  26  27
ENDBRANCH  25  26
ENDBRANCH  24  25
ENDBRANCH  23  24
ENDBRANCH  22  23
ENDBRANCH  21  22
ENDBRANCH  20  21
ENDBRANCH  19  20
ENDBRANCH  18  19
ENDBRANCH   1  18
TORSDOF 28
ENDMDL
MODEL 6
REMARK VINA RESULT:    -3.860      4.947      9.207
REMARK INTER + INTRA:         -14.735
REMARK INTER:                  -9.048
REMARK INTRA:                  -5.687
REMARK UNBOUND:                -4.555
REMARK SMILES CCCCCCCCCCCCCCCCCCCCCCCCCCCCCC(=O)[O-]
REMARK SMILES IDX 16 1 17 2 18 3 19 4 20 5 21 6 22 7 23 8 24 9 25 10 26 11
REMARK SMILES IDX 27 12 28 13 29 14 30 15 31 16 32 17 15 18 14 19 13 20 12 21
REMARK SMILES IDX 11 22 10 23 9 24 8 25 7 26 6 27 5 28 4 29 3 30 2 31 1 32
REMARK H PARENT
REMARK Flexibility Score: inf
ROOT
ATOM      1  C   UNL     1     187.313 188.411 170.282  1.00  0.00     0.000 C 
ENDROOT
BRANCH   1   2
ATOM      2  C   UNL     1     185.992 187.631 170.371  1.00  0.00     0.000 C 
BRANCH   2   3
ATOM      3  C   UNL     1     185.256 187.557 169.022  1.00  0.00     0.000 C 
BRANCH   3   4
ATOM      4  C   UNL     1     185.948 186.645 167.986  1.00  0.00     0.000 C 
BRANCH   4   5
ATOM      5  C   UNL     1     186.194 185.224 168.520  1.00  0.00     0.000 C 
BRANCH   5   6
ATOM      6  C   UNL     1     187.673 184.826 168.404  1.00  0.00     0.000 C 
BRANCH   6   7
ATOM      7  C   UNL     1     188.443 185.714 167.403  1.00  0.00     0.000 C 
BRANCH   7   8
ATOM      8  C   UNL     1     189.952 185.405 167.370  1.00  0.00     0.000 C 
BRANCH   8   9
ATOM      9  C   UNL     1     190.740 185.964 168.577  1.00  0.00     0.000 C 
BRANCH   9  10
ATOM     10  C   UNL     1     191.645 184.943 169.300  1.00  0.00     0.000 C 
BRANCH  10  11
ATOM     11  C   UNL     1     192.829 185.599 170.026  1.00  0.00     0.000 C 
BRANCH  11  12
ATOM     12  C   UNL     1     192.408 186.923 170.682  1.00  0.00     0.000 C 
BRANCH  12  13
ATOM     13  C   UNL     1     192.926 187.067 172.125  1.00  0.00     0.006 C 
BRANCH  13  14
ATOM     14  C   UNL     1     191.999 187.873 173.054  1.00  0.00     0.053 C 
BRANCH  14  15
ATOM     15  C   UNL     1     192.414 187.761 174.491  1.00  0.00     0.041 C 
ATOM     16  O   UNL     1     193.586 188.061 174.840  1.00  0.00    -0.550 OA
ATOM     17  O   UNL     1     191.492 187.354 175.448  1.00  0.00    -0.550 OA
ENDBRANCH  14  15
ENDBRANCH  13  14
ENDBRANCH  12  13
ENDBRANCH  11  12
ENDBRANCH  10  11
ENDBRANCH   9  10
ENDBRANCH   8   9
ENDBRANCH   7   8
ENDBRANCH   6   7
ENDBRANCH   5   6
ENDBRANCH   4   5
ENDBRANCH   3   4
ENDBRANCH   2   3
ENDBRANCH   1   2
BRANCH   1  18
ATOM     18  C   UNL     1     188.502 187.638 170.873  1.00  0.00     0.000 C 
BRANCH  18  19
ATOM     19  C   UNL     1     188.078 186.379 171.644  1.00  0.00     0.000 C 
BRANCH  19  20
ATOM     20  C   UNL     1     189.296 185.516 172.013  1.00  0.00     0.000 C 
BRANCH  20  21
ATOM     21  C   UNL     1     189.424 185.266 173.527  1.00  0.00     0.000 C 
BRANCH  21  22
ATOM     22  C   UNL     1     190.257 184.033 173.922  1.00  0.00     0.000 C 
BRANCH  22  23
ATOM     23  C   UNL     1     191.573 183.920 173.137  1.00  0.00     0.000 C 
BRANCH  23  24
ATOM     24  C   UNL     1     192.706 183.285 173.964  1.00  0.00    -0.000 C 
BRANCH  24  25
ATOM     25  C   UNL     1     193.878 184.229 174.299  1.00  0.00    -0.000 C 
BRANCH  25  26
ATOM     26  C   UNL     1     193.967 184.666 175.775  1.00  0.00    -0.000 C 
BRANCH  26  27
ATOM     27  C   UNL     1     192.780 184.230 176.657  1.00  0.00    -0.000 C 
BRANCH  27  28
ATOM     28  C   UNL     1     193.129 183.201 177.751  1.00  0.00    -0.000 C 
BRANCH  28  29
ATOM     29  C   UNL     1     192.976 181.726 177.329  1.00  0.00    -0.000 C 
BRANCH  29  30
ATOM     30  C   UNL     1     194.292 180.928 177.250  1.00  0.00    -0.000 C 
BRANCH  30  31
ATOM     31  C   UNL     1     194.982 180.956 175.874  1.00  0.00    -0.003 C 
ATOM     32  C   UNL     1     196.290 181.746 175.880  1.00  0.00     0.004 C 
ENDBRANCH  30  31
ENDBRANCH  29  30
ENDBRANCH  28  29
ENDBRANCH  27  28
ENDBRANCH  26  27
ENDBRANCH  25  26
ENDBRANCH  24  25
ENDBRANCH  23  24
ENDBRANCH  22  23
ENDBRANCH  21  22
ENDBRANCH  20  21
ENDBRANCH  19  20
ENDBRANCH  18  19
ENDBRANCH   1  18
TORSDOF 28
ENDMDL
MODEL 7
REMARK VINA RESULT:    -3.835      4.966      9.259
REMARK INTER + INTRA:         -14.667
REMARK INTER:                  -9.660
REMARK INTRA:                  -5.007
REMARK UNBOUND:                -4.555
REMARK SMILES CCCCCCCCCCCCCCCCCCCCCCCCCCCCCC(=O)[O-]
REMARK SMILES IDX 16 1 17 2 18 3 19 4 20 5 21 6 22 7 23 8 24 9 25 10 26 11
REMARK SMILES IDX 27 12 28 13 29 14 30 15 31 16 32 17 15 18 14 19 13 20 12 21
REMARK SMILES IDX 11 22 10 23 9 24 8 25 7 26 6 27 5 28 4 29 3 30 2 31 1 32
REMARK H PARENT
REMARK Flexibility Score: inf
ROOT
ATOM      1  C   UNL     1     186.785 188.229 170.046  1.00  0.00     0.000 C 
ENDROOT
BRANCH   1   2
ATOM      2  C   UNL     1     188.021 187.795 170.850  1.00  0.00     0.000 C 
BRANCH   2   3
ATOM      3  C   UNL     1     187.798 186.478 171.614  1.00  0.00     0.000 C 
BRANCH   3   4
ATOM      4  C   UNL     1     189.099 185.702 171.908  1.00  0.00     0.000 C 
BRANCH   4   5
ATOM      5  C   UNL     1     189.288 185.411 173.406  1.00  0.00     0.000 C 
BRANCH   5   6
ATOM      6  C   UNL     1     190.560 184.590 173.666  1.00  0.00     0.000 C 
BRANCH   6   7
ATOM      7  C   UNL     1     191.637 185.397 174.421  1.00  0.00     0.000 C 
BRANCH   7   8
ATOM      8  C   UNL     1     191.078 186.680 175.065  1.00  0.00     0.000 C 
BRANCH   8   9
ATOM      9  C   UNL     1     192.040 187.890 175.008  1.00  0.00     0.000 C 
BRANCH   9  10
ATOM     10  C   UNL     1     192.381 188.522 176.374  1.00  0.00     0.000 C 
BRANCH  10  11
ATOM     11  C   UNL     1     192.496 187.486 177.503  1.00  0.00     0.000 C 
BRANCH  11  12
ATOM     12  C   UNL     1     191.598 187.865 178.691  1.00  0.00     0.000 C 
BRANCH  12  13
ATOM     13  C   UNL     1     190.268 188.506 178.254  1.00  0.00     0.006 C 
BRANCH  13  14
ATOM     14  C   UNL     1     189.495 189.201 179.390  1.00  0.00     0.053 C 
BRANCH  14  15
ATOM     15  C   UNL     1     189.652 190.692 179.342  1.00  0.00     0.041 C 
ATOM     16  O   UNL     1     188.781 191.440 179.861  1.00  0.00    -0.550 OA
ATOM     17  O   UNL     1     190.777 191.252 178.750  1.00  0.00    -0.550 OA
ENDBRANCH  14  15
ENDBRANCH  13  14
ENDBRANCH  12  13
ENDBRANCH  11  12
ENDBRANCH  10  11
ENDBRANCH   9  10
ENDBRANCH   8   9
ENDBRANCH   7   8
ENDBRANCH   6   7
ENDBRANCH   5   6
ENDBRANCH   4   5
ENDBRANCH   3   4
ENDBRANCH   2   3
ENDBRANCH   1   2
BRANCH   1  18
ATOM     18  C   UNL     1     185.551 187.360 170.334  1.00  0.00     0.000 C 
BRANCH  18  19
ATOM     19  C   UNL     1     185.164 186.457 169.153  1.00  0.00     0.000 C 
BRANCH  19  20
ATOM     20  C   UNL     1     185.821 186.936 167.848  1.00  0.00     0.000 C 
BRANCH  20  21
ATOM     21  C   UNL     1     186.755 185.885 167.220  1.00  0.00     0.000 C 
BRANCH  21  22
ATOM     22  C   UNL     1     187.472 184.961 168.221  1.00  0.00     0.000 C 
BRANCH  22  23
ATOM     23  C   UNL     1     189.001 185.121 168.201  1.00  0.00     0.000 C 
BRANCH  23  24
ATOM     24  C   UNL     1     189.444 186.537 167.788  1.00  0.00    -0.000 C 
BRANCH  24  25
ATOM     25  C   UNL     1     190.753 187.027 168.438  1.00  0.00    -0.000 C 
BRANCH  25  26
ATOM     26  C   UNL     1     190.866 188.554 168.617  1.00  0.00    -0.000 C 
BRANCH  26  27
ATOM     27  C   UNL     1     191.700 189.007 169.832  1.00  0.00    -0.000 C 
BRANCH  27  28
ATOM     28  C   UNL     1     191.676 188.037 171.031  1.00  0.00    -0.000 C 
BRANCH  28  29
ATOM     29  C   UNL     1     193.064 187.644 171.577  1.00  0.00    -0.000 C 
BRANCH  29  30
ATOM     30  C   UNL     1     193.603 186.290 171.076  1.00  0.00    -0.000 C 
BRANCH  30  31
ATOM     31  C   UNL     1     192.521 185.252 170.730  1.00  0.00    -0.003 C 
ATOM     32  C   UNL     1     193.001 183.812 170.901  1.00  0.00     0.004 C 
ENDBRANCH  30  31
ENDBRANCH  29  30
ENDBRANCH  28  29
ENDBRANCH  27  28
ENDBRANCH  26  27
ENDBRANCH  25  26
ENDBRANCH  24  25
ENDBRANCH  23  24
ENDBRANCH  22  23
ENDBRANCH  21  22
ENDBRANCH  20  21
ENDBRANCH  19  20
ENDBRANCH  18  19
ENDBRANCH   1  18
TORSDOF 28
ENDMDL
MODEL 8
REMARK VINA RESULT:    -3.831      5.560      8.861
REMARK INTER + INTRA:         -14.656
REMARK INTER:                  -8.143
REMARK INTRA:                  -6.513
REMARK UNBOUND:                -4.555
REMARK SMILES CCCCCCCCCCCCCCCCCCCCCCCCCCCCCC(=O)[O-]
REMARK SMILES IDX 16 1 17 2 18 3 19 4 20 5 21 6 22 7 23 8 24 9 25 10 26 11
REMARK SMILES IDX 27 12 28 13 29 14 30 15 31 16 32 17 15 18 14 19 13 20 12 21
REMARK SMILES IDX 11 22 10 23 9 24 8 25 7 26 6 27 5 28 4 29 3 30 2 31 1 32
REMARK H PARENT
REMARK Flexibility Score: inf
ROOT
ATOM      1  C   UNL     1     186.169 185.665 168.143  1.00  0.00     0.000 C 
ENDROOT
BRANCH   1   2
ATOM      2  C   UNL     1     187.376 184.849 168.630  1.00  0.00     0.000 C 
BRANCH   2   3
ATOM      3  C   UNL     1     188.637 185.094 167.783  1.00  0.00     0.000 C 
BRANCH   3   4
ATOM      4  C   UNL     1     188.394 185.988 166.549  1.00  0.00     0.000 C 
BRANCH   4   5
ATOM      5  C   UNL     1     189.042 187.376 166.688  1.00  0.00     0.000 C 
BRANCH   5   6
ATOM      6  C   UNL     1     189.714 187.818 165.380  1.00  0.00     0.000 C 
BRANCH   6   7
ATOM      7  C   UNL     1     190.599 189.069 165.568  1.00  0.00     0.000 C 
BRANCH   7   8
ATOM      8  C   UNL     1     190.648 189.551 167.030  1.00  0.00     0.000 C 
BRANCH   8   9
ATOM      9  C   UNL     1     192.074 189.638 167.622  1.00  0.00     0.000 C 
BRANCH   9  10
ATOM     10  C   UNL     1     192.151 189.564 169.162  1.00  0.00     0.000 C 
BRANCH  10  11
ATOM     11  C   UNL     1     192.575 188.180 169.676  1.00  0.00     0.000 C 
BRANCH  11  12
ATOM     12  C   UNL     1     193.096 187.302 168.528  1.00  0.00     0.000 C 
BRANCH  12  13
ATOM     13  C   UNL     1     192.252 186.031 168.316  1.00  0.00     0.006 C 
BRANCH  13  14
ATOM     14  C   UNL     1     192.282 185.482 166.878  1.00  0.00     0.053 C 
BRANCH  14  15
ATOM     15  C   UNL     1     191.942 184.022 166.830  1.00  0.00     0.041 C 
ATOM     16  O   UNL     1     191.601 183.484 165.744  1.00  0.00    -0.550 OA
ATOM     17  O   UNL     1     192.034 183.251 167.983  1.00  0.00    -0.550 OA
ENDBRANCH  14  15
ENDBRANCH  13  14
ENDBRANCH  12  13
ENDBRANCH  11  12
ENDBRANCH  10  11
ENDBRANCH   9  10
ENDBRANCH   8   9
ENDBRANCH   7   8
ENDBRANCH   6   7
ENDBRANCH   5   6
ENDBRANCH   4   5
ENDBRANCH   3   4
ENDBRANCH   2   3
ENDBRANCH   1   2
BRANCH   1  18
ATOM     18  C   UNL     1     185.602 186.595 169.227  1.00  0.00     0.000 C 
BRANCH  18  19
ATOM     19  C   UNL     1     186.210 188.006 169.188  1.00  0.00     0.000 C 
BRANCH  19  20
ATOM     20  C   UNL     1     187.076 188.272 170.430  1.00  0.00     0.000 C 
BRANCH  20  21
ATOM     21  C   UNL     1     188.586 188.265 170.126  1.00  0.00     0.000 C 
BRANCH  21  22
ATOM     22  C   UNL     1     189.413 187.241 170.925  1.00  0.00     0.000 C 
BRANCH  22  23
ATOM     23  C   UNL     1     188.547 186.310 171.788  1.00  0.00     0.000 C 
BRANCH  23  24
ATOM     24  C   UNL     1     189.297 185.038 172.226  1.00  0.00    -0.000 C 
BRANCH  24  25
ATOM     25  C   UNL     1     190.125 184.355 171.120  1.00  0.00    -0.000 C 
BRANCH  25  26
ATOM     26  C   UNL     1     191.647 184.320 171.366  1.00  0.00    -0.000 C 
BRANCH  26  27
ATOM     27  C   UNL     1     192.091 184.791 172.766  1.00  0.00    -0.000 C 
BRANCH  27  28
ATOM     28  C   UNL     1     192.852 186.131 172.785  1.00  0.00    -0.000 C 
BRANCH  28  29
ATOM     29  C   UNL     1     192.097 187.298 173.453  1.00  0.00    -0.000 C 
BRANCH  29  30
ATOM     30  C   UNL     1     191.243 186.910 174.675  1.00  0.00    -0.000 C 
BRANCH  30  31
ATOM     31  C   UNL     1     191.857 187.283 176.037  1.00  0.00    -0.003 C 
ATOM     32  C   UNL     1     192.778 186.198 176.591  1.00  0.00     0.004 C 
ENDBRANCH  30  31
ENDBRANCH  29  30
ENDBRANCH  28  29
ENDBRANCH  27  28
ENDBRANCH  26  27
ENDBRANCH  25  26
ENDBRANCH  24  25
ENDBRANCH  23  24
ENDBRANCH  22  23
ENDBRANCH  21  22
ENDBRANCH  20  21
ENDBRANCH  19  20
ENDBRANCH  18  19
ENDBRANCH   1  18
TORSDOF 28
ENDMDL
MODEL 9
REMARK VINA RESULT:    -3.830      5.915     10.872
REMARK INTER + INTRA:         -14.655
REMARK INTER:                  -9.434
REMARK INTRA:                  -5.221
REMARK UNBOUND:                -4.555
REMARK SMILES CCCCCCCCCCCCCCCCCCCCCCCCCCCCCC(=O)[O-]
REMARK SMILES IDX 16 1 17 2 18 3 19 4 20 5 21 6 22 7 23 8 24 9 25 10 26 11
REMARK SMILES IDX 27 12 28 13 29 14 30 15 31 16 32 17 15 18 14 19 13 20 12 21
REMARK SMILES IDX 11 22 10 23 9 24 8 25 7 26 6 27 5 28 4 29 3 30 2 31 1 32
REMARK H PARENT
REMARK Flexibility Score: inf
ROOT
ATOM      1  C   UNL     1     187.887 187.768 170.759  1.00  0.00     0.000 C 
ENDROOT
BRANCH   1   2
ATOM      2  C   UNL     1     187.542 186.532 171.603  1.00  0.00     0.000 C 
BRANCH   2   3
ATOM      3  C   UNL     1     188.774 185.666 171.915  1.00  0.00     0.000 C 
BRANCH   3   4
ATOM      4  C   UNL     1     188.864 185.222 173.391  1.00  0.00     0.000 C 
BRANCH   4   5
ATOM      5  C   UNL     1     190.048 185.867 174.130  1.00  0.00     0.000 C 
BRANCH   5   6
ATOM      6  C   UNL     1     190.817 186.841 173.225  1.00  0.00     0.000 C 
BRANCH   6   7
ATOM      7  C   UNL     1     192.023 187.483 173.942  1.00  0.00     0.000 C 
BRANCH   7   8
ATOM      8  C   UNL     1     193.371 186.887 173.494  1.00  0.00     0.000 C 
BRANCH   8   9
ATOM      9  C   UNL     1     194.147 186.159 174.616  1.00  0.00     0.000 C 
BRANCH   9  10
ATOM     10  C   UNL     1     193.612 184.759 174.982  1.00  0.00     0.000 C 
BRANCH  10  11
ATOM     11  C   UNL     1     192.866 184.734 176.325  1.00  0.00     0.000 C 
BRANCH  11  12
ATOM     12  C   UNL     1     193.490 183.706 177.281  1.00  0.00     0.000 C 
BRANCH  12  13
ATOM     13  C   UNL     1     192.764 182.348 177.256  1.00  0.00     0.006 C 
BRANCH  13  14
ATOM     14  C   UNL     1     193.703 181.128 177.209  1.00  0.00     0.053 C 
BRANCH  14  15
ATOM     15  C   UNL     1     193.481 180.298 175.980  1.00  0.00     0.041 C 
ATOM     16  O   UNL     1     193.320 179.053 176.074  1.00  0.00    -0.550 OA
ATOM     17  O   UNL     1     193.421 180.909 174.733  1.00  0.00    -0.550 OA
ENDBRANCH  14  15
ENDBRANCH  13  14
ENDBRANCH  12  13
ENDBRANCH  11  12
ENDBRANCH  10  11
ENDBRANCH   9  10
ENDBRANCH   8   9
ENDBRANCH   7   8
ENDBRANCH   6   7
ENDBRANCH   5   6
ENDBRANCH   4   5
ENDBRANCH   3   4
ENDBRANCH   2   3
ENDBRANCH   1   2
BRANCH   1  18
ATOM     18  C   UNL     1     186.694 188.281 169.936  1.00  0.00     0.000 C 
BRANCH  18  19
ATOM     19  C   UNL     1     185.553 187.257 169.831  1.00  0.00     0.000 C 
BRANCH  19  20
ATOM     20  C   UNL     1     185.585 186.527 168.478  1.00  0.00     0.000 C 
BRANCH  20  21
ATOM     21  C   UNL     1     186.288 185.158 168.546  1.00  0.00     0.000 C 
BRANCH  21  22
ATOM     22  C   UNL     1     187.720 185.126 167.981  1.00  0.00     0.000 C 
BRANCH  22  23
ATOM     23  C   UNL     1     187.935 186.117 166.826  1.00  0.00     0.000 C 
BRANCH  23  24
ATOM     24  C   UNL     1     189.390 186.610 166.729  1.00  0.00    -0.000 C 
BRANCH  24  25
ATOM     25  C   UNL     1     189.717 187.852 167.582  1.00  0.00    -0.000 C 
BRANCH  25  26
ATOM     26  C   UNL     1     191.124 187.864 168.212  1.00  0.00    -0.000 C 
BRANCH  26  27
ATOM     27  C   UNL     1     191.201 187.298 169.644  1.00  0.00    -0.000 C 
BRANCH  27  28
ATOM     28  C   UNL     1     192.108 186.061 169.803  1.00  0.00    -0.000 C 
BRANCH  28  29
ATOM     29  C   UNL     1     191.512 184.744 169.266  1.00  0.00    -0.000 C 
BRANCH  29  30
ATOM     30  C   UNL     1     191.318 183.636 170.320  1.00  0.00    -0.000 C 
BRANCH  30  31
ATOM     31  C   UNL     1     192.066 183.869 171.645  1.00  0.00    -0.003 C 
ATOM     32  C   UNL     1     193.393 183.115 171.720  1.00  0.00     0.004 C 
ENDBRANCH  30  31
ENDBRANCH  29  30
ENDBRANCH  28  29
ENDBRANCH  27  28
ENDBRANCH  26  27
ENDBRANCH  25  26
ENDBRANCH  24  25
ENDBRANCH  23  24
ENDBRANCH  22  23
ENDBRANCH  21  22
ENDBRANCH  20  21
ENDBRANCH  19  20
ENDBRANCH  18  19
ENDBRANCH   1  18
TORSDOF 28
ENDMDL
