MODEL 1
REMARK VINA RESULT:    -6.599      0.000      0.000
REMARK INTER + INTRA:         -11.314
REMARK INTER:                  -9.685
REMARK INTRA:                  -1.629
REMARK UNBOUND:                -1.629
REMARK SMILES O=c1c(O[C@@H]2O[C@H](CO)[C@@H](O)[C@H](O)[C@@H]2O)c(-c2ccc(O)c(O)c2)oc2cc(O)cc(O)c12
REMARK SMILES IDX 4 1 3 2 16 3 25 4 2 5 26 6 1 7 33 8 27 9 31 10 28 11 30 12
REMARK SMILES IDX 17 13 18 14 19 15 20 16 24 17 22 18 21 19 23 21 32 23 29 25
REMARK SMILES IDX 5 27 14 28 6 29 12 30 7 31 10 32 15 33 13 35 8 37 9 38 11 40
REMARK H PARENT 21 20 23 22 32 24 29 26 15 34 13 36 9 39 11 41
REMARK Flexibility Score: inf
ROOT
ATOM      1  O   UNL     1      17.202  -0.732 -11.439  1.00  0.00    -0.454 OA
ENDROOT
BRANCH   1   2
ATOM      2  C   UNL     1      17.500  -0.675 -12.818  1.00  0.00     0.214 A 
ATOM      3  C   UNL     1      16.978  -1.727 -13.617  1.00  0.00     0.180 A 
ATOM      4  O   UNL     1      17.331  -1.830 -14.894  1.00  0.00    -0.452 OA
ATOM      5  C   UNL     1      18.399   0.230 -13.432  1.00  0.00     0.239 A 
ATOM      6  C   UNL     1      18.139  -0.984 -15.508  1.00  0.00     0.146 A 
ATOM      7  O   UNL     1      18.973   1.117 -12.765  1.00  0.00    -0.285 OA
ATOM      8  C   UNL     1      18.702   0.102 -14.808  1.00  0.00     0.111 A 
ATOM      9  C   UNL     1      18.448  -1.199 -16.854  1.00  0.00     0.094 A 
ATOM     10  C   UNL     1      19.597   0.967 -15.490  1.00  0.00     0.134 A 
ATOM     11  C   UNL     1      19.320  -0.338 -17.525  1.00  0.00     0.123 A 
ATOM     12  C   UNL     1      19.899   0.735 -16.837  1.00  0.00     0.093 A 
BRANCH   3  13
ATOM     13  C   UNL     1      16.079  -2.783 -13.080  1.00  0.00     0.025 A 
ATOM     14  C   UNL     1      16.578  -4.086 -12.892  1.00  0.00     0.016 A 
ATOM     15  C   UNL     1      15.751  -5.109 -12.416  1.00  0.00     0.051 A 
ATOM     16  C   UNL     1      14.418  -4.845 -12.084  1.00  0.00     0.157 A 
ATOM     17  C   UNL     1      14.720  -2.539 -12.793  1.00  0.00     0.062 A 
ATOM     18  C   UNL     1      13.908  -3.546 -12.262  1.00  0.00     0.158 A 
BRANCH  16  19
ATOM     19  O   UNL     1      13.625  -5.866 -11.561  1.00  0.00    -0.504 OA
ATOM     20  H   UNL     1      13.428  -6.700 -12.113  1.00  0.00     0.293 HD
ENDBRANCH  16  19
BRANCH  18  21
ATOM     21  O   UNL     1      12.587  -3.254 -11.906  1.00  0.00    -0.504 OA
ATOM     22  H   UNL     1      12.362  -2.691 -11.088  1.00  0.00     0.293 HD
ENDBRANCH  18  21
ENDBRANCH   3  13
BRANCH  10  23
ATOM     23  O   UNL     1      20.199   2.044 -14.839  1.00  0.00    -0.507 OA
ATOM     24  H   UNL     1      19.815   2.428 -13.983  1.00  0.00     0.293 HD
ENDBRANCH  10  23
BRANCH  11  25
ATOM     25  O   UNL     1      19.649  -0.560 -18.860  1.00  0.00    -0.508 OA
ATOM     26  H   UNL     1      20.310   0.042 -19.341  1.00  0.00     0.293 HD
ENDBRANCH  11  25
ENDBRANCH   1   2
BRANCH   1  27
ATOM     27  C   UNL     1      17.848  -1.122 -10.207  1.00  0.00     0.339 C 
ATOM     28  C   UNL     1      17.355  -2.394  -9.462  1.00  0.00     0.214 C 
ATOM     29  O   UNL     1      19.258  -1.118 -10.310  1.00  0.00    -0.332 OA
ATOM     30  C   UNL     1      17.643  -2.158  -7.961  1.00  0.00     0.180 C 
ATOM     31  C   UNL     1      19.914  -1.320  -9.041  1.00  0.00     0.179 C 
ATOM     32  C   UNL     1      18.995  -1.377  -7.754  1.00  0.00     0.177 C 
BRANCH  28  33
ATOM     33  O   UNL     1      18.050  -3.565  -9.857  1.00  0.00    -0.384 OA
ATOM     34  H   UNL     1      17.534  -4.086 -10.533  1.00  0.00     0.211 HD
ENDBRANCH  28  33
BRANCH  30  35
ATOM     35  O   UNL     1      17.675  -3.379  -7.268  1.00  0.00    -0.387 OA
ATOM     36  H   UNL     1      18.361  -3.256  -6.558  1.00  0.00     0.211 HD
ENDBRANCH  30  35
BRANCH  31  37
ATOM     37  C   UNL     1      20.847  -2.563  -9.129  1.00  0.00     0.191 C 
BRANCH  37  38
ATOM     38  O   UNL     1      20.759  -3.192 -10.386  1.00  0.00    -0.394 OA
ATOM     39  H   UNL     1      21.086  -2.533 -11.052  1.00  0.00     0.210 HD
ENDBRANCH  37  38
ENDBRANCH  31  37
BRANCH  32  40
ATOM     40  O   UNL     1      18.716  -0.060  -7.348  1.00  0.00    -0.387 OA
ATOM     41  H   UNL     1      17.922   0.243  -7.864  1.00  0.00     0.211 HD
ENDBRANCH  32  40
ENDBRANCH   1  27
TORSDOF 12
ENDMDL
MODEL 2
REMARK VINA RESULT:    -6.568      2.669      6.943
REMARK INTER + INTRA:         -11.269
REMARK INTER:                  -9.551
REMARK INTRA:                  -1.718
REMARK UNBOUND:                -1.629
REMARK SMILES O=c1c(O[C@@H]2O[C@H](CO)[C@@H](O)[C@H](O)[C@@H]2O)c(-c2ccc(O)c(O)c2)oc2cc(O)cc(O)c12
REMARK SMILES IDX 4 1 3 2 16 3 25 4 2 5 26 6 1 7 33 8 27 9 31 10 28 11 30 12
REMARK SMILES IDX 17 13 18 14 19 15 20 16 24 17 22 18 21 19 23 21 32 23 29 25
REMARK SMILES IDX 5 27 14 28 6 29 12 30 7 31 10 32 15 33 13 35 8 37 9 38 11 40
REMARK H PARENT 21 20 23 22 32 24 29 26 15 34 13 36 9 39 11 41
REMARK Flexibility Score: inf
ROOT
ATOM      1  O   UNL     1      15.568  -3.351 -12.457  1.00  0.00    -0.454 OA
ENDROOT
BRANCH   1   2
ATOM      2  C   UNL     1      16.153  -2.564 -11.441  1.00  0.00     0.214 A 
ATOM      3  C   UNL     1      16.305  -1.181 -11.727  1.00  0.00     0.180 A 
ATOM      4  O   UNL     1      16.976  -0.399 -10.888  1.00  0.00    -0.452 OA
ATOM      5  C   UNL     1      16.745  -3.056 -10.253  1.00  0.00     0.239 A 
ATOM      6  C   UNL     1      17.510  -0.816  -9.754  1.00  0.00     0.146 A 
ATOM      7  O   UNL     1      16.737  -4.277  -9.989  1.00  0.00    -0.285 OA
ATOM      8  C   UNL     1      17.406  -2.169  -9.371  1.00  0.00     0.111 A 
ATOM      9  C   UNL     1      18.204   0.098  -8.956  1.00  0.00     0.094 A 
ATOM     10  C   UNL     1      18.027  -2.589  -8.167  1.00  0.00     0.134 A 
ATOM     11  C   UNL     1      18.803  -0.318  -7.765  1.00  0.00     0.123 A 
ATOM     12  C   UNL     1      18.721  -1.662  -7.381  1.00  0.00     0.093 A 
BRANCH   3  13
ATOM     13  C   UNL     1      15.791  -0.550 -12.972  1.00  0.00     0.025 A 
ATOM     14  C   UNL     1      16.659  -0.374 -14.067  1.00  0.00     0.016 A 
ATOM     15  C   UNL     1      16.216   0.243 -15.241  1.00  0.00     0.051 A 
ATOM     16  C   UNL     1      14.888   0.664 -15.362  1.00  0.00     0.157 A 
ATOM     17  C   UNL     1      14.468  -0.074 -13.083  1.00  0.00     0.062 A 
ATOM     18  C   UNL     1      14.007   0.488 -14.278  1.00  0.00     0.158 A 
BRANCH  16  19
ATOM     19  O   UNL     1      14.451   1.227 -16.561  1.00  0.00    -0.504 OA
ATOM     20  H   UNL     1      13.457   1.272 -16.778  1.00  0.00     0.293 HD
ENDBRANCH  16  19
BRANCH  18  21
ATOM     21  O   UNL     1      12.668   0.873 -14.390  1.00  0.00    -0.504 OA
ATOM     22  H   UNL     1      12.190   0.906 -15.289  1.00  0.00     0.293 HD
ENDBRANCH  18  21
ENDBRANCH   3  13
BRANCH  10  23
ATOM     23  O   UNL     1      17.973  -3.919  -7.752  1.00  0.00    -0.507 OA
ATOM     24  H   UNL     1      18.322  -4.206  -6.844  1.00  0.00     0.293 HD
ENDBRANCH  10  23
BRANCH  11  25
ATOM     25  O   UNL     1      19.514   0.584  -6.976  1.00  0.00    -0.508 OA
ATOM     26  H   UNL     1      19.765   0.354  -6.019  1.00  0.00     0.293 HD
ENDBRANCH  11  25
ENDBRANCH   1   2
BRANCH   1  27
ATOM     27  C   UNL     1      15.977  -4.324 -13.443  1.00  0.00     0.339 C 
ATOM     28  C   UNL     1      17.305  -4.101 -14.222  1.00  0.00     0.214 C 
ATOM     29  O   UNL     1      15.897  -5.651 -12.961  1.00  0.00    -0.332 OA
ATOM     30  C   UNL     1      17.120  -4.780 -15.600  1.00  0.00     0.180 C 
ATOM     31  C   UNL     1      16.121  -6.636 -13.991  1.00  0.00     0.179 C 
ATOM     32  C   UNL     1      16.281  -6.108 -15.475  1.00  0.00     0.177 C 
BRANCH  28  33
ATOM     33  O   UNL     1      18.420  -4.705 -13.588  1.00  0.00    -0.384 OA
ATOM     34  H   UNL     1      18.767  -4.140 -12.842  1.00  0.00     0.211 HD
ENDBRANCH  28  33
BRANCH  30  35
ATOM     35  O   UNL     1      18.367  -5.047 -16.188  1.00  0.00    -0.387 OA
ATOM     36  H   UNL     1      18.979  -5.228 -15.425  1.00  0.00     0.211 HD
ENDBRANCH  30  35
BRANCH  31  37
ATOM     37  C   UNL     1      17.310  -7.554 -13.584  1.00  0.00     0.191 C 
BRANCH  37  38
ATOM     38  O   UNL     1      18.293  -7.611 -14.590  1.00  0.00    -0.394 OA
ATOM     39  H   UNL     1      18.263  -8.533 -14.959  1.00  0.00     0.210 HD
ENDBRANCH  37  38
ENDBRANCH  31  37
BRANCH  32  40
ATOM     40  O   UNL     1      14.999  -5.902 -16.013  1.00  0.00    -0.387 OA
ATOM     41  H   UNL     1      15.117  -5.678 -16.975  1.00  0.00     0.211 HD
ENDBRANCH  32  40
ENDBRANCH   1  27
TORSDOF 12
ENDMDL
MODEL 3
REMARK VINA RESULT:    -6.522      3.793      7.464
REMARK INTER + INTRA:         -11.201
REMARK INTER:                  -9.990
REMARK INTRA:                  -1.212
REMARK UNBOUND:                -1.629
REMARK SMILES O=c1c(O[C@@H]2O[C@H](CO)[C@@H](O)[C@H](O)[C@@H]2O)c(-c2ccc(O)c(O)c2)oc2cc(O)cc(O)c12
REMARK SMILES IDX 4 1 3 2 16 3 25 4 2 5 26 6 1 7 33 8 27 9 31 10 28 11 30 12
REMARK SMILES IDX 17 13 18 14 19 15 20 16 24 17 22 18 21 19 23 21 32 23 29 25
REMARK SMILES IDX 5 27 14 28 6 29 12 30 7 31 10 32 15 33 13 35 8 37 9 38 11 40
REMARK H PARENT 21 20 23 22 32 24 29 26 15 34 13 36 9 39 11 41
REMARK Flexibility Score: inf
ROOT
ATOM      1  O   UNL     1      17.873  -2.885 -14.916  1.00  0.00    -0.454 OA
ENDROOT
BRANCH   1   2
ATOM      2  C   UNL     1      16.920  -1.876 -14.652  1.00  0.00     0.214 A 
ATOM      3  C   UNL     1      17.192  -0.596 -15.203  1.00  0.00     0.180 A 
ATOM      4  O   UNL     1      16.427   0.441 -14.883  1.00  0.00    -0.452 OA
ATOM      5  C   UNL     1      15.826  -1.987 -13.761  1.00  0.00     0.239 A 
ATOM      6  C   UNL     1      15.377   0.368 -14.083  1.00  0.00     0.146 A 
ATOM      7  O   UNL     1      15.590  -3.058 -13.162  1.00  0.00    -0.285 OA
ATOM      8  C   UNL     1      15.014  -0.860 -13.494  1.00  0.00     0.111 A 
ATOM      9  C   UNL     1      14.651   1.531 -13.810  1.00  0.00     0.094 A 
ATOM     10  C   UNL     1      13.905  -0.892 -12.609  1.00  0.00     0.134 A 
ATOM     11  C   UNL     1      13.553   1.491 -12.948  1.00  0.00     0.123 A 
ATOM     12  C   UNL     1      13.192   0.282 -12.343  1.00  0.00     0.093 A 
BRANCH   3  13
ATOM     13  C   UNL     1      18.350  -0.328 -16.097  1.00  0.00     0.025 A 
ATOM     14  C   UNL     1      19.307   0.634 -15.721  1.00  0.00     0.016 A 
ATOM     15  C   UNL     1      20.391   0.930 -16.553  1.00  0.00     0.051 A 
ATOM     16  C   UNL     1      20.564   0.247 -17.761  1.00  0.00     0.157 A 
ATOM     17  C   UNL     1      18.503  -0.974 -17.342  1.00  0.00     0.062 A 
ATOM     18  C   UNL     1      19.619  -0.722 -18.147  1.00  0.00     0.158 A 
BRANCH  16  19
ATOM     19  O   UNL     1      21.681   0.520 -18.551  1.00  0.00    -0.504 OA
ATOM     20  H   UNL     1      21.647   1.252 -19.258  1.00  0.00     0.293 HD
ENDBRANCH  16  19
BRANCH  18  21
ATOM     21  O   UNL     1      19.791  -1.438 -19.336  1.00  0.00    -0.504 OA
ATOM     22  H   UNL     1      19.184  -2.216 -19.588  1.00  0.00     0.293 HD
ENDBRANCH  18  21
ENDBRANCH   3  13
BRANCH  10  23
ATOM     23  O   UNL     1      13.516  -2.076 -11.981  1.00  0.00    -0.507 OA
ATOM     24  H   UNL     1      12.766  -2.650 -12.350  1.00  0.00     0.293 HD
ENDBRANCH  10  23
BRANCH  11  25
ATOM     25  O   UNL     1      12.839   2.651 -12.655  1.00  0.00    -0.508 OA
ATOM     26  H   UNL     1      12.821   3.027 -11.711  1.00  0.00     0.293 HD
ENDBRANCH  11  25
ENDBRANCH   1   2
BRANCH   1  27
ATOM     27  C   UNL     1      17.899  -4.302 -15.194  1.00  0.00     0.339 C 
ATOM     28  C   UNL     1      18.220  -5.296 -14.042  1.00  0.00     0.214 C 
ATOM     29  O   UNL     1      16.767  -4.732 -15.925  1.00  0.00    -0.332 OA
ATOM     30  C   UNL     1      18.889  -6.525 -14.701  1.00  0.00     0.180 C 
ATOM     31  C   UNL     1      16.874  -6.100 -16.370  1.00  0.00     0.179 C 
ATOM     32  C   UNL     1      18.246  -6.843 -16.103  1.00  0.00     0.177 C 
BRANCH  28  33
ATOM     33  O   UNL     1      17.057  -5.746 -13.367  1.00  0.00    -0.384 OA
ATOM     34  H   UNL     1      16.282  -5.141 -13.531  1.00  0.00     0.211 HD
ENDBRANCH  28  33
BRANCH  30  35
ATOM     35  O   UNL     1      18.798  -7.645 -13.859  1.00  0.00    -0.387 OA
ATOM     36  H   UNL     1      19.330  -8.353 -14.312  1.00  0.00     0.211 HD
ENDBRANCH  30  35
BRANCH  31  37
ATOM     37  C   UNL     1      15.669  -6.921 -15.825  1.00  0.00     0.191 C 
BRANCH  37  38
ATOM     38  O   UNL     1      14.564  -6.866 -16.697  1.00  0.00    -0.394 OA
ATOM     39  H   UNL     1      13.799  -7.264 -16.205  1.00  0.00     0.210 HD
ENDBRANCH  37  38
ENDBRANCH  31  37
BRANCH  32  40
ATOM     40  O   UNL     1      19.148  -6.488 -17.122  1.00  0.00    -0.387 OA
ATOM     41  H   UNL     1      19.824  -7.216 -17.181  1.00  0.00     0.211 HD
ENDBRANCH  32  40
ENDBRANCH   1  27
TORSDOF 12
ENDMDL
MODEL 4
REMARK VINA RESULT:    -6.206      1.827      2.837
REMARK INTER + INTRA:         -10.737
REMARK INTER:                  -9.015
REMARK INTRA:                  -1.722
REMARK UNBOUND:                -1.629
REMARK SMILES O=c1c(O[C@@H]2O[C@H](CO)[C@@H](O)[C@H](O)[C@@H]2O)c(-c2ccc(O)c(O)c2)oc2cc(O)cc(O)c12
REMARK SMILES IDX 4 1 3 2 16 3 25 4 2 5 26 6 1 7 33 8 27 9 31 10 28 11 30 12
REMARK SMILES IDX 17 13 18 14 19 15 20 16 24 17 22 18 21 19 23 21 32 23 29 25
REMARK SMILES IDX 5 27 14 28 6 29 12 30 7 31 10 32 15 33 13 35 8 37 9 38 11 40
REMARK H PARENT 21 20 23 22 32 24 29 26 15 34 13 36 9 39 11 41
REMARK Flexibility Score: inf
ROOT
ATOM      1  O   UNL     1      18.645   0.839 -13.208  1.00  0.00    -0.454 OA
ENDROOT
BRANCH   1   2
ATOM      2  C   UNL     1      18.745   0.576 -14.593  1.00  0.00     0.214 A 
ATOM      3  C   UNL     1      17.686  -0.174 -15.168  1.00  0.00     0.180 A 
ATOM      4  O   UNL     1      17.773  -0.589 -16.427  1.00  0.00    -0.452 OA
ATOM      5  C   UNL     1      19.873   0.847 -15.404  1.00  0.00     0.239 A 
ATOM      6  C   UNL     1      18.794  -0.325 -17.224  1.00  0.00     0.146 A 
ATOM      7  O   UNL     1      20.883   1.414 -14.933  1.00  0.00    -0.285 OA
ATOM      8  C   UNL     1      19.892   0.424 -16.753  1.00  0.00     0.111 A 
ATOM      9  C   UNL     1      18.780  -0.824 -18.530  1.00  0.00     0.094 A 
ATOM     10  C   UNL     1      20.988   0.652 -17.625  1.00  0.00     0.134 A 
ATOM     11  C   UNL     1      19.856  -0.585 -19.387  1.00  0.00     0.123 A 
ATOM     12  C   UNL     1      20.960   0.142 -18.928  1.00  0.00     0.093 A 
BRANCH   3  13
ATOM     13  C   UNL     1      16.477  -0.584 -14.407  1.00  0.00     0.025 A 
ATOM     14  C   UNL     1      15.393   0.309 -14.296  1.00  0.00     0.016 A 
ATOM     15  C   UNL     1      14.253  -0.034 -13.563  1.00  0.00     0.051 A 
ATOM     16  C   UNL     1      14.153  -1.290 -12.955  1.00  0.00     0.157 A 
ATOM     17  C   UNL     1      16.389  -1.827 -13.746  1.00  0.00     0.062 A 
ATOM     18  C   UNL     1      15.226  -2.195 -13.062  1.00  0.00     0.158 A 
BRANCH  16  19
ATOM     19  O   UNL     1      12.986  -1.633 -12.273  1.00  0.00    -0.504 OA
ATOM     20  H   UNL     1      12.236  -0.953 -12.159  1.00  0.00     0.293 HD
ENDBRANCH  16  19
BRANCH  18  21
ATOM     21  O   UNL     1      15.133  -3.467 -12.488  1.00  0.00    -0.504 OA
ATOM     22  H   UNL     1      14.467  -3.676 -11.747  1.00  0.00     0.293 HD
ENDBRANCH  18  21
ENDBRANCH   3  13
BRANCH  10  23
ATOM     23  O   UNL     1      22.109   1.368 -17.204  1.00  0.00    -0.507 OA
ATOM     24  H   UNL     1      22.826   1.662 -17.857  1.00  0.00     0.293 HD
ENDBRANCH  10  23
BRANCH  11  25
ATOM     25  O   UNL     1      19.858  -1.099 -20.683  1.00  0.00    -0.508 OA
ATOM     26  H   UNL     1      19.153  -0.815 -21.356  1.00  0.00     0.293 HD
ENDBRANCH  11  25
ENDBRANCH   1   2
BRANCH   1  27
ATOM     27  C   UNL     1      19.185   0.332 -11.969  1.00  0.00     0.339 C 
ATOM     28  C   UNL     1      18.236   0.129 -10.753  1.00  0.00     0.214 C 
ATOM     29  O   UNL     1      20.002  -0.807 -12.159  1.00  0.00    -0.332 OA
ATOM     30  C   UNL     1      19.104   0.319  -9.487  1.00  0.00     0.180 C 
ATOM     31  C   UNL     1      20.696  -1.207 -10.959  1.00  0.00     0.179 C 
ATOM     32  C   UNL     1      20.552  -0.268  -9.693  1.00  0.00     0.177 C 
BRANCH  28  33
ATOM     33  O   UNL     1      17.677  -1.173 -10.705  1.00  0.00    -0.384 OA
ATOM     34  H   UNL     1      18.167  -1.804 -11.303  1.00  0.00     0.211 HD
ENDBRANCH  28  33
BRANCH  30  35
ATOM     35  O   UNL     1      18.490  -0.282  -8.376  1.00  0.00    -0.387 OA
ATOM     36  H   UNL     1      18.164   0.476  -7.820  1.00  0.00     0.211 HD
ENDBRANCH  30  35
BRANCH  31  37
ATOM     37  C   UNL     1      20.336  -2.682 -10.616  1.00  0.00     0.191 C 
BRANCH  37  38
ATOM     38  O   UNL     1      19.871  -2.811  -9.294  1.00  0.00    -0.394 OA
ATOM     39  H   UNL     1      20.593  -3.264  -8.786  1.00  0.00     0.210 HD
ENDBRANCH  37  38
ENDBRANCH  31  37
BRANCH  32  40
ATOM     40  O   UNL     1      21.470   0.790  -9.818  1.00  0.00    -0.387 OA
ATOM     41  H   UNL     1      22.004   0.814  -8.979  1.00  0.00     0.211 HD
ENDBRANCH  32  40
ENDBRANCH   1  27
TORSDOF 12
ENDMDL
MODEL 5
REMARK VINA RESULT:    -6.178      3.286      6.809
REMARK INTER + INTRA:         -10.696
REMARK INTER:                  -9.134
REMARK INTRA:                  -1.562
REMARK UNBOUND:                -1.629
REMARK SMILES O=c1c(O[C@@H]2O[C@H](CO)[C@@H](O)[C@H](O)[C@@H]2O)c(-c2ccc(O)c(O)c2)oc2cc(O)cc(O)c12
REMARK SMILES IDX 4 1 3 2 16 3 25 4 2 5 26 6 1 7 33 8 27 9 31 10 28 11 30 12
REMARK SMILES IDX 17 13 18 14 19 15 20 16 24 17 22 18 21 19 23 21 32 23 29 25
REMARK SMILES IDX 5 27 14 28 6 29 12 30 7 31 10 32 15 33 13 35 8 37 9 38 11 40
REMARK H PARENT 21 20 23 22 32 24 29 26 15 34 13 36 9 39 11 41
REMARK Flexibility Score: inf
ROOT
ATOM      1  O   UNL     1      16.553  -1.739 -12.002  1.00  0.00    -0.454 OA
ENDROOT
BRANCH   1   2
ATOM      2  C   UNL     1      15.667  -0.714 -11.601  1.00  0.00     0.214 A 
ATOM      3  C   UNL     1      15.783  -0.275 -10.256  1.00  0.00     0.180 A 
ATOM      4  O   UNL     1      14.896   0.579  -9.757  1.00  0.00    -0.452 OA
ATOM      5  C   UNL     1      14.583  -0.217 -12.362  1.00  0.00     0.239 A 
ATOM      6  C   UNL     1      13.892   1.090 -10.448  1.00  0.00     0.146 A 
ATOM      7  O   UNL     1      14.362  -0.637 -13.518  1.00  0.00    -0.285 OA
ATOM      8  C   UNL     1      13.695   0.728 -11.796  1.00  0.00     0.111 A 
ATOM      9  C   UNL     1      13.013   1.973  -9.813  1.00  0.00     0.094 A 
ATOM     10  C   UNL     1      12.583   1.266 -12.494  1.00  0.00     0.134 A 
ATOM     11  C   UNL     1      11.927   2.509 -10.508  1.00  0.00     0.123 A 
ATOM     12  C   UNL     1      11.711   2.145 -11.842  1.00  0.00     0.093 A 
BRANCH   3  13
ATOM     13  C   UNL     1      16.835  -0.770  -9.329  1.00  0.00     0.025 A 
ATOM     14  C   UNL     1      17.809   0.125  -8.846  1.00  0.00     0.016 A 
ATOM     15  C   UNL     1      18.829  -0.315  -7.995  1.00  0.00     0.051 A 
ATOM     16  C   UNL     1      18.878  -1.650  -7.581  1.00  0.00     0.157 A 
ATOM     17  C   UNL     1      16.924  -2.125  -8.948  1.00  0.00     0.062 A 
ATOM     18  C   UNL     1      17.907  -2.555  -8.051  1.00  0.00     0.158 A 
BRANCH  16  19
ATOM     19  O   UNL     1      19.871  -2.057  -6.690  1.00  0.00    -0.504 OA
ATOM     20  H   UNL     1      20.840  -2.131  -6.997  1.00  0.00     0.293 HD
ENDBRANCH  16  19
BRANCH  18  21
ATOM     21  O   UNL     1      17.921  -3.886  -7.623  1.00  0.00    -0.504 OA
ATOM     22  H   UNL     1      17.084  -4.466  -7.644  1.00  0.00     0.293 HD
ENDBRANCH  18  21
ENDBRANCH   3  13
BRANCH  10  23
ATOM     23  O   UNL     1      12.329   0.924 -13.822  1.00  0.00    -0.507 OA
ATOM     24  H   UNL     1      12.555   0.005 -14.186  1.00  0.00     0.293 HD
ENDBRANCH  10  23
BRANCH  11  25
ATOM     25  O   UNL     1      11.036   3.372  -9.874  1.00  0.00    -0.508 OA
ATOM     26  H   UNL     1      10.673   3.159  -8.949  1.00  0.00     0.293 HD
ENDBRANCH  11  25
ENDBRANCH   1   2
BRANCH   1  27
ATOM     27  C   UNL     1      16.494  -3.126 -12.398  1.00  0.00     0.339 C 
ATOM     28  C   UNL     1      15.163  -3.911 -12.219  1.00  0.00     0.214 C 
ATOM     29  O   UNL     1      17.034  -3.346 -13.686  1.00  0.00    -0.332 OA
ATOM     30  C   UNL     1      15.556  -5.390 -11.998  1.00  0.00     0.180 C 
ATOM     31  C   UNL     1      17.153  -4.746 -14.014  1.00  0.00     0.179 C 
ATOM     32  C   UNL     1      16.803  -5.788 -12.874  1.00  0.00     0.177 C 
BRANCH  28  33
ATOM     33  O   UNL     1      14.332  -3.849 -13.366  1.00  0.00    -0.384 OA
ATOM     34  H   UNL     1      14.514  -4.605 -13.991  1.00  0.00     0.211 HD
ENDBRANCH  28  33
BRANCH  30  35
ATOM     35  O   UNL     1      14.471  -6.235 -12.285  1.00  0.00    -0.387 OA
ATOM     36  H   UNL     1      14.583  -7.014 -11.677  1.00  0.00     0.211 HD
ENDBRANCH  30  35
BRANCH  31  37
ATOM     37  C   UNL     1      16.359  -5.045 -15.319  1.00  0.00     0.191 C 
BRANCH  37  38
ATOM     38  O   UNL     1      15.390  -6.047 -15.122  1.00  0.00    -0.394 OA
ATOM     39  H   UNL     1      14.961  -5.853 -14.248  1.00  0.00     0.210 HD
ENDBRANCH  37  38
ENDBRANCH  31  37
BRANCH  32  40
ATOM     40  O   UNL     1      17.929  -5.932 -12.044  1.00  0.00    -0.387 OA
ATOM     41  H   UNL     1      18.131  -6.905 -11.991  1.00  0.00     0.211 HD
ENDBRANCH  32  40
ENDBRANCH   1  27
TORSDOF 12
ENDMDL
MODEL 6
REMARK VINA RESULT:    -6.147      1.805      3.233
REMARK INTER + INTRA:         -10.652
REMARK INTER:                  -9.095
REMARK INTRA:                  -1.557
REMARK UNBOUND:                -1.629
REMARK SMILES O=c1c(O[C@@H]2O[C@H](CO)[C@@H](O)[C@H](O)[C@@H]2O)c(-c2ccc(O)c(O)c2)oc2cc(O)cc(O)c12
REMARK SMILES IDX 4 1 3 2 16 3 25 4 2 5 26 6 1 7 33 8 27 9 31 10 28 11 30 12
REMARK SMILES IDX 17 13 18 14 19 15 20 16 24 17 22 18 21 19 23 21 32 23 29 25
REMARK SMILES IDX 5 27 14 28 6 29 12 30 7 31 10 32 15 33 13 35 8 37 9 38 11 40
REMARK H PARENT 21 20 23 22 32 24 29 26 15 34 13 36 9 39 11 41
REMARK Flexibility Score: inf
ROOT
ATOM      1  O   UNL     1      18.579   0.902 -13.210  1.00  0.00    -0.454 OA
ENDROOT
BRANCH   1   2
ATOM      2  C   UNL     1      18.695   0.612 -14.588  1.00  0.00     0.214 A 
ATOM      3  C   UNL     1      17.643  -0.150 -15.160  1.00  0.00     0.180 A 
ATOM      4  O   UNL     1      17.744  -0.589 -16.409  1.00  0.00    -0.452 OA
ATOM      5  C   UNL     1      19.832   0.867 -15.391  1.00  0.00     0.239 A 
ATOM      6  C   UNL     1      18.773  -0.341 -17.200  1.00  0.00     0.146 A 
ATOM      7  O   UNL     1      20.836   1.443 -14.921  1.00  0.00    -0.285 OA
ATOM      8  C   UNL     1      19.866   0.417 -16.732  1.00  0.00     0.111 A 
ATOM      9  C   UNL     1      18.774  -0.865 -18.496  1.00  0.00     0.094 A 
ATOM     10  C   UNL     1      20.971   0.629 -17.596  1.00  0.00     0.134 A 
ATOM     11  C   UNL     1      19.859  -0.643 -19.346  1.00  0.00     0.123 A 
ATOM     12  C   UNL     1      20.958   0.093 -18.889  1.00  0.00     0.093 A 
BRANCH   3  13
ATOM     13  C   UNL     1      16.425  -0.545 -14.404  1.00  0.00     0.025 A 
ATOM     14  C   UNL     1      16.366  -1.817 -13.802  1.00  0.00     0.016 A 
ATOM     15  C   UNL     1      15.223  -2.230 -13.109  1.00  0.00     0.051 A 
ATOM     16  C   UNL     1      14.129  -1.370 -12.970  1.00  0.00     0.157 A 
ATOM     17  C   UNL     1      15.296   0.296 -14.304  1.00  0.00     0.062 A 
ATOM     18  C   UNL     1      14.177  -0.093 -13.561  1.00  0.00     0.158 A 
BRANCH  16  19
ATOM     19  O   UNL     1      13.021  -1.781 -12.230  1.00  0.00    -0.504 OA
ATOM     20  H   UNL     1      12.088  -1.750 -12.638  1.00  0.00     0.293 HD
ENDBRANCH  16  19
BRANCH  18  21
ATOM     21  O   UNL     1      13.106   0.793 -13.407  1.00  0.00    -0.504 OA
ATOM     22  H   UNL     1      12.415   0.935 -14.141  1.00  0.00     0.293 HD
ENDBRANCH  18  21
ENDBRANCH   3  13
BRANCH  10  23
ATOM     23  O   UNL     1      22.088   1.353 -17.177  1.00  0.00    -0.507 OA
ATOM     24  H   UNL     1      22.962   0.894 -16.947  1.00  0.00     0.293 HD
ENDBRANCH  10  23
BRANCH  11  25
ATOM     25  O   UNL     1      19.875  -1.182 -20.631  1.00  0.00    -0.508 OA
ATOM     26  H   UNL     1      19.458  -0.682 -21.410  1.00  0.00     0.293 HD
ENDBRANCH  11  25
ENDBRANCH   1   2
BRANCH   1  27
ATOM     27  C   UNL     1      18.795   0.241 -11.944  1.00  0.00     0.339 C 
ATOM     28  C   UNL     1      19.958   0.718 -11.028  1.00  0.00     0.214 C 
ATOM     29  O   UNL     1      17.602   0.093 -11.199  1.00  0.00    -0.332 OA
ATOM     30  C   UNL     1      20.408  -0.519 -10.216  1.00  0.00     0.180 C 
ATOM     31  C   UNL     1      17.771  -0.728 -10.025  1.00  0.00     0.179 C 
ATOM     32  C   UNL     1      19.179  -1.425  -9.827  1.00  0.00     0.177 C 
BRANCH  28  33
ATOM     33  O   UNL     1      19.556   1.719 -10.107  1.00  0.00    -0.384 OA
ATOM     34  H   UNL     1      20.326   2.288  -9.827  1.00  0.00     0.211 HD
ENDBRANCH  28  33
BRANCH  30  35
ATOM     35  O   UNL     1      21.103  -0.123  -9.062  1.00  0.00    -0.387 OA
ATOM     36  H   UNL     1      20.512  -0.378  -8.303  1.00  0.00     0.211 HD
ENDBRANCH  30  35
BRANCH  31  37
ATOM     37  C   UNL     1      17.354   0.078  -8.761  1.00  0.00     0.191 C 
BRANCH  37  38
ATOM     38  O   UNL     1      18.330   0.003  -7.749  1.00  0.00    -0.394 OA
ATOM     39  H   UNL     1      18.934  -0.745  -7.997  1.00  0.00     0.210 HD
ENDBRANCH  37  38
ENDBRANCH  31  37
BRANCH  32  40
ATOM     40  O   UNL     1      19.204  -2.601 -10.598  1.00  0.00    -0.387 OA
ATOM     41  H   UNL     1      18.764  -2.392 -11.466  1.00  0.00     0.211 HD
ENDBRANCH  32  40
ENDBRANCH   1  27
TORSDOF 12
ENDMDL
MODEL 7
REMARK VINA RESULT:    -6.144      2.793      4.740
REMARK INTER + INTRA:         -10.646
REMARK INTER:                  -9.191
REMARK INTRA:                  -1.455
REMARK UNBOUND:                -1.629
REMARK SMILES O=c1c(O[C@@H]2O[C@H](CO)[C@@H](O)[C@H](O)[C@@H]2O)c(-c2ccc(O)c(O)c2)oc2cc(O)cc(O)c12
REMARK SMILES IDX 4 1 3 2 16 3 25 4 2 5 26 6 1 7 33 8 27 9 31 10 28 11 30 12
REMARK SMILES IDX 17 13 18 14 19 15 20 16 24 17 22 18 21 19 23 21 32 23 29 25
REMARK SMILES IDX 5 27 14 28 6 29 12 30 7 31 10 32 15 33 13 35 8 37 9 38 11 40
REMARK H PARENT 21 20 23 22 32 24 29 26 15 34 13 36 9 39 11 41
REMARK Flexibility Score: inf
ROOT
ATOM      1  O   UNL     1      17.298  -0.916 -11.050  1.00  0.00    -0.454 OA
ENDROOT
BRANCH   1   2
ATOM      2  C   UNL     1      15.952  -0.803 -11.467  1.00  0.00     0.214 A 
ATOM      3  C   UNL     1      15.539  -1.687 -12.498  1.00  0.00     0.180 A 
ATOM      4  O   UNL     1      14.338  -1.550 -13.049  1.00  0.00    -0.452 OA
ATOM      5  C   UNL     1      15.048   0.210 -11.070  1.00  0.00     0.239 A 
ATOM      6  C   UNL     1      13.454  -0.639 -12.680  1.00  0.00     0.146 A 
ATOM      7  O   UNL     1      15.383   1.083 -10.241  1.00  0.00    -0.285 OA
ATOM      8  C   UNL     1      13.762   0.279 -11.656  1.00  0.00     0.111 A 
ATOM      9  C   UNL     1      12.223  -0.584 -13.339  1.00  0.00     0.094 A 
ATOM     10  C   UNL     1      12.804   1.269 -11.314  1.00  0.00     0.134 A 
ATOM     11  C   UNL     1      11.279   0.385 -12.991  1.00  0.00     0.123 A 
ATOM     12  C   UNL     1      11.578   1.314 -11.988  1.00  0.00     0.093 A 
BRANCH   3  13
ATOM     13  C   UNL     1      16.417  -2.751 -13.054  1.00  0.00     0.025 A 
ATOM     14  C   UNL     1      16.882  -2.642 -14.379  1.00  0.00     0.016 A 
ATOM     15  C   UNL     1      17.685  -3.640 -14.942  1.00  0.00     0.051 A 
ATOM     16  C   UNL     1      18.071  -4.749 -14.183  1.00  0.00     0.157 A 
ATOM     17  C   UNL     1      16.767  -3.899 -12.314  1.00  0.00     0.062 A 
ATOM     18  C   UNL     1      17.619  -4.868 -12.855  1.00  0.00     0.158 A 
BRANCH  16  19
ATOM     19  O   UNL     1      18.916  -5.706 -14.745  1.00  0.00    -0.504 OA
ATOM     20  H   UNL     1      18.808  -5.980 -15.721  1.00  0.00     0.293 HD
ENDBRANCH  16  19
BRANCH  18  21
ATOM     21  O   UNL     1      18.020  -5.954 -12.070  1.00  0.00    -0.504 OA
ATOM     22  H   UNL     1      18.875  -6.471 -12.264  1.00  0.00     0.293 HD
ENDBRANCH  18  21
ENDBRANCH   3  13
BRANCH  10  23
ATOM     23  O   UNL     1      13.065   2.216 -10.324  1.00  0.00    -0.507 OA
ATOM     24  H   UNL     1      12.927   2.008  -9.342  1.00  0.00     0.293 HD
ENDBRANCH  10  23
BRANCH  11  25
ATOM     25  O   UNL     1      10.059   0.459 -13.660  1.00  0.00    -0.508 OA
ATOM     26  H   UNL     1       9.376  -0.288 -13.581  1.00  0.00     0.293 HD
ENDBRANCH  11  25
ENDBRANCH   1   2
BRANCH   1  27
ATOM     27  C   UNL     1      18.036  -1.173  -9.837  1.00  0.00     0.339 C 
ATOM     28  C   UNL     1      17.525  -2.265  -8.855  1.00  0.00     0.214 C 
ATOM     29  O   UNL     1      19.424  -1.319 -10.067  1.00  0.00    -0.332 OA
ATOM     30  C   UNL     1      17.987  -1.832  -7.444  1.00  0.00     0.180 C 
ATOM     31  C   UNL     1      20.192  -1.388  -8.847  1.00  0.00     0.179 C 
ATOM     32  C   UNL     1      19.411  -1.161  -7.489  1.00  0.00     0.177 C 
BRANCH  28  33
ATOM     33  O   UNL     1      18.080  -3.544  -9.119  1.00  0.00    -0.384 OA
ATOM     34  H   UNL     1      19.048  -3.481  -9.350  1.00  0.00     0.211 HD
ENDBRANCH  28  33
BRANCH  30  35
ATOM     35  O   UNL     1      17.995  -2.932  -6.570  1.00  0.00    -0.387 OA
ATOM     36  H   UNL     1      17.520  -2.617  -5.754  1.00  0.00     0.211 HD
ENDBRANCH  30  35
BRANCH  31  37
ATOM     37  C   UNL     1      21.008  -2.713  -8.820  1.00  0.00     0.191 C 
BRANCH  37  38
ATOM     38  O   UNL     1      20.906  -3.413 -10.037  1.00  0.00    -0.394 OA
ATOM     39  H   UNL     1      21.529  -2.968 -10.669  1.00  0.00     0.210 HD
ENDBRANCH  37  38
ENDBRANCH  31  37
BRANCH  32  40
ATOM     40  O   UNL     1      19.282   0.223  -7.277  1.00  0.00    -0.387 OA
ATOM     41  H   UNL     1      19.368   0.664  -8.164  1.00  0.00     0.211 HD
ENDBRANCH  32  40
ENDBRANCH   1  27
TORSDOF 12
ENDMDL
MODEL 8
REMARK VINA RESULT:    -6.132      3.613      7.313
REMARK INTER + INTRA:         -10.629
REMARK INTER:                  -9.631
REMARK INTRA:                  -0.998
REMARK UNBOUND:                -1.629
REMARK SMILES O=c1c(O[C@@H]2O[C@H](CO)[C@@H](O)[C@H](O)[C@@H]2O)c(-c2ccc(O)c(O)c2)oc2cc(O)cc(O)c12
REMARK SMILES IDX 4 1 3 2 16 3 25 4 2 5 26 6 1 7 33 8 27 9 31 10 28 11 30 12
REMARK SMILES IDX 17 13 18 14 19 15 20 16 24 17 22 18 21 19 23 21 32 23 29 25
REMARK SMILES IDX 5 27 14 28 6 29 12 30 7 31 10 32 15 33 13 35 8 37 9 38 11 40
REMARK H PARENT 21 20 23 22 32 24 29 26 15 34 13 36 9 39 11 41
REMARK Flexibility Score: inf
ROOT
ATOM      1  O   UNL     1      17.907  -3.051 -15.458  1.00  0.00    -0.454 OA
ENDROOT
BRANCH   1   2
ATOM      2  C   UNL     1      17.310  -1.829 -15.074  1.00  0.00     0.214 A 
ATOM      3  C   UNL     1      17.686  -0.684 -15.825  1.00  0.00     0.180 A 
ATOM      4  O   UNL     1      17.287   0.524 -15.440  1.00  0.00    -0.452 OA
ATOM      5  C   UNL     1      16.515  -1.624 -13.921  1.00  0.00     0.239 A 
ATOM      6  C   UNL     1      16.517   0.749 -14.390  1.00  0.00     0.146 A 
ATOM      7  O   UNL     1      16.232  -2.573 -13.159  1.00  0.00    -0.285 OA
ATOM      8  C   UNL     1      16.077  -0.322 -13.585  1.00  0.00     0.111 A 
ATOM      9  C   UNL     1      16.168   2.065 -14.076  1.00  0.00     0.094 A 
ATOM     10  C   UNL     1      15.285  -0.038 -12.443  1.00  0.00     0.134 A 
ATOM     11  C   UNL     1      15.377   2.338 -12.957  1.00  0.00     0.123 A 
ATOM     12  C   UNL     1      14.948   1.286 -12.140  1.00  0.00     0.093 A 
BRANCH   3  13
ATOM     13  C   UNL     1      18.573  -0.751 -17.017  1.00  0.00     0.025 A 
ATOM     14  C   UNL     1      18.234  -1.605 -18.084  1.00  0.00     0.016 A 
ATOM     15  C   UNL     1      19.061  -1.714 -19.207  1.00  0.00     0.051 A 
ATOM     16  C   UNL     1      20.226  -0.946 -19.305  1.00  0.00     0.157 A 
ATOM     17  C   UNL     1      19.776  -0.021 -17.101  1.00  0.00     0.062 A 
ATOM     18  C   UNL     1      20.574  -0.083 -18.248  1.00  0.00     0.158 A 
BRANCH  16  19
ATOM     19  O   UNL     1      21.009  -1.028 -20.456  1.00  0.00    -0.504 OA
ATOM     20  H   UNL     1      20.738  -1.645 -21.220  1.00  0.00     0.293 HD
ENDBRANCH  16  19
BRANCH  18  21
ATOM     21  O   UNL     1      21.718   0.717 -18.341  1.00  0.00    -0.504 OA
ATOM     22  H   UNL     1      22.602   0.353 -18.690  1.00  0.00     0.293 HD
ENDBRANCH  18  21
ENDBRANCH   3  13
BRANCH  10  23
ATOM     23  O   UNL     1      14.841  -1.057 -11.600  1.00  0.00    -0.507 OA
ATOM     24  H   UNL     1      14.145  -0.888 -10.883  1.00  0.00     0.293 HD
ENDBRANCH  10  23
BRANCH  11  25
ATOM     25  O   UNL     1      15.045   3.650 -12.626  1.00  0.00    -0.508 OA
ATOM     26  H   UNL     1      14.373   3.847 -11.891  1.00  0.00     0.293 HD
ENDBRANCH  11  25
ENDBRANCH   1   2
BRANCH   1  27
ATOM     27  C   UNL     1      17.615  -4.463 -15.394  1.00  0.00     0.339 C 
ATOM     28  C   UNL     1      17.487  -5.272 -16.717  1.00  0.00     0.214 C 
ATOM     29  O   UNL     1      18.440  -5.146 -14.470  1.00  0.00    -0.332 OA
ATOM     30  C   UNL     1      16.506  -6.431 -16.425  1.00  0.00     0.180 C 
ATOM     31  C   UNL     1      18.034  -6.515 -14.260  1.00  0.00     0.179 C 
ATOM     32  C   UNL     1      16.698  -6.989 -14.964  1.00  0.00     0.177 C 
BRANCH  28  33
ATOM     33  O   UNL     1      18.718  -5.840 -17.134  1.00  0.00    -0.384 OA
ATOM     34  H   UNL     1      18.643  -6.827 -17.254  1.00  0.00     0.211 HD
ENDBRANCH  28  33
BRANCH  30  35
ATOM     35  O   UNL     1      16.670  -7.462 -17.365  1.00  0.00    -0.387 OA
ATOM     36  H   UNL     1      15.799  -7.516 -17.843  1.00  0.00     0.211 HD
ENDBRANCH  30  35
BRANCH  31  37
ATOM     37  C   UNL     1      19.220  -7.466 -14.593  1.00  0.00     0.191 C 
BRANCH  37  38
ATOM     38  O   UNL     1      20.352  -6.754 -15.032  1.00  0.00    -0.394 OA
ATOM     39  H   UNL     1      20.386  -6.862 -16.018  1.00  0.00     0.210 HD
ENDBRANCH  37  38
ENDBRANCH  31  37
BRANCH  32  40
ATOM     40  O   UNL     1      15.611  -6.591 -14.166  1.00  0.00    -0.387 OA
ATOM     41  H   UNL     1      14.940  -6.175 -14.772  1.00  0.00     0.211 HD
ENDBRANCH  32  40
ENDBRANCH   1  27
TORSDOF 12
ENDMDL
MODEL 9
REMARK VINA RESULT:    -6.049      2.713      5.648
REMARK INTER + INTRA:         -10.507
REMARK INTER:                  -8.976
REMARK INTRA:                  -1.531
REMARK UNBOUND:                -1.629
REMARK SMILES O=c1c(O[C@@H]2O[C@H](CO)[C@@H](O)[C@H](O)[C@@H]2O)c(-c2ccc(O)c(O)c2)oc2cc(O)cc(O)c12
REMARK SMILES IDX 4 1 3 2 16 3 25 4 2 5 26 6 1 7 33 8 27 9 31 10 28 11 30 12
REMARK SMILES IDX 17 13 18 14 19 15 20 16 24 17 22 18 21 19 23 21 32 23 29 25
REMARK SMILES IDX 5 27 14 28 6 29 12 30 7 31 10 32 15 33 13 35 8 37 9 38 11 40
REMARK H PARENT 21 20 23 22 32 24 29 26 15 34 13 36 9 39 11 41
REMARK Flexibility Score: inf
ROOT
ATOM      1  O   UNL     1      18.694  -3.014 -12.506  1.00  0.00    -0.454 OA
ENDROOT
BRANCH   1   2
ATOM      2  C   UNL     1      18.152  -3.895 -13.469  1.00  0.00     0.214 A 
ATOM      3  C   UNL     1      17.347  -3.304 -14.478  1.00  0.00     0.180 A 
ATOM      4  O   UNL     1      16.682  -4.073 -15.333  1.00  0.00    -0.452 OA
ATOM      5  C   UNL     1      18.204  -5.308 -13.416  1.00  0.00     0.239 A 
ATOM      6  C   UNL     1      16.734  -5.393 -15.335  1.00  0.00     0.146 A 
ATOM      7  O   UNL     1      18.811  -5.896 -12.495  1.00  0.00    -0.285 OA
ATOM      8  C   UNL     1      17.515  -6.078 -14.383  1.00  0.00     0.111 A 
ATOM      9  C   UNL     1      15.982  -6.099 -16.279  1.00  0.00     0.094 A 
ATOM     10  C   UNL     1      17.515  -7.497 -14.390  1.00  0.00     0.134 A 
ATOM     11  C   UNL     1      15.995  -7.496 -16.290  1.00  0.00     0.123 A 
ATOM     12  C   UNL     1      16.753  -8.189 -15.339  1.00  0.00     0.093 A 
BRANCH   3  13
ATOM     13  C   UNL     1      17.152  -1.835 -14.602  1.00  0.00     0.025 A 
ATOM     14  C   UNL     1      16.028  -1.233 -14.003  1.00  0.00     0.016 A 
ATOM     15  C   UNL     1      15.801   0.142 -14.126  1.00  0.00     0.051 A 
ATOM     16  C   UNL     1      16.708   0.951 -14.818  1.00  0.00     0.157 A 
ATOM     17  C   UNL     1      18.033  -1.020 -15.342  1.00  0.00     0.062 A 
ATOM     18  C   UNL     1      17.839   0.364 -15.416  1.00  0.00     0.158 A 
BRANCH  16  19
ATOM     19  O   UNL     1      16.490   2.327 -14.883  1.00  0.00    -0.504 OA
ATOM     20  H   UNL     1      17.153   2.931 -15.367  1.00  0.00     0.293 HD
ENDBRANCH  16  19
BRANCH  18  21
ATOM     21  O   UNL     1      18.774   1.160 -16.085  1.00  0.00    -0.504 OA
ATOM     22  H   UNL     1      18.955   1.055 -17.081  1.00  0.00     0.293 HD
ENDBRANCH  18  21
ENDBRANCH   3  13
BRANCH  10  23
ATOM     23  O   UNL     1      18.253  -8.225 -13.457  1.00  0.00    -0.507 OA
ATOM     24  H   UNL     1      19.262  -8.151 -13.404  1.00  0.00     0.293 HD
ENDBRANCH  10  23
BRANCH  11  25
ATOM     25  O   UNL     1      15.230  -8.205 -17.214  1.00  0.00    -0.508 OA
ATOM     26  H   UNL     1      14.253  -8.412 -17.031  1.00  0.00     0.293 HD
ENDBRANCH  11  25
ENDBRANCH   1   2
BRANCH   1  27
ATOM     27  C   UNL     1      18.538  -2.719 -11.102  1.00  0.00     0.339 C 
ATOM     28  C   UNL     1      19.731  -2.098 -10.320  1.00  0.00     0.214 C 
ATOM     29  O   UNL     1      17.341  -2.018 -10.824  1.00  0.00    -0.332 OA
ATOM     30  C   UNL     1      19.584  -2.570  -8.855  1.00  0.00     0.180 C 
ATOM     31  C   UNL     1      17.084  -1.884  -9.411  1.00  0.00     0.179 C 
ATOM     32  C   UNL     1      18.070  -2.630  -8.423  1.00  0.00     0.177 C 
BRANCH  28  33
ATOM     33  O   UNL     1      19.710  -0.680 -10.323  1.00  0.00    -0.384 OA
ATOM     34  H   UNL     1      20.285  -0.308 -11.048  1.00  0.00     0.211 HD
ENDBRANCH  28  33
BRANCH  30  35
ATOM     35  O   UNL     1      20.302  -1.726  -7.992  1.00  0.00    -0.387 OA
ATOM     36  H   UNL     1      20.817  -1.122  -8.590  1.00  0.00     0.211 HD
ENDBRANCH  30  35
BRANCH  31  37
ATOM     37  C   UNL     1      16.947  -0.377  -9.047  1.00  0.00     0.191 C 
BRANCH  37  38
ATOM     38  O   UNL     1      17.748  -0.033  -7.941  1.00  0.00    -0.394 OA
ATOM     39  H   UNL     1      18.405   0.635  -8.269  1.00  0.00     0.210 HD
ENDBRANCH  37  38
ENDBRANCH  31  37
BRANCH  32  40
ATOM     40  O   UNL     1      17.666  -3.974  -8.323  1.00  0.00    -0.387 OA
ATOM     41  H   UNL     1      18.483  -4.513  -8.148  1.00  0.00     0.211 HD
ENDBRANCH  32  40
ENDBRANCH   1  27
TORSDOF 12
ENDMDL
