MODEL 1
REMARK VINA RESULT:    -5.922      0.000      0.000
REMARK INTER + INTRA:          -9.938
REMARK INTER:                  -9.383
REMARK INTRA:                  -0.555
REMARK UNBOUND:                -0.555
REMARK SMILES CCCCCCCCCCCC(=O)[O-]
REMARK SMILES IDX 7 1 8 2 9 3 10 4 11 5 12 6 13 7 14 8 6 9 5 10 4 11 3 12 2 13
REMARK SMILES IDX 1 14
REMARK H PARENT
REMARK Flexibility Score: inf
ROOT
ATOM      1  C   UNL     1      -0.919   8.850 -38.458  1.00  0.00     0.000 C 
ENDROOT
BRANCH   1   2
ATOM      2  C   UNL     1      -1.997   8.294 -39.405  1.00  0.00     0.000 C 
BRANCH   2   3
ATOM      3  C   UNL     1      -3.132   9.298 -39.662  1.00  0.00     0.000 C 
BRANCH   3   4
ATOM      4  C   UNL     1      -4.444   8.905 -38.963  1.00  0.00     0.006 C 
BRANCH   4   5
ATOM      5  C   UNL     1      -5.679   9.352 -39.756  1.00  0.00     0.053 C 
BRANCH   5   6
ATOM      6  C   UNL     1      -6.912   8.613 -39.333  1.00  0.00     0.041 C 
ATOM      7  O   UNL     1      -7.655   9.084 -38.432  1.00  0.00    -0.550 OA
ATOM      8  O   UNL     1      -7.258   7.420 -39.955  1.00  0.00    -0.550 OA
ENDBRANCH   5   6
ENDBRANCH   4   5
ENDBRANCH   3   4
ENDBRANCH   2   3
ENDBRANCH   1   2
BRANCH   1   9
ATOM      9  C   UNL     1      -0.889  10.388 -38.436  1.00  0.00     0.000 C 
BRANCH   9  10
ATOM     10  C   UNL     1       0.534  10.950 -38.262  1.00  0.00    -0.000 C 
BRANCH  10  11
ATOM     11  C   UNL     1       0.543  12.339 -37.604  1.00  0.00    -0.000 C 
BRANCH  11  12
ATOM     12  C   UNL     1      -0.821  13.046 -37.694  1.00  0.00    -0.000 C 
BRANCH  12  13
ATOM     13  C   UNL     1      -1.415  13.356 -36.310  1.00  0.00    -0.003 C 
ATOM     14  C   UNL     1      -2.247  12.204 -35.750  1.00  0.00     0.004 C 
ENDBRANCH  12  13
ENDBRANCH  11  12
ENDBRANCH  10  11
ENDBRANCH   9  10
ENDBRANCH   1   9
TORSDOF 10
ENDMDL
MODEL 2
REMARK VINA RESULT:    -5.830      1.500      2.785
REMARK INTER + INTRA:          -9.793
REMARK INTER:                  -9.395
REMARK INTRA:                  -0.398
REMARK UNBOUND:                -0.555
REMARK SMILES CCCCCCCCCCCC(=O)[O-]
REMARK SMILES IDX 7 1 8 2 9 3 10 4 11 5 12 6 13 7 14 8 6 9 5 10 4 11 3 12 2 13
REMARK SMILES IDX 1 14
REMARK H PARENT
REMARK Flexibility Score: inf
ROOT
ATOM      1  C   UNL     1      -3.357   9.365 -39.590  1.00  0.00     0.000 C 
ENDROOT
BRANCH   1   2
ATOM      2  C   UNL     1      -4.501   8.763 -38.756  1.00  0.00     0.000 C 
BRANCH   2   3
ATOM      3  C   UNL     1      -5.876   8.949 -39.417  1.00  0.00     0.000 C 
BRANCH   3   4
ATOM      4  C   UNL     1      -6.717   7.661 -39.414  1.00  0.00     0.006 C 
BRANCH   4   5
ATOM      5  C   UNL     1      -7.411   7.420 -40.760  1.00  0.00     0.053 C 
BRANCH   5   6
ATOM      6  C   UNL     1      -7.697   5.967 -40.989  1.00  0.00     0.041 C 
ATOM      7  O   UNL     1      -8.060   5.234 -40.031  1.00  0.00    -0.550 OA
ATOM      8  O   UNL     1      -7.593   5.428 -42.265  1.00  0.00    -0.550 OA
ENDBRANCH   5   6
ENDBRANCH   4   5
ENDBRANCH   3   4
ENDBRANCH   2   3
ENDBRANCH   1   2
BRANCH   1   9
ATOM      9  C   UNL     1      -2.113   8.461 -39.625  1.00  0.00     0.000 C 
BRANCH   9  10
ATOM     10  C   UNL     1      -1.066   8.856 -38.567  1.00  0.00    -0.000 C 
BRANCH  10  11
ATOM     11  C   UNL     1      -1.116  10.352 -38.217  1.00  0.00    -0.000 C 
BRANCH  11  12
ATOM     12  C   UNL     1       0.277  11.005 -38.206  1.00  0.00    -0.000 C 
BRANCH  12  13
ATOM     13  C   UNL     1       0.266  12.405 -37.573  1.00  0.00    -0.003 C 
ATOM     14  C   UNL     1      -0.996  12.678 -36.757  1.00  0.00     0.004 C 
ENDBRANCH  12  13
ENDBRANCH  11  12
ENDBRANCH  10  11
ENDBRANCH   9  10
ENDBRANCH   1   9
TORSDOF 10
ENDMDL
MODEL 3
REMARK VINA RESULT:    -5.823      4.304      7.004
REMARK INTER + INTRA:          -9.781
REMARK INTER:                  -9.368
REMARK INTRA:                  -0.414
REMARK UNBOUND:                -0.555
REMARK SMILES CCCCCCCCCCCC(=O)[O-]
REMARK SMILES IDX 7 1 8 2 9 3 10 4 11 5 12 6 13 7 14 8 6 9 5 10 4 11 3 12 2 13
REMARK SMILES IDX 1 14
REMARK H PARENT
REMARK Flexibility Score: inf
ROOT
ATOM      1  C   UNL     1      -1.576   8.195 -39.438  1.00  0.00     0.000 C 
ENDROOT
BRANCH   1   2
ATOM      2  C   UNL     1      -0.746   8.919 -38.364  1.00  0.00     0.000 C 
BRANCH   2   3
ATOM      3  C   UNL     1      -1.022  10.431 -38.324  1.00  0.00     0.000 C 
BRANCH   3   4
ATOM      4  C   UNL     1       0.265  11.272 -38.364  1.00  0.00     0.006 C 
BRANCH   4   5
ATOM      5  C   UNL     1       0.336  12.278 -37.207  1.00  0.00     0.053 C 
BRANCH   5   6
ATOM      6  C   UNL     1      -0.943  13.043 -37.053  1.00  0.00     0.041 C 
ATOM      7  O   UNL     1      -1.648  12.896 -36.020  1.00  0.00    -0.550 OA
ATOM      8  O   UNL     1      -1.341  13.941 -38.035  1.00  0.00    -0.550 OA
ENDBRANCH   5   6
ENDBRANCH   4   5
ENDBRANCH   3   4
ENDBRANCH   2   3
ENDBRANCH   1   2
BRANCH   1   9
ATOM      9  C   UNL     1      -0.770   7.112 -40.176  1.00  0.00     0.000 C 
BRANCH   9  10
ATOM     10  C   UNL     1       0.075   7.686 -41.328  1.00  0.00    -0.000 C 
BRANCH  10  11
ATOM     11  C   UNL     1       0.604   6.594 -42.273  1.00  0.00    -0.000 C 
BRANCH  11  12
ATOM     12  C   UNL     1       1.493   5.567 -41.550  1.00  0.00    -0.000 C 
BRANCH  12  13
ATOM     13  C   UNL     1       2.922   5.525 -42.116  1.00  0.00    -0.003 C 
ATOM     14  C   UNL     1       3.952   5.054 -41.091  1.00  0.00     0.004 C 
ENDBRANCH  12  13
ENDBRANCH  11  12
ENDBRANCH  10  11
ENDBRANCH   9  10
ENDBRANCH   1   9
TORSDOF 10
ENDMDL
MODEL 4
REMARK VINA RESULT:    -5.818      2.051      3.559
REMARK INTER + INTRA:          -9.774
REMARK INTER:                  -9.469
REMARK INTRA:                  -0.304
REMARK UNBOUND:                -0.555
REMARK SMILES CCCCCCCCCCCC(=O)[O-]
REMARK SMILES IDX 7 1 8 2 9 3 10 4 11 5 12 6 13 7 14 8 6 9 5 10 4 11 3 12 2 13
REMARK SMILES IDX 1 14
REMARK H PARENT
REMARK Flexibility Score: inf
ROOT
ATOM      1  C   UNL     1      -4.461   8.793 -38.928  1.00  0.00     0.000 C 
ENDROOT
BRANCH   1   2
ATOM      2  C   UNL     1      -5.786   9.178 -39.610  1.00  0.00     0.000 C 
BRANCH   2   3
ATOM      3  C   UNL     1      -6.929   8.207 -39.270  1.00  0.00     0.000 C 
BRANCH   3   4
ATOM      4  C   UNL     1      -7.310   7.300 -40.453  1.00  0.00     0.006 C 
BRANCH   4   5
ATOM      5  C   UNL     1      -7.832   5.934 -39.990  1.00  0.00     0.053 C 
BRANCH   5   6
ATOM      6  C   UNL     1      -8.113   5.022 -41.145  1.00  0.00     0.041 C 
ATOM      7  O   UNL     1      -7.704   5.317 -42.299  1.00  0.00    -0.550 OA
ATOM      8  O   UNL     1      -8.799   3.831 -40.942  1.00  0.00    -0.550 OA
ENDBRANCH   5   6
ENDBRANCH   4   5
ENDBRANCH   3   4
ENDBRANCH   2   3
ENDBRANCH   1   2
BRANCH   1   9
ATOM      9  C   UNL     1      -3.230   9.297 -39.701  1.00  0.00     0.000 C 
BRANCH   9  10
ATOM     10  C   UNL     1      -1.923   9.126 -38.906  1.00  0.00    -0.000 C 
BRANCH  10  11
ATOM     11  C   UNL     1      -1.574  10.368 -38.070  1.00  0.00    -0.000 C 
BRANCH  11  12
ATOM     12  C   UNL     1      -0.115  10.818 -38.258  1.00  0.00    -0.000 C 
BRANCH  12  13
ATOM     13  C   UNL     1       0.119  12.265 -37.796  1.00  0.00    -0.003 C 
ATOM     14  C   UNL     1      -0.907  12.733 -36.765  1.00  0.00     0.004 C 
ENDBRANCH  12  13
ENDBRANCH  11  12
ENDBRANCH  10  11
ENDBRANCH   9  10
ENDBRANCH   1   9
TORSDOF 10
ENDMDL
MODEL 5
REMARK VINA RESULT:    -5.684      3.134      6.681
REMARK INTER + INTRA:          -9.562
REMARK INTER:                  -9.224
REMARK INTRA:                  -0.338
REMARK UNBOUND:                -0.555
REMARK SMILES CCCCCCCCCCCC(=O)[O-]
REMARK SMILES IDX 7 1 8 2 9 3 10 4 11 5 12 6 13 7 14 8 6 9 5 10 4 11 3 12 2 13
REMARK SMILES IDX 1 14
REMARK H PARENT
REMARK Flexibility Score: inf
ROOT
ATOM      1  C   UNL     1      -2.025   8.336 -39.351  1.00  0.00     0.000 C 
ENDROOT
BRANCH   1   2
ATOM      2  C   UNL     1      -0.793   8.932 -38.648  1.00  0.00     0.000 C 
BRANCH   2   3
ATOM      3  C   UNL     1      -0.986  10.410 -38.270  1.00  0.00     0.000 C 
BRANCH   3   4
ATOM      4  C   UNL     1       0.322  11.216 -38.338  1.00  0.00     0.006 C 
BRANCH   4   5
ATOM      5  C   UNL     1       0.407  12.275 -37.231  1.00  0.00     0.053 C 
BRANCH   5   6
ATOM      6  C   UNL     1      -0.890  13.004 -37.054  1.00  0.00     0.041 C 
ATOM      7  O   UNL     1      -1.624  12.760 -36.062  1.00  0.00    -0.550 OA
ATOM      8  O   UNL     1      -1.273  13.977 -37.970  1.00  0.00    -0.550 OA
ENDBRANCH   5   6
ENDBRANCH   4   5
ENDBRANCH   3   4
ENDBRANCH   2   3
ENDBRANCH   1   2
BRANCH   1   9
ATOM      9  C   UNL     1      -3.174   9.349 -39.488  1.00  0.00     0.000 C 
BRANCH   9  10
ATOM     10  C   UNL     1      -4.440   8.914 -38.726  1.00  0.00    -0.000 C 
BRANCH  10  11
ATOM     11  C   UNL     1      -5.715   9.049 -39.574  1.00  0.00    -0.000 C 
BRANCH  11  12
ATOM     12  C   UNL     1      -6.779   7.998 -39.213  1.00  0.00    -0.000 C 
BRANCH  12  13
ATOM     13  C   UNL     1      -7.360   7.299 -40.453  1.00  0.00    -0.003 C 
ATOM     14  C   UNL     1      -7.708   5.834 -40.200  1.00  0.00     0.004 C 
ENDBRANCH  12  13
ENDBRANCH  11  12
ENDBRANCH  10  11
ENDBRANCH   9  10
ENDBRANCH   1   9
TORSDOF 10
ENDMDL
MODEL 6
REMARK VINA RESULT:    -5.503      3.006      5.300
REMARK INTER + INTRA:          -9.274
REMARK INTER:                  -8.902
REMARK INTRA:                  -0.372
REMARK UNBOUND:                -0.555
REMARK SMILES CCCCCCCCCCCC(=O)[O-]
REMARK SMILES IDX 7 1 8 2 9 3 10 4 11 5 12 6 13 7 14 8 6 9 5 10 4 11 3 12 2 13
REMARK SMILES IDX 1 14
REMARK H PARENT
REMARK Flexibility Score: inf
ROOT
ATOM      1  C   UNL     1      -0.909   8.722 -38.707  1.00  0.00     0.000 C 
ENDROOT
BRANCH   1   2
ATOM      2  C   UNL     1      -2.112   9.676 -38.612  1.00  0.00     0.000 C 
BRANCH   2   3
ATOM      3  C   UNL     1      -3.235   9.311 -39.597  1.00  0.00     0.000 C 
BRANCH   3   4
ATOM      4  C   UNL     1      -4.563   8.986 -38.892  1.00  0.00     0.006 C 
BRANCH   4   5
ATOM      5  C   UNL     1      -5.779   9.350 -39.753  1.00  0.00     0.053 C 
BRANCH   5   6
ATOM      6  C   UNL     1      -6.993   8.562 -39.365  1.00  0.00     0.041 C 
ATOM      7  O   UNL     1      -7.271   7.491 -39.965  1.00  0.00    -0.550 OA
ATOM      8  O   UNL     1      -7.800   8.994 -38.320  1.00  0.00    -0.550 OA
ENDBRANCH   5   6
ENDBRANCH   4   5
ENDBRANCH   3   4
ENDBRANCH   2   3
ENDBRANCH   1   2
BRANCH   1   9
ATOM      9  C   UNL     1      -1.143   7.573 -39.703  1.00  0.00     0.000 C 
BRANCH   9  10
ATOM     10  C   UNL     1      -0.227   7.664 -40.937  1.00  0.00    -0.000 C 
BRANCH  10  11
ATOM     11  C   UNL     1       0.233   6.284 -41.433  1.00  0.00    -0.000 C 
BRANCH  11  12
ATOM     12  C   UNL     1       1.635   6.321 -42.067  1.00  0.00    -0.000 C 
BRANCH  12  13
ATOM     13  C   UNL     1       2.443   5.044 -41.783  1.00  0.00    -0.003 C 
ATOM     14  C   UNL     1       3.882   5.333 -41.363  1.00  0.00     0.004 C 
ENDBRANCH  12  13
ENDBRANCH  11  12
ENDBRANCH  10  11
ENDBRANCH   9  10
ENDBRANCH   1   9
TORSDOF 10
ENDMDL
MODEL 7
REMARK VINA RESULT:    -5.490      3.175      5.219
REMARK INTER + INTRA:          -9.255
REMARK INTER:                  -8.928
REMARK INTRA:                  -0.327
REMARK UNBOUND:                -0.555
REMARK SMILES CCCCCCCCCCCC(=O)[O-]
REMARK SMILES IDX 7 1 8 2 9 3 10 4 11 5 12 6 13 7 14 8 6 9 5 10 4 11 3 12 2 13
REMARK SMILES IDX 1 14
REMARK H PARENT
REMARK Flexibility Score: inf
ROOT
ATOM      1  C   UNL     1      -4.678   8.883 -38.985  1.00  0.00     0.000 C 
ENDROOT
BRANCH   1   2
ATOM      2  C   UNL     1      -6.034   9.269 -39.602  1.00  0.00     0.000 C 
BRANCH   2   3
ATOM      3  C   UNL     1      -7.119   8.209 -39.354  1.00  0.00     0.000 C 
BRANCH   3   4
ATOM      4  C   UNL     1      -7.269   7.225 -40.526  1.00  0.00     0.006 C 
BRANCH   4   5
ATOM      5  C   UNL     1      -7.777   5.851 -40.068  1.00  0.00     0.053 C 
BRANCH   5   6
ATOM      6  C   UNL     1      -8.145   4.976 -41.227  1.00  0.00     0.041 C 
ATOM      7  O   UNL     1      -7.784   5.285 -42.393  1.00  0.00    -0.550 OA
ATOM      8  O   UNL     1      -8.859   3.804 -41.016  1.00  0.00    -0.550 OA
ENDBRANCH   5   6
ENDBRANCH   4   5
ENDBRANCH   3   4
ENDBRANCH   2   3
ENDBRANCH   1   2
BRANCH   1   9
ATOM      9  C   UNL     1      -3.486   9.387 -39.817  1.00  0.00     0.000 C 
BRANCH   9  10
ATOM     10  C   UNL     1      -2.142   9.216 -39.086  1.00  0.00    -0.000 C 
BRANCH  10  11
ATOM     11  C   UNL     1      -1.479   7.860 -39.378  1.00  0.00    -0.000 C 
BRANCH  11  12
ATOM     12  C   UNL     1      -0.559   7.904 -40.610  1.00  0.00    -0.000 C 
BRANCH  12  13
ATOM     13  C   UNL     1      -0.022   6.516 -40.994  1.00  0.00    -0.003 C 
ATOM     14  C   UNL     1       0.869   6.546 -42.234  1.00  0.00     0.004 C 
ENDBRANCH  12  13
ENDBRANCH  11  12
ENDBRANCH  10  11
ENDBRANCH   9  10
ENDBRANCH   1   9
TORSDOF 10
ENDMDL
MODEL 8
REMARK VINA RESULT:    -5.407      3.677      7.472
REMARK INTER + INTRA:          -9.123
REMARK INTER:                  -8.729
REMARK INTRA:                  -0.393
REMARK UNBOUND:                -0.555
REMARK SMILES CCCCCCCCCCCC(=O)[O-]
REMARK SMILES IDX 7 1 8 2 9 3 10 4 11 5 12 6 13 7 14 8 6 9 5 10 4 11 3 12 2 13
REMARK SMILES IDX 1 14
REMARK H PARENT
REMARK Flexibility Score: inf
ROOT
ATOM      1  C   UNL     1      -4.072   8.688 -38.948  1.00  0.00     0.000 C 
ENDROOT
BRANCH   1   2
ATOM      2  C   UNL     1      -2.769   9.169 -39.609  1.00  0.00     0.000 C 
BRANCH   2   3
ATOM      3  C   UNL     1      -1.519   8.523 -38.988  1.00  0.00     0.000 C 
BRANCH   3   4
ATOM      4  C   UNL     1      -0.508   9.561 -38.472  1.00  0.00     0.006 C 
BRANCH   4   5
ATOM      5  C   UNL     1      -1.172  10.907 -38.151  1.00  0.00     0.053 C 
BRANCH   5   6
ATOM      6  C   UNL     1      -0.208  11.871 -37.530  1.00  0.00     0.041 C 
ATOM      7  O   UNL     1       0.987  11.913 -37.922  1.00  0.00    -0.550 OA
ATOM      8  O   UNL     1      -0.639  12.746 -36.540  1.00  0.00    -0.550 OA
ENDBRANCH   5   6
ENDBRANCH   4   5
ENDBRANCH   3   4
ENDBRANCH   2   3
ENDBRANCH   1   2
BRANCH   1   9
ATOM      9  C   UNL     1      -5.320   9.359 -39.547  1.00  0.00     0.000 C 
BRANCH   9  10
ATOM     10  C   UNL     1      -6.627   8.668 -39.117  1.00  0.00    -0.000 C 
BRANCH  10  11
ATOM     11  C   UNL     1      -7.115   7.637 -40.148  1.00  0.00    -0.000 C 
BRANCH  11  12
ATOM     12  C   UNL     1      -7.761   6.404 -39.491  1.00  0.00    -0.000 C 
BRANCH  12  13
ATOM     13  C   UNL     1      -8.033   5.275 -40.498  1.00  0.00    -0.003 C 
ATOM     14  C   UNL     1      -7.721   5.677 -41.938  1.00  0.00     0.004 C 
ENDBRANCH  12  13
ENDBRANCH  11  12
ENDBRANCH  10  11
ENDBRANCH   9  10
ENDBRANCH   1   9
TORSDOF 10
ENDMDL
MODEL 9
REMARK VINA RESULT:    -4.607      3.662      4.556
REMARK INTER + INTRA:          -7.855
REMARK INTER:                  -6.983
REMARK INTRA:                  -0.872
REMARK UNBOUND:                -0.555
REMARK SMILES CCCCCCCCCCCC(=O)[O-]
REMARK SMILES IDX 7 1 8 2 9 3 10 4 11 5 12 6 13 7 14 8 6 9 5 10 4 11 3 12 2 13
REMARK SMILES IDX 1 14
REMARK H PARENT
REMARK Flexibility Score: inf
ROOT
ATOM      1  C   UNL     1      -0.837   9.819 -37.991  1.00  0.00     0.000 C 
ENDROOT
BRANCH   1   2
ATOM      2  C   UNL     1      -1.876   9.794 -39.126  1.00  0.00     0.000 C 
BRANCH   2   3
ATOM      3  C   UNL     1      -2.149   8.373 -39.645  1.00  0.00     0.000 C 
BRANCH   3   4
ATOM      4  C   UNL     1      -0.871   7.524 -39.755  1.00  0.00     0.006 C 
BRANCH   4   5
ATOM      5  C   UNL     1      -0.302   7.515 -41.180  1.00  0.00     0.053 C 
BRANCH   5   6
ATOM      6  C   UNL     1       0.451   6.253 -41.472  1.00  0.00     0.041 C 
ATOM      7  O   UNL     1       0.030   5.149 -41.039  1.00  0.00    -0.550 OA
ATOM      8  O   UNL     1       1.601   6.292 -42.250  1.00  0.00    -0.550 OA
ENDBRANCH   5   6
ENDBRANCH   4   5
ENDBRANCH   3   4
ENDBRANCH   2   3
ENDBRANCH   1   2
BRANCH   1   9
ATOM      9  C   UNL     1       0.477  10.502 -38.408  1.00  0.00     0.000 C 
BRANCH   9  10
ATOM     10  C   UNL     1       0.717  11.827 -37.662  1.00  0.00    -0.000 C 
BRANCH  10  11
ATOM     11  C   UNL     1       0.044  13.023 -38.353  1.00  0.00    -0.000 C 
BRANCH  11  12
ATOM     12  C   UNL     1      -1.191  13.531 -37.588  1.00  0.00    -0.000 C 
BRANCH  12  13
ATOM     13  C   UNL     1      -1.152  13.160 -36.097  1.00  0.00    -0.003 C 
ATOM     14  C   UNL     1      -2.341  12.302 -35.667  1.00  0.00     0.004 C 
ENDBRANCH  12  13
ENDBRANCH  11  12
ENDBRANCH  10  11
ENDBRANCH   9  10
ENDBRANCH   1   9
TORSDOF 10
ENDMDL
