MODEL 1
REMARK VINA RESULT:    -5.894      0.000      0.000
REMARK INTER + INTRA:          -6.066
REMARK INTER:                  -6.066
REMARK INTRA:                   0.000
REMARK UNBOUND:                 0.000
REMARK SMILES O=c1ccc2ccc(O)cc2o1
REMARK SMILES IDX 6 1 7 2 8 3 10 4 11 5 5 6 4 7 3 8 2 9 1 10 12 11 9 12
REMARK H PARENT 9 13
REMARK Flexibility Score: inf
ROOT
ATOM      1  C   UNL     1      69.969  49.996   4.875  1.00  0.00     0.016 A 
ATOM      2  C   UNL     1      69.872  50.463   3.560  1.00  0.00     0.047 A 
ATOM      3  C   UNL     1      70.532  49.795   2.521  1.00  0.00     0.119 A 
ATOM      4  C   UNL     1      71.297  48.652   2.799  1.00  0.00     0.094 A 
ATOM      5  C   UNL     1      71.400  48.178   4.111  1.00  0.00     0.142 A 
ATOM      6  C   UNL     1      70.731  48.854   5.156  1.00  0.00     0.018 A 
ATOM      7  C   UNL     1      70.853  48.356   6.457  1.00  0.00     0.019 A 
ATOM      8  C   UNL     1      71.624  47.217   6.685  1.00  0.00     0.094 A 
ATOM      9  C   UNL     1      72.258  46.599   5.600  1.00  0.00     0.336 A 
ATOM     10  O   UNL     1      72.958  45.570   5.785  1.00  0.00    -0.246 OA
ATOM     11  O   UNL     1      72.126  47.094   4.372  1.00  0.00    -0.423 OA
ENDROOT
BRANCH   3  12
ATOM     12  O   UNL     1      70.423  50.276   1.219  1.00  0.00    -0.508 OA
ATOM     13  H   UNL     1      70.462  51.268   1.016  1.00  0.00     0.293 HD
ENDBRANCH   3  12
TORSDOF 1
ENDMDL
MODEL 2
REMARK VINA RESULT:    -5.520      2.196      2.885
REMARK INTER + INTRA:          -5.681
REMARK INTER:                  -5.681
REMARK INTRA:                   0.000
REMARK UNBOUND:                 0.000
REMARK SMILES O=c1ccc2ccc(O)cc2o1
REMARK SMILES IDX 6 1 7 2 8 3 10 4 11 5 5 6 4 7 3 8 2 9 1 10 12 11 9 12
REMARK H PARENT 9 13
REMARK Flexibility Score: inf
ROOT
ATOM      1  C   UNL     1      71.837  48.001   4.184  1.00  0.00     0.016 A 
ATOM      2  C   UNL     1      71.523  48.696   3.011  1.00  0.00     0.047 A 
ATOM      3  C   UNL     1      70.564  49.716   3.029  1.00  0.00     0.119 A 
ATOM      4  C   UNL     1      69.912  50.043   4.227  1.00  0.00     0.094 A 
ATOM      5  C   UNL     1      70.219  49.352   5.404  1.00  0.00     0.142 A 
ATOM      6  C   UNL     1      71.189  48.325   5.383  1.00  0.00     0.018 A 
ATOM      7  C   UNL     1      71.474  47.653   6.576  1.00  0.00     0.019 A 
ATOM      8  C   UNL     1      70.801  48.014   7.742  1.00  0.00     0.094 A 
ATOM      9  C   UNL     1      69.853  49.043   7.688  1.00  0.00     0.336 A 
ATOM     10  O   UNL     1      69.235  49.382   8.731  1.00  0.00    -0.246 OA
ATOM     11  O   UNL     1      69.599  49.665   6.540  1.00  0.00    -0.423 OA
ENDROOT
BRANCH   3  12
ATOM     12  O   UNL     1      70.266  50.396   1.850  1.00  0.00    -0.508 OA
ATOM     13  H   UNL     1      69.562  51.125   1.824  1.00  0.00     0.293 HD
ENDBRANCH   3  12
TORSDOF 1
ENDMDL
MODEL 3
REMARK VINA RESULT:    -5.444      2.690      4.586
REMARK INTER + INTRA:          -5.603
REMARK INTER:                  -5.603
REMARK INTRA:                   0.000
REMARK UNBOUND:                 0.000
REMARK SMILES O=c1ccc2ccc(O)cc2o1
REMARK SMILES IDX 6 1 7 2 8 3 10 4 11 5 5 6 4 7 3 8 2 9 1 10 12 11 9 12
REMARK H PARENT 9 13
REMARK Flexibility Score: inf
ROOT
ATOM      1  C   UNL     1      73.269  48.759   8.179  1.00  0.00     0.016 A 
ATOM      2  C   UNL     1      72.389  49.242   9.155  1.00  0.00     0.047 A 
ATOM      3  C   UNL     1      71.049  49.493   8.836  1.00  0.00     0.119 A 
ATOM      4  C   UNL     1      70.584  49.260   7.533  1.00  0.00     0.094 A 
ATOM      5  C   UNL     1      71.456  48.778   6.552  1.00  0.00     0.142 A 
ATOM      6  C   UNL     1      72.807  48.524   6.877  1.00  0.00     0.018 A 
ATOM      7  C   UNL     1      73.655  48.042   5.875  1.00  0.00     0.019 A 
ATOM      8  C   UNL     1      73.147  47.826   4.595  1.00  0.00     0.094 A 
ATOM      9  C   UNL     1      71.797  48.099   4.345  1.00  0.00     0.336 A 
ATOM     10  O   UNL     1      71.320  47.911   3.196  1.00  0.00    -0.246 OA
ATOM     11  O   UNL     1      71.012  48.558   5.317  1.00  0.00    -0.423 OA
ENDROOT
BRANCH   3  12
ATOM     12  O   UNL     1      70.189  49.973   9.821  1.00  0.00    -0.508 OA
ATOM     13  H   UNL     1      69.704  49.346  10.452  1.00  0.00     0.293 HD
ENDBRANCH   3  12
TORSDOF 1
ENDMDL
MODEL 4
REMARK VINA RESULT:    -5.436      2.142      4.621
REMARK INTER + INTRA:          -5.595
REMARK INTER:                  -5.595
REMARK INTRA:                   0.000
REMARK UNBOUND:                 0.000
REMARK SMILES O=c1ccc2ccc(O)cc2o1
REMARK SMILES IDX 6 1 7 2 8 3 10 4 11 5 5 6 4 7 3 8 2 9 1 10 12 11 9 12
REMARK H PARENT 9 13
REMARK Flexibility Score: inf
ROOT
ATOM      1  C   UNL     1      71.625  49.412   8.316  1.00  0.00     0.016 A 
ATOM      2  C   UNL     1      72.758  48.870   8.932  1.00  0.00     0.047 A 
ATOM      3  C   UNL     1      73.672  48.113   8.190  1.00  0.00     0.119 A 
ATOM      4  C   UNL     1      73.452  47.894   6.822  1.00  0.00     0.094 A 
ATOM      5  C   UNL     1      72.321  48.431   6.199  1.00  0.00     0.142 A 
ATOM      6  C   UNL     1      71.402  49.196   6.950  1.00  0.00     0.018 A 
ATOM      7  C   UNL     1      70.281  49.721   6.299  1.00  0.00     0.019 A 
ATOM      8  C   UNL     1      70.104  49.476   4.937  1.00  0.00     0.094 A 
ATOM      9  C   UNL     1      71.057  48.709   4.256  1.00  0.00     0.336 A 
ATOM     10  O   UNL     1      70.914  48.478   3.028  1.00  0.00    -0.246 OA
ATOM     11  O   UNL     1      72.114  48.222   4.900  1.00  0.00    -0.423 OA
ENDROOT
BRANCH   3  12
ATOM     12  O   UNL     1      74.795  47.582   8.821  1.00  0.00    -0.508 OA
ATOM     13  H   UNL     1      74.765  47.281   9.789  1.00  0.00     0.293 HD
ENDBRANCH   3  12
TORSDOF 1
ENDMDL
MODEL 5
REMARK VINA RESULT:    -5.333      0.904      4.244
REMARK INTER + INTRA:          -5.489
REMARK INTER:                  -5.489
REMARK INTRA:                   0.000
REMARK UNBOUND:                 0.000
REMARK SMILES O=c1ccc2ccc(O)cc2o1
REMARK SMILES IDX 6 1 7 2 8 3 10 4 11 5 5 6 4 7 3 8 2 9 1 10 12 11 9 12
REMARK H PARENT 9 13
REMARK Flexibility Score: inf
ROOT
ATOM      1  C   UNL     1      71.245  48.128   6.683  1.00  0.00     0.016 A 
ATOM      2  C   UNL     1      72.224  47.148   6.882  1.00  0.00     0.047 A 
ATOM      3  C   UNL     1      72.990  46.685   5.805  1.00  0.00     0.119 A 
ATOM      4  C   UNL     1      72.775  47.205   4.520  1.00  0.00     0.094 A 
ATOM      5  C   UNL     1      71.799  48.184   4.312  1.00  0.00     0.142 A 
ATOM      6  C   UNL     1      71.029  48.650   5.401  1.00  0.00     0.018 A 
ATOM      7  C   UNL     1      70.060  49.629   5.162  1.00  0.00     0.019 A 
ATOM      8  C   UNL     1      69.883  50.116   3.867  1.00  0.00     0.094 A 
ATOM      9  C   UNL     1      70.683  49.608   2.836  1.00  0.00     0.336 A 
ATOM     10  O   UNL     1      70.539  50.034   1.661  1.00  0.00    -0.246 OA
ATOM     11  O   UNL     1      71.598  48.675   3.091  1.00  0.00    -0.423 OA
ENDROOT
BRANCH   3  12
ATOM     12  O   UNL     1      73.959  45.710   6.023  1.00  0.00    -0.508 OA
ATOM     13  H   UNL     1      74.287  45.112   5.273  1.00  0.00     0.293 HD
ENDBRANCH   3  12
TORSDOF 1
ENDMDL
MODEL 6
REMARK VINA RESULT:    -5.288      2.812      3.793
REMARK INTER + INTRA:          -5.442
REMARK INTER:                  -5.442
REMARK INTRA:                   0.000
REMARK UNBOUND:                 0.000
REMARK SMILES O=c1ccc2ccc(O)cc2o1
REMARK SMILES IDX 6 1 7 2 8 3 10 4 11 5 5 6 4 7 3 8 2 9 1 10 12 11 9 12
REMARK H PARENT 9 13
REMARK Flexibility Score: inf
ROOT
ATOM      1  C   UNL     1      73.635  47.974   5.767  1.00  0.00     0.016 A 
ATOM      2  C   UNL     1      73.068  47.721   4.513  1.00  0.00     0.047 A 
ATOM      3  C   UNL     1      71.715  47.999   4.281  1.00  0.00     0.119 A 
ATOM      4  C   UNL     1      70.924  48.533   5.309  1.00  0.00     0.094 A 
ATOM      5  C   UNL     1      71.483  48.788   6.565  1.00  0.00     0.142 A 
ATOM      6  C   UNL     1      72.848  48.507   6.796  1.00  0.00     0.018 A 
ATOM      7  C   UNL     1      73.378  48.773   8.062  1.00  0.00     0.019 A 
ATOM      8  C   UNL     1      72.552  49.304   9.052  1.00  0.00     0.094 A 
ATOM      9  C   UNL     1      71.208  49.557   8.752  1.00  0.00     0.336 A 
ATOM     10  O   UNL     1      70.447  50.035   9.632  1.00  0.00    -0.246 OA
ATOM     11  O   UNL     1      70.729  49.294   7.539  1.00  0.00    -0.423 OA
ENDROOT
BRANCH   3  12
ATOM     12  O   UNL     1      71.169  47.741   3.026  1.00  0.00    -0.508 OA
ATOM     13  H   UNL     1      71.544  48.169   2.187  1.00  0.00     0.293 HD
ENDBRANCH   3  12
TORSDOF 1
ENDMDL
MODEL 7
REMARK VINA RESULT:    -5.040      2.195      2.755
REMARK INTER + INTRA:          -5.188
REMARK INTER:                  -5.188
REMARK INTRA:                   0.000
REMARK UNBOUND:                 0.000
REMARK SMILES O=c1ccc2ccc(O)cc2o1
REMARK SMILES IDX 6 1 7 2 8 3 10 4 11 5 5 6 4 7 3 8 2 9 1 10 12 11 9 12
REMARK H PARENT 9 13
REMARK Flexibility Score: inf
ROOT
ATOM      1  C   UNL     1      70.219  50.007   6.080  1.00  0.00     0.016 A 
ATOM      2  C   UNL     1      70.198  49.574   4.750  1.00  0.00     0.047 A 
ATOM      3  C   UNL     1      71.032  48.530   4.333  1.00  0.00     0.119 A 
ATOM      4  C   UNL     1      71.894  47.914   5.251  1.00  0.00     0.094 A 
ATOM      5  C   UNL     1      71.923  48.341   6.583  1.00  0.00     0.142 A 
ATOM      6  C   UNL     1      71.078  49.394   7.001  1.00  0.00     0.018 A 
ATOM      7  C   UNL     1      71.129  49.798   8.338  1.00  0.00     0.019 A 
ATOM      8  C   UNL     1      72.002  49.155   9.215  1.00  0.00     0.094 A 
ATOM      9  C   UNL     1      72.809  48.119   8.730  1.00  0.00     0.336 A 
ATOM     10  O   UNL     1      73.604  47.527   9.506  1.00  0.00    -0.246 OA
ATOM     11  O   UNL     1      72.742  47.754   7.453  1.00  0.00    -0.423 OA
ENDROOT
BRANCH   3  12
ATOM     12  O   UNL     1      70.996  48.114   3.004  1.00  0.00    -0.508 OA
ATOM     13  H   UNL     1      70.238  47.541   2.649  1.00  0.00     0.293 HD
ENDBRANCH   3  12
TORSDOF 1
ENDMDL
MODEL 8
REMARK VINA RESULT:    -4.966      2.490      5.108
REMARK INTER + INTRA:          -5.112
REMARK INTER:                  -5.112
REMARK INTRA:                   0.000
REMARK UNBOUND:                 0.000
REMARK SMILES O=c1ccc2ccc(O)cc2o1
REMARK SMILES IDX 6 1 7 2 8 3 10 4 11 5 5 6 4 7 3 8 2 9 1 10 12 11 9 12
REMARK H PARENT 9 13
REMARK Flexibility Score: inf
ROOT
ATOM      1  C   UNL     1      73.733  47.367   6.550  1.00  0.00     0.016 A 
ATOM      2  C   UNL     1      73.929  47.541   7.924  1.00  0.00     0.047 A 
ATOM      3  C   UNL     1      73.066  48.359   8.663  1.00  0.00     0.119 A 
ATOM      4  C   UNL     1      72.000  49.009   8.024  1.00  0.00     0.094 A 
ATOM      5  C   UNL     1      71.798  48.841   6.650  1.00  0.00     0.142 A 
ATOM      6  C   UNL     1      72.669  48.014   5.908  1.00  0.00     0.018 A 
ATOM      7  C   UNL     1      72.441  47.865   4.537  1.00  0.00     0.019 A 
ATOM      8  C   UNL     1      71.368  48.532   3.945  1.00  0.00     0.094 A 
ATOM      9  C   UNL     1      70.546  49.335   4.743  1.00  0.00     0.336 A 
ATOM     10  O   UNL     1      69.573  49.944   4.228  1.00  0.00    -0.246 OA
ATOM     11  O   UNL     1      70.785  49.459   6.046  1.00  0.00    -0.423 OA
ENDROOT
BRANCH   3  12
ATOM     12  O   UNL     1      73.277  48.519  10.031  1.00  0.00    -0.508 OA
ATOM     13  H   UNL     1      72.839  47.906  10.709  1.00  0.00     0.293 HD
ENDBRANCH   3  12
TORSDOF 1
ENDMDL
MODEL 9
REMARK VINA RESULT:    -4.893      2.800      3.772
REMARK INTER + INTRA:          -5.036
REMARK INTER:                  -5.036
REMARK INTRA:                   0.000
REMARK UNBOUND:                 0.000
REMARK SMILES O=c1ccc2ccc(O)cc2o1
REMARK SMILES IDX 6 1 7 2 8 3 10 4 11 5 5 6 4 7 3 8 2 9 1 10 12 11 9 12
REMARK H PARENT 9 13
REMARK Flexibility Score: inf
ROOT
ATOM      1  C   UNL     1      72.277  48.096   4.823  1.00  0.00     0.016 A 
ATOM      2  C   UNL     1      72.132  47.213   3.747  1.00  0.00     0.047 A 
ATOM      3  C   UNL     1      72.670  45.922   3.815  1.00  0.00     0.119 A 
ATOM      4  C   UNL     1      73.358  45.510   4.966  1.00  0.00     0.094 A 
ATOM      5  C   UNL     1      73.508  46.386   6.046  1.00  0.00     0.142 A 
ATOM      6  C   UNL     1      72.963  47.688   5.975  1.00  0.00     0.018 A 
ATOM      7  C   UNL     1      73.128  48.541   7.070  1.00  0.00     0.019 A 
ATOM      8  C   UNL     1      73.820  48.087   8.193  1.00  0.00     0.094 A 
ATOM      9  C   UNL     1      74.333  46.784   8.193  1.00  0.00     0.336 A 
ATOM     10  O   UNL     1      74.960  46.356   9.196  1.00  0.00    -0.246 OA
ATOM     11  O   UNL     1      74.162  45.993   7.137  1.00  0.00    -0.423 OA
ENDROOT
BRANCH   3  12
ATOM     12  O   UNL     1      72.515  45.058   2.734  1.00  0.00    -0.508 OA
ATOM     13  H   UNL     1      71.756  45.169   2.072  1.00  0.00     0.293 HD
ENDBRANCH   3  12
TORSDOF 1
ENDMDL
