MODEL 1
REMARK VINA RESULT:    -5.819      0.000      0.000
REMARK INTER + INTRA:         -15.461
REMARK INTER:                 -12.622
REMARK INTRA:                  -2.839
REMARK UNBOUND:                -2.839
REMARK SMILES CCCCCCCCCCCCCCCCCCCCCC(=O)[O-]
REMARK SMILES IDX 12 1 11 2 10 3 9 4 8 5 7 6 6 7 5 8 4 9 3 10 2 11 1 12 13 13
REMARK SMILES IDX 14 14 15 15 16 16 17 17 18 18 19 19 20 20 21 21 22 22 23 23
REMARK SMILES IDX 24 24
REMARK H PARENT
REMARK Flexibility Score: inf
ROOT
ATOM      1  C   UNL     1      -9.663  -2.500  -7.785  1.00  0.00     0.000 C 
ENDROOT
BRANCH   1   2
ATOM      2  C   UNL     1      -9.106  -3.926  -7.643  1.00  0.00     0.000 C 
BRANCH   2   3
ATOM      3  C   UNL     1      -9.303  -4.777  -8.911  1.00  0.00     0.000 C 
BRANCH   3   4
ATOM      4  C   UNL     1     -10.052  -6.108  -8.701  1.00  0.00    -0.000 C 
BRANCH   4   5
ATOM      5  C   UNL     1     -11.471  -6.167  -9.300  1.00  0.00    -0.000 C 
BRANCH   5   6
ATOM      6  C   UNL     1     -12.396  -5.009  -8.883  1.00  0.00    -0.000 C 
BRANCH   6   7
ATOM      7  C   UNL     1     -13.879  -5.415  -8.850  1.00  0.00    -0.000 C 
BRANCH   7   8
ATOM      8  C   UNL     1     -14.133  -6.629  -7.943  1.00  0.00    -0.000 C 
BRANCH   8   9
ATOM      9  C   UNL     1     -14.056  -6.273  -6.449  1.00  0.00    -0.000 C 
BRANCH   9  10
ATOM     10  C   UNL     1     -13.234  -7.290  -5.635  1.00  0.00    -0.000 C 
BRANCH  10  11
ATOM     11  C   UNL     1     -11.721  -7.009  -5.596  1.00  0.00    -0.003 C 
ATOM     12  C   UNL     1     -11.390  -5.565  -5.221  1.00  0.00     0.004 C 
ENDBRANCH  10  11
ENDBRANCH   9  10
ENDBRANCH   8   9
ENDBRANCH   7   8
ENDBRANCH   6   7
ENDBRANCH   5   6
ENDBRANCH   4   5
ENDBRANCH   3   4
ENDBRANCH   2   3
ENDBRANCH   1   2
BRANCH   1  13
ATOM     13  C   UNL     1     -10.089  -2.166  -9.226  1.00  0.00     0.000 C 
BRANCH  13  14
ATOM     14  C   UNL     1     -10.574  -0.721  -9.445  1.00  0.00     0.000 C 
BRANCH  14  15
ATOM     15  C   UNL     1     -11.565  -0.595 -10.615  1.00  0.00     0.000 C 
BRANCH  15  16
ATOM     16  C   UNL     1     -12.626  -1.708 -10.606  1.00  0.00     0.000 C 
BRANCH  16  17
ATOM     17  C   UNL     1     -14.008  -1.196 -10.166  1.00  0.00     0.000 C 
BRANCH  17  18
ATOM     18  C   UNL     1     -14.179   0.312 -10.407  1.00  0.00     0.000 C 
BRANCH  18  19
ATOM     19  C   UNL     1     -14.560   1.072  -9.127  1.00  0.00     0.000 C 
BRANCH  19  20
ATOM     20  C   UNL     1     -14.109   2.535  -9.201  1.00  0.00     0.006 C 
BRANCH  20  21
ATOM     21  C   UNL     1     -12.587   2.635  -9.338  1.00  0.00     0.053 C 
BRANCH  21  22
ATOM     22  C   UNL     1     -12.075   3.851  -8.632  1.00  0.00     0.041 C 
ATOM     23  O   UNL     1     -10.959   3.824  -8.051  1.00  0.00    -0.550 OA
ATOM     24  O   UNL     1     -12.813   5.027  -8.651  1.00  0.00    -0.550 OA
ENDBRANCH  21  22
ENDBRANCH  20  21
ENDBRANCH  19  20
ENDBRANCH  18  19
ENDBRANCH  17  18
ENDBRANCH  16  17
ENDBRANCH  15  16
ENDBRANCH  14  15
ENDBRANCH  13  14
ENDBRANCH   1  13
TORSDOF 20
ENDMDL
MODEL 2
REMARK VINA RESULT:    -5.203      0.948      2.123
REMARK INTER + INTRA:         -14.125
REMARK INTER:                 -12.269
REMARK INTRA:                  -1.856
REMARK UNBOUND:                -2.839
REMARK SMILES CCCCCCCCCCCCCCCCCCCCCC(=O)[O-]
REMARK SMILES IDX 12 1 11 2 10 3 9 4 8 5 7 6 6 7 5 8 4 9 3 10 2 11 1 12 13 13
REMARK SMILES IDX 14 14 15 15 16 16 17 17 18 18 19 19 20 20 21 21 22 22 23 23
REMARK SMILES IDX 24 24
REMARK H PARENT
REMARK Flexibility Score: inf
ROOT
ATOM      1  C   UNL     1      -9.502  -2.358  -7.868  1.00  0.00     0.000 C 
ENDROOT
BRANCH   1   2
ATOM      2  C   UNL     1      -8.455  -3.475  -8.006  1.00  0.00     0.000 C 
BRANCH   2   3
ATOM      3  C   UNL     1      -9.038  -4.778  -8.586  1.00  0.00     0.000 C 
BRANCH   3   4
ATOM      4  C   UNL     1     -10.221  -5.377  -7.799  1.00  0.00    -0.000 C 
BRANCH   4   5
ATOM      5  C   UNL     1      -9.881  -6.607  -6.935  1.00  0.00    -0.000 C 
BRANCH   5   6
ATOM      6  C   UNL     1     -10.780  -6.797  -5.699  1.00  0.00    -0.000 C 
BRANCH   6   7
ATOM      7  C   UNL     1     -11.964  -5.816  -5.669  1.00  0.00    -0.000 C 
BRANCH   7   8
ATOM      8  C   UNL     1     -13.312  -6.518  -5.893  1.00  0.00    -0.000 C 
BRANCH   8   9
ATOM      9  C   UNL     1     -13.837  -6.340  -7.328  1.00  0.00    -0.000 C 
BRANCH   9  10
ATOM     10  C   UNL     1     -13.581  -7.573  -8.214  1.00  0.00    -0.000 C 
BRANCH  10  11
ATOM     11  C   UNL     1     -12.605  -7.334  -9.381  1.00  0.00    -0.003 C 
ATOM     12  C   UNL     1     -13.036  -8.027 -10.673  1.00  0.00     0.004 C 
ENDBRANCH  10  11
ENDBRANCH   9  10
ENDBRANCH   8   9
ENDBRANCH   7   8
ENDBRANCH   6   7
ENDBRANCH   5   6
ENDBRANCH   4   5
ENDBRANCH   3   4
ENDBRANCH   2   3
ENDBRANCH   1   2
BRANCH   1  13
ATOM     13  C   UNL     1     -10.443  -2.267  -9.083  1.00  0.00     0.000 C 
BRANCH  13  14
ATOM     14  C   UNL     1     -10.568  -0.866  -9.709  1.00  0.00     0.000 C 
BRANCH  14  15
ATOM     15  C   UNL     1     -11.720  -0.767 -10.723  1.00  0.00     0.000 C 
BRANCH  15  16
ATOM     16  C   UNL     1     -12.724  -1.923 -10.585  1.00  0.00     0.000 C 
BRANCH  16  17
ATOM     17  C   UNL     1     -14.163  -1.426 -10.360  1.00  0.00     0.000 C 
BRANCH  17  18
ATOM     18  C   UNL     1     -14.301   0.089 -10.577  1.00  0.00     0.000 C 
BRANCH  18  19
ATOM     19  C   UNL     1     -14.536   0.851  -9.264  1.00  0.00     0.000 C 
BRANCH  19  20
ATOM     20  C   UNL     1     -14.075   2.308  -9.384  1.00  0.00     0.006 C 
BRANCH  20  21
ATOM     21  C   UNL     1     -12.556   2.419  -9.219  1.00  0.00     0.053 C 
BRANCH  21  22
ATOM     22  C   UNL     1     -12.182   3.773  -8.705  1.00  0.00     0.041 C 
ATOM     23  O   UNL     1     -10.973   4.064  -8.506  1.00  0.00    -0.550 OA
ATOM     24  O   UNL     1     -13.165   4.728  -8.484  1.00  0.00    -0.550 OA
ENDBRANCH  21  22
ENDBRANCH  20  21
ENDBRANCH  19  20
ENDBRANCH  18  19
ENDBRANCH  17  18
ENDBRANCH  16  17
ENDBRANCH  15  16
ENDBRANCH  14  15
ENDBRANCH  13  14
ENDBRANCH   1  13
TORSDOF 20
ENDMDL
MODEL 3
REMARK VINA RESULT:    -5.099      3.021      7.837
REMARK INTER + INTRA:         -13.900
REMARK INTER:                 -12.042
REMARK INTRA:                  -1.857
REMARK UNBOUND:                -2.839
REMARK SMILES CCCCCCCCCCCCCCCCCCCCCC(=O)[O-]
REMARK SMILES IDX 12 1 11 2 10 3 9 4 8 5 7 6 6 7 5 8 4 9 3 10 2 11 1 12 13 13
REMARK SMILES IDX 14 14 15 15 16 16 17 17 18 18 19 19 20 20 21 21 22 22 23 23
REMARK SMILES IDX 24 24
REMARK H PARENT
REMARK Flexibility Score: inf
ROOT
ATOM      1  C   UNL     1     -10.331  -2.297  -9.450  1.00  0.00     0.000 C 
ENDROOT
BRANCH   1   2
ATOM      2  C   UNL     1     -10.588  -0.805  -9.720  1.00  0.00     0.000 C 
BRANCH   2   3
ATOM      3  C   UNL     1     -11.703  -0.564 -10.754  1.00  0.00     0.000 C 
BRANCH   3   4
ATOM      4  C   UNL     1     -12.846  -1.600 -10.744  1.00  0.00    -0.000 C 
BRANCH   4   5
ATOM      5  C   UNL     1     -14.257  -1.025 -10.973  1.00  0.00    -0.000 C 
BRANCH   5   6
ATOM      6  C   UNL     1     -15.119  -0.903  -9.703  1.00  0.00    -0.000 C 
BRANCH   6   7
ATOM      7  C   UNL     1     -14.817   0.374  -8.901  1.00  0.00    -0.000 C 
BRANCH   7   8
ATOM      8  C   UNL     1     -14.378   1.540  -9.800  1.00  0.00    -0.000 C 
BRANCH   8   9
ATOM      9  C   UNL     1     -13.085   2.210  -9.304  1.00  0.00    -0.000 C 
BRANCH   9  10
ATOM     10  C   UNL     1     -13.255   3.720  -9.053  1.00  0.00    -0.000 C 
BRANCH  10  11
ATOM     11  C   UNL     1     -12.324   4.300  -7.972  1.00  0.00    -0.003 C 
ATOM     12  C   UNL     1     -10.857   3.929  -8.184  1.00  0.00     0.004 C 
ENDBRANCH  10  11
ENDBRANCH   9  10
ENDBRANCH   8   9
ENDBRANCH   7   8
ENDBRANCH   6   7
ENDBRANCH   5   6
ENDBRANCH   4   5
ENDBRANCH   3   4
ENDBRANCH   2   3
ENDBRANCH   1   2
BRANCH   1  13
ATOM     13  C   UNL     1      -9.870  -2.573  -8.007  1.00  0.00     0.000 C 
BRANCH  13  14
ATOM     14  C   UNL     1      -9.027  -3.847  -7.824  1.00  0.00     0.000 C 
BRANCH  14  15
ATOM     15  C   UNL     1      -9.734  -5.111  -8.343  1.00  0.00     0.000 C 
BRANCH  15  16
ATOM     16  C   UNL     1     -10.035  -6.116  -7.218  1.00  0.00     0.000 C 
BRANCH  16  17
ATOM     17  C   UNL     1     -10.303  -5.425  -5.871  1.00  0.00     0.000 C 
BRANCH  17  18
ATOM     18  C   UNL     1     -11.675  -5.795  -5.284  1.00  0.00     0.000 C 
BRANCH  18  19
ATOM     19  C   UNL     1     -12.421  -6.827  -6.142  1.00  0.00     0.000 C 
BRANCH  19  20
ATOM     20  C   UNL     1     -13.746  -6.256  -6.661  1.00  0.00     0.006 C 
BRANCH  20  21
ATOM     21  C   UNL     1     -14.121  -6.877  -8.010  1.00  0.00     0.053 C 
BRANCH  21  22
ATOM     22  C   UNL     1     -13.365  -6.216  -9.120  1.00  0.00     0.041 C 
ATOM     23  O   UNL     1     -13.028  -6.875 -10.137  1.00  0.00    -0.550 OA
ATOM     24  O   UNL     1     -13.070  -4.861  -9.048  1.00  0.00    -0.550 OA
ENDBRANCH  21  22
ENDBRANCH  20  21
ENDBRANCH  19  20
ENDBRANCH  18  19
ENDBRANCH  17  18
ENDBRANCH  16  17
ENDBRANCH  15  16
ENDBRANCH  14  15
ENDBRANCH  13  14
ENDBRANCH   1  13
TORSDOF 20
ENDMDL
MODEL 4
REMARK VINA RESULT:    -4.959      3.332      8.064
REMARK INTER + INTRA:         -13.595
REMARK INTER:                 -11.783
REMARK INTRA:                  -1.812
REMARK UNBOUND:                -2.839
REMARK SMILES CCCCCCCCCCCCCCCCCCCCCC(=O)[O-]
REMARK SMILES IDX 12 1 11 2 10 3 9 4 8 5 7 6 6 7 5 8 4 9 3 10 2 11 1 12 13 13
REMARK SMILES IDX 14 14 15 15 16 16 17 17 18 18 19 19 20 20 21 21 22 22 23 23
REMARK SMILES IDX 24 24
REMARK H PARENT
REMARK Flexibility Score: inf
ROOT
ATOM      1  C   UNL     1      -8.873  -3.738  -7.794  1.00  0.00     0.000 C 
ENDROOT
BRANCH   1   2
ATOM      2  C   UNL     1      -9.300  -3.887  -9.263  1.00  0.00     0.000 C 
BRANCH   2   3
ATOM      3  C   UNL     1      -9.853  -2.581  -9.864  1.00  0.00     0.000 C 
BRANCH   3   4
ATOM      4  C   UNL     1     -11.387  -2.519 -10.005  1.00  0.00    -0.000 C 
BRANCH   4   5
ATOM      5  C   UNL     1     -11.981  -1.101 -10.120  1.00  0.00    -0.000 C 
BRANCH   5   6
ATOM      6  C   UNL     1     -13.161  -0.973 -11.100  1.00  0.00    -0.000 C 
BRANCH   6   7
ATOM      7  C   UNL     1     -14.279  -0.060 -10.568  1.00  0.00    -0.000 C 
BRANCH   7   8
ATOM      8  C   UNL     1     -13.830   0.769  -9.355  1.00  0.00    -0.000 C 
BRANCH   8   9
ATOM      9  C   UNL     1     -13.537   2.235  -9.719  1.00  0.00    -0.000 C 
BRANCH   9  10
ATOM     10  C   UNL     1     -12.089   2.650  -9.400  1.00  0.00    -0.000 C 
BRANCH  10  11
ATOM     11  C   UNL     1     -11.956   3.965  -8.610  1.00  0.00    -0.003 C 
ATOM     12  C   UNL     1     -13.195   4.290  -7.777  1.00  0.00     0.004 C 
ENDBRANCH  10  11
ENDBRANCH   9  10
ENDBRANCH   8   9
ENDBRANCH   7   8
ENDBRANCH   6   7
ENDBRANCH   5   6
ENDBRANCH   4   5
ENDBRANCH   3   4
ENDBRANCH   2   3
ENDBRANCH   1   2
BRANCH   1  13
ATOM     13  C   UNL     1     -10.010  -4.060  -6.806  1.00  0.00     0.000 C 
BRANCH  13  14
ATOM     14  C   UNL     1     -10.197  -5.555  -6.491  1.00  0.00     0.000 C 
BRANCH  14  15
ATOM     15  C   UNL     1     -11.155  -5.802  -5.313  1.00  0.00     0.000 C 
BRANCH  15  16
ATOM     16  C   UNL     1     -11.491  -7.292  -5.134  1.00  0.00     0.000 C 
BRANCH  16  17
ATOM     17  C   UNL     1     -12.835  -7.671  -5.778  1.00  0.00     0.000 C 
BRANCH  17  18
ATOM     18  C   UNL     1     -13.740  -6.450  -6.009  1.00  0.00     0.000 C 
BRANCH  18  19
ATOM     19  C   UNL     1     -14.428  -6.481  -7.382  1.00  0.00     0.000 C 
BRANCH  19  20
ATOM     20  C   UNL     1     -14.224  -7.837  -8.069  1.00  0.00     0.006 C 
BRANCH  20  21
ATOM     21  C   UNL     1     -13.596  -7.661  -9.455  1.00  0.00     0.053 C 
BRANCH  21  22
ATOM     22  C   UNL     1     -12.170  -7.224  -9.332  1.00  0.00     0.041 C 
ATOM     23  O   UNL     1     -11.842  -6.043  -9.616  1.00  0.00    -0.550 OA
ATOM     24  O   UNL     1     -11.210  -8.111  -8.864  1.00  0.00    -0.550 OA
ENDBRANCH  21  22
ENDBRANCH  20  21
ENDBRANCH  19  20
ENDBRANCH  18  19
ENDBRANCH  17  18
ENDBRANCH  16  17
ENDBRANCH  15  16
ENDBRANCH  14  15
ENDBRANCH  13  14
ENDBRANCH   1  13
TORSDOF 20
ENDMDL
MODEL 5
REMARK VINA RESULT:    -4.912      1.055      3.789
REMARK INTER + INTRA:         -13.493
REMARK INTER:                 -11.324
REMARK INTRA:                  -2.169
REMARK UNBOUND:                -2.839
REMARK SMILES CCCCCCCCCCCCCCCCCCCCCC(=O)[O-]
REMARK SMILES IDX 12 1 11 2 10 3 9 4 8 5 7 6 6 7 5 8 4 9 3 10 2 11 1 12 13 13
REMARK SMILES IDX 14 14 15 15 16 16 17 17 18 18 19 19 20 20 21 21 22 22 23 23
REMARK SMILES IDX 24 24
REMARK H PARENT
REMARK Flexibility Score: inf
ROOT
ATOM      1  C   UNL     1     -13.704  -4.797  -8.562  1.00  0.00     0.000 C 
ENDROOT
BRANCH   1   2
ATOM      2  C   UNL     1     -14.353  -5.960  -7.794  1.00  0.00     0.000 C 
BRANCH   2   3
ATOM      3  C   UNL     1     -13.650  -7.308  -8.036  1.00  0.00     0.000 C 
BRANCH   3   4
ATOM      4  C   UNL     1     -13.286  -8.099  -6.764  1.00  0.00    -0.000 C 
BRANCH   4   5
ATOM      5  C   UNL     1     -12.645  -7.270  -5.633  1.00  0.00    -0.000 C 
BRANCH   5   6
ATOM      6  C   UNL     1     -11.217  -7.697  -5.249  1.00  0.00    -0.000 C 
BRANCH   6   7
ATOM      7  C   UNL     1     -10.233  -7.609  -6.427  1.00  0.00    -0.000 C 
BRANCH   7   8
ATOM      8  C   UNL     1     -10.043  -6.168  -6.925  1.00  0.00    -0.000 C 
BRANCH   8   9
ATOM      9  C   UNL     1     -10.247  -6.039  -8.445  1.00  0.00    -0.000 C 
BRANCH   9  10
ATOM     10  C   UNL     1      -9.871  -4.645  -8.980  1.00  0.00    -0.000 C 
BRANCH  10  11
ATOM     11  C   UNL     1      -9.029  -3.791  -8.015  1.00  0.00    -0.003 C 
ATOM     12  C   UNL     1      -9.695  -2.464  -7.654  1.00  0.00     0.004 C 
ENDBRANCH  10  11
ENDBRANCH   9  10
ENDBRANCH   8   9
ENDBRANCH   7   8
ENDBRANCH   6   7
ENDBRANCH   5   6
ENDBRANCH   4   5
ENDBRANCH   3   4
ENDBRANCH   2   3
ENDBRANCH   1   2
BRANCH   1  13
ATOM     13  C   UNL     1     -14.543  -4.335  -9.767  1.00  0.00     0.000 C 
BRANCH  13  14
ATOM     14  C   UNL     1     -14.626  -2.810  -9.957  1.00  0.00     0.000 C 
BRANCH  14  15
ATOM     15  C   UNL     1     -13.576  -2.273 -10.946  1.00  0.00     0.000 C 
BRANCH  15  16
ATOM     16  C   UNL     1     -12.263  -1.882 -10.249  1.00  0.00     0.000 C 
BRANCH  16  17
ATOM     17  C   UNL     1     -11.733  -0.517 -10.721  1.00  0.00     0.000 C 
BRANCH  17  18
ATOM     18  C   UNL     1     -12.027   0.607  -9.715  1.00  0.00     0.000 C 
BRANCH  18  19
ATOM     19  C   UNL     1     -13.530   0.896  -9.580  1.00  0.00     0.000 C 
BRANCH  19  20
ATOM     20  C   UNL     1     -13.794   2.403  -9.482  1.00  0.00     0.006 C 
BRANCH  20  21
ATOM     21  C   UNL     1     -12.491   3.198  -9.616  1.00  0.00     0.053 C 
BRANCH  21  22
ATOM     22  C   UNL     1     -12.179   3.913  -8.339  1.00  0.00     0.041 C 
ATOM     23  O   UNL     1     -13.111   4.343  -7.610  1.00  0.00    -0.550 OA
ATOM     24  O   UNL     1     -10.861   4.067  -7.934  1.00  0.00    -0.550 OA
ENDBRANCH  21  22
ENDBRANCH  20  21
ENDBRANCH  19  20
ENDBRANCH  18  19
ENDBRANCH  17  18
ENDBRANCH  16  17
ENDBRANCH  15  16
ENDBRANCH  14  15
ENDBRANCH  13  14
ENDBRANCH   1  13
TORSDOF 20
ENDMDL
MODEL 6
REMARK VINA RESULT:    -4.598      3.620      7.986
REMARK INTER + INTRA:         -12.812
REMARK INTER:                 -11.117
REMARK INTRA:                  -1.695
REMARK UNBOUND:                -2.839
REMARK SMILES CCCCCCCCCCCCCCCCCCCCCC(=O)[O-]
REMARK SMILES IDX 12 1 11 2 10 3 9 4 8 5 7 6 6 7 5 8 4 9 3 10 2 11 1 12 13 13
REMARK SMILES IDX 14 14 15 15 16 16 17 17 18 18 19 19 20 20 21 21 22 22 23 23
REMARK SMILES IDX 24 24
REMARK H PARENT
REMARK Flexibility Score: inf
ROOT
ATOM      1  C   UNL     1      -9.894  -3.527  -6.901  1.00  0.00     0.000 C 
ENDROOT
BRANCH   1   2
ATOM      2  C   UNL     1      -9.508  -2.907  -8.254  1.00  0.00     0.000 C 
BRANCH   2   3
ATOM      3  C   UNL     1     -10.210  -1.562  -8.521  1.00  0.00     0.000 C 
BRANCH   3   4
ATOM      4  C   UNL     1     -10.260  -1.129 -10.000  1.00  0.00    -0.000 C 
BRANCH   4   5
ATOM      5  C   UNL     1     -11.496  -0.299 -10.401  1.00  0.00    -0.000 C 
BRANCH   5   6
ATOM      6  C   UNL     1     -12.796  -1.109 -10.552  1.00  0.00    -0.000 C 
BRANCH   6   7
ATOM      7  C   UNL     1     -14.046  -0.216 -10.641  1.00  0.00    -0.000 C 
BRANCH   7   8
ATOM      8  C   UNL     1     -14.724  -0.021  -9.276  1.00  0.00    -0.000 C 
BRANCH   8   9
ATOM      9  C   UNL     1     -14.936   1.463  -8.931  1.00  0.00    -0.000 C 
BRANCH   9  10
ATOM     10  C   UNL     1     -13.973   2.395  -9.690  1.00  0.00    -0.000 C 
BRANCH  10  11
ATOM     11  C   UNL     1     -12.683   2.746  -8.927  1.00  0.00    -0.003 C 
ATOM     12  C   UNL     1     -12.331   4.231  -8.997  1.00  0.00     0.004 C 
ENDBRANCH  10  11
ENDBRANCH   9  10
ENDBRANCH   8   9
ENDBRANCH   7   8
ENDBRANCH   6   7
ENDBRANCH   5   6
ENDBRANCH   4   5
ENDBRANCH   3   4
ENDBRANCH   2   3
ENDBRANCH   1   2
BRANCH   1  13
ATOM     13  C   UNL     1     -10.886  -4.697  -7.042  1.00  0.00     0.000 C 
BRANCH  13  14
ATOM     14  C   UNL     1     -10.839  -5.732  -5.904  1.00  0.00     0.000 C 
BRANCH  14  15
ATOM     15  C   UNL     1      -9.766  -6.813  -6.124  1.00  0.00     0.000 C 
BRANCH  15  16
ATOM     16  C   UNL     1     -10.328  -8.062  -6.823  1.00  0.00     0.000 C 
BRANCH  16  17
ATOM     17  C   UNL     1     -10.576  -7.833  -8.323  1.00  0.00     0.000 C 
BRANCH  17  18
ATOM     18  C   UNL     1     -12.031  -8.118  -8.729  1.00  0.00     0.000 C 
BRANCH  18  19
ATOM     19  C   UNL     1     -12.615  -7.019  -9.629  1.00  0.00     0.000 C 
BRANCH  19  20
ATOM     20  C   UNL     1     -14.050  -6.674  -9.215  1.00  0.00     0.006 C 
BRANCH  20  21
ATOM     21  C   UNL     1     -14.073  -5.948  -7.866  1.00  0.00     0.053 C 
BRANCH  21  22
ATOM     22  C   UNL     1     -14.748  -6.790  -6.830  1.00  0.00     0.041 C 
ATOM     23  O   UNL     1     -14.947  -8.015  -7.040  1.00  0.00    -0.550 OA
ATOM     24  O   UNL     1     -15.118  -6.231  -5.614  1.00  0.00    -0.550 OA
ENDBRANCH  21  22
ENDBRANCH  20  21
ENDBRANCH  19  20
ENDBRANCH  18  19
ENDBRANCH  17  18
ENDBRANCH  16  17
ENDBRANCH  15  16
ENDBRANCH  14  15
ENDBRANCH  13  14
ENDBRANCH   1  13
TORSDOF 20
ENDMDL
MODEL 7
REMARK VINA RESULT:    -4.570      3.143      8.007
REMARK INTER + INTRA:         -12.752
REMARK INTER:                 -11.012
REMARK INTRA:                  -1.740
REMARK UNBOUND:                -2.839
REMARK SMILES CCCCCCCCCCCCCCCCCCCCCC(=O)[O-]
REMARK SMILES IDX 12 1 11 2 10 3 9 4 8 5 7 6 6 7 5 8 4 9 3 10 2 11 1 12 13 13
REMARK SMILES IDX 14 14 15 15 16 16 17 17 18 18 19 19 20 20 21 21 22 22 23 23
REMARK SMILES IDX 24 24
REMARK H PARENT
REMARK Flexibility Score: inf
ROOT
ATOM      1  C   UNL     1     -13.391  -3.178 -10.189  1.00  0.00     0.000 C 
ENDROOT
BRANCH   1   2
ATOM      2  C   UNL     1     -12.209  -3.682  -9.344  1.00  0.00     0.000 C 
BRANCH   2   3
ATOM      3  C   UNL     1     -10.841  -3.257  -9.911  1.00  0.00     0.000 C 
BRANCH   3   4
ATOM      4  C   UNL     1     -10.264  -1.951  -9.328  1.00  0.00    -0.000 C 
BRANCH   4   5
ATOM      5  C   UNL     1     -10.573  -0.676 -10.137  1.00  0.00    -0.000 C 
BRANCH   5   6
ATOM      6  C   UNL     1     -11.633   0.247  -9.509  1.00  0.00    -0.000 C 
BRANCH   6   7
ATOM      7  C   UNL     1     -12.951   0.265 -10.301  1.00  0.00    -0.000 C 
BRANCH   7   8
ATOM      8  C   UNL     1     -14.167   0.558  -9.409  1.00  0.00    -0.000 C 
BRANCH   8   9
ATOM      9  C   UNL     1     -14.582   2.039  -9.448  1.00  0.00    -0.000 C 
BRANCH   9  10
ATOM     10  C   UNL     1     -13.376   2.994  -9.534  1.00  0.00    -0.000 C 
BRANCH  10  11
ATOM     11  C   UNL     1     -13.174   3.887  -8.297  1.00  0.00    -0.003 C 
ATOM     12  C   UNL     1     -11.706   4.215  -8.028  1.00  0.00     0.004 C 
ENDBRANCH  10  11
ENDBRANCH   9  10
ENDBRANCH   8   9
ENDBRANCH   7   8
ENDBRANCH   6   7
ENDBRANCH   5   6
ENDBRANCH   4   5
ENDBRANCH   3   4
ENDBRANCH   2   3
ENDBRANCH   1   2
BRANCH   1  13
ATOM     13  C   UNL     1     -14.628  -4.090 -10.089  1.00  0.00     0.000 C 
BRANCH  13  14
ATOM     14  C   UNL     1     -14.708  -4.942  -8.809  1.00  0.00     0.000 C 
BRANCH  14  15
ATOM     15  C   UNL     1     -14.324  -6.413  -9.046  1.00  0.00     0.000 C 
BRANCH  15  16
ATOM     16  C   UNL     1     -14.432  -7.259  -7.767  1.00  0.00     0.000 C 
BRANCH  16  17
ATOM     17  C   UNL     1     -13.894  -6.521  -6.529  1.00  0.00     0.000 C 
BRANCH  17  18
ATOM     18  C   UNL     1     -13.514  -7.482  -5.391  1.00  0.00     0.000 C 
BRANCH  18  19
ATOM     19  C   UNL     1     -11.993  -7.608  -5.213  1.00  0.00     0.000 C 
BRANCH  19  20
ATOM     20  C   UNL     1     -11.294  -6.272  -5.489  1.00  0.00     0.006 C 
BRANCH  20  21
ATOM     21  C   UNL     1      -9.891  -6.495  -6.061  1.00  0.00     0.053 C 
BRANCH  21  22
ATOM     22  C   UNL     1      -9.828  -6.044  -7.487  1.00  0.00     0.041 C 
ATOM     23  O   UNL     1      -9.052  -5.112  -7.823  1.00  0.00    -0.550 OA
ATOM     24  O   UNL     1     -10.596  -6.681  -8.451  1.00  0.00    -0.550 OA
ENDBRANCH  21  22
ENDBRANCH  20  21
ENDBRANCH  19  20
ENDBRANCH  18  19
ENDBRANCH  17  18
ENDBRANCH  16  17
ENDBRANCH  15  16
ENDBRANCH  14  15
ENDBRANCH  13  14
ENDBRANCH   1  13
TORSDOF 20
ENDMDL
MODEL 8
REMARK VINA RESULT:    -4.326      1.390      3.980
REMARK INTER + INTRA:         -12.222
REMARK INTER:                 -10.490
REMARK INTRA:                  -1.732
REMARK UNBOUND:                -2.839
REMARK SMILES CCCCCCCCCCCCCCCCCCCCCC(=O)[O-]
REMARK SMILES IDX 12 1 11 2 10 3 9 4 8 5 7 6 6 7 5 8 4 9 3 10 2 11 1 12 13 13
REMARK SMILES IDX 14 14 15 15 16 16 17 17 18 18 19 19 20 20 21 21 22 22 23 23
REMARK SMILES IDX 24 24
REMARK H PARENT
REMARK Flexibility Score: inf
ROOT
ATOM      1  C   UNL     1     -12.877  -6.187  -9.501  1.00  0.00     0.000 C 
ENDROOT
BRANCH   1   2
ATOM      2  C   UNL     1     -12.856  -7.612  -8.926  1.00  0.00     0.000 C 
BRANCH   2   3
ATOM      3  C   UNL     1     -11.432  -8.118  -8.626  1.00  0.00     0.000 C 
BRANCH   3   4
ATOM      4  C   UNL     1     -11.027  -8.099  -7.138  1.00  0.00    -0.000 C 
BRANCH   4   5
ATOM      5  C   UNL     1     -12.164  -7.772  -6.150  1.00  0.00    -0.000 C 
BRANCH   5   6
ATOM      6  C   UNL     1     -12.254  -6.292  -5.734  1.00  0.00    -0.000 C 
BRANCH   6   7
ATOM      7  C   UNL     1     -10.896  -5.713  -5.305  1.00  0.00    -0.000 C 
BRANCH   7   8
ATOM      8  C   UNL     1     -10.398  -4.617  -6.260  1.00  0.00    -0.000 C 
BRANCH   8   9
ATOM      9  C   UNL     1      -9.546  -5.182  -7.410  1.00  0.00    -0.000 C 
BRANCH   9  10
ATOM     10  C   UNL     1      -8.913  -4.080  -8.280  1.00  0.00    -0.000 C 
BRANCH  10  11
ATOM     11  C   UNL     1      -9.829  -2.873  -8.555  1.00  0.00    -0.003 C 
ATOM     12  C   UNL     1     -10.861  -3.142  -9.648  1.00  0.00     0.004 C 
ENDBRANCH  10  11
ENDBRANCH   9  10
ENDBRANCH   8   9
ENDBRANCH   7   8
ENDBRANCH   6   7
ENDBRANCH   5   6
ENDBRANCH   4   5
ENDBRANCH   3   4
ENDBRANCH   2   3
ENDBRANCH   1   2
BRANCH   1  13
ATOM     13  C   UNL     1     -14.261  -5.782 -10.042  1.00  0.00     0.000 C 
BRANCH  13  14
ATOM     14  C   UNL     1     -15.115  -4.936  -9.080  1.00  0.00     0.000 C 
BRANCH  14  15
ATOM     15  C   UNL     1     -14.863  -3.426  -9.229  1.00  0.00     0.000 C 
BRANCH  15  16
ATOM     16  C   UNL     1     -15.062  -2.938 -10.674  1.00  0.00     0.000 C 
BRANCH  16  17
ATOM     17  C   UNL     1     -14.763  -1.438 -10.833  1.00  0.00     0.000 C 
BRANCH  17  18
ATOM     18  C   UNL     1     -13.278  -1.162 -11.118  1.00  0.00     0.000 C 
BRANCH  18  19
ATOM     19  C   UNL     1     -12.780   0.126 -10.445  1.00  0.00     0.000 C 
BRANCH  19  20
ATOM     20  C   UNL     1     -13.811   0.656  -9.441  1.00  0.00     0.006 C 
BRANCH  20  21
ATOM     21  C   UNL     1     -14.079   2.147  -9.665  1.00  0.00     0.053 C 
BRANCH  21  22
ATOM     22  C   UNL     1     -12.973   2.972  -9.084  1.00  0.00     0.041 C 
ATOM     23  O   UNL     1     -11.844   2.458  -8.873  1.00  0.00    -0.550 OA
ATOM     24  O   UNL     1     -13.179   4.318  -8.815  1.00  0.00    -0.550 OA
ENDBRANCH  21  22
ENDBRANCH  20  21
ENDBRANCH  19  20
ENDBRANCH  18  19
ENDBRANCH  17  18
ENDBRANCH  16  17
ENDBRANCH  15  16
ENDBRANCH  14  15
ENDBRANCH  13  14
ENDBRANCH   1  13
TORSDOF 20
ENDMDL
MODEL 9
REMARK VINA RESULT:    -3.815      2.449      7.802
REMARK INTER + INTRA:         -11.115
REMARK INTER:                  -9.037
REMARK INTRA:                  -2.077
REMARK UNBOUND:                -2.839
REMARK SMILES CCCCCCCCCCCCCCCCCCCCCC(=O)[O-]
REMARK SMILES IDX 12 1 11 2 10 3 9 4 8 5 7 6 6 7 5 8 4 9 3 10 2 11 1 12 13 13
REMARK SMILES IDX 14 14 15 15 16 16 17 17 18 18 19 19 20 20 21 21 22 22 23 23
REMARK SMILES IDX 24 24
REMARK H PARENT
REMARK Flexibility Score: inf
ROOT
ATOM      1  C   UNL     1     -14.849  -5.110  -8.558  1.00  0.00     0.000 C 
ENDROOT
BRANCH   1   2
ATOM      2  C   UNL     1     -14.488  -4.123  -9.679  1.00  0.00     0.000 C 
BRANCH   2   3
ATOM      3  C   UNL     1     -13.018  -3.666  -9.628  1.00  0.00     0.000 C 
BRANCH   3   4
ATOM      4  C   UNL     1     -12.709  -2.356 -10.380  1.00  0.00    -0.000 C 
BRANCH   4   5
ATOM      5  C   UNL     1     -13.903  -1.727 -11.125  1.00  0.00    -0.000 C 
BRANCH   5   6
ATOM      6  C   UNL     1     -14.180  -0.254 -10.774  1.00  0.00    -0.000 C 
BRANCH   6   7
ATOM      7  C   UNL     1     -14.702  -0.073  -9.339  1.00  0.00    -0.000 C 
BRANCH   7   8
ATOM      8  C   UNL     1     -14.695   1.398  -8.894  1.00  0.00    -0.000 C 
BRANCH   8   9
ATOM      9  C   UNL     1     -13.812   2.280  -9.793  1.00  0.00    -0.000 C 
BRANCH   9  10
ATOM     10  C   UNL     1     -12.365   2.396  -9.278  1.00  0.00    -0.000 C 
BRANCH  10  11
ATOM     11  C   UNL     1     -11.976   3.793  -8.762  1.00  0.00    -0.003 C 
ATOM     12  C   UNL     1     -13.155   4.562  -8.170  1.00  0.00     0.004 C 
ENDBRANCH  10  11
ENDBRANCH   9  10
ENDBRANCH   8   9
ENDBRANCH   7   8
ENDBRANCH   6   7
ENDBRANCH   5   6
ENDBRANCH   4   5
ENDBRANCH   3   4
ENDBRANCH   2   3
ENDBRANCH   1   2
BRANCH   1  13
ATOM     13  C   UNL     1     -13.684  -6.047  -8.188  1.00  0.00     0.000 C 
BRANCH  13  14
ATOM     14  C   UNL     1     -14.080  -7.288  -7.369  1.00  0.00     0.000 C 
BRANCH  14  15
ATOM     15  C   UNL     1     -13.895  -7.089  -5.855  1.00  0.00     0.000 C 
BRANCH  15  16
ATOM     16  C   UNL     1     -12.620  -6.296  -5.522  1.00  0.00     0.000 C 
BRANCH  16  17
ATOM     17  C   UNL     1     -11.435  -7.213  -5.173  1.00  0.00     0.000 C 
BRANCH  17  18
ATOM     18  C   UNL     1     -10.396  -7.285  -6.303  1.00  0.00     0.000 C 
BRANCH  18  19
ATOM     19  C   UNL     1      -9.769  -5.917  -6.613  1.00  0.00     0.000 C 
BRANCH  19  20
ATOM     20  C   UNL     1     -10.128  -5.455  -8.030  1.00  0.00     0.006 C 
BRANCH  20  21
ATOM     21  C   UNL     1      -8.955  -4.716  -8.681  1.00  0.00     0.053 C 
BRANCH  21  22
ATOM     22  C   UNL     1      -9.323  -3.294  -8.963  1.00  0.00     0.041 C 
ATOM     23  O   UNL     1      -9.832  -2.579  -8.061  1.00  0.00    -0.550 OA
ATOM     24  O   UNL     1      -9.065  -2.745 -10.212  1.00  0.00    -0.550 OA
ENDBRANCH  21  22
ENDBRANCH  20  21
ENDBRANCH  19  20
ENDBRANCH  18  19
ENDBRANCH  17  18
ENDBRANCH  16  17
ENDBRANCH  15  16
ENDBRANCH  14  15
ENDBRANCH  13  14
ENDBRANCH   1  13
TORSDOF 20
ENDMDL
