MODEL 1
REMARK VINA RESULT:    -5.507      0.000      0.000
REMARK INTER + INTRA:          -6.940
REMARK INTER:                  -6.634
REMARK INTRA:                  -0.306
REMARK UNBOUND:                -0.306
REMARK SMILES O=c1c(O)c(-c2ccc(O)c(O)c2)oc2cc(O)cc(O)c12
REMARK SMILES IDX 5 1 3 2 2 3 1 4 22 5 20 6 19 7 17 8 16 9 15 10 14 11 6 12
REMARK SMILES IDX 7 13 8 14 9 15 13 16 11 17 10 18 12 20 4 22 21 24 18 26
REMARK H PARENT 10 19 12 21 4 23 21 25 18 27
REMARK Flexibility Score: inf
ROOT
ATOM      1  C   UNL     1       7.217  26.829   4.322  1.00  0.00     0.180 A 
ATOM      2  C   UNL     1       8.264  27.311   3.513  1.00  0.00     0.208 A 
ATOM      3  C   UNL     1       8.002  27.598   2.164  1.00  0.00     0.238 A 
ATOM      4  O   UNL     1       8.929  28.040   1.432  1.00  0.00    -0.285 OA
ATOM      5  C   UNL     1       6.709  27.380   1.643  1.00  0.00     0.111 A 
ATOM      6  C   UNL     1       6.364  27.640   0.295  1.00  0.00     0.134 A 
ATOM      7  C   UNL     1       5.058  27.388  -0.149  1.00  0.00     0.093 A 
ATOM      8  C   UNL     1       4.093  26.882   0.725  1.00  0.00     0.123 A 
ATOM      9  C   UNL     1       4.428  26.624   2.059  1.00  0.00     0.094 A 
ATOM     10  C   UNL     1       5.724  26.871   2.521  1.00  0.00     0.146 A 
ATOM     11  O   UNL     1       6.015  26.621   3.793  1.00  0.00    -0.452 OA
ENDROOT
BRANCH   1  12
ATOM     12  C   UNL     1       7.411  26.521   5.757  1.00  0.00     0.025 A 
ATOM     13  C   UNL     1       7.093  27.493   6.720  1.00  0.00     0.016 A 
ATOM     14  C   UNL     1       7.288  27.232   8.079  1.00  0.00     0.051 A 
ATOM     15  C   UNL     1       7.818  26.003   8.494  1.00  0.00     0.157 A 
ATOM     16  C   UNL     1       7.963  25.297   6.177  1.00  0.00     0.062 A 
ATOM     17  C   UNL     1       8.160  25.034   7.537  1.00  0.00     0.158 A 
BRANCH  15  18
ATOM     18  O   UNL     1       8.009  25.746   9.851  1.00  0.00    -0.504 OA
ATOM     19  H   UNL     1       8.912  25.468  10.217  1.00  0.00     0.293 HD
ENDBRANCH  15  18
BRANCH  17  20
ATOM     20  O   UNL     1       8.703  23.807   7.918  1.00  0.00    -0.504 OA
ATOM     21  H   UNL     1       8.980  23.613   8.872  1.00  0.00     0.293 HD
ENDBRANCH  17  20
ENDBRANCH   1  12
BRANCH   2  22
ATOM     22  O   UNL     1       9.548  27.472   4.041  1.00  0.00    -0.502 OA
ATOM     23  H   UNL     1       9.877  26.940   4.838  1.00  0.00     0.293 HD
ENDBRANCH   2  22
BRANCH   6  24
ATOM     24  O   UNL     1       7.305  28.144  -0.603  1.00  0.00    -0.507 OA
ATOM     25  H   UNL     1       7.950  28.880  -0.341  1.00  0.00     0.293 HD
ENDBRANCH   6  24
BRANCH   8  26
ATOM     26  O   UNL     1       2.803  26.640   0.259  1.00  0.00    -0.508 OA
ATOM     27  H   UNL     1       2.574  26.704  -0.726  1.00  0.00     0.293 HD
ENDBRANCH   8  26
TORSDOF 6
ENDMDL
MODEL 2
REMARK VINA RESULT:    -5.337      1.857      6.981
REMARK INTER + INTRA:          -6.735
REMARK INTER:                  -6.671
REMARK INTRA:                  -0.064
REMARK UNBOUND:                -0.306
REMARK SMILES O=c1c(O)c(-c2ccc(O)c(O)c2)oc2cc(O)cc(O)c12
REMARK SMILES IDX 5 1 3 2 2 3 1 4 22 5 20 6 19 7 17 8 16 9 15 10 14 11 6 12
REMARK SMILES IDX 7 13 8 14 9 15 13 16 11 17 10 18 12 20 4 22 21 24 18 26
REMARK H PARENT 10 19 12 21 4 23 21 25 18 27
REMARK Flexibility Score: inf
ROOT
ATOM      1  C   UNL     1       7.110  26.653   5.186  1.00  0.00     0.180 A 
ATOM      2  C   UNL     1       7.765  25.671   5.954  1.00  0.00     0.208 A 
ATOM      3  C   UNL     1       7.836  25.833   7.346  1.00  0.00     0.238 A 
ATOM      4  O   UNL     1       8.411  24.956   8.045  1.00  0.00    -0.285 OA
ATOM      5  C   UNL     1       7.271  26.980   7.944  1.00  0.00     0.111 A 
ATOM      6  C   UNL     1       7.303  27.221   9.338  1.00  0.00     0.134 A 
ATOM      7  C   UNL     1       6.726  28.390   9.855  1.00  0.00     0.093 A 
ATOM      8  C   UNL     1       6.121  29.320   9.008  1.00  0.00     0.123 A 
ATOM      9  C   UNL     1       6.086  29.088   7.629  1.00  0.00     0.094 A 
ATOM     10  C   UNL     1       6.653  27.927   7.095  1.00  0.00     0.146 A 
ATOM     11  O   UNL     1       6.603  27.728   5.782  1.00  0.00    -0.452 OA
ENDROOT
BRANCH   1  12
ATOM     12  C   UNL     1       6.979  26.543   3.715  1.00  0.00     0.025 A 
ATOM     13  C   UNL     1       8.135  26.446   2.925  1.00  0.00     0.016 A 
ATOM     14  C   UNL     1       8.035  26.362   1.533  1.00  0.00     0.051 A 
ATOM     15  C   UNL     1       6.780  26.392   0.911  1.00  0.00     0.157 A 
ATOM     16  C   UNL     1       5.721  26.595   3.086  1.00  0.00     0.062 A 
ATOM     17  C   UNL     1       5.619  26.513   1.693  1.00  0.00     0.158 A 
BRANCH  15  18
ATOM     18  O   UNL     1       6.684  26.307  -0.477  1.00  0.00    -0.504 OA
ATOM     19  H   UNL     1       7.488  26.087  -1.052  1.00  0.00     0.293 HD
ENDBRANCH  15  18
BRANCH  17  20
ATOM     20  O   UNL     1       4.356  26.561   1.103  1.00  0.00    -0.504 OA
ATOM     21  H   UNL     1       3.737  25.760   1.090  1.00  0.00     0.293 HD
ENDBRANCH  17  20
ENDBRANCH   1  12
BRANCH   2  22
ATOM     22  O   UNL     1       8.360  24.569   5.332  1.00  0.00    -0.502 OA
ATOM     23  H   UNL     1       9.315  24.289   5.523  1.00  0.00     0.293 HD
ENDBRANCH   2  22
BRANCH   6  24
ATOM     24  O   UNL     1       7.901  26.311  10.211  1.00  0.00    -0.507 OA
ATOM     25  H   UNL     1       8.757  25.825   9.969  1.00  0.00     0.293 HD
ENDBRANCH   6  24
BRANCH   8  26
ATOM     26  O   UNL     1       5.556  30.475   9.546  1.00  0.00    -0.508 OA
ATOM     27  H   UNL     1       5.023  30.452  10.407  1.00  0.00     0.293 HD
ENDBRANCH   8  26
TORSDOF 6
ENDMDL
MODEL 3
REMARK VINA RESULT:    -5.263      1.513      2.093
REMARK INTER + INTRA:          -6.646
REMARK INTER:                  -6.409
REMARK INTRA:                  -0.237
REMARK UNBOUND:                -0.306
REMARK SMILES O=c1c(O)c(-c2ccc(O)c(O)c2)oc2cc(O)cc(O)c12
REMARK SMILES IDX 5 1 3 2 2 3 1 4 22 5 20 6 19 7 17 8 16 9 15 10 14 11 6 12
REMARK SMILES IDX 7 13 8 14 9 15 13 16 11 17 10 18 12 20 4 22 21 24 18 26
REMARK H PARENT 10 19 12 21 4 23 21 25 18 27
REMARK Flexibility Score: inf
ROOT
ATOM      1  C   UNL     1       7.759  26.643   5.169  1.00  0.00     0.180 A 
ATOM      2  C   UNL     1       8.896  26.455   4.360  1.00  0.00     0.208 A 
ATOM      3  C   UNL     1       8.732  26.375   2.968  1.00  0.00     0.238 A 
ATOM      4  O   UNL     1       9.744  26.216   2.233  1.00  0.00    -0.285 OA
ATOM      5  C   UNL     1       7.439  26.463   2.413  1.00  0.00     0.111 A 
ATOM      6  C   UNL     1       7.187  26.387   1.021  1.00  0.00     0.134 A 
ATOM      7  C   UNL     1       5.870  26.474   0.547  1.00  0.00     0.093 A 
ATOM      8  C   UNL     1       4.803  26.634   1.433  1.00  0.00     0.123 A 
ATOM      9  C   UNL     1       5.045  26.710   2.810  1.00  0.00     0.094 A 
ATOM     10  C   UNL     1       6.351  26.627   3.301  1.00  0.00     0.146 A 
ATOM     11  O   UNL     1       6.554  26.706   4.612  1.00  0.00    -0.452 OA
ENDROOT
BRANCH   1  12
ATOM     12  C   UNL     1       7.853  26.756   6.643  1.00  0.00     0.025 A 
ATOM     13  C   UNL     1       8.105  25.607   7.409  1.00  0.00     0.016 A 
ATOM     14  C   UNL     1       8.177  25.686   8.802  1.00  0.00     0.051 A 
ATOM     15  C   UNL     1       7.981  26.912   9.451  1.00  0.00     0.157 A 
ATOM     16  C   UNL     1       7.636  27.981   7.300  1.00  0.00     0.062 A 
ATOM     17  C   UNL     1       7.705  28.064   8.695  1.00  0.00     0.158 A 
BRANCH  15  18
ATOM     18  O   UNL     1       8.055  26.988  10.841  1.00  0.00    -0.504 OA
ATOM     19  H   UNL     1       8.004  27.876  11.328  1.00  0.00     0.293 HD
ENDBRANCH  15  18
BRANCH  17  20
ATOM     20  O   UNL     1       7.492  29.296   9.312  1.00  0.00    -0.504 OA
ATOM     21  H   UNL     1       6.673  29.859   9.121  1.00  0.00     0.293 HD
ENDBRANCH  17  20
ENDBRANCH   1  12
BRANCH   2  22
ATOM     22  O   UNL     1      10.161  26.321   4.939  1.00  0.00    -0.502 OA
ATOM     23  H   UNL     1      10.593  25.418   5.096  1.00  0.00     0.293 HD
ENDBRANCH   2  22
BRANCH   6  24
ATOM     24  O   UNL     1       8.232  26.226   0.110  1.00  0.00    -0.507 OA
ATOM     25  H   UNL     1       8.152  25.607  -0.688  1.00  0.00     0.293 HD
ENDBRANCH   6  24
BRANCH   8  26
ATOM     26  O   UNL     1       3.504  26.716   0.937  1.00  0.00    -0.508 OA
ATOM     27  H   UNL     1       3.315  26.701  -0.058  1.00  0.00     0.293 HD
ENDBRANCH   8  26
TORSDOF 6
ENDMDL
MODEL 4
REMARK VINA RESULT:    -5.223      1.789      6.846
REMARK INTER + INTRA:          -6.598
REMARK INTER:                  -6.516
REMARK INTRA:                  -0.083
REMARK UNBOUND:                -0.306
REMARK SMILES O=c1c(O)c(-c2ccc(O)c(O)c2)oc2cc(O)cc(O)c12
REMARK SMILES IDX 5 1 3 2 2 3 1 4 22 5 20 6 19 7 17 8 16 9 15 10 14 11 6 12
REMARK SMILES IDX 7 13 8 14 9 15 13 16 11 17 10 18 12 20 4 22 21 24 18 26
REMARK H PARENT 10 19 12 21 4 23 21 25 18 27
REMARK Flexibility Score: inf
ROOT
ATOM      1  C   UNL     1       7.205  26.624   4.934  1.00  0.00     0.180 A 
ATOM      2  C   UNL     1       7.859  25.611   5.663  1.00  0.00     0.208 A 
ATOM      3  C   UNL     1       7.832  25.659   7.065  1.00  0.00     0.238 A 
ATOM      4  O   UNL     1       8.405  24.753   7.728  1.00  0.00    -0.285 OA
ATOM      5  C   UNL     1       7.172  26.724   7.713  1.00  0.00     0.111 A 
ATOM      6  C   UNL     1       7.102  26.849   9.122  1.00  0.00     0.134 A 
ATOM      7  C   UNL     1       6.435  27.942   9.691  1.00  0.00     0.093 A 
ATOM      8  C   UNL     1       5.839  28.912   8.883  1.00  0.00     0.123 A 
ATOM      9  C   UNL     1       5.904  28.795   7.490  1.00  0.00     0.094 A 
ATOM     10  C   UNL     1       6.562  27.711   6.904  1.00  0.00     0.146 A 
ATOM     11  O   UNL     1       6.606  27.621   5.579  1.00  0.00    -0.452 OA
ENDROOT
BRANCH   1  12
ATOM     12  C   UNL     1       7.174  26.632   3.454  1.00  0.00     0.025 A 
ATOM     13  C   UNL     1       5.938  26.580   2.790  1.00  0.00     0.016 A 
ATOM     14  C   UNL     1       5.885  26.566   1.393  1.00  0.00     0.051 A 
ATOM     15  C   UNL     1       7.067  26.586   0.641  1.00  0.00     0.157 A 
ATOM     16  C   UNL     1       8.358  26.631   2.695  1.00  0.00     0.062 A 
ATOM     17  C   UNL     1       8.309  26.614   1.297  1.00  0.00     0.158 A 
BRANCH  15  18
ATOM     18  O   UNL     1       7.011  26.573  -0.752  1.00  0.00    -0.504 OA
ATOM     19  H   UNL     1       6.780  25.731  -1.266  1.00  0.00     0.293 HD
ENDBRANCH  15  18
BRANCH  17  20
ATOM     20  O   UNL     1       9.503  26.620   0.576  1.00  0.00    -0.504 OA
ATOM     21  H   UNL     1      10.398  26.781   1.020  1.00  0.00     0.293 HD
ENDBRANCH  17  20
ENDBRANCH   1  12
BRANCH   2  22
ATOM     22  O   UNL     1       8.547  24.594   4.996  1.00  0.00    -0.502 OA
ATOM     23  H   UNL     1       9.520  24.685   4.725  1.00  0.00     0.293 HD
ENDBRANCH   2  22
BRANCH   6  24
ATOM     24  O   UNL     1       7.689  25.896   9.957  1.00  0.00    -0.507 OA
ATOM     25  H   UNL     1       8.574  25.460   9.726  1.00  0.00     0.293 HD
ENDBRANCH   6  24
BRANCH   8  26
ATOM     26  O   UNL     1       5.183  29.990   9.473  1.00  0.00    -0.508 OA
ATOM     27  H   UNL     1       5.647  30.592  10.143  1.00  0.00     0.293 HD
ENDBRANCH   8  26
TORSDOF 6
ENDMDL
MODEL 5
REMARK VINA RESULT:    -4.891      3.897      6.765
REMARK INTER + INTRA:          -6.198
REMARK INTER:                  -5.924
REMARK INTRA:                  -0.273
REMARK UNBOUND:                -0.306
REMARK SMILES O=c1c(O)c(-c2ccc(O)c(O)c2)oc2cc(O)cc(O)c12
REMARK SMILES IDX 5 1 3 2 2 3 1 4 22 5 20 6 19 7 17 8 16 9 15 10 14 11 6 12
REMARK SMILES IDX 7 13 8 14 9 15 13 16 11 17 10 18 12 20 4 22 21 24 18 26
REMARK H PARENT 10 19 12 21 4 23 21 25 18 27
REMARK Flexibility Score: inf
ROOT
ATOM      1  C   UNL     1       8.522  28.072  10.247  1.00  0.00     0.180 A 
ATOM      2  C   UNL     1       7.544  29.032   9.923  1.00  0.00     0.208 A 
ATOM      3  C   UNL     1       6.870  28.927   8.696  1.00  0.00     0.238 A 
ATOM      4  O   UNL     1       5.986  29.775   8.399  1.00  0.00    -0.285 OA
ATOM      5  C   UNL     1       7.199  27.881   7.808  1.00  0.00     0.111 A 
ATOM      6  C   UNL     1       6.571  27.706   6.551  1.00  0.00     0.134 A 
ATOM      7  C   UNL     1       6.960  26.645   5.721  1.00  0.00     0.093 A 
ATOM      8  C   UNL     1       7.962  25.758   6.121  1.00  0.00     0.123 A 
ATOM      9  C   UNL     1       8.586  25.925   7.362  1.00  0.00     0.094 A 
ATOM     10  C   UNL     1       8.211  26.975   8.204  1.00  0.00     0.146 A 
ATOM     11  O   UNL     1       8.816  27.109   9.379  1.00  0.00    -0.452 OA
ENDROOT
BRANCH   1  12
ATOM     12  C   UNL     1       9.262  28.106  11.530  1.00  0.00     0.025 A 
ATOM     13  C   UNL     1      10.619  28.463  11.535  1.00  0.00     0.016 A 
ATOM     14  C   UNL     1      11.342  28.481  12.731  1.00  0.00     0.051 A 
ATOM     15  C   UNL     1      10.723  28.125  13.936  1.00  0.00     0.157 A 
ATOM     16  C   UNL     1       8.649  27.729  12.739  1.00  0.00     0.062 A 
ATOM     17  C   UNL     1       9.371  27.743  13.938  1.00  0.00     0.158 A 
BRANCH  15  18
ATOM     18  O   UNL     1      11.446  28.145  15.127  1.00  0.00    -0.504 OA
ATOM     19  H   UNL     1      11.532  28.989  15.683  1.00  0.00     0.293 HD
ENDBRANCH  15  18
BRANCH  17  20
ATOM     20  O   UNL     1       8.730  27.370  15.119  1.00  0.00    -0.504 OA
ATOM     21  H   UNL     1       9.200  27.387  16.015  1.00  0.00     0.293 HD
ENDBRANCH  17  20
ENDBRANCH   1  12
BRANCH   2  22
ATOM     22  O   UNL     1       7.272  30.087  10.798  1.00  0.00    -0.502 OA
ATOM     23  H   UNL     1       6.419  30.631  10.745  1.00  0.00     0.293 HD
ENDBRANCH   2  22
BRANCH   6  24
ATOM     24  O   UNL     1       5.567  28.576   6.123  1.00  0.00    -0.507 OA
ATOM     25  H   UNL     1       5.476  28.846   5.151  1.00  0.00     0.293 HD
ENDBRANCH   6  24
BRANCH   8  26
ATOM     26  O   UNL     1       8.331  24.713   5.277  1.00  0.00    -0.508 OA
ATOM     27  H   UNL     1       8.834  23.905   5.623  1.00  0.00     0.293 HD
ENDBRANCH   8  26
TORSDOF 6
ENDMDL
MODEL 6
REMARK VINA RESULT:    -4.828      3.995      6.449
REMARK INTER + INTRA:          -6.122
REMARK INTER:                  -5.914
REMARK INTRA:                  -0.208
REMARK UNBOUND:                -0.306
REMARK SMILES O=c1c(O)c(-c2ccc(O)c(O)c2)oc2cc(O)cc(O)c12
REMARK SMILES IDX 5 1 3 2 2 3 1 4 22 5 20 6 19 7 17 8 16 9 15 10 14 11 6 12
REMARK SMILES IDX 7 13 8 14 9 15 13 16 11 17 10 18 12 20 4 22 21 24 18 26
REMARK H PARENT 10 19 12 21 4 23 21 25 18 27
REMARK Flexibility Score: inf
ROOT
ATOM      1  C   UNL     1       8.058  28.411  10.353  1.00  0.00     0.180 A 
ATOM      2  C   UNL     1       9.103  28.062   9.476  1.00  0.00     0.208 A 
ATOM      3  C   UNL     1       8.808  27.855   8.119  1.00  0.00     0.238 A 
ATOM      4  O   UNL     1       9.737  27.552   7.321  1.00  0.00    -0.285 OA
ATOM      5  C   UNL     1       7.478  27.980   7.668  1.00  0.00     0.111 A 
ATOM      6  C   UNL     1       7.096  27.785   6.318  1.00  0.00     0.134 A 
ATOM      7  C   UNL     1       5.750  27.919   5.950  1.00  0.00     0.093 A 
ATOM      8  C   UNL     1       4.780  28.242   6.901  1.00  0.00     0.123 A 
ATOM      9  C   UNL     1       5.151  28.437   8.236  1.00  0.00     0.094 A 
ATOM     10  C   UNL     1       6.488  28.310   8.622  1.00  0.00     0.146 A 
ATOM     11  O   UNL     1       6.814  28.505   9.895  1.00  0.00    -0.452 OA
ENDROOT
BRANCH   1  12
ATOM     12  C   UNL     1       8.293  28.663  11.794  1.00  0.00     0.025 A 
ATOM     13  C   UNL     1       8.207  29.974  12.287  1.00  0.00     0.016 A 
ATOM     14  C   UNL     1       8.444  30.238  13.639  1.00  0.00     0.051 A 
ATOM     15  C   UNL     1       8.789  29.199  14.513  1.00  0.00     0.157 A 
ATOM     16  C   UNL     1       8.660  27.625  12.670  1.00  0.00     0.062 A 
ATOM     17  C   UNL     1       8.901  27.887  14.023  1.00  0.00     0.158 A 
BRANCH  15  18
ATOM     18  O   UNL     1       9.025  29.465  15.860  1.00  0.00    -0.504 OA
ATOM     19  H   UNL     1       9.397  30.356  16.168  1.00  0.00     0.293 HD
ENDBRANCH  15  18
BRANCH  17  20
ATOM     20  O   UNL     1       9.256  26.832  14.864  1.00  0.00    -0.504 OA
ATOM     21  H   UNL     1      10.176  26.762  15.280  1.00  0.00     0.293 HD
ENDBRANCH  17  20
ENDBRANCH   1  12
BRANCH   2  22
ATOM     22  O   UNL     1      10.404  27.895   9.957  1.00  0.00    -0.502 OA
ATOM     23  H   UNL     1      11.084  28.647   9.955  1.00  0.00     0.293 HD
ENDBRANCH   2  22
BRANCH   6  24
ATOM     24  O   UNL     1       8.042  27.459   5.345  1.00  0.00    -0.507 OA
ATOM     25  H   UNL     1       7.855  26.763   4.632  1.00  0.00     0.293 HD
ENDBRANCH   6  24
BRANCH   8  26
ATOM     26  O   UNL     1       3.449  28.369   6.509  1.00  0.00    -0.508 OA
ATOM     27  H   UNL     1       2.754  27.676   6.762  1.00  0.00     0.293 HD
ENDBRANCH   8  26
TORSDOF 6
ENDMDL
MODEL 7
REMARK VINA RESULT:    -4.763      3.819      5.963
REMARK INTER + INTRA:          -6.045
REMARK INTER:                  -5.923
REMARK INTRA:                  -0.122
REMARK UNBOUND:                -0.306
REMARK SMILES O=c1c(O)c(-c2ccc(O)c(O)c2)oc2cc(O)cc(O)c12
REMARK SMILES IDX 5 1 3 2 2 3 1 4 22 5 20 6 19 7 17 8 16 9 15 10 14 11 6 12
REMARK SMILES IDX 7 13 8 14 9 15 13 16 11 17 10 18 12 20 4 22 21 24 18 26
REMARK H PARENT 10 19 12 21 4 23 21 25 18 27
REMARK Flexibility Score: inf
ROOT
ATOM      1  C   UNL     1       8.203  27.081   6.408  1.00  0.00     0.180 A 
ATOM      2  C   UNL     1       8.238  26.177   5.329  1.00  0.00     0.208 A 
ATOM      3  C   UNL     1       9.448  25.988   4.641  1.00  0.00     0.238 A 
ATOM      4  O   UNL     1       9.494  25.174   3.680  1.00  0.00    -0.285 OA
ATOM      5  C   UNL     1      10.591  26.718   5.030  1.00  0.00     0.111 A 
ATOM      6  C   UNL     1      11.846  26.589   4.387  1.00  0.00     0.134 A 
ATOM      7  C   UNL     1      12.934  27.357   4.827  1.00  0.00     0.093 A 
ATOM      8  C   UNL     1      12.793  28.248   5.892  1.00  0.00     0.123 A 
ATOM      9  C   UNL     1      11.555  28.380   6.531  1.00  0.00     0.094 A 
ATOM     10  C   UNL     1      10.460  27.622   6.109  1.00  0.00     0.146 A 
ATOM     11  O   UNL     1       9.297  27.762   6.736  1.00  0.00    -0.452 OA
ENDROOT
BRANCH   1  12
ATOM     12  C   UNL     1       6.970  27.320   7.194  1.00  0.00     0.025 A 
ATOM     13  C   UNL     1       6.943  26.978   8.555  1.00  0.00     0.016 A 
ATOM     14  C   UNL     1       5.784  27.175   9.310  1.00  0.00     0.051 A 
ATOM     15  C   UNL     1       4.631  27.701   8.712  1.00  0.00     0.157 A 
ATOM     16  C   UNL     1       5.804  27.827   6.592  1.00  0.00     0.062 A 
ATOM     17  C   UNL     1       4.642  28.024   7.345  1.00  0.00     0.158 A 
BRANCH  15  18
ATOM     18  O   UNL     1       3.477  27.897   9.469  1.00  0.00    -0.504 OA
ATOM     19  H   UNL     1       2.559  27.665   9.108  1.00  0.00     0.293 HD
ENDBRANCH  15  18
BRANCH  17  20
ATOM     20  O   UNL     1       3.506  28.535   6.717  1.00  0.00    -0.504 OA
ATOM     21  H   UNL     1       3.513  29.423   6.231  1.00  0.00     0.293 HD
ENDBRANCH  17  20
ENDBRANCH   1  12
BRANCH   2  22
ATOM     22  O   UNL     1       7.079  25.504   4.933  1.00  0.00    -0.502 OA
ATOM     23  H   UNL     1       7.099  24.560   4.565  1.00  0.00     0.293 HD
ENDBRANCH   2  22
BRANCH   6  24
ATOM     24  O   UNL     1      12.019  25.707   3.319  1.00  0.00    -0.507 OA
ATOM     25  H   UNL     1      11.236  25.390   2.759  1.00  0.00     0.293 HD
ENDBRANCH   6  24
BRANCH   8  26
ATOM     26  O   UNL     1      13.889  29.000   6.308  1.00  0.00    -0.508 OA
ATOM     27  H   UNL     1      14.766  28.563   6.565  1.00  0.00     0.293 HD
ENDBRANCH   8  26
TORSDOF 6
ENDMDL
MODEL 8
REMARK VINA RESULT:    -4.728      5.893      9.923
REMARK INTER + INTRA:          -6.002
REMARK INTER:                  -5.730
REMARK INTRA:                  -0.271
REMARK UNBOUND:                -0.306
REMARK SMILES O=c1c(O)c(-c2ccc(O)c(O)c2)oc2cc(O)cc(O)c12
REMARK SMILES IDX 5 1 3 2 2 3 1 4 22 5 20 6 19 7 17 8 16 9 15 10 14 11 6 12
REMARK SMILES IDX 7 13 8 14 9 15 13 16 11 17 10 18 12 20 4 22 21 24 18 26
REMARK H PARENT 10 19 12 21 4 23 21 25 18 27
REMARK Flexibility Score: inf
ROOT
ATOM      1  C   UNL     1       8.146  28.127  10.606  1.00  0.00     0.180 A 
ATOM      2  C   UNL     1       9.428  28.061  10.026  1.00  0.00     0.208 A 
ATOM      3  C   UNL     1      10.539  27.851  10.858  1.00  0.00     0.238 A 
ATOM      4  O   UNL     1      11.690  27.779  10.349  1.00  0.00    -0.285 OA
ATOM      5  C   UNL     1      10.353  27.731  12.251  1.00  0.00     0.111 A 
ATOM      6  C   UNL     1      11.420  27.522  13.159  1.00  0.00     0.134 A 
ATOM      7  C   UNL     1      11.155  27.423  14.532  1.00  0.00     0.093 A 
ATOM      8  C   UNL     1       9.849  27.529  15.015  1.00  0.00     0.123 A 
ATOM      9  C   UNL     1       8.790  27.735  14.123  1.00  0.00     0.094 A 
ATOM     10  C   UNL     1       9.034  27.834  12.751  1.00  0.00     0.146 A 
ATOM     11  O   UNL     1       8.011  28.026  11.925  1.00  0.00    -0.452 OA
ENDROOT
BRANCH   1  12
ATOM     12  C   UNL     1       6.925  28.328   9.793  1.00  0.00     0.025 A 
ATOM     13  C   UNL     1       6.111  27.226   9.488  1.00  0.00     0.016 A 
ATOM     14  C   UNL     1       4.965  27.388   8.705  1.00  0.00     0.051 A 
ATOM     15  C   UNL     1       4.625  28.651   8.201  1.00  0.00     0.157 A 
ATOM     16  C   UNL     1       6.592  29.590   9.268  1.00  0.00     0.062 A 
ATOM     17  C   UNL     1       5.447  29.755   8.482  1.00  0.00     0.158 A 
BRANCH  15  18
ATOM     18  O   UNL     1       3.481  28.809   7.421  1.00  0.00    -0.504 OA
ATOM     19  H   UNL     1       3.527  29.180   6.479  1.00  0.00     0.293 HD
ENDBRANCH  15  18
BRANCH  17  20
ATOM     20  O   UNL     1       5.144  31.022   7.984  1.00  0.00    -0.504 OA
ATOM     21  H   UNL     1       4.491  31.641   8.448  1.00  0.00     0.293 HD
ENDBRANCH  17  20
ENDBRANCH   1  12
BRANCH   2  22
ATOM     22  O   UNL     1       9.589  28.232   8.648  1.00  0.00    -0.502 OA
ATOM     23  H   UNL     1       9.515  29.138   8.202  1.00  0.00     0.293 HD
ENDBRANCH   2  22
BRANCH   6  24
ATOM     24  O   UNL     1      12.736  27.414  12.707  1.00  0.00    -0.507 OA
ATOM     25  H   UNL     1      12.965  26.926  11.849  1.00  0.00     0.293 HD
ENDBRANCH   6  24
BRANCH   8  26
ATOM     26  O   UNL     1       9.612  27.428  16.384  1.00  0.00    -0.508 OA
ATOM     27  H   UNL     1      10.057  26.714  16.948  1.00  0.00     0.293 HD
ENDBRANCH   8  26
TORSDOF 6
ENDMDL
MODEL 9
REMARK VINA RESULT:    -4.597     12.828     16.140
REMARK INTER + INTRA:          -5.845
REMARK INTER:                  -5.583
REMARK INTRA:                  -0.261
REMARK UNBOUND:                -0.306
REMARK SMILES O=c1c(O)c(-c2ccc(O)c(O)c2)oc2cc(O)cc(O)c12
REMARK SMILES IDX 5 1 3 2 2 3 1 4 22 5 20 6 19 7 17 8 16 9 15 10 14 11 6 12
REMARK SMILES IDX 7 13 8 14 9 15 13 16 11 17 10 18 12 20 4 22 21 24 18 26
REMARK H PARENT 10 19 12 21 4 23 21 25 18 27
REMARK Flexibility Score: inf
ROOT
ATOM      1  C   UNL     1      14.905  19.389  14.493  1.00  0.00     0.180 A 
ATOM      2  C   UNL     1      15.894  18.579  13.903  1.00  0.00     0.208 A 
ATOM      3  C   UNL     1      15.742  17.184  13.946  1.00  0.00     0.238 A 
ATOM      4  O   UNL     1      16.616  16.448  13.412  1.00  0.00    -0.285 OA
ATOM      5  C   UNL     1      14.621  16.625  14.592  1.00  0.00     0.111 A 
ATOM      6  C   UNL     1      14.395  15.230  14.683  1.00  0.00     0.134 A 
ATOM      7  C   UNL     1      13.259  14.751  15.351  1.00  0.00     0.093 A 
ATOM      8  C   UNL     1      12.347  15.636  15.929  1.00  0.00     0.123 A 
ATOM      9  C   UNL     1      12.564  17.015  15.843  1.00  0.00     0.094 A 
ATOM     10  C   UNL     1      13.689  17.512  15.179  1.00  0.00     0.146 A 
ATOM     11  O   UNL     1      13.869  18.826  15.107  1.00  0.00    -0.452 OA
ENDROOT
BRANCH   1  12
ATOM     12  C   UNL     1      14.985  20.868  14.472  1.00  0.00     0.025 A 
ATOM     13  C   UNL     1      15.866  21.524  15.347  1.00  0.00     0.016 A 
ATOM     14  C   UNL     1      15.942  22.919  15.359  1.00  0.00     0.051 A 
ATOM     15  C   UNL     1      15.127  23.679  14.510  1.00  0.00     0.157 A 
ATOM     16  C   UNL     1      14.153  21.636  13.637  1.00  0.00     0.062 A 
ATOM     17  C   UNL     1      14.226  23.033  13.649  1.00  0.00     0.158 A 
BRANCH  15  18
ATOM     18  O   UNL     1      15.207  25.071  14.524  1.00  0.00    -0.504 OA
ATOM     19  H   UNL     1      16.098  25.552  14.491  1.00  0.00     0.293 HD
ENDBRANCH  15  18
BRANCH  17  20
ATOM     20  O   UNL     1      13.391  23.762  12.802  1.00  0.00    -0.504 OA
ATOM     21  H   UNL     1      13.591  23.876  11.816  1.00  0.00     0.293 HD
ENDBRANCH  17  20
ENDBRANCH   1  12
BRANCH   2  22
ATOM     22  O   UNL     1      17.021  19.157  13.312  1.00  0.00    -0.502 OA
ATOM     23  H   UNL     1      17.280  18.979  12.349  1.00  0.00     0.293 HD
ENDBRANCH   2  22
BRANCH   6  24
ATOM     24  O   UNL     1      15.290  14.320  14.117  1.00  0.00    -0.507 OA
ATOM     25  H   UNL     1      15.308  13.346  14.398  1.00  0.00     0.293 HD
ENDBRANCH   6  24
BRANCH   8  26
ATOM     26  O   UNL     1      11.227  15.134  16.588  1.00  0.00    -0.508 OA
ATOM     27  H   UNL     1      10.699  14.353  16.218  1.00  0.00     0.293 HD
ENDBRANCH   8  26
TORSDOF 6
ENDMDL
