MODEL 1
REMARK VINA RESULT:    -5.089      0.000      0.000
REMARK INTER + INTRA:          -9.309
REMARK INTER:                  -8.064
REMARK INTRA:                  -1.245
REMARK UNBOUND:                -1.245
REMARK SMILES CCCCCCCCCCCC(=O)[O-]
REMARK SMILES IDX 7 1 8 2 9 3 10 4 11 5 12 6 13 7 14 8 6 9 5 10 4 11 3 12 2 13
REMARK SMILES IDX 1 14
REMARK H PARENT
REMARK Flexibility Score: inf
ROOT
ATOM      1  C   UNL     1      20.210  22.402   5.999  1.00  0.00     0.000 C 
ENDROOT
BRANCH   1   2
ATOM      2  C   UNL     1      21.217  22.047   7.104  1.00  0.00     0.000 C 
BRANCH   2   3
ATOM      3  C   UNL     1      21.408  23.180   8.128  1.00  0.00     0.000 C 
BRANCH   3   4
ATOM      4  C   UNL     1      21.614  22.716   9.584  1.00  0.00     0.006 C 
BRANCH   4   5
ATOM      5  C   UNL     1      20.552  23.225  10.572  1.00  0.00     0.053 C 
BRANCH   5   6
ATOM      6  C   UNL     1      19.284  22.432  10.487  1.00  0.00     0.041 C 
ATOM      7  O   UNL     1      19.268  21.324   9.891  1.00  0.00    -0.550 OA
ATOM      8  O   UNL     1      18.128  22.903  11.097  1.00  0.00    -0.550 OA
ENDBRANCH   5   6
ENDBRANCH   4   5
ENDBRANCH   3   4
ENDBRANCH   2   3
ENDBRANCH   1   2
BRANCH   1   9
ATOM      9  C   UNL     1      18.770  22.224   6.491  1.00  0.00     0.000 C 
BRANCH   9  10
ATOM     10  C   UNL     1      18.016  23.559   6.486  1.00  0.00    -0.000 C 
BRANCH  10  11
ATOM     11  C   UNL     1      17.082  23.670   7.698  1.00  0.00    -0.000 C 
BRANCH  11  12
ATOM     12  C   UNL     1      17.269  25.015   8.416  1.00  0.00    -0.000 C 
BRANCH  12  13
ATOM     13  C   UNL     1      18.740  25.458   8.466  1.00  0.00    -0.003 C 
ATOM     14  C   UNL     1      18.914  26.870   9.023  1.00  0.00     0.004 C 
ENDBRANCH  12  13
ENDBRANCH  11  12
ENDBRANCH  10  11
ENDBRANCH   9  10
ENDBRANCH   1   9
TORSDOF 10
ENDMDL
MODEL 2
REMARK VINA RESULT:    -4.893      1.144      3.359
REMARK INTER + INTRA:          -8.999
REMARK INTER:                  -7.395
REMARK INTRA:                  -1.604
REMARK UNBOUND:                -1.245
REMARK SMILES CCCCCCCCCCCC(=O)[O-]
REMARK SMILES IDX 7 1 8 2 9 3 10 4 11 5 12 6 13 7 14 8 6 9 5 10 4 11 3 12 2 13
REMARK SMILES IDX 1 14
REMARK H PARENT
REMARK Flexibility Score: inf
ROOT
ATOM      1  C   UNL     1      17.390  25.024   8.465  1.00  0.00     0.000 C 
ENDROOT
BRANCH   1   2
ATOM      2  C   UNL     1      18.735  25.566   8.973  1.00  0.00     0.000 C 
BRANCH   2   3
ATOM      3  C   UNL     1      19.870  24.530   8.887  1.00  0.00     0.000 C 
BRANCH   3   4
ATOM      4  C   UNL     1      19.957  23.555  10.079  1.00  0.00     0.006 C 
BRANCH   4   5
ATOM      5  C   UNL     1      19.521  22.117   9.759  1.00  0.00     0.053 C 
BRANCH   5   6
ATOM      6  C   UNL     1      18.288  21.725  10.512  1.00  0.00     0.041 C 
ATOM      7  O   UNL     1      17.764  22.526  11.331  1.00  0.00    -0.550 OA
ATOM      8  O   UNL     1      17.698  20.488  10.286  1.00  0.00    -0.550 OA
ENDBRANCH   5   6
ENDBRANCH   4   5
ENDBRANCH   3   4
ENDBRANCH   2   3
ENDBRANCH   1   2
BRANCH   1   9
ATOM      9  C   UNL     1      17.547  24.370   7.088  1.00  0.00     0.000 C 
BRANCH   9  10
ATOM     10  C   UNL     1      16.935  22.964   7.073  1.00  0.00    -0.000 C 
BRANCH  10  11
ATOM     11  C   UNL     1      17.875  21.961   6.393  1.00  0.00    -0.000 C 
BRANCH  11  12
ATOM     12  C   UNL     1      19.112  22.668   5.817  1.00  0.00    -0.000 C 
BRANCH  12  13
ATOM     13  C   UNL     1      20.303  21.715   5.632  1.00  0.00    -0.003 C 
ATOM     14  C   UNL     1      21.455  22.016   6.591  1.00  0.00     0.004 C 
ENDBRANCH  12  13
ENDBRANCH  11  12
ENDBRANCH  10  11
ENDBRANCH   9  10
ENDBRANCH   1   9
TORSDOF 10
ENDMDL
MODEL 3
REMARK VINA RESULT:    -4.884      1.791      4.119
REMARK INTER + INTRA:          -8.983
REMARK INTER:                  -7.563
REMARK INTRA:                  -1.420
REMARK UNBOUND:                -1.245
REMARK SMILES CCCCCCCCCCCC(=O)[O-]
REMARK SMILES IDX 7 1 8 2 9 3 10 4 11 5 12 6 13 7 14 8 6 9 5 10 4 11 3 12 2 13
REMARK SMILES IDX 1 14
REMARK H PARENT
REMARK Flexibility Score: inf
ROOT
ATOM      1  C   UNL     1      20.656  21.918   6.915  1.00  0.00     0.000 C 
ENDROOT
BRANCH   1   2
ATOM      2  C   UNL     1      19.622  22.431   5.902  1.00  0.00     0.000 C 
BRANCH   2   3
ATOM      3  C   UNL     1      18.208  22.556   6.498  1.00  0.00     0.000 C 
BRANCH   3   4
ATOM      4  C   UNL     1      17.725  24.001   6.736  1.00  0.00     0.006 C 
BRANCH   4   5
ATOM      5  C   UNL     1      17.254  24.288   8.170  1.00  0.00     0.053 C 
BRANCH   5   6
ATOM      6  C   UNL     1      17.850  25.550   8.713  1.00  0.00     0.041 C 
ATOM      7  O   UNL     1      17.106  26.461   9.160  1.00  0.00    -0.550 OA
ATOM      8  O   UNL     1      19.230  25.705   8.756  1.00  0.00    -0.550 OA
ENDBRANCH   5   6
ENDBRANCH   4   5
ENDBRANCH   3   4
ENDBRANCH   2   3
ENDBRANCH   1   2
BRANCH   1   9
ATOM      9  C   UNL     1      21.247  23.075   7.730  1.00  0.00     0.000 C 
BRANCH   9  10
ATOM     10  C   UNL     1      21.208  22.767   9.232  1.00  0.00    -0.000 C 
BRANCH  10  11
ATOM     11  C   UNL     1      19.931  22.006   9.606  1.00  0.00    -0.000 C 
BRANCH  11  12
ATOM     12  C   UNL     1      19.330  22.547  10.912  1.00  0.00    -0.000 C 
BRANCH  12  13
ATOM     13  C   UNL     1      17.868  22.119  11.111  1.00  0.00    -0.003 C 
ATOM     14  C   UNL     1      17.459  20.967  10.193  1.00  0.00     0.004 C 
ENDBRANCH  12  13
ENDBRANCH  11  12
ENDBRANCH  10  11
ENDBRANCH   9  10
ENDBRANCH   1   9
TORSDOF 10
ENDMDL
MODEL 4
REMARK VINA RESULT:    -4.876      2.284      3.948
REMARK INTER + INTRA:          -8.972
REMARK INTER:                  -7.355
REMARK INTRA:                  -1.617
REMARK UNBOUND:                -1.245
REMARK SMILES CCCCCCCCCCCC(=O)[O-]
REMARK SMILES IDX 7 1 8 2 9 3 10 4 11 5 12 6 13 7 14 8 6 9 5 10 4 11 3 12 2 13
REMARK SMILES IDX 1 14
REMARK H PARENT
REMARK Flexibility Score: inf
ROOT
ATOM      1  C   UNL     1      18.367  22.207  11.040  1.00  0.00     0.000 C 
ENDROOT
BRANCH   1   2
ATOM      2  C   UNL     1      18.211  21.119   9.966  1.00  0.00     0.000 C 
BRANCH   2   3
ATOM      3  C   UNL     1      19.257  21.231   8.843  1.00  0.00     0.000 C 
BRANCH   3   4
ATOM      4  C   UNL     1      20.459  22.144   9.159  1.00  0.00     0.006 C 
BRANCH   4   5
ATOM      5  C   UNL     1      21.147  22.743   7.922  1.00  0.00     0.053 C 
BRANCH   5   6
ATOM      6  C   UNL     1      21.780  21.688   7.068  1.00  0.00     0.041 C 
ATOM      7  O   UNL     1      21.585  21.680   5.824  1.00  0.00    -0.550 OA
ATOM      8  O   UNL     1      22.611  20.734   7.641  1.00  0.00    -0.550 OA
ENDBRANCH   5   6
ENDBRANCH   4   5
ENDBRANCH   3   4
ENDBRANCH   2   3
ENDBRANCH   1   2
BRANCH   1   9
ATOM      9  C   UNL     1      17.024  22.885  11.335  1.00  0.00     0.000 C 
BRANCH   9  10
ATOM     10  C   UNL     1      16.876  24.184  10.535  1.00  0.00    -0.000 C 
BRANCH  10  11
ATOM     11  C   UNL     1      18.246  24.761  10.160  1.00  0.00    -0.000 C 
BRANCH  11  12
ATOM     12  C   UNL     1      18.291  25.150   8.674  1.00  0.00    -0.000 C 
BRANCH  12  13
ATOM     13  C   UNL     1      17.169  24.492   7.857  1.00  0.00    -0.003 C 
ATOM     14  C   UNL     1      17.695  23.708   6.655  1.00  0.00     0.004 C 
ENDBRANCH  12  13
ENDBRANCH  11  12
ENDBRANCH  10  11
ENDBRANCH   9  10
ENDBRANCH   1   9
TORSDOF 10
ENDMDL
MODEL 5
REMARK VINA RESULT:    -4.869      2.057      4.100
REMARK INTER + INTRA:          -8.961
REMARK INTER:                  -7.758
REMARK INTRA:                  -1.203
REMARK UNBOUND:                -1.245
REMARK SMILES CCCCCCCCCCCC(=O)[O-]
REMARK SMILES IDX 7 1 8 2 9 3 10 4 11 5 12 6 13 7 14 8 6 9 5 10 4 11 3 12 2 13
REMARK SMILES IDX 1 14
REMARK H PARENT
REMARK Flexibility Score: inf
ROOT
ATOM      1  C   UNL     1      19.639  22.298   5.777  1.00  0.00     0.000 C 
ENDROOT
BRANCH   1   2
ATOM      2  C   UNL     1      18.356  22.269   6.622  1.00  0.00     0.000 C 
BRANCH   2   3
ATOM      3  C   UNL     1      17.539  23.569   6.517  1.00  0.00     0.000 C 
BRANCH   3   4
ATOM      4  C   UNL     1      17.313  24.309   7.851  1.00  0.00     0.006 C 
BRANCH   4   5
ATOM      5  C   UNL     1      18.555  25.028   8.399  1.00  0.00     0.053 C 
BRANCH   5   6
ATOM      6  C   UNL     1      18.215  26.362   8.989  1.00  0.00     0.041 C 
ATOM      7  O   UNL     1      19.105  27.242   9.123  1.00  0.00    -0.550 OA
ATOM      8  O   UNL     1      16.906  26.646   9.358  1.00  0.00    -0.550 OA
ENDBRANCH   5   6
ENDBRANCH   4   5
ENDBRANCH   3   4
ENDBRANCH   2   3
ENDBRANCH   1   2
BRANCH   1   9
ATOM      9  C   UNL     1      20.882  22.389   6.670  1.00  0.00     0.000 C 
BRANCH   9  10
ATOM     10  C   UNL     1      20.702  21.566   7.951  1.00  0.00    -0.000 C 
BRANCH  10  11
ATOM     11  C   UNL     1      21.395  22.241   9.141  1.00  0.00    -0.000 C 
BRANCH  11  12
ATOM     12  C   UNL     1      20.365  22.854  10.102  1.00  0.00    -0.000 C 
BRANCH  12  13
ATOM     13  C   UNL     1      19.131  21.959  10.295  1.00  0.00    -0.003 C 
ATOM     14  C   UNL     1      18.257  22.402  11.467  1.00  0.00     0.004 C 
ENDBRANCH  12  13
ENDBRANCH  11  12
ENDBRANCH  10  11
ENDBRANCH   9  10
ENDBRANCH   1   9
TORSDOF 10
ENDMDL
MODEL 6
REMARK VINA RESULT:    -4.868      1.901      4.067
REMARK INTER + INTRA:          -8.959
REMARK INTER:                  -7.709
REMARK INTRA:                  -1.250
REMARK UNBOUND:                -1.245
REMARK SMILES CCCCCCCCCCCC(=O)[O-]
REMARK SMILES IDX 7 1 8 2 9 3 10 4 11 5 12 6 13 7 14 8 6 9 5 10 4 11 3 12 2 13
REMARK SMILES IDX 1 14
REMARK H PARENT
REMARK Flexibility Score: inf
ROOT
ATOM      1  C   UNL     1      21.887  22.847   9.436  1.00  0.00     0.000 C 
ENDROOT
BRANCH   1   2
ATOM      2  C   UNL     1      20.982  23.420  10.538  1.00  0.00     0.000 C 
BRANCH   2   3
ATOM      3  C   UNL     1      19.562  22.828  10.517  1.00  0.00     0.000 C 
BRANCH   3   4
ATOM      4  C   UNL     1      18.434  23.845  10.245  1.00  0.00     0.006 C 
BRANCH   4   5
ATOM      5  C   UNL     1      18.920  25.273   9.955  1.00  0.00     0.053 C 
BRANCH   5   6
ATOM      6  C   UNL     1      18.206  25.882   8.788  1.00  0.00     0.041 C 
ATOM      7  O   UNL     1      18.416  27.082   8.472  1.00  0.00    -0.550 OA
ATOM      8  O   UNL     1      17.332  25.112   8.029  1.00  0.00    -0.550 OA
ENDBRANCH   5   6
ENDBRANCH   4   5
ENDBRANCH   3   4
ENDBRANCH   2   3
ENDBRANCH   1   2
BRANCH   1   9
ATOM      9  C   UNL     1      21.300  23.121   8.047  1.00  0.00     0.000 C 
BRANCH   9  10
ATOM     10  C   UNL     1      21.440  21.894   7.138  1.00  0.00    -0.000 C 
BRANCH  10  11
ATOM     11  C   UNL     1      20.567  22.034   5.885  1.00  0.00    -0.000 C 
BRANCH  11  12
ATOM     12  C   UNL     1      19.264  22.783   6.202  1.00  0.00    -0.000 C 
BRANCH  12  13
ATOM     13  C   UNL     1      18.032  21.866   6.168  1.00  0.00    -0.003 C 
ATOM     14  C   UNL     1      17.522  21.510   7.564  1.00  0.00     0.004 C 
ENDBRANCH  12  13
ENDBRANCH  11  12
ENDBRANCH  10  11
ENDBRANCH   9  10
ENDBRANCH   1   9
TORSDOF 10
ENDMDL
MODEL 7
REMARK VINA RESULT:    -4.868      2.045      4.101
REMARK INTER + INTRA:          -8.958
REMARK INTER:                  -7.524
REMARK INTRA:                  -1.434
REMARK UNBOUND:                -1.245
REMARK SMILES CCCCCCCCCCCC(=O)[O-]
REMARK SMILES IDX 7 1 8 2 9 3 10 4 11 5 12 6 13 7 14 8 6 9 5 10 4 11 3 12 2 13
REMARK SMILES IDX 1 14
REMARK H PARENT
REMARK Flexibility Score: inf
ROOT
ATOM      1  C   UNL     1      17.101  24.281   7.901  1.00  0.00     0.000 C 
ENDROOT
BRANCH   1   2
ATOM      2  C   UNL     1      17.636  23.828   6.534  1.00  0.00     0.000 C 
BRANCH   2   3
ATOM      3  C   UNL     1      18.305  22.442   6.581  1.00  0.00     0.000 C 
BRANCH   3   4
ATOM      4  C   UNL     1      19.701  22.369   5.929  1.00  0.00     0.006 C 
BRANCH   4   5
ATOM      5  C   UNL     1      20.871  22.389   6.925  1.00  0.00     0.053 C 
BRANCH   5   6
ATOM      6  C   UNL     1      21.394  21.014   7.202  1.00  0.00     0.041 C 
ATOM      7  O   UNL     1      22.490  20.861   7.803  1.00  0.00    -0.550 OA
ATOM      8  O   UNL     1      20.655  19.899   6.824  1.00  0.00    -0.550 OA
ENDBRANCH   5   6
ENDBRANCH   4   5
ENDBRANCH   3   4
ENDBRANCH   2   3
ENDBRANCH   1   2
BRANCH   1   9
ATOM      9  C   UNL     1      17.850  25.521   8.401  1.00  0.00     0.000 C 
BRANCH   9  10
ATOM     10  C   UNL     1      19.291  25.173   8.795  1.00  0.00    -0.000 C 
BRANCH  10  11
ATOM     11  C   UNL     1      19.356  24.637  10.230  1.00  0.00    -0.000 C 
BRANCH  11  12
ATOM     12  C   UNL     1      20.098  23.293  10.281  1.00  0.00    -0.000 C 
BRANCH  12  13
ATOM     13  C   UNL     1      19.141  22.093  10.359  1.00  0.00    -0.003 C 
ATOM     14  C   UNL     1      17.881  22.393  11.170  1.00  0.00     0.004 C 
ENDBRANCH  12  13
ENDBRANCH  11  12
ENDBRANCH  10  11
ENDBRANCH   9  10
ENDBRANCH   1   9
TORSDOF 10
ENDMDL
MODEL 8
REMARK VINA RESULT:    -4.777      1.976      3.398
REMARK INTER + INTRA:          -8.814
REMARK INTER:                  -7.393
REMARK INTRA:                  -1.421
REMARK UNBOUND:                -1.245
REMARK SMILES CCCCCCCCCCCC(=O)[O-]
REMARK SMILES IDX 7 1 8 2 9 3 10 4 11 5 12 6 13 7 14 8 6 9 5 10 4 11 3 12 2 13
REMARK SMILES IDX 1 14
REMARK H PARENT
REMARK Flexibility Score: inf
ROOT
ATOM      1  C   UNL     1      19.434  22.158  10.043  1.00  0.00     0.000 C 
ENDROOT
BRANCH   1   2
ATOM      2  C   UNL     1      20.626  23.115  10.196  1.00  0.00     0.000 C 
BRANCH   2   3
ATOM      3  C   UNL     1      21.202  23.578   8.846  1.00  0.00     0.000 C 
BRANCH   3   4
ATOM      4  C   UNL     1      20.695  22.796   7.617  1.00  0.00     0.006 C 
BRANCH   4   5
ATOM      5  C   UNL     1      21.762  21.933   6.926  1.00  0.00     0.053 C 
BRANCH   5   6
ATOM      6  C   UNL     1      21.327  20.506   6.792  1.00  0.00     0.041 C 
ATOM      7  O   UNL     1      22.103  19.651   6.292  1.00  0.00    -0.550 OA
ATOM      8  O   UNL     1      20.075  20.115   7.251  1.00  0.00    -0.550 OA
ENDBRANCH   5   6
ENDBRANCH   4   5
ENDBRANCH   3   4
ENDBRANCH   2   3
ENDBRANCH   1   2
BRANCH   1   9
ATOM      9  C   UNL     1      18.298  22.539  10.999  1.00  0.00     0.000 C 
BRANCH   9  10
ATOM     10  C   UNL     1      17.454  23.684  10.425  1.00  0.00    -0.000 C 
BRANCH  10  11
ATOM     11  C   UNL     1      17.218  23.494   8.921  1.00  0.00    -0.000 C 
BRANCH  11  12
ATOM     12  C   UNL     1      17.569  24.771   8.144  1.00  0.00    -0.000 C 
BRANCH  12  13
ATOM     13  C   UNL     1      17.716  25.997   9.058  1.00  0.00    -0.003 C 
ATOM     14  C   UNL     1      19.055  26.711   8.880  1.00  0.00     0.004 C 
ENDBRANCH  12  13
ENDBRANCH  11  12
ENDBRANCH  10  11
ENDBRANCH   9  10
ENDBRANCH   1   9
TORSDOF 10
ENDMDL
MODEL 9
REMARK VINA RESULT:    -4.674      1.795      3.567
REMARK INTER + INTRA:          -8.651
REMARK INTER:                  -7.103
REMARK INTRA:                  -1.548
REMARK UNBOUND:                -1.245
REMARK SMILES CCCCCCCCCCCC(=O)[O-]
REMARK SMILES IDX 7 1 8 2 9 3 10 4 11 5 12 6 13 7 14 8 6 9 5 10 4 11 3 12 2 13
REMARK SMILES IDX 1 14
REMARK H PARENT
REMARK Flexibility Score: inf
ROOT
ATOM      1  C   UNL     1      17.500  21.200   7.404  1.00  0.00     0.000 C 
ENDROOT
BRANCH   1   2
ATOM      2  C   UNL     1      17.128  21.382   8.883  1.00  0.00     0.000 C 
BRANCH   2   3
ATOM      3  C   UNL     1      18.353  21.381   9.815  1.00  0.00     0.000 C 
BRANCH   3   4
ATOM      4  C   UNL     1      18.355  22.484  10.893  1.00  0.00     0.006 C 
BRANCH   4   5
ATOM      5  C   UNL     1      17.329  23.604  10.661  1.00  0.00     0.053 C 
BRANCH   5   6
ATOM      6  C   UNL     1      17.918  24.755   9.906  1.00  0.00     0.041 C 
ATOM      7  O   UNL     1      17.292  25.266   8.941  1.00  0.00    -0.550 OA
ATOM      8  O   UNL     1      19.144  25.284  10.289  1.00  0.00    -0.550 OA
ENDBRANCH   5   6
ENDBRANCH   4   5
ENDBRANCH   3   4
ENDBRANCH   2   3
ENDBRANCH   1   2
BRANCH   1   9
ATOM      9  C   UNL     1      17.324  22.510   6.627  1.00  0.00     0.000 C 
BRANCH   9  10
ATOM     10  C   UNL     1      18.671  23.212   6.418  1.00  0.00    -0.000 C 
BRANCH  10  11
ATOM     11  C   UNL     1      19.730  22.231   5.902  1.00  0.00    -0.000 C 
BRANCH  11  12
ATOM     12  C   UNL     1      20.975  22.241   6.802  1.00  0.00    -0.000 C 
BRANCH  12  13
ATOM     13  C   UNL     1      20.823  23.180   8.009  1.00  0.00    -0.003 C 
ATOM     14  C   UNL     1      21.746  22.806   9.168  1.00  0.00     0.004 C 
ENDBRANCH  12  13
ENDBRANCH  11  12
ENDBRANCH  10  11
ENDBRANCH   9  10
ENDBRANCH   1   9
TORSDOF 10
ENDMDL
