MODEL 1
REMARK VINA RESULT:    -7.814      0.000      0.000
REMARK INTER + INTRA:          -9.448
REMARK INTER:                  -9.184
REMARK INTRA:                  -0.264
REMARK UNBOUND:                -0.264
REMARK SMILES O=c1cc(-c2ccc(O)c(O)c2)oc2cc(O)cc(O)c12
REMARK SMILES IDX 4 1 3 2 2 3 1 4 21 5 19 6 18 7 16 8 15 9 14 10 13 11 5 12
REMARK SMILES IDX 6 13 7 14 8 15 12 16 10 17 9 18 11 20 20 22 17 24
REMARK H PARENT 9 19 11 21 20 23 17 25
REMARK Flexibility Score: inf
ROOT
ATOM      1  C   UNL     1     -42.281  11.577   8.873  1.00  0.00     0.138 A 
ATOM      2  C   UNL     1     -41.868  12.916   8.818  1.00  0.00     0.100 A 
ATOM      3  C   UNL     1     -41.952  13.711   9.963  1.00  0.00     0.197 A 
ATOM      4  O   UNL     1     -41.633  14.924   9.867  1.00  0.00    -0.289 OA
ATOM      5  C   UNL     1     -42.423  13.151  11.175  1.00  0.00     0.107 A 
ATOM      6  C   UNL     1     -42.513  13.855  12.413  1.00  0.00     0.134 A 
ATOM      7  C   UNL     1     -43.103  13.232  13.519  1.00  0.00     0.093 A 
ATOM      8  C   UNL     1     -43.552  11.911  13.448  1.00  0.00     0.123 A 
ATOM      9  C   UNL     1     -43.419  11.198  12.259  1.00  0.00     0.094 A 
ATOM     10  C   UNL     1     -42.866  11.803  11.127  1.00  0.00     0.146 A 
ATOM     11  O   UNL     1     -42.771  11.092  10.008  1.00  0.00    -0.456 OA
ENDROOT
BRANCH   1  12
ATOM     12  C   UNL     1     -42.213  10.687   7.686  1.00  0.00     0.021 A 
ATOM     13  C   UNL     1     -41.279   9.636   7.663  1.00  0.00     0.016 A 
ATOM     14  C   UNL     1     -41.190   8.788   6.556  1.00  0.00     0.051 A 
ATOM     15  C   UNL     1     -42.022   8.981   5.449  1.00  0.00     0.157 A 
ATOM     16  C   UNL     1     -43.039  10.885   6.563  1.00  0.00     0.062 A 
ATOM     17  C   UNL     1     -42.949  10.036   5.450  1.00  0.00     0.158 A 
BRANCH  15  18
ATOM     18  O   UNL     1     -41.911   8.119   4.359  1.00  0.00    -0.504 OA
ATOM     19  H   UNL     1     -42.352   8.317   3.469  1.00  0.00     0.293 HD
ENDBRANCH  15  18
BRANCH  17  20
ATOM     20  O   UNL     1     -43.773  10.241   4.345  1.00  0.00    -0.504 OA
ATOM     21  H   UNL     1     -44.777  10.345   4.442  1.00  0.00     0.293 HD
ENDBRANCH  17  20
ENDBRANCH   1  12
BRANCH   6  22
ATOM     22  O   UNL     1     -42.018  15.147  12.614  1.00  0.00    -0.507 OA
ATOM     23  H   UNL     1     -41.063  15.369  12.852  1.00  0.00     0.293 HD
ENDBRANCH   6  22
BRANCH   8  24
ATOM     24  O   UNL     1     -44.125  11.294  14.558  1.00  0.00    -0.508 OA
ATOM     25  H   UNL     1     -44.071  10.292  14.693  1.00  0.00     0.293 HD
ENDBRANCH   8  24
TORSDOF 5
ENDMDL
MODEL 2
REMARK VINA RESULT:    -7.466      1.633      2.992
REMARK INTER + INTRA:          -9.040
REMARK INTER:                  -8.776
REMARK INTRA:                  -0.264
REMARK UNBOUND:                -0.264
REMARK SMILES O=c1cc(-c2ccc(O)c(O)c2)oc2cc(O)cc(O)c12
REMARK SMILES IDX 4 1 3 2 2 3 1 4 21 5 19 6 18 7 16 8 15 9 14 10 13 11 5 12
REMARK SMILES IDX 6 13 7 14 8 15 12 16 10 17 9 18 11 20 20 22 17 24
REMARK H PARENT 9 19 11 21 20 23 17 25
REMARK Flexibility Score: inf
ROOT
ATOM      1  C   UNL     1     -41.851  11.399   8.843  1.00  0.00     0.138 A 
ATOM      2  C   UNL     1     -41.830  10.486   9.907  1.00  0.00     0.100 A 
ATOM      3  C   UNL     1     -42.042  10.941  11.210  1.00  0.00     0.197 A 
ATOM      4  O   UNL     1     -41.955  10.110  12.149  1.00  0.00    -0.289 OA
ATOM      5  C   UNL     1     -42.306  12.312  11.442  1.00  0.00     0.107 A 
ATOM      6  C   UNL     1     -42.577  12.881  12.722  1.00  0.00     0.134 A 
ATOM      7  C   UNL     1     -42.709  14.270  12.845  1.00  0.00     0.093 A 
ATOM      8  C   UNL     1     -42.640  15.103  11.726  1.00  0.00     0.123 A 
ATOM      9  C   UNL     1     -42.430  14.551  10.465  1.00  0.00     0.094 A 
ATOM     10  C   UNL     1     -42.259  13.173  10.313  1.00  0.00     0.146 A 
ATOM     11  O   UNL     1     -42.046  12.688   9.094  1.00  0.00    -0.456 OA
ENDROOT
BRANCH   1  12
ATOM     12  C   UNL     1     -41.633  10.969   7.438  1.00  0.00     0.021 A 
ATOM     13  C   UNL     1     -42.735  10.597   6.649  1.00  0.00     0.016 A 
ATOM     14  C   UNL     1     -42.557  10.183   5.327  1.00  0.00     0.051 A 
ATOM     15  C   UNL     1     -41.275  10.122   4.772  1.00  0.00     0.157 A 
ATOM     16  C   UNL     1     -40.342  10.894   6.878  1.00  0.00     0.062 A 
ATOM     17  C   UNL     1     -40.161  10.476   5.552  1.00  0.00     0.158 A 
BRANCH  15  18
ATOM     18  O   UNL     1     -41.128   9.706   3.450  1.00  0.00    -0.504 OA
ATOM     19  H   UNL     1     -40.273   9.859   2.929  1.00  0.00     0.293 HD
ENDBRANCH  15  18
BRANCH  17  20
ATOM     20  O   UNL     1     -38.880  10.407   5.008  1.00  0.00    -0.504 OA
ATOM     21  H   UNL     1     -38.207  11.154   5.134  1.00  0.00     0.293 HD
ENDBRANCH  17  20
ENDBRANCH   1  12
BRANCH   6  22
ATOM     22  O   UNL     1     -42.749  12.132  13.889  1.00  0.00    -0.507 OA
ATOM     23  H   UNL     1     -43.640  11.827  14.253  1.00  0.00     0.293 HD
ENDBRANCH   6  22
BRANCH   8  24
ATOM     24  O   UNL     1     -42.787  16.482  11.856  1.00  0.00    -0.508 OA
ATOM     25  H   UNL     1     -42.504  17.117  11.120  1.00  0.00     0.293 HD
ENDBRANCH   8  24
TORSDOF 5
ENDMDL
MODEL 3
REMARK VINA RESULT:    -7.453      2.454      3.939
REMARK INTER + INTRA:          -9.024
REMARK INTER:                  -8.757
REMARK INTRA:                  -0.267
REMARK UNBOUND:                -0.264
REMARK SMILES O=c1cc(-c2ccc(O)c(O)c2)oc2cc(O)cc(O)c12
REMARK SMILES IDX 4 1 3 2 2 3 1 4 21 5 19 6 18 7 16 8 15 9 14 10 13 11 5 12
REMARK SMILES IDX 6 13 7 14 8 15 12 16 10 17 9 18 11 20 20 22 17 24
REMARK H PARENT 9 19 11 21 20 23 17 25
REMARK Flexibility Score: inf
ROOT
ATOM      1  C   UNL     1     -40.781  10.051   6.914  1.00  0.00     0.138 A 
ATOM      2  C   UNL     1     -40.215   9.369   8.000  1.00  0.00     0.100 A 
ATOM      3  C   UNL     1     -40.564   9.732   9.302  1.00  0.00     0.197 A 
ATOM      4  O   UNL     1     -39.993   9.144  10.255  1.00  0.00    -0.289 OA
ATOM      5  C   UNL     1     -41.509  10.765   9.514  1.00  0.00     0.107 A 
ATOM      6  C   UNL     1     -41.970  11.193  10.795  1.00  0.00     0.134 A 
ATOM      7  C   UNL     1     -42.818  12.303  10.887  1.00  0.00     0.093 A 
ATOM      8  C   UNL     1     -43.269  12.964   9.741  1.00  0.00     0.123 A 
ATOM      9  C   UNL     1     -42.867  12.519   8.484  1.00  0.00     0.094 A 
ATOM     10  C   UNL     1     -41.993  11.436   8.361  1.00  0.00     0.146 A 
ATOM     11  O   UNL     1     -41.623  11.054   7.143  1.00  0.00    -0.456 OA
ENDROOT
BRANCH   1  12
ATOM     12  C   UNL     1     -40.446   9.705   5.510  1.00  0.00     0.021 A 
ATOM     13  C   UNL     1     -41.045   8.582   4.913  1.00  0.00     0.016 A 
ATOM     14  C   UNL     1     -40.742   8.230   3.596  1.00  0.00     0.051 A 
ATOM     15  C   UNL     1     -39.829   8.986   2.854  1.00  0.00     0.157 A 
ATOM     16  C   UNL     1     -39.517  10.455   4.763  1.00  0.00     0.062 A 
ATOM     17  C   UNL     1     -39.210  10.102   3.441  1.00  0.00     0.158 A 
BRANCH  15  18
ATOM     18  O   UNL     1     -39.546   8.611   1.541  1.00  0.00    -0.504 OA
ATOM     19  H   UNL     1     -39.784   9.198   0.751  1.00  0.00     0.293 HD
ENDBRANCH  15  18
BRANCH  17  20
ATOM     20  O   UNL     1     -38.290  10.853   2.711  1.00  0.00    -0.504 OA
ATOM     21  H   UNL     1     -37.393  11.120   3.100  1.00  0.00     0.293 HD
ENDBRANCH  17  20
ENDBRANCH   1  12
BRANCH   6  22
ATOM     22  O   UNL     1     -41.648  10.552  11.995  1.00  0.00    -0.507 OA
ATOM     23  H   UNL     1     -42.077   9.701  12.328  1.00  0.00     0.293 HD
ENDBRANCH   6  22
BRANCH   8  24
ATOM     24  O   UNL     1     -44.125  14.058   9.842  1.00  0.00    -0.508 OA
ATOM     25  H   UNL     1     -44.737  14.179  10.640  1.00  0.00     0.293 HD
ENDBRANCH   8  24
TORSDOF 5
ENDMDL
MODEL 4
REMARK VINA RESULT:    -7.396     12.406     14.688
REMARK INTER + INTRA:          -8.958
REMARK INTER:                  -8.685
REMARK INTRA:                  -0.273
REMARK UNBOUND:                -0.264
REMARK SMILES O=c1cc(-c2ccc(O)c(O)c2)oc2cc(O)cc(O)c12
REMARK SMILES IDX 4 1 3 2 2 3 1 4 21 5 19 6 18 7 16 8 15 9 14 10 13 11 5 12
REMARK SMILES IDX 6 13 7 14 8 15 12 16 10 17 9 18 11 20 20 22 17 24
REMARK H PARENT 9 19 11 21 20 23 17 25
REMARK Flexibility Score: inf
ROOT
ATOM      1  C   UNL     1     -31.677  14.146   1.084  1.00  0.00     0.138 A 
ATOM      2  C   UNL     1     -32.472  14.646   2.124  1.00  0.00     0.100 A 
ATOM      3  C   UNL     1     -33.639  13.973   2.486  1.00  0.00     0.197 A 
ATOM      4  O   UNL     1     -34.364  14.479   3.381  1.00  0.00    -0.289 OA
ATOM      5  C   UNL     1     -33.994  12.774   1.822  1.00  0.00     0.107 A 
ATOM      6  C   UNL     1     -35.139  11.981   2.134  1.00  0.00     0.134 A 
ATOM      7  C   UNL     1     -35.453  10.878   1.332  1.00  0.00     0.093 A 
ATOM      8  C   UNL     1     -34.630  10.503   0.266  1.00  0.00     0.123 A 
ATOM      9  C   UNL     1     -33.481  11.239  -0.012  1.00  0.00     0.094 A 
ATOM     10  C   UNL     1     -33.160  12.367   0.748  1.00  0.00     0.146 A 
ATOM     11  O   UNL     1     -32.062  13.050   0.439  1.00  0.00    -0.456 OA
ENDROOT
BRANCH   1  12
ATOM     12  C   UNL     1     -30.425  14.822   0.658  1.00  0.00     0.021 A 
ATOM     13  C   UNL     1     -30.237  15.139  -0.698  1.00  0.00     0.016 A 
ATOM     14  C   UNL     1     -29.065  15.769  -1.125  1.00  0.00     0.051 A 
ATOM     15  C   UNL     1     -28.057  16.084  -0.209  1.00  0.00     0.157 A 
ATOM     16  C   UNL     1     -29.401  15.130   1.576  1.00  0.00     0.062 A 
ATOM     17  C   UNL     1     -28.223  15.760   1.148  1.00  0.00     0.158 A 
BRANCH  15  18
ATOM     18  O   UNL     1     -26.899  16.713  -0.664  1.00  0.00    -0.504 OA
ATOM     19  H   UNL     1     -25.984  16.488  -0.295  1.00  0.00     0.293 HD
ENDBRANCH  15  18
BRANCH  17  20
ATOM     20  O   UNL     1     -27.218  16.061   2.065  1.00  0.00    -0.504 OA
ATOM     21  H   UNL     1     -26.497  16.743   1.859  1.00  0.00     0.293 HD
ENDBRANCH  17  20
ENDBRANCH   1  12
BRANCH   6  22
ATOM     22  O   UNL     1     -35.979  12.218   3.226  1.00  0.00    -0.507 OA
ATOM     23  H   UNL     1     -36.654  11.561   3.589  1.00  0.00     0.293 HD
ENDBRANCH   6  22
BRANCH   8  24
ATOM     24  O   UNL     1     -34.943   9.394  -0.517  1.00  0.00    -0.508 OA
ATOM     25  H   UNL     1     -35.172   9.488  -1.500  1.00  0.00     0.293 HD
ENDBRANCH   8  24
TORSDOF 5
ENDMDL
MODEL 5
REMARK VINA RESULT:    -7.327     12.420     14.935
REMARK INTER + INTRA:          -8.877
REMARK INTER:                  -8.603
REMARK INTRA:                  -0.273
REMARK UNBOUND:                -0.264
REMARK SMILES O=c1cc(-c2ccc(O)c(O)c2)oc2cc(O)cc(O)c12
REMARK SMILES IDX 4 1 3 2 2 3 1 4 21 5 19 6 18 7 16 8 15 9 14 10 13 11 5 12
REMARK SMILES IDX 6 13 7 14 8 15 12 16 10 17 9 18 11 20 20 22 17 24
REMARK H PARENT 9 19 11 21 20 23 17 25
REMARK Flexibility Score: inf
ROOT
ATOM      1  C   UNL     1     -31.202  13.250   0.708  1.00  0.00     0.138 A 
ATOM      2  C   UNL     1     -31.137  12.170  -0.183  1.00  0.00     0.100 A 
ATOM      3  C   UNL     1     -32.232  11.313  -0.309  1.00  0.00     0.197 A 
ATOM      4  O   UNL     1     -32.121  10.317  -1.069  1.00  0.00    -0.289 OA
ATOM      5  C   UNL     1     -33.408  11.559   0.440  1.00  0.00     0.107 A 
ATOM      6  C   UNL     1     -34.598  10.776   0.363  1.00  0.00     0.134 A 
ATOM      7  C   UNL     1     -35.658  11.045   1.237  1.00  0.00     0.093 A 
ATOM      8  C   UNL     1     -35.594  12.106   2.144  1.00  0.00     0.123 A 
ATOM      9  C   UNL     1     -34.457  12.909   2.189  1.00  0.00     0.094 A 
ATOM     10  C   UNL     1     -33.368  12.644   1.354  1.00  0.00     0.146 A 
ATOM     11  O   UNL     1     -32.297  13.426   1.440  1.00  0.00    -0.456 OA
ENDROOT
BRANCH   1  12
ATOM     12  C   UNL     1     -30.068  14.193   0.880  1.00  0.00     0.021 A 
ATOM     13  C   UNL     1     -29.581  14.460   2.172  1.00  0.00     0.016 A 
ATOM     14  C   UNL     1     -28.519  15.348   2.361  1.00  0.00     0.051 A 
ATOM     15  C   UNL     1     -27.933  15.994   1.269  1.00  0.00     0.157 A 
ATOM     16  C   UNL     1     -29.482  14.856  -0.216  1.00  0.00     0.062 A 
ATOM     17  C   UNL     1     -28.418  15.750  -0.027  1.00  0.00     0.158 A 
BRANCH  15  18
ATOM     18  O   UNL     1     -26.875  16.875   1.489  1.00  0.00    -0.504 OA
ATOM     19  H   UNL     1     -25.909  16.595   1.375  1.00  0.00     0.293 HD
ENDBRANCH  15  18
BRANCH  17  20
ATOM     20  O   UNL     1     -27.846  16.399  -1.119  1.00  0.00    -0.504 OA
ATOM     21  H   UNL     1     -28.087  17.354  -1.357  1.00  0.00     0.293 HD
ENDBRANCH  17  20
ENDBRANCH   1  12
BRANCH   6  22
ATOM     22  O   UNL     1     -34.798   9.749  -0.564  1.00  0.00    -0.507 OA
ATOM     23  H   UNL     1     -34.187   9.544  -1.340  1.00  0.00     0.293 HD
ENDBRANCH   6  22
BRANCH   8  24
ATOM     24  O   UNL     1     -36.660  12.375   3.000  1.00  0.00    -0.508 OA
ATOM     25  H   UNL     1     -37.615  12.400   2.664  1.00  0.00     0.293 HD
ENDBRANCH   8  24
TORSDOF 5
ENDMDL
MODEL 6
REMARK VINA RESULT:    -7.064      1.379      7.315
REMARK INTER + INTRA:          -8.567
REMARK INTER:                  -8.304
REMARK INTRA:                  -0.264
REMARK UNBOUND:                -0.264
REMARK SMILES O=c1cc(-c2ccc(O)c(O)c2)oc2cc(O)cc(O)c12
REMARK SMILES IDX 4 1 3 2 2 3 1 4 21 5 19 6 18 7 16 8 15 9 14 10 13 11 5 12
REMARK SMILES IDX 6 13 7 14 8 15 12 16 10 17 9 18 11 20 20 22 17 24
REMARK H PARENT 9 19 11 21 20 23 17 25
REMARK Flexibility Score: inf
ROOT
ATOM      1  C   UNL     1     -41.956  11.121   8.900  1.00  0.00     0.138 A 
ATOM      2  C   UNL     1     -41.020  10.078   8.923  1.00  0.00     0.100 A 
ATOM      3  C   UNL     1     -40.840   9.287   7.787  1.00  0.00     0.197 A 
ATOM      4  O   UNL     1     -40.039   8.320   7.858  1.00  0.00    -0.289 OA
ATOM      5  C   UNL     1     -41.581   9.563   6.613  1.00  0.00     0.107 A 
ATOM      6  C   UNL     1     -41.452   8.850   5.385  1.00  0.00     0.134 A 
ATOM      7  C   UNL     1     -42.321   9.137   4.325  1.00  0.00     0.093 A 
ATOM      8  C   UNL     1     -43.274  10.154   4.430  1.00  0.00     0.123 A 
ATOM      9  C   UNL     1     -43.371  10.892   5.607  1.00  0.00     0.094 A 
ATOM     10  C   UNL     1     -42.542  10.605   6.694  1.00  0.00     0.146 A 
ATOM     11  O   UNL     1     -42.678  11.324   7.804  1.00  0.00    -0.456 OA
ENDROOT
BRANCH   1  12
ATOM     12  C   UNL     1     -42.186  11.994  10.080  1.00  0.00     0.021 A 
ATOM     13  C   UNL     1     -41.867  13.360  10.002  1.00  0.00     0.016 A 
ATOM     14  C   UNL     1     -42.067  14.201  11.099  1.00  0.00     0.051 A 
ATOM     15  C   UNL     1     -42.580  13.692  12.296  1.00  0.00     0.157 A 
ATOM     16  C   UNL     1     -42.690  11.483  11.292  1.00  0.00     0.062 A 
ATOM     17  C   UNL     1     -42.890  12.325  12.396  1.00  0.00     0.158 A 
BRANCH  15  18
ATOM     18  O   UNL     1     -42.770  14.555  13.375  1.00  0.00    -0.504 OA
ATOM     19  H   UNL     1     -42.706  14.240  14.334  1.00  0.00     0.293 HD
ENDBRANCH  15  18
BRANCH  17  20
ATOM     20  O   UNL     1     -43.390  11.809  13.589  1.00  0.00    -0.504 OA
ATOM     21  H   UNL     1     -43.080  12.154  14.490  1.00  0.00     0.293 HD
ENDBRANCH  17  20
ENDBRANCH   1  12
BRANCH   6  22
ATOM     22  O   UNL     1     -40.478   7.876   5.146  1.00  0.00    -0.507 OA
ATOM     23  H   UNL     1     -40.573   6.897   5.374  1.00  0.00     0.293 HD
ENDBRANCH   6  22
BRANCH   8  24
ATOM     24  O   UNL     1     -44.125  10.443   3.365  1.00  0.00    -0.508 OA
ATOM     25  H   UNL     1     -45.025  10.883   3.511  1.00  0.00     0.293 HD
ENDBRANCH   8  24
TORSDOF 5
ENDMDL
MODEL 7
REMARK VINA RESULT:    -7.061      2.659      3.866
REMARK INTER + INTRA:          -8.563
REMARK INTER:                  -8.298
REMARK INTRA:                  -0.265
REMARK UNBOUND:                -0.264
REMARK SMILES O=c1cc(-c2ccc(O)c(O)c2)oc2cc(O)cc(O)c12
REMARK SMILES IDX 4 1 3 2 2 3 1 4 21 5 19 6 18 7 16 8 15 9 14 10 13 11 5 12
REMARK SMILES IDX 6 13 7 14 8 15 12 16 10 17 9 18 11 20 20 22 17 24
REMARK H PARENT 9 19 11 21 20 23 17 25
REMARK Flexibility Score: inf
ROOT
ATOM      1  C   UNL     1     -41.233  10.177   6.485  1.00  0.00     0.138 A 
ATOM      2  C   UNL     1     -42.411  10.929   6.594  1.00  0.00     0.100 A 
ATOM      3  C   UNL     1     -42.894  11.275   7.858  1.00  0.00     0.197 A 
ATOM      4  O   UNL     1     -43.985  11.897   7.926  1.00  0.00    -0.289 OA
ATOM      5  C   UNL     1     -42.175  10.891   9.015  1.00  0.00     0.107 A 
ATOM      6  C   UNL     1     -42.550  11.223  10.351  1.00  0.00     0.134 A 
ATOM      7  C   UNL     1     -41.826  10.689  11.424  1.00  0.00     0.093 A 
ATOM      8  C   UNL     1     -40.704   9.884  11.207  1.00  0.00     0.123 A 
ATOM      9  C   UNL     1     -40.298   9.600   9.905  1.00  0.00     0.094 A 
ATOM     10  C   UNL     1     -41.021  10.089   8.814  1.00  0.00     0.146 A 
ATOM     11  O   UNL     1     -40.608   9.782   7.588  1.00  0.00    -0.456 OA
ENDROOT
BRANCH   1  12
ATOM     12  C   UNL     1     -40.675   9.782   5.167  1.00  0.00     0.021 A 
ATOM     13  C   UNL     1     -41.174   8.639   4.519  1.00  0.00     0.016 A 
ATOM     14  C   UNL     1     -40.661   8.242   3.281  1.00  0.00     0.051 A 
ATOM     15  C   UNL     1     -39.635   8.972   2.674  1.00  0.00     0.157 A 
ATOM     16  C   UNL     1     -39.632  10.507   4.557  1.00  0.00     0.062 A 
ATOM     17  C   UNL     1     -39.115  10.108   3.316  1.00  0.00     0.158 A 
BRANCH  15  18
ATOM     18  O   UNL     1     -39.143   8.553   1.439  1.00  0.00    -0.504 OA
ATOM     19  H   UNL     1     -39.714   8.557   0.603  1.00  0.00     0.293 HD
ENDBRANCH  15  18
BRANCH  17  20
ATOM     20  O   UNL     1     -38.084  10.834   2.721  1.00  0.00    -0.504 OA
ATOM     21  H   UNL     1     -37.477  10.422   2.023  1.00  0.00     0.293 HD
ENDBRANCH  17  20
ENDBRANCH   1  12
BRANCH   6  22
ATOM     22  O   UNL     1     -43.602  12.085  10.676  1.00  0.00    -0.507 OA
ATOM     23  H   UNL     1     -43.699  13.030  10.337  1.00  0.00     0.293 HD
ENDBRANCH   6  22
BRANCH   8  24
ATOM     24  O   UNL     1     -39.980   9.370  12.280  1.00  0.00    -0.508 OA
ATOM     25  H   UNL     1     -39.079   8.926  12.147  1.00  0.00     0.293 HD
ENDBRANCH   8  24
TORSDOF 5
ENDMDL
MODEL 8
REMARK VINA RESULT:    -6.816      2.113      7.494
REMARK INTER + INTRA:          -8.276
REMARK INTER:                  -8.013
REMARK INTRA:                  -0.263
REMARK UNBOUND:                -0.264
REMARK SMILES O=c1cc(-c2ccc(O)c(O)c2)oc2cc(O)cc(O)c12
REMARK SMILES IDX 4 1 3 2 2 3 1 4 21 5 19 6 18 7 16 8 15 9 14 10 13 11 5 12
REMARK SMILES IDX 6 13 7 14 8 15 12 16 10 17 9 18 11 20 20 22 17 24
REMARK H PARENT 9 19 11 21 20 23 17 25
REMARK Flexibility Score: inf
ROOT
ATOM      1  C   UNL     1     -42.124  11.155   7.613  1.00  0.00     0.138 A 
ATOM      2  C   UNL     1     -43.206  10.759   6.816  1.00  0.00     0.100 A 
ATOM      3  C   UNL     1     -42.974  10.283   5.524  1.00  0.00     0.197 A 
ATOM      4  O   UNL     1     -43.969   9.993   4.811  1.00  0.00    -0.289 OA
ATOM      5  C   UNL     1     -41.647  10.175   5.043  1.00  0.00     0.107 A 
ATOM      6  C   UNL     1     -41.289   9.666   3.759  1.00  0.00     0.134 A 
ATOM      7  C   UNL     1     -39.952   9.715   3.346  1.00  0.00     0.093 A 
ATOM      8  C   UNL     1     -38.952  10.200   4.194  1.00  0.00     0.123 A 
ATOM      9  C   UNL     1     -39.286  10.649   5.469  1.00  0.00     0.094 A 
ATOM     10  C   UNL     1     -40.616  10.645   5.898  1.00  0.00     0.146 A 
ATOM     11  O   UNL     1     -40.893  11.096   7.117  1.00  0.00    -0.456 OA
ENDROOT
BRANCH   1  12
ATOM     12  C   UNL     1     -42.313  11.668   8.994  1.00  0.00     0.021 A 
ATOM     13  C   UNL     1     -42.028  10.832  10.088  1.00  0.00     0.016 A 
ATOM     14  C   UNL     1     -42.205  11.288  11.396  1.00  0.00     0.051 A 
ATOM     15  C   UNL     1     -42.679  12.581  11.637  1.00  0.00     0.157 A 
ATOM     16  C   UNL     1     -42.803  12.965   9.242  1.00  0.00     0.062 A 
ATOM     17  C   UNL     1     -42.984  13.423  10.555  1.00  0.00     0.158 A 
BRANCH  15  18
ATOM     18  O   UNL     1     -42.845  13.008  12.953  1.00  0.00    -0.504 OA
ATOM     19  H   UNL     1     -43.141  12.381  13.690  1.00  0.00     0.293 HD
ENDBRANCH  15  18
BRANCH  17  20
ATOM     20  O   UNL     1     -43.467  14.709  10.788  1.00  0.00    -0.504 OA
ATOM     21  H   UNL     1     -44.405  14.982  10.517  1.00  0.00     0.293 HD
ENDBRANCH  17  20
ENDBRANCH   1  12
BRANCH   6  22
ATOM     22  O   UNL     1     -42.195   9.082   2.869  1.00  0.00    -0.507 OA
ATOM     23  H   UNL     1     -41.968   8.766   1.938  1.00  0.00     0.293 HD
ENDBRANCH   6  22
BRANCH   8  24
ATOM     24  O   UNL     1     -37.622  10.232   3.780  1.00  0.00    -0.508 OA
ATOM     25  H   UNL     1     -37.010   9.434   3.905  1.00  0.00     0.293 HD
ENDBRANCH   8  24
TORSDOF 5
ENDMDL
MODEL 9
REMARK VINA RESULT:    -6.788     11.897     14.314
REMARK INTER + INTRA:          -8.243
REMARK INTER:                  -7.978
REMARK INTRA:                  -0.265
REMARK UNBOUND:                -0.264
REMARK SMILES O=c1cc(-c2ccc(O)c(O)c2)oc2cc(O)cc(O)c12
REMARK SMILES IDX 4 1 3 2 2 3 1 4 21 5 19 6 18 7 16 8 15 9 14 10 13 11 5 12
REMARK SMILES IDX 6 13 7 14 8 15 12 16 10 17 9 18 11 20 20 22 17 24
REMARK H PARENT 9 19 11 21 20 23 17 25
REMARK Flexibility Score: inf
ROOT
ATOM      1  C   UNL     1     -32.945  13.155   0.897  1.00  0.00     0.138 A 
ATOM      2  C   UNL     1     -33.093  14.404   0.276  1.00  0.00     0.100 A 
ATOM      3  C   UNL     1     -31.960  15.109  -0.133  1.00  0.00     0.197 A 
ATOM      4  O   UNL     1     -32.121  16.253  -0.630  1.00  0.00    -0.289 OA
ATOM      5  C   UNL     1     -30.675  14.545   0.053  1.00  0.00     0.107 A 
ATOM      6  C   UNL     1     -29.453  15.154  -0.361  1.00  0.00     0.134 A 
ATOM      7  C   UNL     1     -28.234  14.557  -0.019  1.00  0.00     0.093 A 
ATOM      8  C   UNL     1     -28.194  13.341   0.670  1.00  0.00     0.123 A 
ATOM      9  C   UNL     1     -29.383  12.712   1.030  1.00  0.00     0.094 A 
ATOM     10  C   UNL     1     -30.615  13.301   0.735  1.00  0.00     0.146 A 
ATOM     11  O   UNL     1     -31.726  12.674   1.110  1.00  0.00    -0.456 OA
ENDROOT
BRANCH   1  12
ATOM     12  C   UNL     1     -34.116  12.362   1.351  1.00  0.00     0.021 A 
ATOM     13  C   UNL     1     -34.774  12.720   2.540  1.00  0.00     0.016 A 
ATOM     14  C   UNL     1     -35.874  11.987   2.993  1.00  0.00     0.051 A 
ATOM     15  C   UNL     1     -36.329  10.878   2.274  1.00  0.00     0.157 A 
ATOM     16  C   UNL     1     -34.570  11.236   0.637  1.00  0.00     0.062 A 
ATOM     17  C   UNL     1     -35.672  10.497   1.092  1.00  0.00     0.158 A 
BRANCH  15  18
ATOM     18  O   UNL     1     -37.428  10.165   2.750  1.00  0.00    -0.504 OA
ATOM     19  H   UNL     1     -37.343   9.464   3.475  1.00  0.00     0.293 HD
ENDBRANCH  15  18
BRANCH  17  20
ATOM     20  O   UNL     1     -36.113   9.386   0.376  1.00  0.00    -0.504 OA
ATOM     21  H   UNL     1     -35.489   8.625   0.137  1.00  0.00     0.293 HD
ENDBRANCH  17  20
ENDBRANCH   1  12
BRANCH   6  22
ATOM     22  O   UNL     1     -29.383  16.323  -1.125  1.00  0.00    -0.507 OA
ATOM     23  H   UNL     1     -28.765  17.099  -0.938  1.00  0.00     0.293 HD
ENDBRANCH   6  22
BRANCH   8  24
ATOM     24  O   UNL     1     -26.976  12.747   0.992  1.00  0.00    -0.508 OA
ATOM     25  H   UNL     1     -26.717  11.839   0.625  1.00  0.00     0.293 HD
ENDBRANCH   8  24
TORSDOF 5
ENDMDL
