MODEL 1
REMARK VINA RESULT:    -3.925      0.000      0.000
REMARK INTER + INTRA:          -9.563
REMARK INTER:                  -7.138
REMARK INTRA:                  -2.425
REMARK UNBOUND:                -2.425
REMARK SMILES CCCCCCCCCCCCCCCC(=O)[O-]
REMARK SMILES IDX 9 1 10 2 11 3 12 4 13 5 14 6 15 7 16 8 17 9 18 10 8 11 7 12
REMARK SMILES IDX 6 13 5 14 4 15 3 16 2 17 1 18
REMARK H PARENT
REMARK Flexibility Score: inf
ROOT
ATOM      1  C   UNL     1     154.539 171.215 163.891  1.00  0.00     0.000 C 
ENDROOT
BRANCH   1   2
ATOM      2  C   UNL     1     153.134 171.374 163.279  1.00  0.00     0.000 C 
BRANCH   2   3
ATOM      3  C   UNL     1     152.926 172.655 162.448  1.00  0.00     0.000 C 
BRANCH   3   4
ATOM      4  C   UNL     1     154.199 173.511 162.339  1.00  0.00     0.000 C 
BRANCH   4   5
ATOM      5  C   UNL     1     153.896 175.019 162.352  1.00  0.00     0.000 C 
BRANCH   5   6
ATOM      6  C   UNL     1     154.732 175.796 161.323  1.00  0.00     0.006 C 
BRANCH   6   7
ATOM      7  C   UNL     1     154.897 174.993 160.029  1.00  0.00     0.053 C 
BRANCH   7   8
ATOM      8  C   UNL     1     156.269 175.183 159.463  1.00  0.00     0.041 C 
ATOM      9  O   UNL     1     157.239 174.523 159.922  1.00  0.00    -0.550 OA
ATOM     10  O   UNL     1     156.485 176.125 158.467  1.00  0.00    -0.550 OA
ENDBRANCH   7   8
ENDBRANCH   6   7
ENDBRANCH   5   6
ENDBRANCH   4   5
ENDBRANCH   3   4
ENDBRANCH   2   3
ENDBRANCH   1   2
BRANCH   1  11
ATOM     11  C   UNL     1     154.527 171.193 165.427  1.00  0.00     0.000 C 
BRANCH  11  12
ATOM     12  C   UNL     1     153.855 172.449 166.002  1.00  0.00    -0.000 C 
BRANCH  12  13
ATOM     13  C   UNL     1     154.849 173.606 166.192  1.00  0.00    -0.000 C 
BRANCH  13  14
ATOM     14  C   UNL     1     156.245 173.129 166.633  1.00  0.00    -0.000 C 
BRANCH  14  15
ATOM     15  C   UNL     1     157.372 173.842 165.856  1.00  0.00    -0.000 C 
BRANCH  15  16
ATOM     16  C   UNL     1     156.856 174.776 164.747  1.00  0.00    -0.000 C 
BRANCH  16  17
ATOM     17  C   UNL     1     157.566 174.561 163.401  1.00  0.00    -0.003 C 
ATOM     18  C   UNL     1     157.786 173.078 163.126  1.00  0.00     0.004 C 
ENDBRANCH  16  17
ENDBRANCH  15  16
ENDBRANCH  14  15
ENDBRANCH  13  14
ENDBRANCH  12  13
ENDBRANCH  11  12
ENDBRANCH   1  11
TORSDOF 14
ENDMDL
MODEL 2
REMARK VINA RESULT:    -3.778      2.157      4.422
REMARK INTER + INTRA:          -9.296
REMARK INTER:                  -6.957
REMARK INTRA:                  -2.340
REMARK UNBOUND:                -2.425
REMARK SMILES CCCCCCCCCCCCCCCC(=O)[O-]
REMARK SMILES IDX 9 1 10 2 11 3 12 4 13 5 14 6 15 7 16 8 17 9 18 10 8 11 7 12
REMARK SMILES IDX 6 13 5 14 4 15 3 16 2 17 1 18
REMARK H PARENT
REMARK Flexibility Score: inf
ROOT
ATOM      1  C   UNL     1     154.609 170.870 164.379  1.00  0.00     0.000 C 
ENDROOT
BRANCH   1   2
ATOM      2  C   UNL     1     154.116 171.447 165.720  1.00  0.00     0.000 C 
BRANCH   2   3
ATOM      3  C   UNL     1     155.135 171.378 166.873  1.00  0.00     0.000 C 
BRANCH   3   4
ATOM      4  C   UNL     1     155.878 172.706 167.096  1.00  0.00     0.000 C 
BRANCH   4   5
ATOM      5  C   UNL     1     155.281 173.859 166.272  1.00  0.00     0.000 C 
BRANCH   5   6
ATOM      6  C   UNL     1     156.342 174.602 165.445  1.00  0.00     0.006 C 
BRANCH   6   7
ATOM      7  C   UNL     1     157.464 173.653 165.012  1.00  0.00     0.053 C 
BRANCH   7   8
ATOM      8  C   UNL     1     158.655 174.427 164.540  1.00  0.00     0.041 C 
ATOM      9  O   UNL     1     158.721 175.669 164.738  1.00  0.00    -0.550 OA
ATOM     10  O   UNL     1     159.665 173.787 163.835  1.00  0.00    -0.550 OA
ENDBRANCH   7   8
ENDBRANCH   6   7
ENDBRANCH   5   6
ENDBRANCH   4   5
ENDBRANCH   3   4
ENDBRANCH   2   3
ENDBRANCH   1   2
BRANCH   1  11
ATOM     11  C   UNL     1     154.662 171.919 163.257  1.00  0.00     0.000 C 
BRANCH  11  12
ATOM     12  C   UNL     1     153.309 172.626 163.083  1.00  0.00    -0.000 C 
BRANCH  12  13
ATOM     13  C   UNL     1     153.367 173.744 162.031  1.00  0.00    -0.000 C 
BRANCH  13  14
ATOM     14  C   UNL     1     153.947 175.059 162.586  1.00  0.00    -0.000 C 
BRANCH  14  15
ATOM     15  C   UNL     1     154.851 175.771 161.558  1.00  0.00    -0.000 C 
BRANCH  15  16
ATOM     16  C   UNL     1     156.353 175.645 161.870  1.00  0.00    -0.000 C 
BRANCH  16  17
ATOM     17  C   UNL     1     157.007 174.429 161.196  1.00  0.00    -0.003 C 
ATOM     18  C   UNL     1     156.621 174.342 159.723  1.00  0.00     0.004 C 
ENDBRANCH  16  17
ENDBRANCH  15  16
ENDBRANCH  14  15
ENDBRANCH  13  14
ENDBRANCH  12  13
ENDBRANCH  11  12
ENDBRANCH   1  11
TORSDOF 14
ENDMDL
MODEL 3
REMARK VINA RESULT:    -3.708      2.272      4.600
REMARK INTER + INTRA:          -9.167
REMARK INTER:                  -7.375
REMARK INTRA:                  -1.792
REMARK UNBOUND:                -2.425
REMARK SMILES CCCCCCCCCCCCCCCC(=O)[O-]
REMARK SMILES IDX 9 1 10 2 11 3 12 4 13 5 14 6 15 7 16 8 17 9 18 10 8 11 7 12
REMARK SMILES IDX 6 13 5 14 4 15 3 16 2 17 1 18
REMARK H PARENT
REMARK Flexibility Score: inf
ROOT
ATOM      1  C   UNL     1     159.921 174.057 165.492  1.00  0.00     0.000 C 
ENDROOT
BRANCH   1   2
ATOM      2  C   UNL     1     159.136 174.647 164.305  1.00  0.00     0.000 C 
BRANCH   2   3
ATOM      3  C   UNL     1     159.259 173.859 162.986  1.00  0.00     0.000 C 
BRANCH   3   4
ATOM      4  C   UNL     1     158.226 172.725 162.867  1.00  0.00     0.000 C 
BRANCH   4   5
ATOM      5  C   UNL     1     156.806 173.180 163.243  1.00  0.00     0.000 C 
BRANCH   5   6
ATOM      6  C   UNL     1     156.079 173.864 162.075  1.00  0.00     0.006 C 
BRANCH   6   7
ATOM      7  C   UNL     1     155.515 175.223 162.499  1.00  0.00     0.053 C 
BRANCH   7   8
ATOM      8  C   UNL     1     154.219 175.051 163.228  1.00  0.00     0.041 C 
ATOM      9  O   UNL     1     154.196 175.056 164.487  1.00  0.00    -0.550 OA
ATOM     10  O   UNL     1     153.046 174.832 162.517  1.00  0.00    -0.550 OA
ENDBRANCH   7   8
ENDBRANCH   6   7
ENDBRANCH   5   6
ENDBRANCH   4   5
ENDBRANCH   3   4
ENDBRANCH   2   3
ENDBRANCH   1   2
BRANCH   1  11
ATOM     11  C   UNL     1     159.059 173.872 166.750  1.00  0.00     0.000 C 
BRANCH  11  12
ATOM     12  C   UNL     1     157.564 173.799 166.402  1.00  0.00    -0.000 C 
BRANCH  12  13
ATOM     13  C   UNL     1     156.813 172.780 167.273  1.00  0.00    -0.000 C 
BRANCH  13  14
ATOM     14  C   UNL     1     155.290 172.803 167.042  1.00  0.00    -0.000 C 
BRANCH  14  15
ATOM     15  C   UNL     1     154.807 171.569 166.252  1.00  0.00    -0.000 C 
BRANCH  15  16
ATOM     16  C   UNL     1     153.426 171.760 165.600  1.00  0.00    -0.000 C 
BRANCH  16  17
ATOM     17  C   UNL     1     153.447 171.563 164.077  1.00  0.00    -0.003 C 
ATOM     18  C   UNL     1     154.424 170.462 163.677  1.00  0.00     0.004 C 
ENDBRANCH  16  17
ENDBRANCH  15  16
ENDBRANCH  14  15
ENDBRANCH  13  14
ENDBRANCH  12  13
ENDBRANCH  11  12
ENDBRANCH   1  11
TORSDOF 14
ENDMDL
MODEL 4
REMARK VINA RESULT:    -3.706      1.419      4.231
REMARK INTER + INTRA:          -9.165
REMARK INTER:                  -7.229
REMARK INTRA:                  -1.935
REMARK UNBOUND:                -2.425
REMARK SMILES CCCCCCCCCCCCCCCC(=O)[O-]
REMARK SMILES IDX 9 1 10 2 11 3 12 4 13 5 14 6 15 7 16 8 17 9 18 10 8 11 7 12
REMARK SMILES IDX 6 13 5 14 4 15 3 16 2 17 1 18
REMARK H PARENT
REMARK Flexibility Score: inf
ROOT
ATOM      1  C   UNL     1     154.717 170.481 167.051  1.00  0.00     0.000 C 
ENDROOT
BRANCH   1   2
ATOM      2  C   UNL     1     155.719 171.321 167.866  1.00  0.00     0.000 C 
BRANCH   2   3
ATOM      3  C   UNL     1     155.733 172.825 167.532  1.00  0.00     0.000 C 
BRANCH   3   4
ATOM      4  C   UNL     1     156.988 173.254 166.752  1.00  0.00     0.000 C 
BRANCH   4   5
ATOM      5  C   UNL     1     156.660 174.205 165.589  1.00  0.00     0.000 C 
BRANCH   5   6
ATOM      6  C   UNL     1     157.908 174.604 164.786  1.00  0.00     0.006 C 
BRANCH   6   7
ATOM      7  C   UNL     1     157.527 175.093 163.385  1.00  0.00     0.053 C 
BRANCH   7   8
ATOM      8  C   UNL     1     157.842 174.050 162.360  1.00  0.00     0.041 C 
ATOM      9  O   UNL     1     157.801 174.334 161.133  1.00  0.00    -0.550 OA
ATOM     10  O   UNL     1     158.130 172.750 162.757  1.00  0.00    -0.550 OA
ENDBRANCH   7   8
ENDBRANCH   6   7
ENDBRANCH   5   6
ENDBRANCH   4   5
ENDBRANCH   3   4
ENDBRANCH   2   3
ENDBRANCH   1   2
BRANCH   1  11
ATOM     11  C   UNL     1     154.097 171.257 165.879  1.00  0.00     0.000 C 
BRANCH  11  12
ATOM     12  C   UNL     1     154.747 170.870 164.541  1.00  0.00    -0.000 C 
BRANCH  12  13
ATOM     13  C   UNL     1     154.399 171.858 163.417  1.00  0.00    -0.000 C 
BRANCH  13  14
ATOM     14  C   UNL     1     153.585 173.067 163.915  1.00  0.00    -0.000 C 
BRANCH  14  15
ATOM     15  C   UNL     1     153.717 174.281 162.971  1.00  0.00    -0.000 C 
BRANCH  15  16
ATOM     16  C   UNL     1     153.548 173.923 161.484  1.00  0.00    -0.000 C 
BRANCH  16  17
ATOM     17  C   UNL     1     154.331 174.856 160.547  1.00  0.00    -0.003 C 
ATOM     18  C   UNL     1     154.766 176.125 161.273  1.00  0.00     0.004 C 
ENDBRANCH  16  17
ENDBRANCH  15  16
ENDBRANCH  14  15
ENDBRANCH  13  14
ENDBRANCH  12  13
ENDBRANCH  11  12
ENDBRANCH   1  11
TORSDOF 14
ENDMDL
MODEL 5
REMARK VINA RESULT:    -3.624      1.668      3.798
REMARK INTER + INTRA:          -9.015
REMARK INTER:                  -7.398
REMARK INTRA:                  -1.616
REMARK UNBOUND:                -2.425
REMARK SMILES CCCCCCCCCCCCCCCC(=O)[O-]
REMARK SMILES IDX 9 1 10 2 11 3 12 4 13 5 14 6 15 7 16 8 17 9 18 10 8 11 7 12
REMARK SMILES IDX 6 13 5 14 4 15 3 16 2 17 1 18
REMARK H PARENT
REMARK Flexibility Score: inf
ROOT
ATOM      1  C   UNL     1     159.066 174.054 164.013  1.00  0.00     0.000 C 
ENDROOT
BRANCH   1   2
ATOM      2  C   UNL     1     158.135 173.066 163.284  1.00  0.00     0.000 C 
BRANCH   2   3
ATOM      3  C   UNL     1     157.561 173.575 161.948  1.00  0.00     0.000 C 
BRANCH   3   4
ATOM      4  C   UNL     1     157.647 175.105 161.804  1.00  0.00     0.000 C 
BRANCH   4   5
ATOM      5  C   UNL     1     157.312 175.580 160.380  1.00  0.00     0.000 C 
BRANCH   5   6
ATOM      6  C   UNL     1     156.410 174.591 159.626  1.00  0.00     0.006 C 
BRANCH   6   7
ATOM      7  C   UNL     1     157.049 174.166 158.300  1.00  0.00     0.053 C 
BRANCH   7   8
ATOM      8  C   UNL     1     156.019 174.099 157.217  1.00  0.00     0.041 C 
ATOM      9  O   UNL     1     154.862 174.557 157.414  1.00  0.00    -0.550 OA
ATOM     10  O   UNL     1     156.319 173.482 156.009  1.00  0.00    -0.550 OA
ENDBRANCH   7   8
ENDBRANCH   6   7
ENDBRANCH   5   6
ENDBRANCH   4   5
ENDBRANCH   3   4
ENDBRANCH   2   3
ENDBRANCH   1   2
BRANCH   1  11
ATOM     11  C   UNL     1     158.577 174.411 165.424  1.00  0.00     0.000 C 
BRANCH  11  12
ATOM     12  C   UNL     1     157.068 174.702 165.440  1.00  0.00    -0.000 C 
BRANCH  12  13
ATOM     13  C   UNL     1     156.288 173.689 166.294  1.00  0.00    -0.000 C 
BRANCH  13  14
ATOM     14  C   UNL     1     154.762 173.864 166.185  1.00  0.00    -0.000 C 
BRANCH  14  15
ATOM     15  C   UNL     1     154.352 174.551 164.865  1.00  0.00    -0.000 C 
BRANCH  15  16
ATOM     16  C   UNL     1     154.111 173.565 163.708  1.00  0.00    -0.000 C 
BRANCH  16  17
ATOM     17  C   UNL     1     153.681 172.170 164.187  1.00  0.00    -0.003 C 
ATOM     18  C   UNL     1     154.719 171.116 163.814  1.00  0.00     0.004 C 
ENDBRANCH  16  17
ENDBRANCH  15  16
ENDBRANCH  14  15
ENDBRANCH  13  14
ENDBRANCH  12  13
ENDBRANCH  11  12
ENDBRANCH   1  11
TORSDOF 14
ENDMDL
MODEL 6
REMARK VINA RESULT:    -3.617      1.635      2.159
REMARK INTER + INTRA:          -9.002
REMARK INTER:                  -7.398
REMARK INTRA:                  -1.604
REMARK UNBOUND:                -2.425
REMARK SMILES CCCCCCCCCCCCCCCC(=O)[O-]
REMARK SMILES IDX 9 1 10 2 11 3 12 4 13 5 14 6 15 7 16 8 17 9 18 10 8 11 7 12
REMARK SMILES IDX 6 13 5 14 4 15 3 16 2 17 1 18
REMARK H PARENT
REMARK Flexibility Score: inf
ROOT
ATOM      1  C   UNL     1     154.813 171.440 163.945  1.00  0.00     0.000 C 
ENDROOT
BRANCH   1   2
ATOM      2  C   UNL     1     154.197 172.693 163.295  1.00  0.00     0.000 C 
BRANCH   2   3
ATOM      3  C   UNL     1     155.203 173.628 162.599  1.00  0.00     0.000 C 
BRANCH   3   4
ATOM      4  C   UNL     1     156.654 173.126 162.696  1.00  0.00     0.000 C 
BRANCH   4   5
ATOM      5  C   UNL     1     157.603 173.883 161.753  1.00  0.00     0.000 C 
BRANCH   5   6
ATOM      6  C   UNL     1     156.875 174.943 160.911  1.00  0.00     0.006 C 
BRANCH   6   7
ATOM      7  C   UNL     1     156.895 174.574 159.425  1.00  0.00     0.053 C 
BRANCH   7   8
ATOM      8  C   UNL     1     155.580 174.893 158.786  1.00  0.00     0.041 C 
ATOM      9  O   UNL     1     154.534 174.952 159.485  1.00  0.00    -0.550 OA
ATOM     10  O   UNL     1     155.502 175.075 157.411  1.00  0.00    -0.550 OA
ENDBRANCH   7   8
ENDBRANCH   6   7
ENDBRANCH   5   6
ENDBRANCH   4   5
ENDBRANCH   3   4
ENDBRANCH   2   3
ENDBRANCH   1   2
BRANCH   1  11
ATOM     11  C   UNL     1     154.573 171.369 165.461  1.00  0.00     0.000 C 
BRANCH  11  12
ATOM     12  C   UNL     1     154.388 172.770 166.067  1.00  0.00    -0.000 C 
BRANCH  12  13
ATOM     13  C   UNL     1     155.640 173.250 166.817  1.00  0.00    -0.000 C 
BRANCH  13  14
ATOM     14  C   UNL     1     156.546 174.148 165.956  1.00  0.00    -0.000 C 
BRANCH  14  15
ATOM     15  C   UNL     1     158.043 173.867 166.204  1.00  0.00    -0.000 C 
BRANCH  15  16
ATOM     16  C   UNL     1     158.982 174.800 165.418  1.00  0.00    -0.000 C 
BRANCH  16  17
ATOM     17  C   UNL     1     159.900 174.048 164.442  1.00  0.00    -0.003 C 
ATOM     18  C   UNL     1     161.153 173.539 165.147  1.00  0.00     0.004 C 
ENDBRANCH  16  17
ENDBRANCH  15  16
ENDBRANCH  14  15
ENDBRANCH  13  14
ENDBRANCH  12  13
ENDBRANCH  11  12
ENDBRANCH   1  11
TORSDOF 14
ENDMDL
MODEL 7
REMARK VINA RESULT:    -3.605      1.479      3.940
REMARK INTER + INTRA:          -8.981
REMARK INTER:                  -6.903
REMARK INTRA:                  -2.078
REMARK UNBOUND:                -2.425
REMARK SMILES CCCCCCCCCCCCCCCC(=O)[O-]
REMARK SMILES IDX 9 1 10 2 11 3 12 4 13 5 14 6 15 7 16 8 17 9 18 10 8 11 7 12
REMARK SMILES IDX 6 13 5 14 4 15 3 16 2 17 1 18
REMARK H PARENT
REMARK Flexibility Score: inf
ROOT
ATOM      1  C   UNL     1     156.932 174.499 165.658  1.00  0.00     0.000 C 
ENDROOT
BRANCH   1   2
ATOM      2  C   UNL     1     158.234 174.981 164.990  1.00  0.00     0.000 C 
BRANCH   2   3
ATOM      3  C   UNL     1     159.221 173.864 164.604  1.00  0.00     0.000 C 
BRANCH   3   4
ATOM      4  C   UNL     1     159.218 173.556 163.097  1.00  0.00     0.000 C 
BRANCH   4   5
ATOM      5  C   UNL     1     157.820 173.185 162.575  1.00  0.00     0.000 C 
BRANCH   5   6
ATOM      6  C   UNL     1     157.435 173.970 161.312  1.00  0.00     0.006 C 
BRANCH   6   7
ATOM      7  C   UNL     1     156.535 175.160 161.658  1.00  0.00     0.053 C 
BRANCH   7   8
ATOM      8  C   UNL     1     155.648 175.503 160.502  1.00  0.00     0.041 C 
ATOM      9  O   UNL     1     154.430 175.186 160.522  1.00  0.00    -0.550 OA
ATOM     10  O   UNL     1     156.180 176.125 159.380  1.00  0.00    -0.550 OA
ENDBRANCH   7   8
ENDBRANCH   6   7
ENDBRANCH   5   6
ENDBRANCH   4   5
ENDBRANCH   3   4
ENDBRANCH   2   3
ENDBRANCH   1   2
BRANCH   1  11
ATOM     11  C   UNL     1     157.119 173.218 166.484  1.00  0.00     0.000 C 
BRANCH  11  12
ATOM     12  C   UNL     1     155.830 172.834 167.228  1.00  0.00    -0.000 C 
BRANCH  12  13
ATOM     13  C   UNL     1     155.391 171.392 166.926  1.00  0.00    -0.000 C 
BRANCH  13  14
ATOM     14  C   UNL     1     153.950 171.306 166.389  1.00  0.00    -0.000 C 
BRANCH  14  15
ATOM     15  C   UNL     1     153.910 170.880 164.906  1.00  0.00    -0.000 C 
BRANCH  15  16
ATOM     16  C   UNL     1     154.870 171.685 164.011  1.00  0.00    -0.000 C 
BRANCH  16  17
ATOM     17  C   UNL     1     154.145 172.694 163.107  1.00  0.00    -0.003 C 
ATOM     18  C   UNL     1     153.771 173.955 163.878  1.00  0.00     0.004 C 
ENDBRANCH  16  17
ENDBRANCH  15  16
ENDBRANCH  14  15
ENDBRANCH  13  14
ENDBRANCH  12  13
ENDBRANCH  11  12
ENDBRANCH   1  11
TORSDOF 14
ENDMDL
MODEL 8
REMARK VINA RESULT:    -3.550      3.334      6.175
REMARK INTER + INTRA:          -8.881
REMARK INTER:                  -7.072
REMARK INTRA:                  -1.810
REMARK UNBOUND:                -2.425
REMARK SMILES CCCCCCCCCCCCCCCC(=O)[O-]
REMARK SMILES IDX 9 1 10 2 11 3 12 4 13 5 14 6 15 7 16 8 17 9 18 10 8 11 7 12
REMARK SMILES IDX 6 13 5 14 4 15 3 16 2 17 1 18
REMARK H PARENT
REMARK Flexibility Score: inf
ROOT
ATOM      1  C   UNL     1     158.098 173.872 162.166  1.00  0.00     0.000 C 
ENDROOT
BRANCH   1   2
ATOM      2  C   UNL     1     157.642 172.867 163.241  1.00  0.00     0.000 C 
BRANCH   2   3
ATOM      3  C   UNL     1     157.149 173.498 164.557  1.00  0.00     0.000 C 
BRANCH   3   4
ATOM      4  C   UNL     1     158.039 174.659 165.035  1.00  0.00     0.000 C 
BRANCH   4   5
ATOM      5  C   UNL     1     159.016 174.232 166.143  1.00  0.00     0.000 C 
BRANCH   5   6
ATOM      6  C   UNL     1     160.459 174.676 165.859  1.00  0.00     0.006 C 
BRANCH   6   7
ATOM      7  C   UNL     1     161.256 173.555 165.186  1.00  0.00     0.053 C 
BRANCH   7   8
ATOM      8  C   UNL     1     162.697 173.938 165.058  1.00  0.00     0.041 C 
ATOM      9  O   UNL     1     163.599 173.146 165.442  1.00  0.00    -0.550 OA
ATOM     10  O   UNL     1     163.043 175.189 164.565  1.00  0.00    -0.550 OA
ENDBRANCH   7   8
ENDBRANCH   6   7
ENDBRANCH   5   6
ENDBRANCH   4   5
ENDBRANCH   3   4
ENDBRANCH   2   3
ENDBRANCH   1   2
BRANCH   1  11
ATOM     11  C   UNL     1     156.979 174.249 161.183  1.00  0.00     0.000 C 
BRANCH  11  12
ATOM     12  C   UNL     1     156.288 175.560 161.593  1.00  0.00    -0.000 C 
BRANCH  12  13
ATOM     13  C   UNL     1     154.803 175.353 161.932  1.00  0.00    -0.000 C 
BRANCH  13  14
ATOM     14  C   UNL     1     154.377 173.874 161.873  1.00  0.00    -0.000 C 
BRANCH  14  15
ATOM     15  C   UNL     1     153.725 173.408 163.192  1.00  0.00    -0.000 C 
BRANCH  15  16
ATOM     16  C   UNL     1     153.372 171.910 163.206  1.00  0.00    -0.000 C 
BRANCH  16  17
ATOM     17  C   UNL     1     154.461 171.042 163.857  1.00  0.00    -0.003 C 
ATOM     18  C   UNL     1     154.423 171.161 165.377  1.00  0.00     0.004 C 
ENDBRANCH  16  17
ENDBRANCH  15  16
ENDBRANCH  14  15
ENDBRANCH  13  14
ENDBRANCH  12  13
ENDBRANCH  11  12
ENDBRANCH   1  11
TORSDOF 14
ENDMDL
MODEL 9
REMARK VINA RESULT:    -3.421      1.578      2.052
REMARK INTER + INTRA:          -8.645
REMARK INTER:                  -7.104
REMARK INTRA:                  -1.541
REMARK UNBOUND:                -2.425
REMARK SMILES CCCCCCCCCCCCCCCC(=O)[O-]
REMARK SMILES IDX 9 1 10 2 11 3 12 4 13 5 14 6 15 7 16 8 17 9 18 10 8 11 7 12
REMARK SMILES IDX 6 13 5 14 4 15 3 16 2 17 1 18
REMARK H PARENT
REMARK Flexibility Score: inf
ROOT
ATOM      1  C   UNL     1     154.240 171.255 164.182  1.00  0.00     0.000 C 
ENDROOT
BRANCH   1   2
ATOM      2  C   UNL     1     153.263 172.328 163.665  1.00  0.00     0.000 C 
BRANCH   2   3
ATOM      3  C   UNL     1     153.765 173.138 162.455  1.00  0.00     0.000 C 
BRANCH   3   4
ATOM      4  C   UNL     1     153.875 174.645 162.746  1.00  0.00     0.000 C 
BRANCH   4   5
ATOM      5  C   UNL     1     154.826 175.363 161.775  1.00  0.00     0.000 C 
BRANCH   5   6
ATOM      6  C   UNL     1     155.352 174.434 160.670  1.00  0.00     0.006 C 
BRANCH   6   7
ATOM      7  C   UNL     1     156.876 174.535 160.547  1.00  0.00     0.053 C 
BRANCH   7   8
ATOM      8  C   UNL     1     157.526 174.329 161.879  1.00  0.00     0.041 C 
ATOM      9  O   UNL     1     157.512 173.192 162.421  1.00  0.00    -0.550 OA
ATOM     10  O   UNL     1     158.101 175.403 162.545  1.00  0.00    -0.550 OA
ENDBRANCH   7   8
ENDBRANCH   6   7
ENDBRANCH   5   6
ENDBRANCH   4   5
ENDBRANCH   3   4
ENDBRANCH   2   3
ENDBRANCH   1   2
BRANCH   1  11
ATOM     11  C   UNL     1     154.359 171.238 165.713  1.00  0.00     0.000 C 
BRANCH  11  12
ATOM     12  C   UNL     1     153.811 172.534 166.334  1.00  0.00    -0.000 C 
BRANCH  12  13
ATOM     13  C   UNL     1     154.924 173.401 166.946  1.00  0.00    -0.000 C 
BRANCH  13  14
ATOM     14  C   UNL     1     155.927 173.914 165.896  1.00  0.00    -0.000 C 
BRANCH  14  15
ATOM     15  C   UNL     1     157.377 173.514 166.239  1.00  0.00    -0.000 C 
BRANCH  15  16
ATOM     16  C   UNL     1     158.427 174.521 165.735  1.00  0.00    -0.000 C 
BRANCH  16  17
ATOM     17  C   UNL     1     159.870 174.021 165.904  1.00  0.00    -0.003 C 
ATOM     18  C   UNL     1     160.519 173.746 164.552  1.00  0.00     0.004 C 
ENDBRANCH  16  17
ENDBRANCH  15  16
ENDBRANCH  14  15
ENDBRANCH  13  14
ENDBRANCH  12  13
ENDBRANCH  11  12
ENDBRANCH   1  11
TORSDOF 14
ENDMDL
