MODEL 1
REMARK VINA RESULT:    -2.562      0.000      0.000
REMARK INTER + INTRA:          -3.541
REMARK INTER:                  -3.161
REMARK INTRA:                  -0.380
REMARK UNBOUND:                -0.380
REMARK SMILES Oc1cc(O)c2cc(O)c(-c3cc(O)c(O)c(O)c3)[o+]c2c1
REMARK SMILES IDX 10 1 20 2 21 3 22 4 2 5 3 6 4 7 6 8 7 9 8 10 11 11 12 12
REMARK SMILES IDX 13 13 19 14 15 15 17 16 14 17 16 19 18 21 9 23 1 25 5 27
REMARK H PARENT 14 18 16 20 18 22 9 24 1 26 5 28
REMARK Flexibility Score: inf
ROOT
ATOM      1  C   UNL     1     -17.333 -25.497  30.768  1.00  0.00     0.402 A 
ATOM      2  O   UNL     1     -18.417 -24.725  30.783  1.00  0.00    -0.202 OA
ATOM      3  C   UNL     1     -18.390 -23.435  31.100  1.00  0.00     0.368 A 
ATOM      4  C   UNL     1     -19.582 -22.706  31.084  1.00  0.00     0.162 A 
ATOM      5  C   UNL     1     -19.582 -21.346  31.410  1.00  0.00     0.128 A 
ATOM      6  C   UNL     1     -18.385 -20.714  31.752  1.00  0.00     0.093 A 
ATOM      7  C   UNL     1     -17.177 -21.422  31.776  1.00  0.00     0.136 A 
ATOM      8  C   UNL     1     -17.172 -22.803  31.448  1.00  0.00     0.125 A 
ATOM      9  C   UNL     1     -16.012 -23.594  31.457  1.00  0.00     0.078 A 
ATOM     10  C   UNL     1     -16.087 -24.951  31.127  1.00  0.00     0.223 A 
ENDROOT
BRANCH   1  11
ATOM     11  C   UNL     1     -17.490 -26.919  30.389  1.00  0.00     0.091 A 
ATOM     12  C   UNL     1     -17.332 -27.297  29.047  1.00  0.00     0.068 A 
ATOM     13  C   UNL     1     -17.456 -28.640  28.665  1.00  0.00     0.162 A 
ATOM     14  C   UNL     1     -17.739 -27.911  31.354  1.00  0.00     0.068 A 
ATOM     15  C   UNL     1     -17.725 -29.621  29.629  1.00  0.00     0.200 A 
ATOM     16  C   UNL     1     -17.862 -29.255  30.978  1.00  0.00     0.162 A 
BRANCH  13  17
ATOM     17  O   UNL     1     -17.311 -29.008  27.329  1.00  0.00    -0.504 OA
ATOM     18  H   UNL     1     -17.363 -28.325  26.582  1.00  0.00     0.293 HD
ENDBRANCH  13  17
BRANCH  15  19
ATOM     19  O   UNL     1     -17.848 -30.952  29.230  1.00  0.00    -0.502 OA
ATOM     20  H   UNL     1     -17.621 -31.256  28.290  1.00  0.00     0.293 HD
ENDBRANCH  15  19
BRANCH  16  21
ATOM     21  O   UNL     1     -18.116 -30.230  31.942  1.00  0.00    -0.504 OA
ATOM     22  H   UNL     1     -19.009 -30.285  32.419  1.00  0.00     0.293 HD
ENDBRANCH  16  21
ENDBRANCH   1  11
BRANCH  10  23
ATOM     23  O   UNL     1     -14.943 -25.749  31.186  1.00  0.00    -0.500 OA
ATOM     24  H   UNL     1     -14.407 -25.972  30.356  1.00  0.00     0.294 HD
ENDBRANCH  10  23
BRANCH   5  25
ATOM     25  O   UNL     1     -20.767 -20.613  31.396  1.00  0.00    -0.507 OA
ATOM     26  H   UNL     1     -21.260 -20.420  30.533  1.00  0.00     0.293 HD
ENDBRANCH   5  25
BRANCH   7  27
ATOM     27  O   UNL     1     -16.023 -20.714  32.125  1.00  0.00    -0.507 OA
ATOM     28  H   UNL     1     -15.972 -20.043  32.877  1.00  0.00     0.293 HD
ENDBRANCH   7  27
TORSDOF 7
ENDMDL
MODEL 2
REMARK VINA RESULT:    -2.530      0.186      1.784
REMARK INTER + INTRA:          -3.502
REMARK INTER:                  -3.150
REMARK INTRA:                  -0.352
REMARK UNBOUND:                -0.380
REMARK SMILES Oc1cc(O)c2cc(O)c(-c3cc(O)c(O)c(O)c3)[o+]c2c1
REMARK SMILES IDX 10 1 20 2 21 3 22 4 2 5 3 6 4 7 6 8 7 9 8 10 11 11 12 12
REMARK SMILES IDX 13 13 19 14 15 15 17 16 14 17 16 19 18 21 9 23 1 25 5 27
REMARK H PARENT 14 18 16 20 18 22 9 24 1 26 5 28
REMARK Flexibility Score: inf
ROOT
ATOM      1  C   UNL     1     -17.286 -25.556  30.713  1.00  0.00     0.402 A 
ATOM      2  O   UNL     1     -18.387 -24.809  30.749  1.00  0.00    -0.202 OA
ATOM      3  C   UNL     1     -18.385 -23.523  31.083  1.00  0.00     0.368 A 
ATOM      4  C   UNL     1     -19.593 -22.820  31.089  1.00  0.00     0.162 A 
ATOM      5  C   UNL     1     -19.618 -21.465  31.435  1.00  0.00     0.128 A 
ATOM      6  C   UNL     1     -18.432 -20.812  31.774  1.00  0.00     0.093 A 
ATOM      7  C   UNL     1     -17.209 -21.494  31.776  1.00  0.00     0.136 A 
ATOM      8  C   UNL     1     -17.178 -22.869  31.429  1.00  0.00     0.125 A 
ATOM      9  C   UNL     1     -16.001 -23.635  31.417  1.00  0.00     0.078 A 
ATOM     10  C   UNL     1     -16.049 -24.988  31.068  1.00  0.00     0.223 A 
ENDROOT
BRANCH   1  11
ATOM     11  C   UNL     1     -17.416 -26.977  30.315  1.00  0.00     0.091 A 
ATOM     12  C   UNL     1     -17.496 -27.966  31.307  1.00  0.00     0.068 A 
ATOM     13  C   UNL     1     -17.640 -29.316  30.957  1.00  0.00     0.162 A 
ATOM     14  C   UNL     1     -17.521 -27.352  28.965  1.00  0.00     0.068 A 
ATOM     15  C   UNL     1     -17.722 -29.685  29.608  1.00  0.00     0.200 A 
ATOM     16  C   UNL     1     -17.667 -28.699  28.609  1.00  0.00     0.162 A 
BRANCH  13  17
ATOM     17  O   UNL     1     -17.704 -30.297  31.945  1.00  0.00    -0.504 OA
ATOM     18  H   UNL     1     -17.545 -31.275  31.733  1.00  0.00     0.293 HD
ENDBRANCH  13  17
BRANCH  15  19
ATOM     19  O   UNL     1     -17.862 -31.034  29.278  1.00  0.00    -0.502 OA
ATOM     20  H   UNL     1     -18.319 -31.336  28.426  1.00  0.00     0.293 HD
ENDBRANCH  15  19
BRANCH  16  21
ATOM     21  O   UNL     1     -17.763 -29.062  27.266  1.00  0.00    -0.504 OA
ATOM     22  H   UNL     1     -17.003 -28.894  26.615  1.00  0.00     0.293 HD
ENDBRANCH  16  21
ENDBRANCH   1  11
BRANCH  10  23
ATOM     23  O   UNL     1     -14.888 -25.762  31.104  1.00  0.00    -0.500 OA
ATOM     24  H   UNL     1     -14.902 -26.728  31.409  1.00  0.00     0.294 HD
ENDBRANCH  10  23
BRANCH   5  25
ATOM     25  O   UNL     1     -20.819 -20.758  31.442  1.00  0.00    -0.507 OA
ATOM     26  H   UNL     1     -20.890 -19.837  31.857  1.00  0.00     0.293 HD
ENDBRANCH   5  25
BRANCH   7  27
ATOM     27  O   UNL     1     -16.067 -20.766  32.125  1.00  0.00    -0.507 OA
ATOM     28  H   UNL     1     -15.724 -19.965  31.614  1.00  0.00     0.293 HD
ENDBRANCH   7  27
TORSDOF 7
ENDMDL
MODEL 3
REMARK VINA RESULT:    -2.407      3.440      8.903
REMARK INTER + INTRA:          -3.350
REMARK INTER:                  -2.985
REMARK INTRA:                  -0.364
REMARK UNBOUND:                -0.380
REMARK SMILES Oc1cc(O)c2cc(O)c(-c3cc(O)c(O)c(O)c3)[o+]c2c1
REMARK SMILES IDX 10 1 20 2 21 3 22 4 2 5 3 6 4 7 6 8 7 9 8 10 11 11 12 12
REMARK SMILES IDX 13 13 19 14 15 15 17 16 14 17 16 19 18 21 9 23 1 25 5 27
REMARK H PARENT 14 18 16 20 18 22 9 24 1 26 5 28
REMARK Flexibility Score: inf
ROOT
ATOM      1  C   UNL     1     -21.228 -20.760  30.615  1.00  0.00     0.402 A 
ATOM      2  O   UNL     1     -19.898 -20.777  30.641  1.00  0.00    -0.202 OA
ATOM      3  C   UNL     1     -19.187 -21.876  30.875  1.00  0.00     0.368 A 
ATOM      4  C   UNL     1     -17.792 -21.795  30.880  1.00  0.00     0.162 A 
ATOM      5  C   UNL     1     -17.020 -22.936  31.120  1.00  0.00     0.128 A 
ATOM      6  C   UNL     1     -17.646 -24.162  31.356  1.00  0.00     0.093 A 
ATOM      7  C   UNL     1     -19.042 -24.269  31.358  1.00  0.00     0.136 A 
ATOM      8  C   UNL     1     -19.831 -23.113  31.117  1.00  0.00     0.125 A 
ATOM      9  C   UNL     1     -21.235 -23.124  31.112  1.00  0.00     0.078 A 
ATOM     10  C   UNL     1     -21.944 -21.944  30.871  1.00  0.00     0.223 A 
ENDROOT
BRANCH   1  11
ATOM     11  C   UNL     1     -21.906 -19.474  30.334  1.00  0.00     0.091 A 
ATOM     12  C   UNL     1     -22.376 -19.210  29.039  1.00  0.00     0.068 A 
ATOM     13  C   UNL     1     -23.039 -18.009  28.751  1.00  0.00     0.162 A 
ATOM     14  C   UNL     1     -22.142 -18.533  31.352  1.00  0.00     0.068 A 
ATOM     15  C   UNL     1     -23.252 -17.066  29.765  1.00  0.00     0.200 A 
ATOM     16  C   UNL     1     -22.806 -17.331  31.071  1.00  0.00     0.162 A 
BRANCH  13  17
ATOM     17  O   UNL     1     -23.491 -17.746  27.459  1.00  0.00    -0.504 OA
ATOM     18  H   UNL     1     -24.137 -16.989  27.267  1.00  0.00     0.293 HD
ENDBRANCH  13  17
BRANCH  15  19
ATOM     19  O   UNL     1     -23.911 -15.875  29.460  1.00  0.00    -0.502 OA
ATOM     20  H   UNL     1     -24.748 -15.582  29.949  1.00  0.00     0.293 HD
ENDBRANCH  15  19
BRANCH  16  21
ATOM     21  O   UNL     1     -23.028 -16.401  32.085  1.00  0.00    -0.504 OA
ATOM     22  H   UNL     1     -23.936 -16.303  32.526  1.00  0.00     0.293 HD
ENDBRANCH  16  21
ENDBRANCH   1  11
BRANCH  10  23
ATOM     23  O   UNL     1     -23.339 -21.943  30.917  1.00  0.00    -0.500 OA
ATOM     24  H   UNL     1     -23.842 -21.948  31.795  1.00  0.00     0.294 HD
ENDBRANCH  10  23
BRANCH   5  25
ATOM     25  O   UNL     1     -15.629 -22.863  31.125  1.00  0.00    -0.507 OA
ATOM     26  H   UNL     1     -15.125 -22.405  31.875  1.00  0.00     0.293 HD
ENDBRANCH   5  25
BRANCH   7  27
ATOM     27  O   UNL     1     -19.591 -25.532  31.599  1.00  0.00    -0.507 OA
ATOM     28  H   UNL     1     -20.425 -25.697  32.143  1.00  0.00     0.293 HD
ENDBRANCH   7  27
TORSDOF 7
ENDMDL
MODEL 4
REMARK VINA RESULT:    -2.367      3.783      5.276
REMARK INTER + INTRA:          -3.300
REMARK INTER:                  -2.917
REMARK INTRA:                  -0.384
REMARK UNBOUND:                -0.380
REMARK SMILES Oc1cc(O)c2cc(O)c(-c3cc(O)c(O)c(O)c3)[o+]c2c1
REMARK SMILES IDX 10 1 20 2 21 3 22 4 2 5 3 6 4 7 6 8 7 9 8 10 11 11 12 12
REMARK SMILES IDX 13 13 19 14 15 15 17 16 14 17 16 19 18 21 9 23 1 25 5 27
REMARK H PARENT 14 18 16 20 18 22 9 24 1 26 5 28
REMARK Flexibility Score: inf
ROOT
ATOM      1  C   UNL     1     -20.690 -23.289  30.350  1.00  0.00     0.402 A 
ATOM      2  O   UNL     1     -19.499 -23.814  30.625  1.00  0.00    -0.202 OA
ATOM      3  C   UNL     1     -18.481 -23.104  31.099  1.00  0.00     0.368 A 
ATOM      4  C   UNL     1     -17.267 -23.746  31.360  1.00  0.00     0.162 A 
ATOM      5  C   UNL     1     -16.180 -23.022  31.862  1.00  0.00     0.128 A 
ATOM      6  C   UNL     1     -16.309 -21.654  32.105  1.00  0.00     0.093 A 
ATOM      7  C   UNL     1     -17.514 -20.988  31.852  1.00  0.00     0.136 A 
ATOM      8  C   UNL     1     -18.619 -21.716  31.339  1.00  0.00     0.125 A 
ATOM      9  C   UNL     1     -19.860 -21.129  31.044  1.00  0.00     0.078 A 
ATOM     10  C   UNL     1     -20.902 -21.911  30.537  1.00  0.00     0.223 A 
ENDROOT
BRANCH   1  11
ATOM     11  C   UNL     1     -21.749 -24.187  29.834  1.00  0.00     0.091 A 
ATOM     12  C   UNL     1     -21.845 -24.417  28.453  1.00  0.00     0.068 A 
ATOM     13  C   UNL     1     -22.826 -25.279  27.941  1.00  0.00     0.162 A 
ATOM     14  C   UNL     1     -22.626 -24.860  30.703  1.00  0.00     0.068 A 
ATOM     15  C   UNL     1     -23.710 -25.930  28.811  1.00  0.00     0.200 A 
ATOM     16  C   UNL     1     -23.606 -25.724  30.197  1.00  0.00     0.162 A 
BRANCH  13  17
ATOM     17  O   UNL     1     -22.926 -25.493  26.568  1.00  0.00    -0.504 OA
ATOM     18  H   UNL     1     -22.401 -26.228  26.106  1.00  0.00     0.293 HD
ENDBRANCH  13  17
BRANCH  15  19
ATOM     19  O   UNL     1     -24.681 -26.781  28.283  1.00  0.00    -0.502 OA
ATOM     20  H   UNL     1     -25.671 -26.628  28.432  1.00  0.00     0.293 HD
ENDBRANCH  15  19
BRANCH  16  21
ATOM     21  O   UNL     1     -24.475 -26.381  31.066  1.00  0.00    -0.504 OA
ATOM     22  H   UNL     1     -25.447 -26.107  31.154  1.00  0.00     0.293 HD
ENDBRANCH  16  21
ENDBRANCH   1  11
BRANCH  10  23
ATOM     23  O   UNL     1     -22.120 -21.319  30.195  1.00  0.00    -0.500 OA
ATOM     24  H   UNL     1     -22.803 -21.800  29.624  1.00  0.00     0.294 HD
ENDBRANCH  10  23
BRANCH   5  25
ATOM     25  O   UNL     1     -14.968 -23.657  32.125  1.00  0.00    -0.507 OA
ATOM     26  H   UNL     1     -14.612 -24.390  31.523  1.00  0.00     0.293 HD
ENDBRANCH   5  25
BRANCH   7  27
ATOM     27  O   UNL     1     -17.562 -19.617  32.125  1.00  0.00    -0.507 OA
ATOM     28  H   UNL     1     -17.600 -18.896  31.419  1.00  0.00     0.293 HD
ENDBRANCH   7  27
TORSDOF 7
ENDMDL
MODEL 5
REMARK VINA RESULT:    -2.365     20.207     23.173
REMARK INTER + INTRA:          -3.297
REMARK INTER:                  -2.913
REMARK INTRA:                  -0.385
REMARK UNBOUND:                -0.380
REMARK SMILES Oc1cc(O)c2cc(O)c(-c3cc(O)c(O)c(O)c3)[o+]c2c1
REMARK SMILES IDX 10 1 20 2 21 3 22 4 2 5 3 6 4 7 6 8 7 9 8 10 11 11 12 12
REMARK SMILES IDX 13 13 19 14 15 15 17 16 14 17 16 19 18 21 9 23 1 25 5 27
REMARK H PARENT 14 18 16 20 18 22 9 24 1 26 5 28
REMARK Flexibility Score: inf
ROOT
ATOM      1  C   UNL     1     -33.002 -34.582  16.984  1.00  0.00     0.402 A 
ATOM      2  O   UNL     1     -32.044 -34.147  16.168  1.00  0.00    -0.202 OA
ATOM      3  C   UNL     1     -32.107 -34.257  14.845  1.00  0.00     0.368 A 
ATOM      4  C   UNL     1     -31.052 -33.766  14.072  1.00  0.00     0.162 A 
ATOM      5  C   UNL     1     -31.094 -33.867  12.677  1.00  0.00     0.128 A 
ATOM      6  C   UNL     1     -32.195 -34.459  12.056  1.00  0.00     0.093 A 
ATOM      7  C   UNL     1     -33.264 -34.959  12.809  1.00  0.00     0.136 A 
ATOM      8  C   UNL     1     -33.226 -34.862  14.224  1.00  0.00     0.125 A 
ATOM      9  C   UNL     1     -34.246 -35.347  15.059  1.00  0.00     0.078 A 
ATOM     10  C   UNL     1     -34.135 -35.219  16.446  1.00  0.00     0.223 A 
ENDROOT
BRANCH   1  11
ATOM     11  C   UNL     1     -32.820 -34.393  18.441  1.00  0.00     0.091 A 
ATOM     12  C   UNL     1     -32.087 -35.339  19.173  1.00  0.00     0.068 A 
ATOM     13  C   UNL     1     -31.883 -35.173  20.550  1.00  0.00     0.162 A 
ATOM     14  C   UNL     1     -33.318 -33.255  19.099  1.00  0.00     0.068 A 
ATOM     15  C   UNL     1     -32.400 -34.047  21.204  1.00  0.00     0.200 A 
ATOM     16  C   UNL     1     -33.115 -33.082  20.475  1.00  0.00     0.162 A 
BRANCH  13  17
ATOM     17  O   UNL     1     -31.166 -36.123  21.276  1.00  0.00    -0.504 OA
ATOM     18  H   UNL     1     -31.278 -37.116  21.105  1.00  0.00     0.293 HD
ENDBRANCH  13  17
BRANCH  15  19
ATOM     19  O   UNL     1     -32.190 -33.899  22.575  1.00  0.00    -0.502 OA
ATOM     20  H   UNL     1     -32.603 -33.142  23.106  1.00  0.00     0.293 HD
ENDBRANCH  15  19
BRANCH  16  21
ATOM     21  O   UNL     1     -33.619 -31.953  21.120  1.00  0.00    -0.504 OA
ATOM     22  H   UNL     1     -34.610 -31.844  21.302  1.00  0.00     0.293 HD
ENDBRANCH  16  21
ENDBRANCH   1  11
BRANCH  10  23
ATOM     23  O   UNL     1     -35.125 -35.746  17.279  1.00  0.00    -0.500 OA
ATOM     24  H   UNL     1     -34.914 -36.077  18.212  1.00  0.00     0.294 HD
ENDBRANCH  10  23
BRANCH   5  25
ATOM     25  O   UNL     1     -30.045 -33.379  11.900  1.00  0.00    -0.507 OA
ATOM     26  H   UNL     1     -30.215 -32.881  11.034  1.00  0.00     0.293 HD
ENDBRANCH   5  25
BRANCH   7  27
ATOM     27  O   UNL     1     -34.330 -35.534  12.110  1.00  0.00    -0.507 OA
ATOM     28  H   UNL     1     -34.411 -35.546  11.103  1.00  0.00     0.293 HD
ENDBRANCH   7  27
TORSDOF 7
ENDMDL
MODEL 6
REMARK VINA RESULT:    -2.304      2.286      7.162
REMARK INTER + INTRA:          -3.222
REMARK INTER:                  -2.842
REMARK INTRA:                  -0.380
REMARK UNBOUND:                -0.380
REMARK SMILES Oc1cc(O)c2cc(O)c(-c3cc(O)c(O)c(O)c3)[o+]c2c1
REMARK SMILES IDX 10 1 20 2 21 3 22 4 2 5 3 6 4 7 6 8 7 9 8 10 11 11 12 12
REMARK SMILES IDX 13 13 19 14 15 15 17 16 14 17 16 19 18 21 9 23 1 25 5 27
REMARK H PARENT 14 18 16 20 18 22 9 24 1 26 5 28
REMARK Flexibility Score: inf
ROOT
ATOM      1  C   UNL     1     -17.652 -26.388  30.702  1.00  0.00     0.402 A 
ATOM      2  O   UNL     1     -16.690 -27.280  30.924  1.00  0.00    -0.202 OA
ATOM      3  C   UNL     1     -16.929 -28.532  31.300  1.00  0.00     0.368 A 
ATOM      4  C   UNL     1     -15.851 -29.397  31.507  1.00  0.00     0.162 A 
ATOM      5  C   UNL     1     -16.075 -30.720  31.901  1.00  0.00     0.128 A 
ATOM      6  C   UNL     1     -17.380 -31.179  32.087  1.00  0.00     0.093 A 
ATOM      7  C   UNL     1     -18.476 -30.332  31.887  1.00  0.00     0.136 A 
ATOM      8  C   UNL     1     -18.256 -28.987  31.490  1.00  0.00     0.125 A 
ATOM      9  C   UNL     1     -19.293 -28.065  31.279  1.00  0.00     0.078 A 
ATOM     10  C   UNL     1     -18.997 -26.754  30.893  1.00  0.00     0.223 A 
ENDROOT
BRANCH   1  11
ATOM     11  C   UNL     1     -17.259 -25.025  30.276  1.00  0.00     0.091 A 
ATOM     12  C   UNL     1     -17.177 -24.727  28.908  1.00  0.00     0.068 A 
ATOM     13  C   UNL     1     -16.827 -23.439  28.479  1.00  0.00     0.162 A 
ATOM     14  C   UNL     1     -17.022 -24.005  31.214  1.00  0.00     0.068 A 
ATOM     15  C   UNL     1     -16.571 -22.432  29.419  1.00  0.00     0.200 A 
ATOM     16  C   UNL     1     -16.674 -22.715  30.791  1.00  0.00     0.162 A 
BRANCH  13  17
ATOM     17  O   UNL     1     -16.732 -23.151  27.118  1.00  0.00    -0.504 OA
ATOM     18  H   UNL     1     -17.530 -22.814  26.591  1.00  0.00     0.293 HD
ENDBRANCH  13  17
BRANCH  15  19
ATOM     19  O   UNL     1     -16.221 -21.157  28.974  1.00  0.00    -0.502 OA
ATOM     20  H   UNL     1     -15.546 -21.012  28.232  1.00  0.00     0.293 HD
ENDBRANCH  15  19
BRANCH  16  21
ATOM     21  O   UNL     1     -16.434 -21.712  31.730  1.00  0.00    -0.504 OA
ATOM     22  H   UNL     1     -16.020 -20.826  31.465  1.00  0.00     0.293 HD
ENDBRANCH  16  21
ENDBRANCH   1  11
BRANCH  10  23
ATOM     23  O   UNL     1     -20.024 -25.823  30.733  1.00  0.00    -0.500 OA
ATOM     24  H   UNL     1     -19.836 -24.862  30.474  1.00  0.00     0.294 HD
ENDBRANCH  10  23
BRANCH   5  25
ATOM     25  O   UNL     1     -15.004 -31.588  32.108  1.00  0.00    -0.507 OA
ATOM     26  H   UNL     1     -14.804 -31.974  33.023  1.00  0.00     0.293 HD
ENDBRANCH   5  25
BRANCH   7  27
ATOM     27  O   UNL     1     -19.751 -30.870  32.092  1.00  0.00    -0.507 OA
ATOM     28  H   UNL     1     -20.463 -30.444  32.667  1.00  0.00     0.293 HD
ENDBRANCH   7  27
TORSDOF 7
ENDMDL
MODEL 7
REMARK VINA RESULT:    -2.303      3.554      4.340
REMARK INTER + INTRA:          -3.221
REMARK INTER:                  -2.838
REMARK INTRA:                  -0.383
REMARK UNBOUND:                -0.380
REMARK SMILES Oc1cc(O)c2cc(O)c(-c3cc(O)c(O)c(O)c3)[o+]c2c1
REMARK SMILES IDX 10 1 20 2 21 3 22 4 2 5 3 6 4 7 6 8 7 9 8 10 11 11 12 12
REMARK SMILES IDX 13 13 19 14 15 15 17 16 14 17 16 19 18 21 9 23 1 25 5 27
REMARK H PARENT 14 18 16 20 18 22 9 24 1 26 5 28
REMARK Flexibility Score: inf
ROOT
ATOM      1  C   UNL     1     -19.579 -25.090  30.409  1.00  0.00     0.402 A 
ATOM      2  O   UNL     1     -19.616 -23.789  30.682  1.00  0.00    -0.202 OA
ATOM      3  C   UNL     1     -18.568 -23.109  31.137  1.00  0.00     0.368 A 
ATOM      4  C   UNL     1     -18.704 -21.741  31.393  1.00  0.00     0.162 A 
ATOM      5  C   UNL     1     -17.617 -21.001  31.869  1.00  0.00     0.128 A 
ATOM      6  C   UNL     1     -16.391 -21.631  32.089  1.00  0.00     0.093 A 
ATOM      7  C   UNL     1     -16.229 -23.000  31.841  1.00  0.00     0.136 A 
ATOM      8  C   UNL     1     -17.330 -23.756  31.360  1.00  0.00     0.125 A 
ATOM      9  C   UNL     1     -17.263 -25.134  31.097  1.00  0.00     0.078 A 
ATOM     10  C   UNL     1     -18.392 -25.813  30.629  1.00  0.00     0.223 A 
ENDROOT
BRANCH   1  11
ATOM     11  C   UNL     1     -20.811 -25.734  29.898  1.00  0.00     0.091 A 
ATOM     12  C   UNL     1     -21.812 -26.121  30.802  1.00  0.00     0.068 A 
ATOM     13  C   UNL     1     -22.996 -26.714  30.342  1.00  0.00     0.162 A 
ATOM     14  C   UNL     1     -21.025 -25.914  28.521  1.00  0.00     0.068 A 
ATOM     15  C   UNL     1     -23.195 -26.910  28.969  1.00  0.00     0.200 A 
ATOM     16  C   UNL     1     -22.208 -26.504  28.055  1.00  0.00     0.162 A 
BRANCH  13  17
ATOM     17  O   UNL     1     -23.982 -27.110  31.244  1.00  0.00    -0.504 OA
ATOM     18  H   UNL     1     -23.747 -27.539  32.132  1.00  0.00     0.293 HD
ENDBRANCH  13  17
BRANCH  15  19
ATOM     19  O   UNL     1     -24.379 -27.504  28.530  1.00  0.00    -0.502 OA
ATOM     20  H   UNL     1     -25.217 -27.520  29.099  1.00  0.00     0.293 HD
ENDBRANCH  15  19
BRANCH  16  21
ATOM     21  O   UNL     1     -22.408 -26.685  26.687  1.00  0.00    -0.504 OA
ATOM     22  H   UNL     1     -21.683 -27.064  26.090  1.00  0.00     0.293 HD
ENDBRANCH  16  21
ENDBRANCH   1  11
BRANCH  10  23
ATOM     23  O   UNL     1     -18.341 -27.191  30.414  1.00  0.00    -0.500 OA
ATOM     24  H   UNL     1     -18.994 -27.823  30.860  1.00  0.00     0.294 HD
ENDBRANCH  10  23
BRANCH   5  25
ATOM     25  O   UNL     1     -17.746 -19.638  32.125  1.00  0.00    -0.507 OA
ATOM     26  H   UNL     1     -18.053 -19.295  33.027  1.00  0.00     0.293 HD
ENDBRANCH   5  25
BRANCH   7  27
ATOM     27  O   UNL     1     -14.968 -23.553  32.084  1.00  0.00    -0.507 OA
ATOM     28  H   UNL     1     -14.689 -24.481  31.800  1.00  0.00     0.293 HD
ENDBRANCH   7  27
TORSDOF 7
ENDMDL
MODEL 8
REMARK VINA RESULT:    -0.000      9.376     11.784
REMARK INTER + INTRA:          -0.380
REMARK INTER:                   0.000
REMARK INTRA:                  -0.380
REMARK UNBOUND:                -0.380
REMARK SMILES Oc1cc(O)c2cc(O)c(-c3cc(O)c(O)c(O)c3)[o+]c2c1
REMARK SMILES IDX 10 1 20 2 21 3 22 4 2 5 3 6 4 7 6 8 7 9 8 10 11 11 12 12
REMARK SMILES IDX 13 13 19 14 15 15 17 16 14 17 16 19 18 21 9 23 1 25 5 27
REMARK H PARENT 14 18 16 20 18 22 9 24 1 26 5 28
REMARK Flexibility Score: inf
ROOT
ATOM      1  C   UNL     1     -25.357 -25.737  24.093  1.00  0.00     0.402 A 
ATOM      2  O   UNL     1     -24.540 -26.737  23.772  1.00  0.00    -0.202 OA
ATOM      3  C   UNL     1     -23.933 -26.832  22.593  1.00  0.00     0.368 A 
ATOM      4  C   UNL     1     -23.090 -27.919  22.349  1.00  0.00     0.162 A 
ATOM      5  C   UNL     1     -22.436 -28.043  21.119  1.00  0.00     0.128 A 
ATOM      6  C   UNL     1     -22.627 -27.075  20.131  1.00  0.00     0.093 A 
ATOM      7  C   UNL     1     -23.468 -25.977  20.350  1.00  0.00     0.136 A 
ATOM      8  C   UNL     1     -24.135 -25.848  21.596  1.00  0.00     0.125 A 
ATOM      9  C   UNL     1     -25.005 -24.788  21.899  1.00  0.00     0.078 A 
ATOM     10  C   UNL     1     -25.631 -24.731  23.148  1.00  0.00     0.223 A 
ENDROOT
BRANCH   1  11
ATOM     11  C   UNL     1     -25.967 -25.737  25.443  1.00  0.00     0.091 A 
ATOM     12  C   UNL     1     -25.329 -25.050  26.488  1.00  0.00     0.068 A 
ATOM     13  C   UNL     1     -25.896 -25.018  27.770  1.00  0.00     0.162 A 
ATOM     14  C   UNL     1     -27.201 -26.362  25.689  1.00  0.00     0.068 A 
ATOM     15  C   UNL     1     -27.117 -25.661  28.013  1.00  0.00     0.200 A 
ATOM     16  C   UNL     1     -27.773 -26.332  26.968  1.00  0.00     0.162 A 
BRANCH  13  17
ATOM     17  O   UNL     1     -25.252 -24.346  28.807  1.00  0.00    -0.504 OA
ATOM     18  H   UNL     1     -25.160 -24.758  29.729  1.00  0.00     0.293 HD
ENDBRANCH  13  17
BRANCH  15  19
ATOM     19  O   UNL     1     -27.663 -25.621  29.296  1.00  0.00    -0.502 OA
ATOM     20  H   UNL     1     -27.099 -25.753  30.126  1.00  0.00     0.293 HD
ENDBRANCH  15  19
BRANCH  16  21
ATOM     21  O   UNL     1     -28.995 -26.961  27.203  1.00  0.00    -0.504 OA
ATOM     22  H   UNL     1     -29.080 -27.725  27.863  1.00  0.00     0.293 HD
ENDBRANCH  16  21
ENDBRANCH   1  11
BRANCH  10  23
ATOM     23  O   UNL     1     -26.535 -23.706  23.432  1.00  0.00    -0.500 OA
ATOM     24  H   UNL     1     -27.329 -23.851  24.043  1.00  0.00     0.294 HD
ENDBRANCH  10  23
BRANCH   5  25
ATOM     25  O   UNL     1     -21.593 -29.124  20.869  1.00  0.00    -0.507 OA
ATOM     26  H   UNL     1     -20.940 -29.119  20.096  1.00  0.00     0.293 HD
ENDBRANCH   5  25
BRANCH   7  27
ATOM     27  O   UNL     1     -23.602 -25.051  19.311  1.00  0.00    -0.507 OA
ATOM     28  H   UNL     1     -23.066 -25.074  18.455  1.00  0.00     0.293 HD
ENDBRANCH   7  27
TORSDOF 7
ENDMDL
