MODEL 1
REMARK VINA RESULT:    -4.327      0.000      0.000
REMARK INTER + INTRA:          -9.030
REMARK INTER:                  -7.363
REMARK INTRA:                  -1.667
REMARK UNBOUND:                -1.667
REMARK SMILES CCCCCCCCCCCCCC(=O)[O-]
REMARK SMILES IDX 8 1 9 2 10 3 11 4 12 5 13 6 14 7 15 8 16 9 7 10 6 11 5 12
REMARK SMILES IDX 4 13 3 14 2 15 1 16
REMARK H PARENT
REMARK Flexibility Score: inf
ROOT
ATOM      1  C   UNL     1     -36.567  22.374 -27.681  1.00  0.00     0.000 C 
ENDROOT
BRANCH   1   2
ATOM      2  C   UNL     1     -36.720  20.854 -27.559  1.00  0.00     0.000 C 
BRANCH   2   3
ATOM      3  C   UNL     1     -37.934  20.489 -26.697  1.00  0.00     0.000 C 
BRANCH   3   4
ATOM      4  C   UNL     1     -38.913  19.599 -27.471  1.00  0.00     0.000 C 
BRANCH   4   5
ATOM      5  C   UNL     1     -38.496  19.475 -28.945  1.00  0.00     0.006 C 
BRANCH   5   6
ATOM      6  C   UNL     1     -39.322  18.422 -29.695  1.00  0.00     0.053 C 
BRANCH   6   7
ATOM      7  C   UNL     1     -40.313  19.051 -30.625  1.00  0.00     0.041 C 
ATOM      8  O   UNL     1     -41.277  18.377 -31.074  1.00  0.00    -0.550 OA
ATOM      9  O   UNL     1     -40.154  20.373 -31.023  1.00  0.00    -0.550 OA
ENDBRANCH   6   7
ENDBRANCH   5   6
ENDBRANCH   4   5
ENDBRANCH   3   4
ENDBRANCH   2   3
ENDBRANCH   1   2
BRANCH   1  10
ATOM     10  C   UNL     1     -36.339  22.789 -29.143  1.00  0.00     0.000 C 
BRANCH  10  11
ATOM     11  C   UNL     1     -37.425  23.743 -29.663  1.00  0.00    -0.000 C 
BRANCH  11  12
ATOM     12  C   UNL     1     -38.282  24.337 -28.531  1.00  0.00    -0.000 C 
BRANCH  12  13
ATOM     13  C   UNL     1     -39.789  24.160 -28.777  1.00  0.00    -0.000 C 
BRANCH  13  14
ATOM     14  C   UNL     1     -40.283  22.748 -28.419  1.00  0.00    -0.000 C 
BRANCH  14  15
ATOM     15  C   UNL     1     -41.780  22.557 -28.707  1.00  0.00    -0.003 C 
ATOM     16  C   UNL     1     -42.346  21.288 -28.074  1.00  0.00     0.004 C 
ENDBRANCH  14  15
ENDBRANCH  13  14
ENDBRANCH  12  13
ENDBRANCH  11  12
ENDBRANCH  10  11
ENDBRANCH   1  10
TORSDOF 12
ENDMDL
MODEL 2
REMARK VINA RESULT:    -4.209      1.687      3.538
REMARK INTER + INTRA:          -8.830
REMARK INTER:                  -6.691
REMARK INTRA:                  -2.139
REMARK UNBOUND:                -1.667
REMARK SMILES CCCCCCCCCCCCCC(=O)[O-]
REMARK SMILES IDX 8 1 9 2 10 3 11 4 12 5 13 6 14 7 15 8 16 9 7 10 6 11 5 12
REMARK SMILES IDX 4 13 3 14 2 15 1 16
REMARK H PARENT
REMARK Flexibility Score: inf
ROOT
ATOM      1  C   UNL     1     -40.838  22.745 -29.462  1.00  0.00     0.000 C 
ENDROOT
BRANCH   1   2
ATOM      2  C   UNL     1     -41.538  21.517 -28.869  1.00  0.00     0.000 C 
BRANCH   2   3
ATOM      3  C   UNL     1     -40.723  20.923 -27.713  1.00  0.00     0.000 C 
BRANCH   3   4
ATOM      4  C   UNL     1     -39.225  21.187 -27.902  1.00  0.00     0.000 C 
BRANCH   4   5
ATOM      5  C   UNL     1     -38.438  19.869 -27.968  1.00  0.00     0.006 C 
BRANCH   5   6
ATOM      6  C   UNL     1     -38.213  19.398 -29.411  1.00  0.00     0.053 C 
BRANCH   6   7
ATOM      7  C   UNL     1     -39.216  18.363 -29.821  1.00  0.00     0.041 C 
ATOM      8  O   UNL     1     -39.097  17.174 -29.426  1.00  0.00    -0.550 OA
ATOM      9  O   UNL     1     -40.262  18.705 -30.668  1.00  0.00    -0.550 OA
ENDBRANCH   6   7
ENDBRANCH   5   6
ENDBRANCH   4   5
ENDBRANCH   3   4
ENDBRANCH   2   3
ENDBRANCH   1   2
BRANCH   1  10
ATOM     10  C   UNL     1     -40.763  22.650 -30.993  1.00  0.00     0.000 C 
BRANCH  10  11
ATOM     11  C   UNL     1     -39.429  22.068 -31.485  1.00  0.00    -0.000 C 
BRANCH  11  12
ATOM     12  C   UNL     1     -38.317  23.129 -31.573  1.00  0.00    -0.000 C 
BRANCH  12  13
ATOM     13  C   UNL     1     -37.028  22.693 -30.860  1.00  0.00    -0.000 C 
BRANCH  13  14
ATOM     14  C   UNL     1     -36.881  23.329 -29.466  1.00  0.00    -0.000 C 
BRANCH  14  15
ATOM     15  C   UNL     1     -37.658  24.649 -29.337  1.00  0.00    -0.003 C 
ATOM     16  C   UNL     1     -38.109  24.930 -27.904  1.00  0.00     0.004 C 
ENDBRANCH  14  15
ENDBRANCH  13  14
ENDBRANCH  12  13
ENDBRANCH  11  12
ENDBRANCH  10  11
ENDBRANCH   1  10
TORSDOF 12
ENDMDL
MODEL 3
REMARK VINA RESULT:    -4.200      1.957      3.319
REMARK INTER + INTRA:          -8.813
REMARK INTER:                  -6.955
REMARK INTRA:                  -1.859
REMARK UNBOUND:                -1.667
REMARK SMILES CCCCCCCCCCCCCC(=O)[O-]
REMARK SMILES IDX 8 1 9 2 10 3 11 4 12 5 13 6 14 7 15 8 16 9 7 10 6 11 5 12
REMARK SMILES IDX 4 13 3 14 2 15 1 16
REMARK H PARENT
REMARK Flexibility Score: inf
ROOT
ATOM      1  C   UNL     1     -36.694  19.918 -29.393  1.00  0.00     0.000 C 
ENDROOT
BRANCH   1   2
ATOM      2  C   UNL     1     -37.703  18.927 -29.983  1.00  0.00     0.000 C 
BRANCH   2   3
ATOM      3  C   UNL     1     -38.960  18.834 -29.110  1.00  0.00     0.000 C 
BRANCH   3   4
ATOM      4  C   UNL     1     -38.748  19.534 -27.763  1.00  0.00     0.000 C 
BRANCH   4   5
ATOM      5  C   UNL     1     -39.842  20.583 -27.509  1.00  0.00     0.006 C 
BRANCH   5   6
ATOM      6  C   UNL     1     -40.655  20.890 -28.772  1.00  0.00     0.053 C 
BRANCH   6   7
ATOM      7  C   UNL     1     -41.919  21.629 -28.453  1.00  0.00     0.041 C 
ATOM      8  O   UNL     1     -42.801  21.095 -27.732  1.00  0.00    -0.550 OA
ATOM      9  O   UNL     1     -42.137  22.895 -28.982  1.00  0.00    -0.550 OA
ENDBRANCH   6   7
ENDBRANCH   5   6
ENDBRANCH   4   5
ENDBRANCH   3   4
ENDBRANCH   2   3
ENDBRANCH   1   2
BRANCH   1  10
ATOM     10  C   UNL     1     -36.489  21.119 -30.329  1.00  0.00     0.000 C 
BRANCH  10  11
ATOM     11  C   UNL     1     -37.794  21.877 -30.613  1.00  0.00    -0.000 C 
BRANCH  11  12
ATOM     12  C   UNL     1     -37.547  23.321 -31.087  1.00  0.00    -0.000 C 
BRANCH  12  13
ATOM     13  C   UNL     1     -38.132  24.366 -30.123  1.00  0.00    -0.000 C 
BRANCH  13  14
ATOM     14  C   UNL     1     -38.454  23.776 -28.739  1.00  0.00    -0.000 C 
BRANCH  14  15
ATOM     15  C   UNL     1     -37.396  24.137 -27.685  1.00  0.00    -0.003 C 
ATOM     16  C   UNL     1     -36.727  22.906 -27.075  1.00  0.00     0.004 C 
ENDBRANCH  14  15
ENDBRANCH  13  14
ENDBRANCH  12  13
ENDBRANCH  11  12
ENDBRANCH  10  11
ENDBRANCH   1  10
TORSDOF 12
ENDMDL
MODEL 4
REMARK VINA RESULT:    -4.187      2.232      4.126
REMARK INTER + INTRA:          -8.793
REMARK INTER:                  -6.899
REMARK INTRA:                  -1.893
REMARK UNBOUND:                -1.667
REMARK SMILES CCCCCCCCCCCCCC(=O)[O-]
REMARK SMILES IDX 8 1 9 2 10 3 11 4 12 5 13 6 14 7 15 8 16 9 7 10 6 11 5 12
REMARK SMILES IDX 4 13 3 14 2 15 1 16
REMARK H PARENT
REMARK Flexibility Score: inf
ROOT
ATOM      1  C   UNL     1     -37.615  20.344 -27.709  1.00  0.00     0.000 C 
ENDROOT
BRANCH   1   2
ATOM      2  C   UNL     1     -37.163  21.724 -27.217  1.00  0.00     0.000 C 
BRANCH   2   3
ATOM      3  C   UNL     1     -37.117  22.733 -28.371  1.00  0.00     0.000 C 
BRANCH   3   4
ATOM      4  C   UNL     1     -38.438  23.502 -28.484  1.00  0.00     0.000 C 
BRANCH   4   5
ATOM      5  C   UNL     1     -38.644  24.037 -29.910  1.00  0.00     0.006 C 
BRANCH   5   6
ATOM      6  C   UNL     1     -38.153  23.051 -30.976  1.00  0.00     0.053 C 
BRANCH   6   7
ATOM      7  C   UNL     1     -37.715  23.754 -32.225  1.00  0.00     0.041 C 
ATOM      8  O   UNL     1     -38.304  23.534 -33.315  1.00  0.00    -0.550 OA
ATOM      9  O   UNL     1     -36.633  24.625 -32.191  1.00  0.00    -0.550 OA
ENDBRANCH   6   7
ENDBRANCH   5   6
ENDBRANCH   4   5
ENDBRANCH   3   4
ENDBRANCH   2   3
ENDBRANCH   1   2
BRANCH   1  10
ATOM     10  C   UNL     1     -36.932  19.983 -29.037  1.00  0.00     0.000 C 
BRANCH  10  11
ATOM     11  C   UNL     1     -37.881  19.277 -30.017  1.00  0.00    -0.000 C 
BRANCH  11  12
ATOM     12  C   UNL     1     -39.243  18.942 -29.384  1.00  0.00    -0.000 C 
BRANCH  12  13
ATOM     13  C   UNL     1     -40.420  19.556 -30.158  1.00  0.00    -0.000 C 
BRANCH  13  14
ATOM     14  C   UNL     1     -40.797  20.957 -29.644  1.00  0.00    -0.000 C 
BRANCH  14  15
ATOM     15  C   UNL     1     -41.142  20.962 -28.147  1.00  0.00    -0.003 C 
ATOM     16  C   UNL     1     -42.634  21.167 -27.886  1.00  0.00     0.004 C 
ENDBRANCH  14  15
ENDBRANCH  13  14
ENDBRANCH  12  13
ENDBRANCH  11  12
ENDBRANCH  10  11
ENDBRANCH   1  10
TORSDOF 12
ENDMDL
MODEL 5
REMARK VINA RESULT:    -4.175      1.980      3.507
REMARK INTER + INTRA:          -8.771
REMARK INTER:                  -6.883
REMARK INTRA:                  -1.888
REMARK UNBOUND:                -1.667
REMARK SMILES CCCCCCCCCCCCCC(=O)[O-]
REMARK SMILES IDX 8 1 9 2 10 3 11 4 12 5 13 6 14 7 15 8 16 9 7 10 6 11 5 12
REMARK SMILES IDX 4 13 3 14 2 15 1 16
REMARK H PARENT
REMARK Flexibility Score: inf
ROOT
ATOM      1  C   UNL     1     -36.475  19.899 -29.055  1.00  0.00     0.000 C 
ENDROOT
BRANCH   1   2
ATOM      2  C   UNL     1     -37.376  19.021 -29.931  1.00  0.00     0.000 C 
BRANCH   2   3
ATOM      3  C   UNL     1     -38.781  18.899 -29.328  1.00  0.00     0.000 C 
BRANCH   3   4
ATOM      4  C   UNL     1     -39.853  18.904 -30.424  1.00  0.00     0.000 C 
BRANCH   4   5
ATOM      5  C   UNL     1     -41.014  19.841 -30.056  1.00  0.00     0.006 C 
BRANCH   5   6
ATOM      6  C   UNL     1     -40.743  20.619 -28.762  1.00  0.00     0.053 C 
BRANCH   6   7
ATOM      7  C   UNL     1     -41.868  21.551 -28.427  1.00  0.00     0.041 C 
ATOM      8  O   UNL     1     -41.810  22.761 -28.767  1.00  0.00    -0.550 OA
ATOM      9  O   UNL     1     -42.964  21.089 -27.710  1.00  0.00    -0.550 OA
ENDBRANCH   6   7
ENDBRANCH   5   6
ENDBRANCH   4   5
ENDBRANCH   3   4
ENDBRANCH   2   3
ENDBRANCH   1   2
BRANCH   1  10
ATOM     10  C   UNL     1     -37.241  20.425 -27.831  1.00  0.00     0.000 C 
BRANCH  10  11
ATOM     11  C   UNL     1     -36.835  21.856 -27.448  1.00  0.00    -0.000 C 
BRANCH  11  12
ATOM     12  C   UNL     1     -37.776  22.918 -28.045  1.00  0.00    -0.000 C 
BRANCH  12  13
ATOM     13  C   UNL     1     -37.087  23.783 -29.112  1.00  0.00    -0.000 C 
BRANCH  13  14
ATOM     14  C   UNL     1     -37.151  23.152 -30.514  1.00  0.00    -0.000 C 
BRANCH  14  15
ATOM     15  C   UNL     1     -38.503  22.479 -30.796  1.00  0.00    -0.003 C 
ATOM     16  C   UNL     1     -39.121  22.927 -32.119  1.00  0.00     0.004 C 
ENDBRANCH  14  15
ENDBRANCH  13  14
ENDBRANCH  12  13
ENDBRANCH  11  12
ENDBRANCH  10  11
ENDBRANCH   1  10
TORSDOF 12
ENDMDL
MODEL 6
REMARK VINA RESULT:    -4.167      3.173      5.493
REMARK INTER + INTRA:          -8.758
REMARK INTER:                  -6.578
REMARK INTRA:                  -2.180
REMARK UNBOUND:                -1.667
REMARK SMILES CCCCCCCCCCCCCC(=O)[O-]
REMARK SMILES IDX 8 1 9 2 10 3 11 4 12 5 13 6 14 7 15 8 16 9 7 10 6 11 5 12
REMARK SMILES IDX 4 13 3 14 2 15 1 16
REMARK H PARENT
REMARK Flexibility Score: inf
ROOT
ATOM      1  C   UNL     1     -40.249  22.108 -31.164  1.00  0.00     0.000 C 
ENDROOT
BRANCH   1   2
ATOM      2  C   UNL     1     -39.113  22.867 -31.858  1.00  0.00     0.000 C 
BRANCH   2   3
ATOM      3  C   UNL     1     -38.211  23.567 -30.833  1.00  0.00     0.000 C 
BRANCH   3   4
ATOM      4  C   UNL     1     -37.117  22.621 -30.326  1.00  0.00     0.000 C 
BRANCH   4   5
ATOM      5  C   UNL     1     -36.642  23.029 -28.923  1.00  0.00     0.006 C 
BRANCH   5   6
ATOM      6  C   UNL     1     -37.773  23.631 -28.080  1.00  0.00     0.053 C 
BRANCH   6   7
ATOM      7  C   UNL     1     -37.292  24.770 -27.233  1.00  0.00     0.041 C 
ATOM      8  O   UNL     1     -37.524  25.958 -27.577  1.00  0.00    -0.550 OA
ATOM      9  O   UNL     1     -36.556  24.518 -26.082  1.00  0.00    -0.550 OA
ENDBRANCH   6   7
ENDBRANCH   5   6
ENDBRANCH   4   5
ENDBRANCH   3   4
ENDBRANCH   2   3
ENDBRANCH   1   2
BRANCH   1  10
ATOM     10  C   UNL     1     -40.967  23.004 -30.143  1.00  0.00     0.000 C 
BRANCH  10  11
ATOM     11  C   UNL     1     -41.335  22.255 -28.853  1.00  0.00    -0.000 C 
BRANCH  11  12
ATOM     12  C   UNL     1     -40.786  20.817 -28.827  1.00  0.00    -0.000 C 
BRANCH  12  13
ATOM     13  C   UNL     1     -39.868  20.558 -27.622  1.00  0.00    -0.000 C 
BRANCH  13  14
ATOM     14  C   UNL     1     -38.584  19.805 -28.011  1.00  0.00    -0.000 C 
BRANCH  14  15
ATOM     15  C   UNL     1     -38.658  19.205 -29.423  1.00  0.00    -0.003 C 
ATOM     16  C   UNL     1     -37.281  19.019 -30.059  1.00  0.00     0.004 C 
ENDBRANCH  14  15
ENDBRANCH  13  14
ENDBRANCH  12  13
ENDBRANCH  11  12
ENDBRANCH  10  11
ENDBRANCH   1  10
TORSDOF 12
ENDMDL
MODEL 7
REMARK VINA RESULT:    -4.150      2.098      4.092
REMARK INTER + INTRA:          -8.730
REMARK INTER:                  -6.814
REMARK INTRA:                  -1.915
REMARK UNBOUND:                -1.667
REMARK SMILES CCCCCCCCCCCCCC(=O)[O-]
REMARK SMILES IDX 8 1 9 2 10 3 11 4 12 5 13 6 14 7 15 8 16 9 7 10 6 11 5 12
REMARK SMILES IDX 4 13 3 14 2 15 1 16
REMARK H PARENT
REMARK Flexibility Score: inf
ROOT
ATOM      1  C   UNL     1     -37.606  23.875 -30.886  1.00  0.00     0.000 C 
ENDROOT
BRANCH   1   2
ATOM      2  C   UNL     1     -38.542  22.983 -31.709  1.00  0.00     0.000 C 
BRANCH   2   3
ATOM      3  C   UNL     1     -39.727  22.499 -30.864  1.00  0.00     0.000 C 
BRANCH   3   4
ATOM      4  C   UNL     1     -40.018  21.016 -31.122  1.00  0.00     0.000 C 
BRANCH   4   5
ATOM      5  C   UNL     1     -40.619  20.348 -29.875  1.00  0.00     0.006 C 
BRANCH   5   6
ATOM      6  C   UNL     1     -40.678  21.302 -28.676  1.00  0.00     0.053 C 
BRANCH   6   7
ATOM      7  C   UNL     1     -42.075  21.772 -28.406  1.00  0.00     0.041 C 
ATOM      8  O   UNL     1     -42.866  21.056 -27.739  1.00  0.00    -0.550 OA
ATOM      9  O   UNL     1     -42.512  22.985 -28.921  1.00  0.00    -0.550 OA
ENDBRANCH   6   7
ENDBRANCH   5   6
ENDBRANCH   4   5
ENDBRANCH   3   4
ENDBRANCH   2   3
ENDBRANCH   1   2
BRANCH   1  10
ATOM     10  C   UNL     1     -38.337  24.465 -29.671  1.00  0.00     0.000 C 
BRANCH  10  11
ATOM     11  C   UNL     1     -37.755  23.976 -28.336  1.00  0.00    -0.000 C 
BRANCH  11  12
ATOM     12  C   UNL     1     -36.777  22.800 -28.512  1.00  0.00    -0.000 C 
BRANCH  12  13
ATOM     13  C   UNL     1     -37.229  21.539 -27.759  1.00  0.00    -0.000 C 
BRANCH  13  14
ATOM     14  C   UNL     1     -36.544  20.264 -28.281  1.00  0.00    -0.000 C 
BRANCH  14  15
ATOM     15  C   UNL     1     -36.704  20.089 -29.799  1.00  0.00    -0.003 C 
ATOM     16  C   UNL     1     -37.301  18.734 -30.178  1.00  0.00     0.004 C 
ENDBRANCH  14  15
ENDBRANCH  13  14
ENDBRANCH  12  13
ENDBRANCH  11  12
ENDBRANCH  10  11
ENDBRANCH   1  10
TORSDOF 12
ENDMDL
MODEL 8
REMARK VINA RESULT:    -4.140      3.171      5.051
REMARK INTER + INTRA:          -8.712
REMARK INTER:                  -6.570
REMARK INTRA:                  -2.143
REMARK UNBOUND:                -1.667
REMARK SMILES CCCCCCCCCCCCCC(=O)[O-]
REMARK SMILES IDX 8 1 9 2 10 3 11 4 12 5 13 6 14 7 15 8 16 9 7 10 6 11 5 12
REMARK SMILES IDX 4 13 3 14 2 15 1 16
REMARK H PARENT
REMARK Flexibility Score: inf
ROOT
ATOM      1  C   UNL     1     -37.489  19.226 -29.959  1.00  0.00     0.000 C 
ENDROOT
BRANCH   1   2
ATOM      2  C   UNL     1     -36.767  20.434 -29.351  1.00  0.00     0.000 C 
BRANCH   2   3
ATOM      3  C   UNL     1     -36.679  21.588 -30.357  1.00  0.00     0.000 C 
BRANCH   3   4
ATOM      4  C   UNL     1     -36.586  22.939 -29.639  1.00  0.00     0.000 C 
BRANCH   4   5
ATOM      5  C   UNL     1     -37.476  22.959 -28.386  1.00  0.00     0.006 C 
BRANCH   5   6
ATOM      6  C   UNL     1     -38.090  24.341 -28.133  1.00  0.00     0.053 C 
BRANCH   6   7
ATOM      7  C   UNL     1     -37.242  25.168 -27.216  1.00  0.00     0.041 C 
ATOM      8  O   UNL     1     -36.683  24.639 -26.220  1.00  0.00    -0.550 OA
ATOM      9  O   UNL     1     -37.095  26.531 -27.444  1.00  0.00    -0.550 OA
ENDBRANCH   6   7
ENDBRANCH   5   6
ENDBRANCH   4   5
ENDBRANCH   3   4
ENDBRANCH   2   3
ENDBRANCH   1   2
BRANCH   1  10
ATOM     10  C   UNL     1     -38.859  19.014 -29.297  1.00  0.00     0.000 C 
BRANCH  10  11
ATOM     11  C   UNL     1     -38.904  19.528 -27.851  1.00  0.00    -0.000 C 
BRANCH  11  12
ATOM     12  C   UNL     1     -40.085  20.483 -27.599  1.00  0.00    -0.000 C 
BRANCH  12  13
ATOM     13  C   UNL     1     -40.844  20.834 -28.888  1.00  0.00    -0.000 C 
BRANCH  13  14
ATOM     14  C   UNL     1     -41.043  22.350 -29.061  1.00  0.00    -0.000 C 
BRANCH  14  15
ATOM     15  C   UNL     1     -40.795  22.816 -30.504  1.00  0.00    -0.003 C 
ATOM     16  C   UNL     1     -40.076  21.765 -31.348  1.00  0.00     0.004 C 
ENDBRANCH  14  15
ENDBRANCH  13  14
ENDBRANCH  12  13
ENDBRANCH  11  12
ENDBRANCH  10  11
ENDBRANCH   1  10
TORSDOF 12
ENDMDL
MODEL 9
REMARK VINA RESULT:    -4.061      1.760      4.060
REMARK INTER + INTRA:          -8.578
REMARK INTER:                  -6.746
REMARK INTRA:                  -1.832
REMARK UNBOUND:                -1.667
REMARK SMILES CCCCCCCCCCCCCC(=O)[O-]
REMARK SMILES IDX 8 1 9 2 10 3 11 4 12 5 13 6 14 7 15 8 16 9 7 10 6 11 5 12
REMARK SMILES IDX 4 13 3 14 2 15 1 16
REMARK H PARENT
REMARK Flexibility Score: inf
ROOT
ATOM      1  C   UNL     1     -37.064  23.574 -28.016  1.00  0.00     0.000 C 
ENDROOT
BRANCH   1   2
ATOM      2  C   UNL     1     -36.695  23.662 -29.501  1.00  0.00     0.000 C 
BRANCH   2   3
ATOM      3  C   UNL     1     -37.921  24.011 -30.354  1.00  0.00     0.000 C 
BRANCH   3   4
ATOM      4  C   UNL     1     -38.526  22.754 -30.989  1.00  0.00     0.000 C 
BRANCH   4   5
ATOM      5  C   UNL     1     -40.044  22.697 -30.759  1.00  0.00     0.006 C 
BRANCH   5   6
ATOM      6  C   UNL     1     -40.431  23.108 -29.333  1.00  0.00     0.053 C 
BRANCH   6   7
ATOM      7  C   UNL     1     -41.882  22.856 -29.055  1.00  0.00     0.041 C 
ATOM      8  O   UNL     1     -42.237  21.819 -28.437  1.00  0.00    -0.550 OA
ATOM      9  O   UNL     1     -42.843  23.750 -29.509  1.00  0.00    -0.550 OA
ENDBRANCH   6   7
ENDBRANCH   5   6
ENDBRANCH   4   5
ENDBRANCH   3   4
ENDBRANCH   2   3
ENDBRANCH   1   2
BRANCH   1  10
ATOM     10  C   UNL     1     -36.396  22.360 -27.354  1.00  0.00     0.000 C 
BRANCH  10  11
ATOM     11  C   UNL     1     -36.935  21.024 -27.887  1.00  0.00    -0.000 C 
BRANCH  11  12
ATOM     12  C   UNL     1     -38.159  20.523 -27.099  1.00  0.00    -0.000 C 
BRANCH  12  13
ATOM     13  C   UNL     1     -39.249  19.940 -28.012  1.00  0.00    -0.000 C 
BRANCH  13  14
ATOM     14  C   UNL     1     -38.694  19.469 -29.367  1.00  0.00    -0.000 C 
BRANCH  14  15
ATOM     15  C   UNL     1     -39.576  18.395 -30.023  1.00  0.00    -0.003 C 
ATOM     16  C   UNL     1     -40.769  18.988 -30.772  1.00  0.00     0.004 C 
ENDBRANCH  14  15
ENDBRANCH  13  14
ENDBRANCH  12  13
ENDBRANCH  11  12
ENDBRANCH  10  11
ENDBRANCH   1  10
TORSDOF 12
ENDMDL
