MODEL 1
REMARK VINA RESULT:    -6.465      0.000      0.000
REMARK INTER + INTRA:          -7.091
REMARK INTER:                  -7.031
REMARK INTRA:                  -0.060
REMARK UNBOUND:                -0.060
REMARK SMILES COc1cc2ccc(=O)oc2cc1O
REMARK SMILES IDX 3 1 13 2 12 3 11 4 5 5 4 6 6 7 7 8 8 9 9 10 10 11 2 12 1 13
REMARK SMILES IDX 14 14
REMARK H PARENT 14 15
REMARK Flexibility Score: inf
ROOT
ATOM      1  C   UNL     1     -29.335  68.158  86.280  1.00  0.00     0.161 A 
ATOM      2  C   UNL     1     -28.056  68.026  85.704  1.00  0.00     0.161 A 
ATOM      3  C   UNL     1     -27.640  66.795  85.185  1.00  0.00     0.098 A 
ATOM      4  C   UNL     1     -28.486  65.684  85.233  1.00  0.00     0.142 A 
ATOM      5  C   UNL     1     -29.768  65.805  85.807  1.00  0.00     0.022 A 
ATOM      6  C   UNL     1     -30.190  67.036  86.328  1.00  0.00     0.062 A 
ATOM      7  C   UNL     1     -30.593  64.676  85.840  1.00  0.00     0.019 A 
ATOM      8  C   UNL     1     -30.128  63.474  85.309  1.00  0.00     0.094 A 
ATOM      9  C   UNL     1     -28.845  63.428  84.756  1.00  0.00     0.336 A 
ATOM     10  O   UNL     1     -28.407  62.352  84.271  1.00  0.00    -0.246 OA
ATOM     11  O   UNL     1     -28.080  64.517  84.737  1.00  0.00    -0.423 OA
ENDROOT
BRANCH   1  12
ATOM     12  O   UNL     1     -29.721  69.407  86.791  1.00  0.00    -0.493 OA
ATOM     13  C   UNL     1     -30.786  70.198  86.271  1.00  0.00     0.278 C 
ENDBRANCH   1  12
BRANCH   2  14
ATOM     14  O   UNL     1     -27.183  69.112  85.638  1.00  0.00    -0.504 OA
ATOM     15  H   UNL     1     -26.273  69.101  86.081  1.00  0.00     0.293 HD
ENDBRANCH   2  14
TORSDOF 2
ENDMDL
MODEL 2
REMARK VINA RESULT:    -6.442      1.275      5.474
REMARK INTER + INTRA:          -7.067
REMARK INTER:                  -7.003
REMARK INTRA:                  -0.064
REMARK UNBOUND:                -0.060
REMARK SMILES COc1cc2ccc(=O)oc2cc1O
REMARK SMILES IDX 3 1 13 2 12 3 11 4 5 5 4 6 6 7 7 8 8 9 9 10 10 11 2 12 1 13
REMARK SMILES IDX 14 14
REMARK H PARENT 14 15
REMARK Flexibility Score: inf
ROOT
ATOM      1  C   UNL     1     -28.840  63.640  84.508  1.00  0.00     0.161 A 
ATOM      2  C   UNL     1     -29.995  63.722  85.310  1.00  0.00     0.161 A 
ATOM      3  C   UNL     1     -30.295  64.903  85.997  1.00  0.00     0.098 A 
ATOM      4  C   UNL     1     -29.452  66.013  85.897  1.00  0.00     0.142 A 
ATOM      5  C   UNL     1     -28.293  65.942  85.098  1.00  0.00     0.022 A 
ATOM      6  C   UNL     1     -27.989  64.761  84.407  1.00  0.00     0.062 A 
ATOM      7  C   UNL     1     -27.469  67.069  85.017  1.00  0.00     0.019 A 
ATOM      8  C   UNL     1     -27.814  68.220  85.723  1.00  0.00     0.094 A 
ATOM      9  C   UNL     1     -28.979  68.218  86.496  1.00  0.00     0.336 A 
ATOM     10  O   UNL     1     -29.308  69.248  87.141  1.00  0.00    -0.246 OA
ATOM     11  O   UNL     1     -29.746  67.132  86.556  1.00  0.00    -0.423 OA
ENDROOT
BRANCH   1  12
ATOM     12  O   UNL     1     -28.570  62.440  83.831  1.00  0.00    -0.493 OA
ATOM     13  C   UNL     1     -27.568  61.503  84.215  1.00  0.00     0.278 C 
ENDBRANCH   1  12
BRANCH   2  14
ATOM     14  O   UNL     1     -30.861  62.635  85.435  1.00  0.00    -0.504 OA
ATOM     15  H   UNL     1     -31.799  62.731  85.803  1.00  0.00     0.293 HD
ENDBRANCH   2  14
TORSDOF 2
ENDMDL
MODEL 3
REMARK VINA RESULT:    -6.416      2.073      3.025
REMARK INTER + INTRA:          -7.038
REMARK INTER:                  -6.980
REMARK INTRA:                  -0.058
REMARK UNBOUND:                -0.060
REMARK SMILES COc1cc2ccc(=O)oc2cc1O
REMARK SMILES IDX 3 1 13 2 12 3 11 4 5 5 4 6 6 7 7 8 8 9 9 10 10 11 2 12 1 13
REMARK SMILES IDX 14 14
REMARK H PARENT 14 15
REMARK Flexibility Score: inf
ROOT
ATOM      1  C   UNL     1     -29.331  68.148  86.491  1.00  0.00     0.161 A 
ATOM      2  C   UNL     1     -30.608  67.553  86.524  1.00  0.00     0.161 A 
ATOM      3  C   UNL     1     -30.975  66.617  85.551  1.00  0.00     0.098 A 
ATOM      4  C   UNL     1     -30.081  66.263  84.536  1.00  0.00     0.142 A 
ATOM      5  C   UNL     1     -28.801  66.853  84.495  1.00  0.00     0.022 A 
ATOM      6  C   UNL     1     -28.429  67.790  85.468  1.00  0.00     0.062 A 
ATOM      7  C   UNL     1     -27.928  66.478  83.468  1.00  0.00     0.019 A 
ATOM      8  C   UNL     1     -28.345  65.541  82.524  1.00  0.00     0.094 A 
ATOM      9  C   UNL     1     -29.630  64.999  82.628  1.00  0.00     0.336 A 
ATOM     10  O   UNL     1     -30.025  64.151  81.786  1.00  0.00    -0.246 OA
ATOM     11  O   UNL     1     -30.441  65.372  83.615  1.00  0.00    -0.423 OA
ENDROOT
BRANCH   1  12
ATOM     12  O   UNL     1     -28.995  69.083  87.484  1.00  0.00    -0.493 OA
ATOM     13  C   UNL     1     -27.925  68.928  88.410  1.00  0.00     0.278 C 
ENDBRANCH   1  12
BRANCH   2  14
ATOM     14  O   UNL     1     -31.528  67.881  87.520  1.00  0.00    -0.504 OA
ATOM     15  H   UNL     1     -31.241  68.191  88.440  1.00  0.00     0.293 HD
ENDBRANCH   2  14
TORSDOF 2
ENDMDL
MODEL 4
REMARK VINA RESULT:    -6.391      1.850      2.735
REMARK INTER + INTRA:          -7.012
REMARK INTER:                  -6.949
REMARK INTRA:                  -0.063
REMARK UNBOUND:                -0.060
REMARK SMILES COc1cc2ccc(=O)oc2cc1O
REMARK SMILES IDX 3 1 13 2 12 3 11 4 5 5 4 6 6 7 7 8 8 9 9 10 10 11 2 12 1 13
REMARK SMILES IDX 14 14
REMARK H PARENT 14 15
REMARK Flexibility Score: inf
ROOT
ATOM      1  C   UNL     1     -30.436  68.647  85.931  1.00  0.00     0.161 A 
ATOM      2  C   UNL     1     -31.141  67.586  86.533  1.00  0.00     0.161 A 
ATOM      3  C   UNL     1     -31.016  66.284  86.035  1.00  0.00     0.098 A 
ATOM      4  C   UNL     1     -30.193  66.022  84.936  1.00  0.00     0.142 A 
ATOM      5  C   UNL     1     -29.483  67.077  84.327  1.00  0.00     0.022 A 
ATOM      6  C   UNL     1     -29.605  68.383  84.823  1.00  0.00     0.062 A 
ATOM      7  C   UNL     1     -28.666  66.785  83.230  1.00  0.00     0.019 A 
ATOM      8  C   UNL     1     -28.579  65.470  82.773  1.00  0.00     0.094 A 
ATOM      9  C   UNL     1     -29.312  64.475  83.428  1.00  0.00     0.336 A 
ATOM     10  O   UNL     1     -29.246  63.282  83.031  1.00  0.00    -0.246 OA
ATOM     11  O   UNL     1     -30.082  64.781  84.470  1.00  0.00    -0.423 OA
ENDROOT
BRANCH   1  12
ATOM     12  O   UNL     1     -30.584  69.940  86.457  1.00  0.00    -0.493 OA
ATOM     13  C   UNL     1     -31.275  71.002  85.808  1.00  0.00     0.278 C 
ENDBRANCH   1  12
BRANCH   2  14
ATOM     14  O   UNL     1     -31.973  67.806  87.631  1.00  0.00    -0.504 OA
ATOM     15  H   UNL     1     -32.673  67.137  87.922  1.00  0.00     0.293 HD
ENDBRANCH   2  14
TORSDOF 2
ENDMDL
MODEL 5
REMARK VINA RESULT:    -6.344      1.691      5.010
REMARK INTER + INTRA:          -6.960
REMARK INTER:                  -6.899
REMARK INTRA:                  -0.061
REMARK UNBOUND:                -0.060
REMARK SMILES COc1cc2ccc(=O)oc2cc1O
REMARK SMILES IDX 3 1 13 2 12 3 11 4 5 5 4 6 6 7 7 8 8 9 9 10 10 11 2 12 1 13
REMARK SMILES IDX 14 14
REMARK H PARENT 14 15
REMARK Flexibility Score: inf
ROOT
ATOM      1  C   UNL     1     -29.226  64.242  83.827  1.00  0.00     0.161 A 
ATOM      2  C   UNL     1     -28.674  65.285  83.056  1.00  0.00     0.161 A 
ATOM      3  C   UNL     1     -28.897  66.620  83.413  1.00  0.00     0.098 A 
ATOM      4  C   UNL     1     -29.668  66.933  84.536  1.00  0.00     0.142 A 
ATOM      5  C   UNL     1     -30.224  65.897  85.314  1.00  0.00     0.022 A 
ATOM      6  C   UNL     1     -30.003  64.558  84.961  1.00  0.00     0.062 A 
ATOM      7  C   UNL     1     -30.991  66.241  86.432  1.00  0.00     0.019 A 
ATOM      8  C   UNL     1     -31.182  67.587  86.742  1.00  0.00     0.094 A 
ATOM      9  C   UNL     1     -30.600  68.560  85.924  1.00  0.00     0.336 A 
ATOM     10  O   UNL     1     -30.760  69.781  86.187  1.00  0.00    -0.246 OA
ATOM     11  O   UNL     1     -29.874  68.206  84.866  1.00  0.00    -0.423 OA
ENDROOT
BRANCH   1  12
ATOM     12  O   UNL     1     -28.981  62.914  83.441  1.00  0.00    -0.493 OA
ATOM     13  C   UNL     1     -28.204  61.986  84.190  1.00  0.00     0.278 C 
ENDBRANCH   1  12
BRANCH   2  14
ATOM     14  O   UNL     1     -27.899  65.012  81.929  1.00  0.00    -0.504 OA
ATOM     15  H   UNL     1     -27.864  65.637  81.133  1.00  0.00     0.293 HD
ENDBRANCH   2  14
TORSDOF 2
ENDMDL
MODEL 6
REMARK VINA RESULT:    -6.315      1.807      5.171
REMARK INTER + INTRA:          -6.929
REMARK INTER:                  -6.876
REMARK INTRA:                  -0.053
REMARK UNBOUND:                -0.060
REMARK SMILES COc1cc2ccc(=O)oc2cc1O
REMARK SMILES IDX 3 1 13 2 12 3 11 4 5 5 4 6 6 7 7 8 8 9 9 10 10 11 2 12 1 13
REMARK SMILES IDX 14 14
REMARK H PARENT 14 15
REMARK Flexibility Score: inf
ROOT
ATOM      1  C   UNL     1     -29.412  64.291  83.901  1.00  0.00     0.161 A 
ATOM      2  C   UNL     1     -29.960  63.998  85.166  1.00  0.00     0.161 A 
ATOM      3  C   UNL     1     -29.758  64.869  86.242  1.00  0.00     0.098 A 
ATOM      4  C   UNL     1     -29.011  66.038  86.075  1.00  0.00     0.142 A 
ATOM      5  C   UNL     1     -28.459  66.341  84.813  1.00  0.00     0.022 A 
ATOM      6  C   UNL     1     -28.659  65.471  83.732  1.00  0.00     0.062 A 
ATOM      7  C   UNL     1     -27.716  67.519  84.677  1.00  0.00     0.019 A 
ATOM      8  C   UNL     1     -27.545  68.352  85.782  1.00  0.00     0.094 A 
ATOM      9  C   UNL     1     -28.122  67.986  87.002  1.00  0.00     0.336 A 
ATOM     10  O   UNL     1     -27.980  68.725  88.011  1.00  0.00    -0.246 OA
ATOM     11  O   UNL     1     -28.825  66.861  87.105  1.00  0.00    -0.423 OA
ENDROOT
BRANCH   1  12
ATOM     12  O   UNL     1     -29.636  63.395  82.843  1.00  0.00    -0.493 OA
ATOM     13  C   UNL     1     -30.153  63.763  81.569  1.00  0.00     0.278 C 
ENDBRANCH   1  12
BRANCH   2  14
ATOM     14  O   UNL     1     -30.712  62.841  85.372  1.00  0.00    -0.504 OA
ATOM     15  H   UNL     1     -30.909  62.184  84.627  1.00  0.00     0.293 HD
ENDBRANCH   2  14
TORSDOF 2
ENDMDL
MODEL 7
REMARK VINA RESULT:    -6.115      1.383      1.588
REMARK INTER + INTRA:          -6.711
REMARK INTER:                  -6.651
REMARK INTRA:                  -0.061
REMARK UNBOUND:                -0.060
REMARK SMILES COc1cc2ccc(=O)oc2cc1O
REMARK SMILES IDX 3 1 13 2 12 3 11 4 5 5 4 6 6 7 7 8 8 9 9 10 10 11 2 12 1 13
REMARK SMILES IDX 14 14
REMARK H PARENT 14 15
REMARK Flexibility Score: inf
ROOT
ATOM      1  C   UNL     1     -28.302  68.034  86.922  1.00  0.00     0.161 A 
ATOM      2  C   UNL     1     -27.553  68.209  85.741  1.00  0.00     0.161 A 
ATOM      3  C   UNL     1     -27.608  67.251  84.722  1.00  0.00     0.098 A 
ATOM      4  C   UNL     1     -28.404  66.112  84.865  1.00  0.00     0.142 A 
ATOM      5  C   UNL     1     -29.158  65.928  86.041  1.00  0.00     0.022 A 
ATOM      6  C   UNL     1     -29.107  66.885  87.065  1.00  0.00     0.062 A 
ATOM      7  C   UNL     1     -29.947  64.778  86.154  1.00  0.00     0.019 A 
ATOM      8  C   UNL     1     -29.964  63.855  85.110  1.00  0.00     0.094 A 
ATOM      9  C   UNL     1     -29.190  64.104  83.972  1.00  0.00     0.336 A 
ATOM     10  O   UNL     1     -29.193  63.284  83.017  1.00  0.00    -0.246 OA
ATOM     11  O   UNL     1     -28.449  65.207  83.890  1.00  0.00    -0.423 OA
ENDROOT
BRANCH   1  12
ATOM     12  O   UNL     1     -28.225  69.015  87.923  1.00  0.00    -0.493 OA
ATOM     13  C   UNL     1     -27.662  68.809  89.215  1.00  0.00     0.278 C 
ENDBRANCH   1  12
BRANCH   2  14
ATOM     14  O   UNL     1     -26.746  69.333  85.563  1.00  0.00    -0.504 OA
ATOM     15  H   UNL     1     -27.124  70.233  85.297  1.00  0.00     0.293 HD
ENDBRANCH   2  14
TORSDOF 2
ENDMDL
MODEL 8
REMARK VINA RESULT:    -5.962      2.351      4.916
REMARK INTER + INTRA:          -6.545
REMARK INTER:                  -6.483
REMARK INTRA:                  -0.063
REMARK UNBOUND:                -0.060
REMARK SMILES COc1cc2ccc(=O)oc2cc1O
REMARK SMILES IDX 3 1 13 2 12 3 11 4 5 5 4 6 6 7 7 8 8 9 9 10 10 11 2 12 1 13
REMARK SMILES IDX 14 14
REMARK H PARENT 14 15
REMARK Flexibility Score: inf
ROOT
ATOM      1  C   UNL     1     -29.728  64.804  82.657  1.00  0.00     0.161 A 
ATOM      2  C   UNL     1     -28.527  65.524  82.499  1.00  0.00     0.161 A 
ATOM      3  C   UNL     1     -28.213  66.573  83.371  1.00  0.00     0.098 A 
ATOM      4  C   UNL     1     -29.086  66.917  84.406  1.00  0.00     0.142 A 
ATOM      5  C   UNL     1     -30.290  66.203  84.573  1.00  0.00     0.022 A 
ATOM      6  C   UNL     1     -30.608  65.152  83.703  1.00  0.00     0.062 A 
ATOM      7  C   UNL     1     -31.143  66.571  85.619  1.00  0.00     0.019 A 
ATOM      8  C   UNL     1     -30.781  67.624  86.458  1.00  0.00     0.094 A 
ATOM      9  C   UNL     1     -29.571  68.287  86.232  1.00  0.00     0.336 A 
ATOM     10  O   UNL     1     -29.227  69.239  86.979  1.00  0.00    -0.246 OA
ATOM     11  O   UNL     1     -28.778  67.917  85.230  1.00  0.00    -0.423 OA
ENDROOT
BRANCH   1  12
ATOM     12  O   UNL     1     -30.011  63.758  81.765  1.00  0.00    -0.493 OA
ATOM     13  C   UNL     1     -31.027  63.799  80.768  1.00  0.00     0.278 C 
ENDBRANCH   1  12
BRANCH   2  14
ATOM     14  O   UNL     1     -27.631  65.210  81.477  1.00  0.00    -0.504 OA
ATOM     15  H   UNL     1     -27.891  65.246  80.500  1.00  0.00     0.293 HD
ENDBRANCH   2  14
TORSDOF 2
ENDMDL
MODEL 9
REMARK VINA RESULT:    -5.455      2.388      5.070
REMARK INTER + INTRA:          -5.993
REMARK INTER:                  -5.937
REMARK INTRA:                  -0.057
REMARK UNBOUND:                -0.060
REMARK SMILES COc1cc2ccc(=O)oc2cc1O
REMARK SMILES IDX 3 1 13 2 12 3 11 4 5 5 4 6 6 7 7 8 8 9 9 10 10 11 2 12 1 13
REMARK SMILES IDX 14 14
REMARK H PARENT 14 15
REMARK Flexibility Score: inf
ROOT
ATOM      1  C   UNL     1     -28.723  65.485  82.954  1.00  0.00     0.161 A 
ATOM      2  C   UNL     1     -29.399  64.432  83.601  1.00  0.00     0.161 A 
ATOM      3  C   UNL     1     -30.241  64.696  84.687  1.00  0.00     0.098 A 
ATOM      4  C   UNL     1     -30.419  66.005  85.142  1.00  0.00     0.142 A 
ATOM      5  C   UNL     1     -29.748  67.066  84.501  1.00  0.00     0.022 A 
ATOM      6  C   UNL     1     -28.904  66.807  83.412  1.00  0.00     0.062 A 
ATOM      7  C   UNL     1     -29.947  68.366  84.979  1.00  0.00     0.019 A 
ATOM      8  C   UNL     1     -30.795  68.573  86.065  1.00  0.00     0.094 A 
ATOM      9  C   UNL     1     -31.428  67.472  86.651  1.00  0.00     0.336 A 
ATOM     10  O   UNL     1     -32.199  67.638  87.632  1.00  0.00    -0.246 OA
ATOM     11  O   UNL     1     -31.222  66.246  86.177  1.00  0.00    -0.423 OA
ENDROOT
BRANCH   1  12
ATOM     12  O   UNL     1     -27.888  65.185  81.866  1.00  0.00    -0.493 OA
ATOM     13  C   UNL     1     -28.304  65.179  80.504  1.00  0.00     0.278 C 
ENDBRANCH   1  12
BRANCH   2  14
ATOM     14  O   UNL     1     -29.247  63.112  83.176  1.00  0.00    -0.504 OA
ATOM     15  H   UNL     1     -28.337  62.692  83.034  1.00  0.00     0.293 HD
ENDBRANCH   2  14
TORSDOF 2
ENDMDL
