MODEL 1
REMARK VINA RESULT:    -5.217      0.000      0.000
REMARK INTER + INTRA:         -10.150
REMARK INTER:                  -8.877
REMARK INTRA:                  -1.273
REMARK UNBOUND:                -1.273
REMARK SMILES CCCCCCCCCCCCCC(=O)[O-]
REMARK SMILES IDX 8 1 9 2 10 3 11 4 12 5 13 6 14 7 15 8 16 9 7 10 6 11 5 12
REMARK SMILES IDX 4 13 3 14 2 15 1 16
REMARK H PARENT
REMARK Flexibility Score: inf
ROOT
ATOM      1  C   UNL     1       7.526  54.393  22.331  1.00  0.00     0.000 C 
ENDROOT
BRANCH   1   2
ATOM      2  C   UNL     1       7.611  53.681  23.690  1.00  0.00     0.000 C 
BRANCH   2   3
ATOM      3  C   UNL     1       8.533  54.409  24.685  1.00  0.00     0.000 C 
BRANCH   3   4
ATOM      4  C   UNL     1       9.709  55.114  23.991  1.00  0.00     0.000 C 
BRANCH   4   5
ATOM      5  C   UNL     1      10.985  54.259  23.976  1.00  0.00     0.006 C 
BRANCH   5   6
ATOM      6  C   UNL     1      11.435  53.972  22.540  1.00  0.00     0.053 C 
BRANCH   6   7
ATOM      7  C   UNL     1      10.718  52.777  21.995  1.00  0.00     0.041 C 
ATOM      8  O   UNL     1      10.631  51.724  22.679  1.00  0.00    -0.550 OA
ATOM      9  O   UNL     1      10.189  52.810  20.711  1.00  0.00    -0.550 OA
ENDBRANCH   6   7
ENDBRANCH   5   6
ENDBRANCH   4   5
ENDBRANCH   3   4
ENDBRANCH   2   3
ENDBRANCH   1   2
BRANCH   1  10
ATOM     10  C   UNL     1       6.264  55.264  22.200  1.00  0.00     0.000 C 
BRANCH  10  11
ATOM     11  C   UNL     1       6.499  56.521  21.348  1.00  0.00    -0.000 C 
BRANCH  11  12
ATOM     12  C   UNL     1       7.855  56.502  20.618  1.00  0.00    -0.000 C 
BRANCH  12  13
ATOM     13  C   UNL     1       7.698  56.223  19.108  1.00  0.00    -0.000 C 
BRANCH  13  14
ATOM     14  C   UNL     1       7.868  54.741  18.733  1.00  0.00    -0.000 C 
BRANCH  14  15
ATOM     15  C   UNL     1       6.977  54.317  17.558  1.00  0.00    -0.003 C 
ATOM     16  C   UNL     1       6.918  55.407  16.491  1.00  0.00     0.004 C 
ENDBRANCH  14  15
ENDBRANCH  13  14
ENDBRANCH  12  13
ENDBRANCH  11  12
ENDBRANCH  10  11
ENDBRANCH   1  10
TORSDOF 12
ENDMDL
MODEL 2
REMARK VINA RESULT:    -4.914      1.824      5.111
REMARK INTER + INTRA:          -9.635
REMARK INTER:                  -8.223
REMARK INTRA:                  -1.411
REMARK UNBOUND:                -1.273
REMARK SMILES CCCCCCCCCCCCCC(=O)[O-]
REMARK SMILES IDX 8 1 9 2 10 3 11 4 12 5 13 6 14 7 15 8 16 9 7 10 6 11 5 12
REMARK SMILES IDX 4 13 3 14 2 15 1 16
REMARK H PARENT
REMARK Flexibility Score: inf
ROOT
ATOM      1  C   UNL     1       6.880  54.161  23.163  1.00  0.00     0.000 C 
ENDROOT
BRANCH   1   2
ATOM      2  C   UNL     1       7.200  54.687  21.754  1.00  0.00     0.000 C 
BRANCH   2   3
ATOM      3  C   UNL     1       6.205  55.761  21.281  1.00  0.00     0.000 C 
BRANCH   3   4
ATOM      4  C   UNL     1       6.894  56.922  20.546  1.00  0.00     0.000 C 
BRANCH   4   5
ATOM      5  C   UNL     1       7.979  56.442  19.571  1.00  0.00     0.006 C 
BRANCH   5   6
ATOM      6  C   UNL     1       7.426  56.329  18.147  1.00  0.00     0.053 C 
BRANCH   6   7
ATOM      7  C   UNL     1       7.329  54.893  17.735  1.00  0.00     0.041 C 
ATOM      8  O   UNL     1       6.503  54.542  16.852  1.00  0.00    -0.550 OA
ATOM      9  O   UNL     1       8.117  53.936  18.361  1.00  0.00    -0.550 OA
ENDBRANCH   6   7
ENDBRANCH   5   6
ENDBRANCH   4   5
ENDBRANCH   3   4
ENDBRANCH   2   3
ENDBRANCH   1   2
BRANCH   1  10
ATOM     10  C   UNL     1       8.115  54.145  24.081  1.00  0.00     0.000 C 
BRANCH  10  11
ATOM     11  C   UNL     1       9.119  55.257  23.740  1.00  0.00    -0.000 C 
BRANCH  11  12
ATOM     12  C   UNL     1      10.540  54.955  24.250  1.00  0.00    -0.000 C 
BRANCH  12  13
ATOM     13  C   UNL     1      11.313  54.020  23.297  1.00  0.00    -0.000 C 
BRANCH  13  14
ATOM     14  C   UNL     1      10.753  54.000  21.864  1.00  0.00    -0.000 C 
BRANCH  14  15
ATOM     15  C   UNL     1      10.188  52.630  21.463  1.00  0.00    -0.003 C 
ATOM     16  C   UNL     1      10.561  51.561  22.487  1.00  0.00     0.004 C 
ENDBRANCH  14  15
ENDBRANCH  13  14
ENDBRANCH  12  13
ENDBRANCH  11  12
ENDBRANCH  10  11
ENDBRANCH   1  10
TORSDOF 12
ENDMDL
MODEL 3
REMARK VINA RESULT:    -4.613      5.015      7.791
REMARK INTER + INTRA:          -9.122
REMARK INTER:                  -8.371
REMARK INTRA:                  -0.750
REMARK UNBOUND:                -1.273
REMARK SMILES CCCCCCCCCCCCCC(=O)[O-]
REMARK SMILES IDX 8 1 9 2 10 3 11 4 12 5 13 6 14 7 15 8 16 9 7 10 6 11 5 12
REMARK SMILES IDX 4 13 3 14 2 15 1 16
REMARK H PARENT
REMARK Flexibility Score: inf
ROOT
ATOM      1  C   UNL     1       6.752  56.642  21.305  1.00  0.00     0.000 C 
ENDROOT
BRANCH   1   2
ATOM      2  C   UNL     1       5.224  56.807  21.322  1.00  0.00     0.000 C 
BRANCH   2   3
ATOM      3  C   UNL     1       4.763  58.130  20.685  1.00  0.00     0.000 C 
BRANCH   3   4
ATOM      4  C   UNL     1       3.368  58.562  21.165  1.00  0.00     0.000 C 
BRANCH   4   5
ATOM      5  C   UNL     1       3.190  60.088  21.165  1.00  0.00     0.006 C 
BRANCH   5   6
ATOM      6  C   UNL     1       3.306  60.653  19.746  1.00  0.00     0.053 C 
BRANCH   6   7
ATOM      7  C   UNL     1       2.052  60.389  18.973  1.00  0.00     0.041 C 
ATOM      8  O   UNL     1       2.085  59.680  17.934  1.00  0.00    -0.550 OA
ATOM      9  O   UNL     1       0.855  60.969  19.373  1.00  0.00    -0.550 OA
ENDBRANCH   6   7
ENDBRANCH   5   6
ENDBRANCH   4   5
ENDBRANCH   3   4
ENDBRANCH   2   3
ENDBRANCH   1   2
BRANCH   1  10
ATOM     10  C   UNL     1       7.329  56.642  19.878  1.00  0.00     0.000 C 
BRANCH  10  11
ATOM     11  C   UNL     1       8.017  55.317  19.518  1.00  0.00    -0.000 C 
BRANCH  11  12
ATOM     12  C   UNL     1       8.077  54.334  20.702  1.00  0.00    -0.000 C 
BRANCH  12  13
ATOM     13  C   UNL     1       9.520  53.893  21.019  1.00  0.00    -0.000 C 
BRANCH  13  14
ATOM     14  C   UNL     1       9.687  53.289  22.424  1.00  0.00    -0.000 C 
BRANCH  14  15
ATOM     15  C   UNL     1      10.606  54.123  23.327  1.00  0.00    -0.003 C 
ATOM     16  C   UNL     1       9.867  55.332  23.896  1.00  0.00     0.004 C 
ENDBRANCH  14  15
ENDBRANCH  13  14
ENDBRANCH  12  13
ENDBRANCH  11  12
ENDBRANCH  10  11
ENDBRANCH   1  10
TORSDOF 12
ENDMDL
MODEL 4
REMARK VINA RESULT:    -4.612      4.785      7.531
REMARK INTER + INTRA:          -9.119
REMARK INTER:                  -8.257
REMARK INTRA:                  -0.862
REMARK UNBOUND:                -1.273
REMARK SMILES CCCCCCCCCCCCCC(=O)[O-]
REMARK SMILES IDX 8 1 9 2 10 3 11 4 12 5 13 6 14 7 15 8 16 9 7 10 6 11 5 12
REMARK SMILES IDX 4 13 3 14 2 15 1 16
REMARK H PARENT
REMARK Flexibility Score: inf
ROOT
ATOM      1  C   UNL     1       7.137  56.589  20.181  1.00  0.00     0.000 C 
ENDROOT
BRANCH   1   2
ATOM      2  C   UNL     1       6.530  56.475  21.590  1.00  0.00     0.000 C 
BRANCH   2   3
ATOM      3  C   UNL     1       5.026  56.798  21.615  1.00  0.00     0.000 C 
BRANCH   3   4
ATOM      4  C   UNL     1       4.672  58.033  20.771  1.00  0.00     0.000 C 
BRANCH   4   5
ATOM      5  C   UNL     1       3.216  58.481  20.961  1.00  0.00     0.006 C 
BRANCH   5   6
ATOM      6  C   UNL     1       3.119  59.607  21.995  1.00  0.00     0.053 C 
BRANCH   6   7
ATOM      7  C   UNL     1       1.703  59.785  22.445  1.00  0.00     0.041 C 
ATOM      8  O   UNL     1       1.300  59.232  23.502  1.00  0.00    -0.550 OA
ATOM      9  O   UNL     1       0.815  60.522  21.671  1.00  0.00    -0.550 OA
ENDBRANCH   6   7
ENDBRANCH   5   6
ENDBRANCH   4   5
ENDBRANCH   3   4
ENDBRANCH   2   3
ENDBRANCH   1   2
BRANCH   1  10
ATOM     10  C   UNL     1       8.467  55.826  20.049  1.00  0.00     0.000 C 
BRANCH  10  11
ATOM     11  C   UNL     1       8.496  54.539  20.887  1.00  0.00    -0.000 C 
BRANCH  11  12
ATOM     12  C   UNL     1       9.907  53.934  21.003  1.00  0.00    -0.000 C 
BRANCH  12  13
ATOM     13  C   UNL     1      10.403  53.893  22.464  1.00  0.00    -0.000 C 
BRANCH  13  14
ATOM     14  C   UNL     1       9.903  55.069  23.319  1.00  0.00    -0.000 C 
BRANCH  14  15
ATOM     15  C   UNL     1       9.310  54.621  24.662  1.00  0.00    -0.003 C 
ATOM     16  C   UNL     1       8.047  53.789  24.455  1.00  0.00     0.004 C 
ENDBRANCH  14  15
ENDBRANCH  13  14
ENDBRANCH  12  13
ENDBRANCH  11  12
ENDBRANCH  10  11
ENDBRANCH   1  10
TORSDOF 12
ENDMDL
MODEL 5
REMARK VINA RESULT:    -4.531      5.704      8.219
REMARK INTER + INTRA:          -8.983
REMARK INTER:                  -8.393
REMARK INTRA:                  -0.590
REMARK UNBOUND:                -1.273
REMARK SMILES CCCCCCCCCCCCCC(=O)[O-]
REMARK SMILES IDX 8 1 9 2 10 3 11 4 12 5 13 6 14 7 15 8 16 9 7 10 6 11 5 12
REMARK SMILES IDX 4 13 3 14 2 15 1 16
REMARK H PARENT
REMARK Flexibility Score: inf
ROOT
ATOM      1  C   UNL     1       4.573  58.004  20.706  1.00  0.00     0.000 C 
ENDROOT
BRANCH   1   2
ATOM      2  C   UNL     1       3.412  58.683  21.451  1.00  0.00     0.000 C 
BRANCH   2   3
ATOM      3  C   UNL     1       2.323  59.208  20.499  1.00  0.00     0.000 C 
BRANCH   3   4
ATOM      4  C   UNL     1       2.892  59.666  19.147  1.00  0.00     0.000 C 
BRANCH   4   5
ATOM      5  C   UNL     1       2.126  60.860  18.557  1.00  0.00     0.006 C 
BRANCH   5   6
ATOM      6  C   UNL     1       1.057  60.390  17.566  1.00  0.00     0.053 C 
BRANCH   6   7
ATOM      7  C   UNL     1       1.687  59.974  16.274  1.00  0.00     0.041 C 
ATOM      8  O   UNL     1       2.727  60.550  15.861  1.00  0.00    -0.550 OA
ATOM      9  O   UNL     1       1.096  58.982  15.501  1.00  0.00    -0.550 OA
ENDBRANCH   6   7
ENDBRANCH   5   6
ENDBRANCH   4   5
ENDBRANCH   3   4
ENDBRANCH   2   3
ENDBRANCH   1   2
BRANCH   1  10
ATOM     10  C   UNL     1       5.294  56.954  21.569  1.00  0.00     0.000 C 
BRANCH  10  11
ATOM     11  C   UNL     1       6.681  56.589  21.021  1.00  0.00    -0.000 C 
BRANCH  11  12
ATOM     12  C   UNL     1       7.212  55.255  21.578  1.00  0.00    -0.000 C 
BRANCH  12  13
ATOM     13  C   UNL     1       7.821  54.365  20.475  1.00  0.00    -0.000 C 
BRANCH  13  14
ATOM     14  C   UNL     1       7.950  55.071  19.114  1.00  0.00    -0.000 C 
BRANCH  14  15
ATOM     15  C   UNL     1       7.196  54.345  17.992  1.00  0.00    -0.003 C 
ATOM     16  C   UNL     1       6.993  55.259  16.786  1.00  0.00     0.004 C 
ENDBRANCH  14  15
ENDBRANCH  13  14
ENDBRANCH  12  13
ENDBRANCH  11  12
ENDBRANCH  10  11
ENDBRANCH   1  10
TORSDOF 12
ENDMDL
MODEL 6
REMARK VINA RESULT:    -4.529      5.242      7.901
REMARK INTER + INTRA:          -8.979
REMARK INTER:                  -8.404
REMARK INTRA:                  -0.576
REMARK UNBOUND:                -1.273
REMARK SMILES CCCCCCCCCCCCCC(=O)[O-]
REMARK SMILES IDX 8 1 9 2 10 3 11 4 12 5 13 6 14 7 15 8 16 9 7 10 6 11 5 12
REMARK SMILES IDX 4 13 3 14 2 15 1 16
REMARK H PARENT
REMARK Flexibility Score: inf
ROOT
ATOM      1  C   UNL     1       5.555  56.285  21.246  1.00  0.00     0.000 C 
ENDROOT
BRANCH   1   2
ATOM      2  C   UNL     1       4.677  57.466  21.690  1.00  0.00     0.000 C 
BRANCH   2   3
ATOM      3  C   UNL     1       4.241  58.357  20.512  1.00  0.00     0.000 C 
BRANCH   3   4
ATOM      4  C   UNL     1       2.921  59.093  20.787  1.00  0.00     0.000 C 
BRANCH   4   5
ATOM      5  C   UNL     1       2.849  59.666  22.210  1.00  0.00     0.006 C 
BRANCH   5   6
ATOM      6  C   UNL     1       1.443  60.191  22.519  1.00  0.00     0.053 C 
BRANCH   6   7
ATOM      7  C   UNL     1       0.636  59.145  23.223  1.00  0.00     0.041 C 
ATOM      8  O   UNL     1       0.172  58.165  22.583  1.00  0.00    -0.550 OA
ATOM      9  O   UNL     1       0.355  59.278  24.577  1.00  0.00    -0.550 OA
ENDBRANCH   6   7
ENDBRANCH   5   6
ENDBRANCH   4   5
ENDBRANCH   3   4
ENDBRANCH   2   3
ENDBRANCH   1   2
BRANCH   1  10
ATOM     10  C   UNL     1       6.808  56.738  20.476  1.00  0.00     0.000 C 
BRANCH  10  11
ATOM     11  C   UNL     1       8.111  56.258  21.134  1.00  0.00    -0.000 C 
BRANCH  11  12
ATOM     12  C   UNL     1       8.763  55.085  20.379  1.00  0.00    -0.000 C 
BRANCH  12  13
ATOM     13  C   UNL     1       9.097  53.905  21.315  1.00  0.00    -0.000 C 
BRANCH  13  14
ATOM     14  C   UNL     1      10.567  53.874  21.768  1.00  0.00    -0.000 C 
BRANCH  14  15
ATOM     15  C   UNL     1      10.720  53.833  23.295  1.00  0.00    -0.003 C 
ATOM     16  C   UNL     1      10.295  55.157  23.925  1.00  0.00     0.004 C 
ENDBRANCH  14  15
ENDBRANCH  13  14
ENDBRANCH  12  13
ENDBRANCH  11  12
ENDBRANCH  10  11
ENDBRANCH   1  10
TORSDOF 12
ENDMDL
MODEL 7
REMARK VINA RESULT:    -4.483      2.657      3.924
REMARK INTER + INTRA:          -8.901
REMARK INTER:                  -8.123
REMARK INTRA:                  -0.778
REMARK UNBOUND:                -1.273
REMARK SMILES CCCCCCCCCCCCCC(=O)[O-]
REMARK SMILES IDX 8 1 9 2 10 3 11 4 12 5 13 6 14 7 15 8 16 9 7 10 6 11 5 12
REMARK SMILES IDX 4 13 3 14 2 15 1 16
REMARK H PARENT
REMARK Flexibility Score: inf
ROOT
ATOM      1  C   UNL     1      10.505  54.140  23.257  1.00  0.00     0.000 C 
ENDROOT
BRANCH   1   2
ATOM      2  C   UNL     1      10.998  53.320  22.054  1.00  0.00     0.000 C 
BRANCH   2   3
ATOM      3  C   UNL     1      10.307  51.950  21.946  1.00  0.00     0.000 C 
BRANCH   3   4
ATOM      4  C   UNL     1      10.724  50.988  23.070  1.00  0.00     0.000 C 
BRANCH   4   5
ATOM      5  C   UNL     1      10.819  49.531  22.595  1.00  0.00     0.006 C 
BRANCH   5   6
ATOM      6  C   UNL     1      11.824  48.743  23.442  1.00  0.00     0.053 C 
BRANCH   6   7
ATOM      7  C   UNL     1      11.200  48.313  24.732  1.00  0.00     0.041 C 
ATOM      8  O   UNL     1      10.002  47.928  24.759  1.00  0.00    -0.550 OA
ATOM      9  O   UNL     1      11.928  48.385  25.913  1.00  0.00    -0.550 OA
ENDBRANCH   6   7
ENDBRANCH   5   6
ENDBRANCH   4   5
ENDBRANCH   3   4
ENDBRANCH   2   3
ENDBRANCH   1   2
BRANCH   1  10
ATOM     10  C   UNL     1       8.975  54.297  23.276  1.00  0.00     0.000 C 
BRANCH  10  11
ATOM     11  C   UNL     1       8.455  55.159  22.116  1.00  0.00    -0.000 C 
BRANCH  11  12
ATOM     12  C   UNL     1       6.923  55.098  21.966  1.00  0.00    -0.000 C 
BRANCH  12  13
ATOM     13  C   UNL     1       6.425  55.903  20.748  1.00  0.00    -0.000 C 
BRANCH  13  14
ATOM     14  C   UNL     1       7.558  56.424  19.848  1.00  0.00    -0.000 C 
BRANCH  14  15
ATOM     15  C   UNL     1       7.489  55.869  18.419  1.00  0.00    -0.003 C 
ATOM     16  C   UNL     1       7.600  54.346  18.415  1.00  0.00     0.004 C 
ENDBRANCH  14  15
ENDBRANCH  13  14
ENDBRANCH  12  13
ENDBRANCH  11  12
ENDBRANCH  10  11
ENDBRANCH   1  10
TORSDOF 12
ENDMDL
MODEL 8
REMARK VINA RESULT:    -4.468      3.758      5.520
REMARK INTER + INTRA:          -8.875
REMARK INTER:                  -8.357
REMARK INTRA:                  -0.518
REMARK UNBOUND:                -1.273
REMARK SMILES CCCCCCCCCCCCCC(=O)[O-]
REMARK SMILES IDX 8 1 9 2 10 3 11 4 12 5 13 6 14 7 15 8 16 9 7 10 6 11 5 12
REMARK SMILES IDX 4 13 3 14 2 15 1 16
REMARK H PARENT
REMARK Flexibility Score: inf
ROOT
ATOM      1  C   UNL     1       6.133  55.914  21.195  1.00  0.00     0.000 C 
ENDROOT
BRANCH   1   2
ATOM      2  C   UNL     1       7.188  56.636  20.340  1.00  0.00     0.000 C 
BRANCH   2   3
ATOM      3  C   UNL     1       8.428  55.765  20.069  1.00  0.00     0.000 C 
BRANCH   3   4
ATOM      4  C   UNL     1       8.508  54.546  21.001  1.00  0.00     0.000 C 
BRANCH   4   5
ATOM      5  C   UNL     1       9.955  54.158  21.343  1.00  0.00     0.006 C 
BRANCH   5   6
ATOM      6  C   UNL     1      10.006  53.299  22.610  1.00  0.00     0.053 C 
BRANCH   6   7
ATOM      7  C   UNL     1      10.164  54.161  23.822  1.00  0.00     0.041 C 
ATOM      8  O   UNL     1      11.312  54.451  24.250  1.00  0.00    -0.550 OA
ATOM      9  O   UNL     1       9.041  54.605  24.510  1.00  0.00    -0.550 OA
ENDBRANCH   6   7
ENDBRANCH   5   6
ENDBRANCH   4   5
ENDBRANCH   3   4
ENDBRANCH   2   3
ENDBRANCH   1   2
BRANCH   1  10
ATOM     10  C   UNL     1       5.016  56.858  21.673  1.00  0.00     0.000 C 
BRANCH  10  11
ATOM     11  C   UNL     1       4.753  58.009  20.690  1.00  0.00    -0.000 C 
BRANCH  11  12
ATOM     12  C   UNL     1       3.323  58.569  20.796  1.00  0.00    -0.000 C 
BRANCH  12  13
ATOM     13  C   UNL     1       3.150  59.495  22.018  1.00  0.00    -0.000 C 
BRANCH  13  14
ATOM     14  C   UNL     1       1.779  59.364  22.702  1.00  0.00    -0.000 C 
BRANCH  14  15
ATOM     15  C   UNL     1       1.101  60.720  22.945  1.00  0.00    -0.003 C 
ATOM     16  C   UNL     1      -0.228  60.547  23.675  1.00  0.00     0.004 C 
ENDBRANCH  14  15
ENDBRANCH  13  14
ENDBRANCH  12  13
ENDBRANCH  11  12
ENDBRANCH  10  11
ENDBRANCH   1  10
TORSDOF 12
ENDMDL
MODEL 9
REMARK VINA RESULT:    -4.442      2.963      4.592
REMARK INTER + INTRA:          -8.831
REMARK INTER:                  -8.343
REMARK INTRA:                  -0.487
REMARK UNBOUND:                -1.273
REMARK SMILES CCCCCCCCCCCCCC(=O)[O-]
REMARK SMILES IDX 8 1 9 2 10 3 11 4 12 5 13 6 14 7 15 8 16 9 7 10 6 11 5 12
REMARK SMILES IDX 4 13 3 14 2 15 1 16
REMARK H PARENT
REMARK Flexibility Score: inf
ROOT
ATOM      1  C   UNL     1       7.827  55.894  19.468  1.00  0.00     0.000 C 
ENDROOT
BRANCH   1   2
ATOM      2  C   UNL     1       7.944  54.377  19.686  1.00  0.00     0.000 C 
BRANCH   2   3
ATOM      3  C   UNL     1       8.384  54.016  21.116  1.00  0.00     0.000 C 
BRANCH   3   4
ATOM      4  C   UNL     1       9.896  53.757  21.220  1.00  0.00     0.000 C 
BRANCH   4   5
ATOM      5  C   UNL     1      10.282  53.027  22.515  1.00  0.00     0.006 C 
BRANCH   5   6
ATOM      6  C   UNL     1      10.959  53.983  23.502  1.00  0.00     0.053 C 
BRANCH   6   7
ATOM      7  C   UNL     1       9.942  54.855  24.169  1.00  0.00     0.041 C 
ATOM      8  O   UNL     1       9.123  54.362  24.988  1.00  0.00    -0.550 OA
ATOM      9  O   UNL     1       9.867  56.205  23.847  1.00  0.00    -0.550 OA
ENDBRANCH   6   7
ENDBRANCH   5   6
ENDBRANCH   4   5
ENDBRANCH   3   4
ENDBRANCH   2   3
ENDBRANCH   1   2
BRANCH   1  10
ATOM     10  C   UNL     1       7.213  56.619  20.678  1.00  0.00     0.000 C 
BRANCH  10  11
ATOM     11  C   UNL     1       5.738  56.249  20.902  1.00  0.00    -0.000 C 
BRANCH  11  12
ATOM     12  C   UNL     1       4.947  57.358  21.620  1.00  0.00    -0.000 C 
BRANCH  12  13
ATOM     13  C   UNL     1       4.308  58.351  20.628  1.00  0.00    -0.000 C 
BRANCH  13  14
ATOM     14  C   UNL     1       2.854  58.717  20.972  1.00  0.00    -0.000 C 
BRANCH  14  15
ATOM     15  C   UNL     1       2.718  60.130  21.558  1.00  0.00    -0.003 C 
ATOM     16  C   UNL     1       1.621  60.181  22.619  1.00  0.00     0.004 C 
ENDBRANCH  14  15
ENDBRANCH  13  14
ENDBRANCH  12  13
ENDBRANCH  11  12
ENDBRANCH  10  11
ENDBRANCH   1  10
TORSDOF 12
ENDMDL
