MODEL 1
REMARK VINA RESULT:    -6.736      0.000      0.000
REMARK INTER + INTRA:          -6.932
REMARK INTER:                  -6.932
REMARK INTRA:                   0.000
REMARK UNBOUND:                 0.000
REMARK SMILES O=c1ccc2ccc(O)cc2o1
REMARK SMILES IDX 6 1 7 2 8 3 10 4 11 5 5 6 4 7 3 8 2 9 1 10 12 11 9 12
REMARK H PARENT 9 13
REMARK Flexibility Score: inf
ROOT
ATOM      1  C   UNL     1      12.219  -5.722 -12.936  1.00  0.00     0.016 A 
ATOM      2  C   UNL     1      12.007  -4.588 -12.145  1.00  0.00     0.047 A 
ATOM      3  C   UNL     1      11.235  -4.673 -10.981  1.00  0.00     0.119 A 
ATOM      4  C   UNL     1      10.669  -5.900 -10.604  1.00  0.00     0.094 A 
ATOM      5  C   UNL     1      10.875  -7.039 -11.390  1.00  0.00     0.142 A 
ATOM      6  C   UNL     1      11.655  -6.949 -12.564  1.00  0.00     0.018 A 
ATOM      7  C   UNL     1      11.843  -8.104 -13.329  1.00  0.00     0.019 A 
ATOM      8  C   UNL     1      11.260  -9.302 -12.915  1.00  0.00     0.094 A 
ATOM      9  C   UNL     1      10.501  -9.316 -11.741  1.00  0.00     0.336 A 
ATOM     10  O   UNL     1       9.967 -10.387 -11.350  1.00  0.00    -0.246 OA
ATOM     11  O   UNL     1      10.336  -8.202 -11.031  1.00  0.00    -0.423 OA
ENDROOT
BRANCH   3  12
ATOM     12  O   UNL     1      11.036  -3.533 -10.204  1.00  0.00    -0.508 OA
ATOM     13  H   UNL     1      11.419  -2.635 -10.475  1.00  0.00     0.293 HD
ENDBRANCH   3  12
TORSDOF 1
ENDMDL
MODEL 2
REMARK VINA RESULT:    -6.663      2.902      4.434
REMARK INTER + INTRA:          -6.857
REMARK INTER:                  -6.857
REMARK INTRA:                   0.000
REMARK UNBOUND:                 0.000
REMARK SMILES O=c1ccc2ccc(O)cc2o1
REMARK SMILES IDX 6 1 7 2 8 3 10 4 11 5 5 6 4 7 3 8 2 9 1 10 12 11 9 12
REMARK H PARENT 9 13
REMARK Flexibility Score: inf
ROOT
ATOM      1  C   UNL     1      14.117  -3.485 -13.383  1.00  0.00     0.016 A 
ATOM      2  C   UNL     1      14.767  -4.070 -14.474  1.00  0.00     0.047 A 
ATOM      3  C   UNL     1      14.359  -5.319 -14.954  1.00  0.00     0.119 A 
ATOM      4  C   UNL     1      13.293  -5.991 -14.339  1.00  0.00     0.094 A 
ATOM      5  C   UNL     1      12.636  -5.414 -13.247  1.00  0.00     0.142 A 
ATOM      6  C   UNL     1      13.051  -4.153 -12.765  1.00  0.00     0.018 A 
ATOM      7  C   UNL     1      12.375  -3.602 -11.672  1.00  0.00     0.019 A 
ATOM      8  C   UNL     1      11.321  -4.307 -11.093  1.00  0.00     0.094 A 
ATOM      9  C   UNL     1      10.964  -5.551 -11.623  1.00  0.00     0.336 A 
ATOM     10  O   UNL     1      10.016  -6.203 -11.115  1.00  0.00    -0.246 OA
ATOM     11  O   UNL     1      11.624  -6.054 -12.665  1.00  0.00    -0.423 OA
ENDROOT
BRANCH   3  12
ATOM     12  O   UNL     1      15.020  -5.885 -16.043  1.00  0.00    -0.508 OA
ATOM     13  H   UNL     1      15.736  -5.378 -16.550  1.00  0.00     0.293 HD
ENDBRANCH   3  12
TORSDOF 1
ENDMDL
MODEL 3
REMARK VINA RESULT:    -6.657      2.431      4.590
REMARK INTER + INTRA:          -6.851
REMARK INTER:                  -6.851
REMARK INTRA:                   0.000
REMARK UNBOUND:                 0.000
REMARK SMILES O=c1ccc2ccc(O)cc2o1
REMARK SMILES IDX 6 1 7 2 8 3 10 4 11 5 5 6 4 7 3 8 2 9 1 10 12 11 9 12
REMARK H PARENT 9 13
REMARK Flexibility Score: inf
ROOT
ATOM      1  C   UNL     1      11.080  -4.372 -10.843  1.00  0.00     0.016 A 
ATOM      2  C   UNL     1      10.395  -5.546 -10.516  1.00  0.00     0.047 A 
ATOM      3  C   UNL     1      10.675  -6.740 -11.190  1.00  0.00     0.119 A 
ATOM      4  C   UNL     1      11.648  -6.762 -12.201  1.00  0.00     0.094 A 
ATOM      5  C   UNL     1      12.338  -5.592 -12.535  1.00  0.00     0.142 A 
ATOM      6  C   UNL     1      12.052  -4.389 -11.853  1.00  0.00     0.018 A 
ATOM      7  C   UNL     1      12.758  -3.236 -12.209  1.00  0.00     0.019 A 
ATOM      8  C   UNL     1      13.716  -3.305 -13.221  1.00  0.00     0.094 A 
ATOM      9  C   UNL     1      13.947  -4.532 -13.853  1.00  0.00     0.336 A 
ATOM     10  O   UNL     1      14.807  -4.615 -14.768  1.00  0.00    -0.246 OA
ATOM     11  O   UNL     1      13.260  -5.614 -13.495  1.00  0.00    -0.423 OA
ENDROOT
BRANCH   3  12
ATOM     12  O   UNL     1       9.982  -7.900 -10.849  1.00  0.00    -0.508 OA
ATOM     13  H   UNL     1      10.061  -8.312  -9.926  1.00  0.00     0.293 HD
ENDBRANCH   3  12
TORSDOF 1
ENDMDL
MODEL 4
REMARK VINA RESULT:    -6.336      2.873      5.041
REMARK INTER + INTRA:          -6.522
REMARK INTER:                  -6.522
REMARK INTRA:                   0.000
REMARK UNBOUND:                 0.000
REMARK SMILES O=c1ccc2ccc(O)cc2o1
REMARK SMILES IDX 6 1 7 2 8 3 10 4 11 5 5 6 4 7 3 8 2 9 1 10 12 11 9 12
REMARK H PARENT 9 13
REMARK Flexibility Score: inf
ROOT
ATOM      1  C   UNL     1      12.077  -6.112 -13.341  1.00  0.00     0.016 A 
ATOM      2  C   UNL     1      11.099  -5.871 -12.371  1.00  0.00     0.047 A 
ATOM      3  C   UNL     1      11.128  -4.695 -11.613  1.00  0.00     0.119 A 
ATOM      4  C   UNL     1      12.143  -3.750 -11.826  1.00  0.00     0.094 A 
ATOM      5  C   UNL     1      13.126  -3.982 -12.795  1.00  0.00     0.142 A 
ATOM      6  C   UNL     1      13.093  -5.170 -13.557  1.00  0.00     0.018 A 
ATOM      7  C   UNL     1      14.089  -5.374 -14.517  1.00  0.00     0.019 A 
ATOM      8  C   UNL     1      15.078  -4.407 -14.693  1.00  0.00     0.094 A 
ATOM      9  C   UNL     1      15.047  -3.254 -13.902  1.00  0.00     0.336 A 
ATOM     10  O   UNL     1      15.930  -2.369 -14.045  1.00  0.00    -0.246 OA
ATOM     11  O   UNL     1      14.088  -3.084 -12.994  1.00  0.00    -0.423 OA
ENDROOT
BRANCH   3  12
ATOM     12  O   UNL     1      10.144  -4.473 -10.652  1.00  0.00    -0.508 OA
ATOM     13  H   UNL     1       9.251  -4.951 -10.688  1.00  0.00     0.293 HD
ENDBRANCH   3  12
TORSDOF 1
ENDMDL
MODEL 5
REMARK VINA RESULT:    -6.312      2.175      3.364
REMARK INTER + INTRA:          -6.496
REMARK INTER:                  -6.496
REMARK INTRA:                   0.000
REMARK UNBOUND:                 0.000
REMARK SMILES O=c1ccc2ccc(O)cc2o1
REMARK SMILES IDX 6 1 7 2 8 3 10 4 11 5 5 6 4 7 3 8 2 9 1 10 12 11 9 12
REMARK H PARENT 9 13
REMARK Flexibility Score: inf
ROOT
ATOM      1  C   UNL     1      12.546  -3.468 -12.040  1.00  0.00     0.016 A 
ATOM      2  C   UNL     1      13.542  -3.295 -13.007  1.00  0.00     0.047 A 
ATOM      3  C   UNL     1      13.963  -4.375 -13.790  1.00  0.00     0.119 A 
ATOM      4  C   UNL     1      13.385  -5.640 -13.608  1.00  0.00     0.094 A 
ATOM      5  C   UNL     1      12.388  -5.823 -12.643  1.00  0.00     0.142 A 
ATOM      6  C   UNL     1      11.966  -4.731 -11.854  1.00  0.00     0.018 A 
ATOM      7  C   UNL     1      10.968  -4.945 -10.898  1.00  0.00     0.019 A 
ATOM      8  C   UNL     1      10.423  -6.220 -10.751  1.00  0.00     0.094 A 
ATOM      9  C   UNL     1      10.890  -7.255 -11.569  1.00  0.00     0.336 A 
ATOM     10  O   UNL     1      10.411  -8.413 -11.452  1.00  0.00    -0.246 OA
ATOM     11  O   UNL     1      11.841  -7.025 -12.471  1.00  0.00    -0.423 OA
ENDROOT
BRANCH   3  12
ATOM     12  O   UNL     1      14.956  -4.182 -14.749  1.00  0.00    -0.508 OA
ATOM     13  H   UNL     1      14.727  -4.013 -15.722  1.00  0.00     0.293 HD
ENDBRANCH   3  12
TORSDOF 1
ENDMDL
MODEL 6
REMARK VINA RESULT:    -6.305     18.740     19.666
REMARK INTER + INTRA:          -6.489
REMARK INTER:                  -6.489
REMARK INTRA:                   0.000
REMARK UNBOUND:                 0.000
REMARK SMILES O=c1ccc2ccc(O)cc2o1
REMARK SMILES IDX 6 1 7 2 8 3 10 4 11 5 5 6 4 7 3 8 2 9 1 10 12 11 9 12
REMARK H PARENT 9 13
REMARK Flexibility Score: inf
ROOT
ATOM      1  C   UNL     1      -3.818   5.066  -9.154  1.00  0.00     0.016 A 
ATOM      2  C   UNL     1      -4.122   4.320 -10.298  1.00  0.00     0.047 A 
ATOM      3  C   UNL     1      -3.516   4.625 -11.522  1.00  0.00     0.119 A 
ATOM      4  C   UNL     1      -2.600   5.683 -11.607  1.00  0.00     0.094 A 
ATOM      5  C   UNL     1      -2.290   6.435 -10.468  1.00  0.00     0.142 A 
ATOM      6  C   UNL     1      -2.903   6.125  -9.234  1.00  0.00     0.018 A 
ATOM      7  C   UNL     1      -2.574   6.895  -8.114  1.00  0.00     0.019 A 
ATOM      8  C   UNL     1      -1.658   7.938  -8.246  1.00  0.00     0.094 A 
ATOM      9  C   UNL     1      -1.090   8.187  -9.500  1.00  0.00     0.336 A 
ATOM     10  O   UNL     1      -0.261   9.124  -9.639  1.00  0.00    -0.246 OA
ATOM     11  O   UNL     1      -1.421   7.440 -10.550  1.00  0.00    -0.423 OA
ENDROOT
BRANCH   3  12
ATOM     12  O   UNL     1      -3.831   3.869 -12.650  1.00  0.00    -0.508 OA
ATOM     13  H   UNL     1      -3.152   3.706 -13.385  1.00  0.00     0.293 HD
ENDBRANCH   3  12
TORSDOF 1
ENDMDL
MODEL 7
REMARK VINA RESULT:    -6.198     17.716     18.787
REMARK INTER + INTRA:          -6.380
REMARK INTER:                  -6.380
REMARK INTRA:                   0.000
REMARK UNBOUND:                 0.000
REMARK SMILES O=c1ccc2ccc(O)cc2o1
REMARK SMILES IDX 6 1 7 2 8 3 10 4 11 5 5 6 4 7 3 8 2 9 1 10 12 11 9 12
REMARK H PARENT 9 13
REMARK Flexibility Score: inf
ROOT
ATOM      1  C   UNL     1      -3.183   7.236  -8.764  1.00  0.00     0.016 A 
ATOM      2  C   UNL     1      -2.215   7.272  -7.757  1.00  0.00     0.047 A 
ATOM      3  C   UNL     1      -1.139   6.377  -7.777  1.00  0.00     0.119 A 
ATOM      4  C   UNL     1      -1.029   5.438  -8.813  1.00  0.00     0.094 A 
ATOM      5  C   UNL     1      -1.994   5.394  -9.826  1.00  0.00     0.142 A 
ATOM      6  C   UNL     1      -3.078   6.299  -9.801  1.00  0.00     0.018 A 
ATOM      7  C   UNL     1      -4.027   6.230 -10.826  1.00  0.00     0.019 A 
ATOM      8  C   UNL     1      -3.877   5.279 -11.835  1.00  0.00     0.094 A 
ATOM      9  C   UNL     1      -2.777   4.415 -11.795  1.00  0.00     0.336 A 
ATOM     10  O   UNL     1      -2.624   3.550 -12.696  1.00  0.00    -0.246 OA
ATOM     11  O   UNL     1      -1.889   4.501 -10.807  1.00  0.00    -0.423 OA
ENDROOT
BRANCH   3  12
ATOM     12  O   UNL     1      -0.183   6.430  -6.764  1.00  0.00    -0.508 OA
ATOM     13  H   UNL     1       0.772   6.129  -6.922  1.00  0.00     0.293 HD
ENDBRANCH   3  12
TORSDOF 1
ENDMDL
MODEL 8
REMARK VINA RESULT:    -6.185      2.553      3.986
REMARK INTER + INTRA:          -6.366
REMARK INTER:                  -6.366
REMARK INTRA:                   0.000
REMARK UNBOUND:                 0.000
REMARK SMILES O=c1ccc2ccc(O)cc2o1
REMARK SMILES IDX 6 1 7 2 8 3 10 4 11 5 5 6 4 7 3 8 2 9 1 10 12 11 9 12
REMARK H PARENT 9 13
REMARK Flexibility Score: inf
ROOT
ATOM      1  C   UNL     1      13.888  -5.496 -14.361  1.00  0.00     0.016 A 
ATOM      2  C   UNL     1      14.788  -4.434 -14.496  1.00  0.00     0.047 A 
ATOM      3  C   UNL     1      14.645  -3.282 -13.715  1.00  0.00     0.119 A 
ATOM      4  C   UNL     1      13.594  -3.189 -12.790  1.00  0.00     0.094 A 
ATOM      5  C   UNL     1      12.688  -4.247 -12.648  1.00  0.00     0.142 A 
ATOM      6  C   UNL     1      12.836  -5.407 -13.439  1.00  0.00     0.018 A 
ATOM      7  C   UNL     1      11.916  -6.447 -13.275  1.00  0.00     0.019 A 
ATOM      8  C   UNL     1      10.887  -6.309 -12.344  1.00  0.00     0.094 A 
ATOM      9  C   UNL     1      10.803  -5.131 -11.595  1.00  0.00     0.336 A 
ATOM     10  O   UNL     1       9.882  -4.988 -10.750  1.00  0.00    -0.246 OA
ATOM     11  O   UNL     1      11.692  -4.156 -11.771  1.00  0.00    -0.423 OA
ENDROOT
BRANCH   3  12
ATOM     12  O   UNL     1      15.552  -2.235 -13.863  1.00  0.00    -0.508 OA
ATOM     13  H   UNL     1      15.964  -2.014 -14.763  1.00  0.00     0.293 HD
ENDBRANCH   3  12
TORSDOF 1
ENDMDL
