MODEL 1
REMARK VINA RESULT:    -6.115      0.000      0.000
REMARK INTER + INTRA:          -6.472
REMARK INTER:                  -6.472
REMARK INTRA:                   0.000
REMARK UNBOUND:                 0.000
REMARK SMILES O=c1ccc2cc(O)c(O)cc2o1
REMARK SMILES IDX 4 1 3 2 2 3 1 4 13 5 12 6 11 7 9 8 7 9 6 10 5 11 8 12 10 14
REMARK H PARENT 8 13 10 15
REMARK Flexibility Score: inf
ROOT
ATOM      1  C   UNL     1      21.436  -3.749  18.367  1.00  0.00     0.019 A 
ATOM      2  C   UNL     1      21.733  -3.434  19.692  1.00  0.00     0.094 A 
ATOM      3  C   UNL     1      22.187  -4.447  20.544  1.00  0.00     0.336 A 
ATOM      4  O   UNL     1      22.461  -4.181  21.744  1.00  0.00    -0.246 OA
ATOM      5  O   UNL     1      22.332  -5.691  20.096  1.00  0.00    -0.423 OA
ATOM      6  C   UNL     1      22.060  -6.034  18.839  1.00  0.00     0.142 A 
ATOM      7  C   UNL     1      22.231  -7.358  18.423  1.00  0.00     0.098 A 
ATOM      8  C   UNL     1      21.947  -7.725  17.100  1.00  0.00     0.161 A 
ATOM      9  C   UNL     1      21.488  -6.763  16.188  1.00  0.00     0.158 A 
ATOM     10  C   UNL     1      21.314  -5.434  16.599  1.00  0.00     0.062 A 
ATOM     11  C   UNL     1      21.598  -5.065  17.922  1.00  0.00     0.022 A 
ENDROOT
BRANCH   9  12
ATOM     12  O   UNL     1      21.207  -7.137  14.875  1.00  0.00    -0.504 OA
ATOM     13  H   UNL     1      20.609  -7.929  14.666  1.00  0.00     0.293 HD
ENDBRANCH   9  12
BRANCH   8  14
ATOM     14  O   UNL     1      22.116  -9.044  16.684  1.00  0.00    -0.504 OA
ATOM     15  H   UNL     1      22.879  -9.615  17.027  1.00  0.00     0.293 HD
ENDBRANCH   8  14
TORSDOF 2
ENDMDL
MODEL 2
REMARK VINA RESULT:    -5.532     18.345     19.037
REMARK INTER + INTRA:          -5.855
REMARK INTER:                  -5.855
REMARK INTRA:                   0.000
REMARK UNBOUND:                 0.000
REMARK SMILES O=c1ccc2cc(O)c(O)cc2o1
REMARK SMILES IDX 4 1 3 2 2 3 1 4 13 5 12 6 11 7 9 8 7 9 6 10 5 11 8 12 10 14
REMARK H PARENT 8 13 10 15
REMARK Flexibility Score: inf
ROOT
ATOM      1  C   UNL     1      21.093   9.630  29.726  1.00  0.00     0.019 A 
ATOM      2  C   UNL     1      20.554  10.094  28.527  1.00  0.00     0.094 A 
ATOM      3  C   UNL     1      19.361   9.532  28.057  1.00  0.00     0.336 A 
ATOM      4  O   UNL     1      18.858   9.938  26.977  1.00  0.00    -0.246 OA
ATOM      5  O   UNL     1      18.753   8.569  28.745  1.00  0.00    -0.423 OA
ATOM      6  C   UNL     1      19.234   8.097  29.893  1.00  0.00     0.142 A 
ATOM      7  C   UNL     1      18.552   7.084  30.574  1.00  0.00     0.098 A 
ATOM      8  C   UNL     1      19.054   6.584  31.784  1.00  0.00     0.161 A 
ATOM      9  C   UNL     1      20.245   7.099  32.316  1.00  0.00     0.158 A 
ATOM     10  C   UNL     1      20.933   8.116  31.639  1.00  0.00     0.062 A 
ATOM     11  C   UNL     1      20.433   8.617  30.428  1.00  0.00     0.022 A 
ENDROOT
BRANCH   9  12
ATOM     12  O   UNL     1      20.736   6.596  33.519  1.00  0.00    -0.504 OA
ATOM     13  H   UNL     1      20.485   7.010  34.410  1.00  0.00     0.293 HD
ENDBRANCH   9  12
BRANCH   8  14
ATOM     14  O   UNL     1      18.375   5.574  32.463  1.00  0.00    -0.504 OA
ATOM     15  H   UNL     1      17.366   5.573  32.543  1.00  0.00     0.293 HD
ENDBRANCH   8  14
TORSDOF 2
ENDMDL
MODEL 3
REMARK VINA RESULT:    -5.446     17.181     18.449
REMARK INTER + INTRA:          -5.764
REMARK INTER:                  -5.764
REMARK INTRA:                   0.000
REMARK UNBOUND:                 0.000
REMARK SMILES O=c1ccc2cc(O)c(O)cc2o1
REMARK SMILES IDX 4 1 3 2 2 3 1 4 13 5 12 6 11 7 9 8 7 9 6 10 5 11 8 12 10 14
REMARK H PARENT 8 13 10 15
REMARK Flexibility Score: inf
ROOT
ATOM      1  C   UNL     1      19.886   8.182  30.933  1.00  0.00     0.019 A 
ATOM      2  C   UNL     1      20.619   8.233  32.118  1.00  0.00     0.094 A 
ATOM      3  C   UNL     1      21.982   8.543  32.059  1.00  0.00     0.336 A 
ATOM      4  O   UNL     1      22.661   8.593  33.118  1.00  0.00    -0.246 OA
ATOM      5  O   UNL     1      22.569   8.783  30.890  1.00  0.00    -0.423 OA
ATOM      6  C   UNL     1      21.906   8.745  29.736  1.00  0.00     0.142 A 
ATOM      7  C   UNL     1      22.575   9.007  28.536  1.00  0.00     0.098 A 
ATOM      8  C   UNL     1      21.881   8.969  27.318  1.00  0.00     0.161 A 
ATOM      9  C   UNL     1      20.512   8.666  27.299  1.00  0.00     0.158 A 
ATOM     10  C   UNL     1      19.836   8.402  28.499  1.00  0.00     0.062 A 
ATOM     11  C   UNL     1      20.528   8.440  29.718  1.00  0.00     0.022 A 
ENDROOT
BRANCH   9  12
ATOM     12  O   UNL     1      19.831   8.630  26.084  1.00  0.00    -0.504 OA
ATOM     13  H   UNL     1      19.061   7.989  25.926  1.00  0.00     0.293 HD
ENDBRANCH   9  12
BRANCH   8  14
ATOM     14  O   UNL     1      22.546   9.230  26.121  1.00  0.00    -0.504 OA
ATOM     15  H   UNL     1      22.338   8.713  25.275  1.00  0.00     0.293 HD
ENDBRANCH   8  14
TORSDOF 2
ENDMDL
MODEL 4
REMARK VINA RESULT:    -5.432     16.613     17.518
REMARK INTER + INTRA:          -5.749
REMARK INTER:                  -5.749
REMARK INTRA:                   0.000
REMARK UNBOUND:                 0.000
REMARK SMILES O=c1ccc2cc(O)c(O)cc2o1
REMARK SMILES IDX 4 1 3 2 2 3 1 4 13 5 12 6 11 7 9 8 7 9 6 10 5 11 8 12 10 14
REMARK H PARENT 8 13 10 15
REMARK Flexibility Score: inf
ROOT
ATOM      1  C   UNL     1      19.076   8.160  29.766  1.00  0.00     0.019 A 
ATOM      2  C   UNL     1      18.683   7.483  30.920  1.00  0.00     0.094 A 
ATOM      3  C   UNL     1      19.564   6.564  31.500  1.00  0.00     0.336 A 
ATOM      4  O   UNL     1      19.227   5.943  32.541  1.00  0.00    -0.246 OA
ATOM      5  O   UNL     1      20.758   6.340  30.958  1.00  0.00    -0.423 OA
ATOM      6  C   UNL     1      21.173   6.964  29.857  1.00  0.00     0.142 A 
ATOM      7  C   UNL     1      22.439   6.689  29.332  1.00  0.00     0.098 A 
ATOM      8  C   UNL     1      22.881   7.345  28.174  1.00  0.00     0.161 A 
ATOM      9  C   UNL     1      22.052   8.280  27.537  1.00  0.00     0.158 A 
ATOM     10  C   UNL     1      20.781   8.561  28.060  1.00  0.00     0.062 A 
ATOM     11  C   UNL     1      20.338   7.906  29.218  1.00  0.00     0.022 A 
ENDROOT
BRANCH   9  12
ATOM     12  O   UNL     1      22.499   8.926  26.386  1.00  0.00    -0.504 OA
ATOM     13  H   UNL     1      23.465   8.865  26.085  1.00  0.00     0.293 HD
ENDBRANCH   9  12
BRANCH   8  14
ATOM     14  O   UNL     1      24.142   7.072  27.649  1.00  0.00    -0.504 OA
ATOM     15  H   UNL     1      24.761   7.812  27.340  1.00  0.00     0.293 HD
ENDBRANCH   8  14
TORSDOF 2
ENDMDL
MODEL 5
REMARK VINA RESULT:    -5.338      1.133      5.058
REMARK INTER + INTRA:          -5.650
REMARK INTER:                  -5.650
REMARK INTRA:                   0.000
REMARK UNBOUND:                 0.000
REMARK SMILES O=c1ccc2cc(O)c(O)cc2o1
REMARK SMILES IDX 4 1 3 2 2 3 1 4 13 5 12 6 11 7 9 8 7 9 6 10 5 11 8 12 10 14
REMARK H PARENT 8 13 10 15
REMARK Flexibility Score: inf
ROOT
ATOM      1  C   UNL     1      22.126  -7.397  18.251  1.00  0.00     0.019 A 
ATOM      2  C   UNL     1      21.833  -7.646  16.911  1.00  0.00     0.094 A 
ATOM      3  C   UNL     1      21.463  -6.577  16.088  1.00  0.00     0.336 A 
ATOM      4  O   UNL     1      21.195  -6.782  14.875  1.00  0.00    -0.246 OA
ATOM      5  O   UNL     1      21.390  -5.342  16.578  1.00  0.00    -0.423 OA
ATOM      6  C   UNL     1      21.661  -5.062  17.851  1.00  0.00     0.142 A 
ATOM      7  C   UNL     1      21.569  -3.745  18.312  1.00  0.00     0.098 A 
ATOM      8  C   UNL     1      21.853  -3.443  19.651  1.00  0.00     0.161 A 
ATOM      9  C   UNL     1      22.232  -4.464  20.536  1.00  0.00     0.158 A 
ATOM     10  C   UNL     1      22.326  -5.787  20.079  1.00  0.00     0.062 A 
ATOM     11  C   UNL     1      22.042  -6.090  18.740  1.00  0.00     0.022 A 
ENDROOT
BRANCH   9  12
ATOM     12  O   UNL     1      22.512  -4.155  21.865  1.00  0.00    -0.504 OA
ATOM     13  H   UNL     1      22.942  -4.831  22.487  1.00  0.00     0.293 HD
ENDBRANCH   9  12
BRANCH   8  14
ATOM     14  O   UNL     1      21.761  -2.131  20.112  1.00  0.00    -0.504 OA
ATOM     15  H   UNL     1      20.879  -1.634  20.126  1.00  0.00     0.293 HD
ENDBRANCH   8  14
TORSDOF 2
ENDMDL
MODEL 6
REMARK VINA RESULT:    -5.332      1.046      4.512
REMARK INTER + INTRA:          -5.643
REMARK INTER:                  -5.643
REMARK INTRA:                   0.000
REMARK UNBOUND:                 0.000
REMARK SMILES O=c1ccc2cc(O)c(O)cc2o1
REMARK SMILES IDX 4 1 3 2 2 3 1 4 13 5 12 6 11 7 9 8 7 9 6 10 5 11 8 12 10 14
REMARK H PARENT 8 13 10 15
REMARK Flexibility Score: inf
ROOT
ATOM      1  C   UNL     1      21.150  -5.467  16.147  1.00  0.00     0.019 A 
ATOM      2  C   UNL     1      21.243  -6.770  15.660  1.00  0.00     0.094 A 
ATOM      3  C   UNL     1      21.671  -7.786  16.522  1.00  0.00     0.336 A 
ATOM      4  O   UNL     1      21.762  -8.969  16.101  1.00  0.00    -0.246 OA
ATOM      5  O   UNL     1      21.985  -7.512  17.785  1.00  0.00    -0.423 OA
ATOM      6  C   UNL     1      21.910  -6.282  18.289  1.00  0.00     0.142 A 
ATOM      7  C   UNL     1      22.253  -6.052  19.625  1.00  0.00     0.098 A 
ATOM      8  C   UNL     1      22.175  -4.759  20.162  1.00  0.00     0.161 A 
ATOM      9  C   UNL     1      21.753  -3.689  19.358  1.00  0.00     0.158 A 
ATOM     10  C   UNL     1      21.408  -3.914  18.018  1.00  0.00     0.062 A 
ATOM     11  C   UNL     1      21.486  -5.206  17.479  1.00  0.00     0.022 A 
ENDROOT
BRANCH   9  12
ATOM     12  O   UNL     1      21.680  -2.408  19.900  1.00  0.00    -0.504 OA
ATOM     13  H   UNL     1      21.091  -1.692  19.490  1.00  0.00     0.293 HD
ENDBRANCH   9  12
BRANCH   8  14
ATOM     14  O   UNL     1      22.516  -4.528  21.494  1.00  0.00    -0.504 OA
ATOM     15  H   UNL     1      21.877  -4.741  22.250  1.00  0.00     0.293 HD
ENDBRANCH   8  14
TORSDOF 2
ENDMDL
MODEL 7
REMARK VINA RESULT:    -5.299     17.576     18.137
REMARK INTER + INTRA:          -5.608
REMARK INTER:                  -5.608
REMARK INTRA:                   0.000
REMARK UNBOUND:                 0.000
REMARK SMILES O=c1ccc2cc(O)c(O)cc2o1
REMARK SMILES IDX 4 1 3 2 2 3 1 4 13 5 12 6 11 7 9 8 7 9 6 10 5 11 8 12 10 14
REMARK H PARENT 8 13 10 15
REMARK Flexibility Score: inf
ROOT
ATOM      1  C   UNL     1      19.020   8.737  28.565  1.00  0.00     0.019 A 
ATOM      2  C   UNL     1      19.947   9.215  27.640  1.00  0.00     0.094 A 
ATOM      3  C   UNL     1      21.281   8.807  27.743  1.00  0.00     0.336 A 
ATOM      4  O   UNL     1      22.132   9.228  26.916  1.00  0.00    -0.246 OA
ATOM      5  O   UNL     1      21.659   7.977  28.711  1.00  0.00    -0.423 OA
ATOM      6  C   UNL     1      20.807   7.498  29.615  1.00  0.00     0.142 A 
ATOM      7  C   UNL     1      21.261   6.627  30.611  1.00  0.00     0.098 A 
ATOM      8  C   UNL     1      20.369   6.119  31.565  1.00  0.00     0.161 A 
ATOM      9  C   UNL     1      19.014   6.483  31.524  1.00  0.00     0.158 A 
ATOM     10  C   UNL     1      18.554   7.355  30.527  1.00  0.00     0.062 A 
ATOM     11  C   UNL     1      19.445   7.865  29.573  1.00  0.00     0.022 A 
ENDROOT
BRANCH   9  12
ATOM     12  O   UNL     1      18.135   5.973  32.477  1.00  0.00    -0.504 OA
ATOM     13  H   UNL     1      18.342   5.124  32.990  1.00  0.00     0.293 HD
ENDBRANCH   9  12
BRANCH   8  14
ATOM     14  O   UNL     1      20.819   5.251  32.559  1.00  0.00    -0.504 OA
ATOM     15  H   UNL     1      21.756   4.867  32.543  1.00  0.00     0.293 HD
ENDBRANCH   8  14
TORSDOF 2
ENDMDL
MODEL 8
REMARK VINA RESULT:    -5.294      1.060      2.236
REMARK INTER + INTRA:          -5.603
REMARK INTER:                  -5.603
REMARK INTRA:                   0.000
REMARK UNBOUND:                 0.000
REMARK SMILES O=c1ccc2cc(O)c(O)cc2o1
REMARK SMILES IDX 4 1 3 2 2 3 1 4 13 5 12 6 11 7 9 8 7 9 6 10 5 11 8 12 10 14
REMARK H PARENT 8 13 10 15
REMARK Flexibility Score: inf
ROOT
ATOM      1  C   UNL     1      22.571  -6.117  20.070  1.00  0.00     0.019 A 
ATOM      2  C   UNL     1      22.498  -4.813  20.556  1.00  0.00     0.094 A 
ATOM      3  C   UNL     1      21.975  -3.810  19.732  1.00  0.00     0.336 A 
ATOM      4  O   UNL     1      21.901  -2.626  20.153  1.00  0.00    -0.246 OA
ATOM      5  O   UNL     1      21.554  -4.099  18.504  1.00  0.00    -0.423 OA
ATOM      6  C   UNL     1      21.605  -5.331  18.001  1.00  0.00     0.142 A 
ATOM      7  C   UNL     1      21.147  -5.576  16.703  1.00  0.00     0.098 A 
ATOM      8  C   UNL     1      21.199  -6.871  16.169  1.00  0.00     0.161 A 
ATOM      9  C   UNL     1      21.711  -7.928  16.937  1.00  0.00     0.158 A 
ATOM     10  C   UNL     1      22.171  -7.688  18.240  1.00  0.00     0.062 A 
ATOM     11  C   UNL     1      22.120  -6.393  18.776  1.00  0.00     0.022 A 
ENDROOT
BRANCH   9  12
ATOM     12  O   UNL     1      21.758  -9.212  16.398  1.00  0.00    -0.504 OA
ATOM     13  H   UNL     1      21.977 -10.020  16.970  1.00  0.00     0.293 HD
ENDBRANCH   9  12
BRANCH   8  14
ATOM     14  O   UNL     1      20.743  -7.118  14.875  1.00  0.00    -0.504 OA
ATOM     15  H   UNL     1      20.907  -8.005  14.415  1.00  0.00     0.293 HD
ENDBRANCH   8  14
TORSDOF 2
ENDMDL
MODEL 9
REMARK VINA RESULT:    -5.121      9.218     11.208
REMARK INTER + INTRA:          -5.420
REMARK INTER:                  -5.420
REMARK INTRA:                   0.000
REMARK UNBOUND:                 0.000
REMARK SMILES O=c1ccc2cc(O)c(O)cc2o1
REMARK SMILES IDX 4 1 3 2 2 3 1 4 13 5 12 6 11 7 9 8 7 9 6 10 5 11 8 12 10 14
REMARK H PARENT 8 13 10 15
REMARK Flexibility Score: inf
ROOT
ATOM      1  C   UNL     1      23.618   3.405  15.547  1.00  0.00     0.019 A 
ATOM      2  C   UNL     1      23.647   2.099  15.059  1.00  0.00     0.094 A 
ATOM      3  C   UNL     1      24.774   1.307  15.308  1.00  0.00     0.336 A 
ATOM      4  O   UNL     1      24.818   0.126  14.876  1.00  0.00    -0.246 OA
ATOM      5  O   UNL     1      25.801   1.794  15.999  1.00  0.00    -0.423 OA
ATOM      6  C   UNL     1      25.814   3.035  16.482  1.00  0.00     0.142 A 
ATOM      7  C   UNL     1      26.922   3.493  17.202  1.00  0.00     0.098 A 
ATOM      8  C   UNL     1      26.940   4.798  17.714  1.00  0.00     0.161 A 
ATOM      9  C   UNL     1      25.846   5.650  17.504  1.00  0.00     0.158 A 
ATOM     10  C   UNL     1      24.732   5.196  16.783  1.00  0.00     0.062 A 
ATOM     11  C   UNL     1      24.712   3.891  16.271  1.00  0.00     0.022 A 
ENDROOT
BRANCH   9  12
ATOM     12  O   UNL     1      25.874   6.946  18.016  1.00  0.00    -0.504 OA
ATOM     13  H   UNL     1      25.716   7.754  17.423  1.00  0.00     0.293 HD
ENDBRANCH   9  12
BRANCH   8  14
ATOM     14  O   UNL     1      28.044   5.257  18.431  1.00  0.00    -0.504 OA
ATOM     15  H   UNL     1      28.546   6.093  18.155  1.00  0.00     0.293 HD
ENDBRANCH   8  14
TORSDOF 2
ENDMDL
