MODEL 1
REMARK VINA RESULT:    12.195      0.000      0.000
REMARK INTER + INTRA:          27.203
REMARK INTER:                  27.879
REMARK INTRA:                  -0.676
REMARK UNBOUND:                -0.676
REMARK SMILES CCCCCCCCCCCCCCCCCCCCCCCC(=O)[O-]
REMARK SMILES IDX 13 1 14 2 15 3 16 4 17 5 18 6 19 7 20 8 21 9 22 10 23 11
REMARK SMILES IDX 24 12 25 13 26 14 12 15 11 16 10 17 9 18 8 19 7 20 6 21 5 22
REMARK SMILES IDX 4 23 3 24 2 25 1 26
REMARK H PARENT
REMARK Flexibility Score: inf
ROOT
ATOM      1  C   UNL     1       9.899 -29.944 -11.758  1.00  0.00     0.000 C 
ENDROOT
BRANCH   1   2
ATOM      2  C   UNL     1       8.436 -29.829 -12.233  1.00  0.00     0.000 C 
BRANCH   2   3
ATOM      3  C   UNL     1       8.222 -29.979 -13.749  1.00  0.00     0.000 C 
BRANCH   3   4
ATOM      4  C   UNL     1       9.486 -30.327 -14.561  1.00  0.00     0.000 C 
BRANCH   4   5
ATOM      5  C   UNL     1       9.432 -31.710 -15.245  1.00  0.00     0.000 C 
BRANCH   5   6
ATOM      6  C   UNL     1       9.403 -31.608 -16.781  1.00  0.00     0.000 C 
BRANCH   6   7
ATOM      7  C   UNL     1       9.743 -30.196 -17.290  1.00  0.00     0.000 C 
BRANCH   7   8
ATOM      8  C   UNL     1       8.743 -29.606 -18.306  1.00  0.00     0.000 C 
BRANCH   8   9
ATOM      9  C   UNL     1       7.468 -28.997 -17.694  1.00  0.00     0.000 C 
BRANCH   9  10
ATOM     10  C   UNL     1       6.400 -28.665 -18.747  1.00  0.00     0.006 C 
BRANCH  10  11
ATOM     11  C   UNL     1       7.032 -28.027 -19.988  1.00  0.00     0.053 C 
BRANCH  11  12
ATOM     12  C   UNL     1       6.649 -28.790 -21.221  1.00  0.00     0.041 C 
ATOM     13  O   UNL     1       6.390 -30.020 -21.153  1.00  0.00    -0.550 OA
ATOM     14  O   UNL     1       6.594 -28.140 -22.450  1.00  0.00    -0.550 OA
ENDBRANCH  11  12
ENDBRANCH  10  11
ENDBRANCH   9  10
ENDBRANCH   8   9
ENDBRANCH   7   8
ENDBRANCH   6   7
ENDBRANCH   5   6
ENDBRANCH   4   5
ENDBRANCH   3   4
ENDBRANCH   2   3
ENDBRANCH   1   2
BRANCH   1  15
ATOM     15  C   UNL     1      10.061 -30.051 -10.226  1.00  0.00     0.000 C 
BRANCH  15  16
ATOM     16  C   UNL     1       9.251 -28.985  -9.464  1.00  0.00     0.000 C 
BRANCH  16  17
ATOM     17  C   UNL     1      10.001 -27.647  -9.300  1.00  0.00     0.000 C 
BRANCH  17  18
ATOM     18  C   UNL     1       9.092 -26.419  -9.072  1.00  0.00    -0.000 C 
BRANCH  18  19
ATOM     19  C   UNL     1       8.751 -26.089  -7.605  1.00  0.00    -0.000 C 
BRANCH  19  20
ATOM     20  C   UNL     1       8.444 -24.604  -7.316  1.00  0.00    -0.000 C 
BRANCH  20  21
ATOM     21  C   UNL     1       7.457 -24.365  -6.157  1.00  0.00    -0.000 C 
BRANCH  21  22
ATOM     22  C   UNL     1       8.023 -24.661  -4.753  1.00  0.00    -0.000 C 
BRANCH  22  23
ATOM     23  C   UNL     1       9.026 -25.829  -4.671  1.00  0.00    -0.000 C 
BRANCH  23  24
ATOM     24  C   UNL     1      10.519 -25.446  -4.763  1.00  0.00    -0.000 C 
BRANCH  24  25
ATOM     25  C   UNL     1      11.498 -26.631  -4.656  1.00  0.00    -0.003 C 
ATOM     26  C   UNL     1      12.887 -26.337  -5.225  1.00  0.00     0.004 C 
ENDBRANCH  24  25
ENDBRANCH  23  24
ENDBRANCH  22  23
ENDBRANCH  21  22
ENDBRANCH  20  21
ENDBRANCH  19  20
ENDBRANCH  18  19
ENDBRANCH  17  18
ENDBRANCH  16  17
ENDBRANCH  15  16
ENDBRANCH   1  15
TORSDOF 22
ENDMDL
MODEL 2
REMARK VINA RESULT:    12.477      5.019     12.377
REMARK INTER + INTRA:          27.848
REMARK INTER:                  29.344
REMARK INTRA:                  -1.496
REMARK UNBOUND:                -0.676
REMARK SMILES CCCCCCCCCCCCCCCCCCCCCCCC(=O)[O-]
REMARK SMILES IDX 13 1 14 2 15 3 16 4 17 5 18 6 19 7 20 8 21 9 22 10 23 11
REMARK SMILES IDX 24 12 25 13 26 14 12 15 11 16 10 17 9 18 8 19 7 20 6 21 5 22
REMARK SMILES IDX 4 23 3 24 2 25 1 26
REMARK H PARENT
REMARK Flexibility Score: inf
ROOT
ATOM      1  C   UNL     1       9.861 -29.983 -11.723  1.00  0.00     0.000 C 
ENDROOT
BRANCH   1   2
ATOM      2  C   UNL     1      10.153 -30.056 -10.210  1.00  0.00     0.000 C 
BRANCH   2   3
ATOM      3  C   UNL     1       9.294 -29.134  -9.327  1.00  0.00     0.000 C 
BRANCH   3   4
ATOM      4  C   UNL     1       9.875 -27.726  -9.085  1.00  0.00     0.000 C 
BRANCH   4   5
ATOM      5  C   UNL     1       8.842 -26.587  -9.234  1.00  0.00     0.000 C 
BRANCH   5   6
ATOM      6  C   UNL     1       9.080 -25.441  -8.235  1.00  0.00     0.000 C 
BRANCH   6   7
ATOM      7  C   UNL     1       7.915 -25.261  -7.245  1.00  0.00     0.000 C 
BRANCH   7   8
ATOM      8  C   UNL     1       8.289 -24.597  -5.903  1.00  0.00     0.000 C 
BRANCH   8   9
ATOM      9  C   UNL     1       8.861 -25.550  -4.838  1.00  0.00     0.000 C 
BRANCH   9  10
ATOM     10  C   UNL     1      10.385 -25.429  -4.686  1.00  0.00     0.006 C 
BRANCH  10  11
ATOM     11  C   UNL     1      11.032 -26.808  -4.517  1.00  0.00     0.053 C 
BRANCH  11  12
ATOM     12  C   UNL     1      12.482 -26.756  -4.893  1.00  0.00     0.041 C 
ATOM     13  O   UNL     1      12.974 -25.706  -5.384  1.00  0.00    -0.550 OA
ATOM     14  O   UNL     1      13.287 -27.876  -4.711  1.00  0.00    -0.550 OA
ENDBRANCH  11  12
ENDBRANCH  10  11
ENDBRANCH   9  10
ENDBRANCH   8   9
ENDBRANCH   7   8
ENDBRANCH   6   7
ENDBRANCH   5   6
ENDBRANCH   4   5
ENDBRANCH   3   4
ENDBRANCH   2   3
ENDBRANCH   1   2
BRANCH   1  15
ATOM     15  C   UNL     1       8.388 -29.676 -12.070  1.00  0.00     0.000 C 
BRANCH  15  16
ATOM     16  C   UNL     1       8.071 -29.879 -13.564  1.00  0.00     0.000 C 
BRANCH  16  17
ATOM     17  C   UNL     1       9.320 -30.176 -14.420  1.00  0.00     0.000 C 
BRANCH  17  18
ATOM     18  C   UNL     1       9.345 -31.581 -15.062  1.00  0.00    -0.000 C 
BRANCH  18  19
ATOM     19  C   UNL     1       9.291 -31.624 -16.603  1.00  0.00    -0.000 C 
BRANCH  19  20
ATOM     20  C   UNL     1      10.014 -30.464 -17.321  1.00  0.00    -0.000 C 
BRANCH  20  21
ATOM     21  C   UNL     1       9.099 -29.568 -18.179  1.00  0.00    -0.000 C 
BRANCH  21  22
ATOM     22  C   UNL     1       7.812 -29.093 -17.474  1.00  0.00    -0.000 C 
BRANCH  22  23
ATOM     23  C   UNL     1       6.547 -29.049 -18.354  1.00  0.00    -0.000 C 
BRANCH  23  24
ATOM     24  C   UNL     1       6.665 -28.245 -19.667  1.00  0.00    -0.000 C 
BRANCH  24  25
ATOM     25  C   UNL     1       6.776 -29.102 -20.941  1.00  0.00    -0.003 C 
ATOM     26  C   UNL     1       6.556 -28.318 -22.235  1.00  0.00     0.004 C 
ENDBRANCH  24  25
ENDBRANCH  23  24
ENDBRANCH  22  23
ENDBRANCH  21  22
ENDBRANCH  20  21
ENDBRANCH  19  20
ENDBRANCH  18  19
ENDBRANCH  17  18
ENDBRANCH  16  17
ENDBRANCH  15  16
ENDBRANCH   1  15
TORSDOF 22
ENDMDL
MODEL 3
REMARK VINA RESULT:    12.940      4.979     12.576
REMARK INTER + INTRA:          28.907
REMARK INTER:                  30.244
REMARK INTRA:                  -1.338
REMARK UNBOUND:                -0.676
REMARK SMILES CCCCCCCCCCCCCCCCCCCCCCCC(=O)[O-]
REMARK SMILES IDX 13 1 14 2 15 3 16 4 17 5 18 6 19 7 20 8 21 9 22 10 23 11
REMARK SMILES IDX 24 12 25 13 26 14 12 15 11 16 10 17 9 18 8 19 7 20 6 21 5 22
REMARK SMILES IDX 4 23 3 24 2 25 1 26
REMARK H PARENT
REMARK Flexibility Score: inf
ROOT
ATOM      1  C   UNL     1      10.148 -29.777 -11.949  1.00  0.00     0.000 C 
ENDROOT
BRANCH   1   2
ATOM      2  C   UNL     1      10.140 -30.008 -10.424  1.00  0.00     0.000 C 
BRANCH   2   3
ATOM      3  C   UNL     1       9.098 -29.191  -9.639  1.00  0.00     0.000 C 
BRANCH   3   4
ATOM      4  C   UNL     1       9.645 -27.936  -8.928  1.00  0.00     0.000 C 
BRANCH   4   5
ATOM      5  C   UNL     1       9.274 -26.609  -9.625  1.00  0.00     0.000 C 
BRANCH   5   6
ATOM      6  C   UNL     1       8.583 -25.616  -8.672  1.00  0.00     0.000 C 
BRANCH   6   7
ATOM      7  C   UNL     1       8.743 -26.003  -7.191  1.00  0.00     0.000 C 
BRANCH   7   8
ATOM      8  C   UNL     1       8.357 -24.904  -6.179  1.00  0.00     0.000 C 
BRANCH   8   9
ATOM      9  C   UNL     1       8.933 -25.086  -4.763  1.00  0.00     0.000 C 
BRANCH   9  10
ATOM     10  C   UNL     1      10.018 -26.171  -4.694  1.00  0.00     0.006 C 
BRANCH  10  11
ATOM     11  C   UNL     1      11.418 -25.554  -4.788  1.00  0.00     0.053 C 
BRANCH  11  12
ATOM     12  C   UNL     1      12.457 -26.629  -4.902  1.00  0.00     0.041 C 
ATOM     13  O   UNL     1      12.395 -27.654  -4.172  1.00  0.00    -0.550 OA
ATOM     14  O   UNL     1      13.503 -26.490  -5.807  1.00  0.00    -0.550 OA
ENDBRANCH  11  12
ENDBRANCH  10  11
ENDBRANCH   9  10
ENDBRANCH   8   9
ENDBRANCH   7   8
ENDBRANCH   6   7
ENDBRANCH   5   6
ENDBRANCH   4   5
ENDBRANCH   3   4
ENDBRANCH   2   3
ENDBRANCH   1   2
BRANCH   1  15
ATOM     15  C   UNL     1       8.792 -30.039 -12.637  1.00  0.00     0.000 C 
BRANCH  15  16
ATOM     16  C   UNL     1       8.905 -30.111 -14.172  1.00  0.00     0.000 C 
BRANCH  16  17
ATOM     17  C   UNL     1       9.184 -31.534 -14.699  1.00  0.00     0.000 C 
BRANCH  17  18
ATOM     18  C   UNL     1       9.598 -31.604 -16.186  1.00  0.00    -0.000 C 
BRANCH  18  19
ATOM     19  C   UNL     1      10.196 -30.315 -16.785  1.00  0.00    -0.000 C 
BRANCH  19  20
ATOM     20  C   UNL     1       9.609 -29.886 -18.147  1.00  0.00    -0.000 C 
BRANCH  20  21
ATOM     21  C   UNL     1       8.070 -29.931 -18.227  1.00  0.00    -0.000 C 
BRANCH  21  22
ATOM     22  C   UNL     1       7.392 -28.561 -18.431  1.00  0.00    -0.000 C 
BRANCH  22  23
ATOM     23  C   UNL     1       6.226 -28.538 -19.441  1.00  0.00    -0.000 C 
BRANCH  23  24
ATOM     24  C   UNL     1       6.476 -29.267 -20.779  1.00  0.00    -0.000 C 
BRANCH  24  25
ATOM     25  C   UNL     1       7.194 -28.424 -21.849  1.00  0.00    -0.003 C 
ATOM     26  C   UNL     1       6.252 -27.801 -22.880  1.00  0.00     0.004 C 
ENDBRANCH  24  25
ENDBRANCH  23  24
ENDBRANCH  22  23
ENDBRANCH  21  22
ENDBRANCH  20  21
ENDBRANCH  19  20
ENDBRANCH  18  19
ENDBRANCH  17  18
ENDBRANCH  16  17
ENDBRANCH  15  16
ENDBRANCH   1  15
TORSDOF 22
ENDMDL
MODEL 4
REMARK VINA RESULT:    13.832      5.014     12.484
REMARK INTER + INTRA:          30.946
REMARK INTER:                  31.430
REMARK INTRA:                  -0.484
REMARK UNBOUND:                -0.676
REMARK SMILES CCCCCCCCCCCCCCCCCCCCCCCC(=O)[O-]
REMARK SMILES IDX 13 1 14 2 15 3 16 4 17 5 18 6 19 7 20 8 21 9 22 10 23 11
REMARK SMILES IDX 24 12 25 13 26 14 12 15 11 16 10 17 9 18 8 19 7 20 6 21 5 22
REMARK SMILES IDX 4 23 3 24 2 25 1 26
REMARK H PARENT
REMARK Flexibility Score: inf
ROOT
ATOM      1  C   UNL     1       9.459 -30.033 -12.077  1.00  0.00     0.000 C 
ENDROOT
BRANCH   1   2
ATOM      2  C   UNL     1      10.475 -29.892 -10.925  1.00  0.00     0.000 C 
BRANCH   2   3
ATOM      3  C   UNL     1       9.906 -30.117  -9.513  1.00  0.00     0.000 C 
BRANCH   3   4
ATOM      4  C   UNL     1       9.247 -28.882  -8.865  1.00  0.00     0.000 C 
BRANCH   4   5
ATOM      5  C   UNL     1       9.653 -27.541  -9.514  1.00  0.00     0.000 C 
BRANCH   5   6
ATOM      6  C   UNL     1       8.900 -26.342  -8.911  1.00  0.00     0.000 C 
BRANCH   6   7
ATOM      7  C   UNL     1       8.987 -26.296  -7.375  1.00  0.00     0.000 C 
BRANCH   7   8
ATOM      8  C   UNL     1       8.403 -25.026  -6.721  1.00  0.00     0.000 C 
BRANCH   8   9
ATOM      9  C   UNL     1       8.590 -24.930  -5.196  1.00  0.00     0.000 C 
BRANCH   9  10
ATOM     10  C   UNL     1       9.602 -25.949  -4.652  1.00  0.00     0.006 C 
BRANCH  10  11
ATOM     11  C   UNL     1      11.037 -25.431  -4.799  1.00  0.00     0.053 C 
BRANCH  11  12
ATOM     12  C   UNL     1      12.012 -26.569  -4.750  1.00  0.00     0.041 C 
ATOM     13  O   UNL     1      13.084 -26.516  -5.409  1.00  0.00    -0.550 OA
ATOM     14  O   UNL     1      11.726 -27.695  -3.985  1.00  0.00    -0.550 OA
ENDBRANCH  11  12
ENDBRANCH  10  11
ENDBRANCH   9  10
ENDBRANCH   8   9
ENDBRANCH   7   8
ENDBRANCH   6   7
ENDBRANCH   5   6
ENDBRANCH   4   5
ENDBRANCH   3   4
ENDBRANCH   2   3
ENDBRANCH   1   2
BRANCH   1  15
ATOM     15  C   UNL     1      10.094 -30.358 -13.446  1.00  0.00     0.000 C 
BRANCH  15  16
ATOM     16  C   UNL     1       9.063 -30.381 -14.592  1.00  0.00     0.000 C 
BRANCH  16  17
ATOM     17  C   UNL     1       9.165 -31.637 -15.482  1.00  0.00     0.000 C 
BRANCH  17  18
ATOM     18  C   UNL     1       9.949 -31.435 -16.798  1.00  0.00    -0.000 C 
BRANCH  18  19
ATOM     19  C   UNL     1       9.169 -30.789 -17.961  1.00  0.00    -0.000 C 
BRANCH  19  20
ATOM     20  C   UNL     1       8.711 -29.334 -17.719  1.00  0.00    -0.000 C 
BRANCH  20  21
ATOM     21  C   UNL     1       7.344 -29.198 -17.020  1.00  0.00    -0.000 C 
BRANCH  21  22
ATOM     22  C   UNL     1       6.176 -28.810 -17.949  1.00  0.00    -0.000 C 
BRANCH  22  23
ATOM     23  C   UNL     1       6.577 -28.145 -19.281  1.00  0.00    -0.000 C 
BRANCH  23  24
ATOM     24  C   UNL     1       6.485 -29.038 -20.537  1.00  0.00    -0.000 C 
BRANCH  24  25
ATOM     25  C   UNL     1       7.034 -28.399 -21.827  1.00  0.00    -0.003 C 
ATOM     26  C   UNL     1       5.967 -28.141 -22.891  1.00  0.00     0.004 C 
ENDBRANCH  24  25
ENDBRANCH  23  24
ENDBRANCH  22  23
ENDBRANCH  21  22
ENDBRANCH  20  21
ENDBRANCH  19  20
ENDBRANCH  18  19
ENDBRANCH  17  18
ENDBRANCH  16  17
ENDBRANCH  15  16
ENDBRANCH   1  15
TORSDOF 22
ENDMDL
MODEL 5
REMARK VINA RESULT:    14.420      2.314      4.225
REMARK INTER + INTRA:          32.289
REMARK INTER:                  29.996
REMARK INTRA:                   2.293
REMARK UNBOUND:                -0.676
REMARK SMILES CCCCCCCCCCCCCCCCCCCCCCCC(=O)[O-]
REMARK SMILES IDX 13 1 14 2 15 3 16 4 17 5 18 6 19 7 20 8 21 9 22 10 23 11
REMARK SMILES IDX 24 12 25 13 26 14 12 15 11 16 10 17 9 18 8 19 7 20 6 21 5 22
REMARK SMILES IDX 4 23 3 24 2 25 1 26
REMARK H PARENT
REMARK Flexibility Score: inf
ROOT
ATOM      1  C   UNL     1       8.880 -30.087 -14.212  1.00  0.00     0.000 C 
ENDROOT
BRANCH   1   2
ATOM      2  C   UNL     1       8.368 -29.544 -15.562  1.00  0.00     0.000 C 
BRANCH   2   3
ATOM      3  C   UNL     1       7.466 -28.301 -15.473  1.00  0.00     0.000 C 
BRANCH   3   4
ATOM      4  C   UNL     1       6.493 -28.107 -16.654  1.00  0.00     0.000 C 
BRANCH   4   5
ATOM      5  C   UNL     1       6.865 -28.920 -17.913  1.00  0.00     0.000 C 
BRANCH   5   6
ATOM      6  C   UNL     1       6.405 -28.237 -19.213  1.00  0.00     0.000 C 
BRANCH   6   7
ATOM      7  C   UNL     1       6.907 -28.961 -20.475  1.00  0.00     0.000 C 
BRANCH   7   8
ATOM      8  C   UNL     1       8.186 -29.804 -20.286  1.00  0.00     0.000 C 
BRANCH   8   9
ATOM      9  C   UNL     1       8.930 -29.574 -18.958  1.00  0.00     0.000 C 
BRANCH   9  10
ATOM     10  C   UNL     1       9.724 -30.806 -18.497  1.00  0.00     0.006 C 
BRANCH  10  11
ATOM     11  C   UNL     1       9.426 -31.135 -17.031  1.00  0.00     0.053 C 
BRANCH  11  12
ATOM     12  C   UNL     1       9.306 -32.617 -16.840  1.00  0.00     0.041 C 
ATOM     13  O   UNL     1       9.436 -33.397 -17.820  1.00  0.00    -0.550 OA
ATOM     14  O   UNL     1       9.035 -33.135 -15.578  1.00  0.00    -0.550 OA
ENDBRANCH  11  12
ENDBRANCH  10  11
ENDBRANCH   9  10
ENDBRANCH   8   9
ENDBRANCH   7   8
ENDBRANCH   6   7
ENDBRANCH   5   6
ENDBRANCH   4   5
ENDBRANCH   3   4
ENDBRANCH   2   3
ENDBRANCH   1   2
BRANCH   1  15
ATOM     15  C   UNL     1       8.048 -29.640 -12.992  1.00  0.00     0.000 C 
BRANCH  15  16
ATOM     16  C   UNL     1       8.872 -29.596 -11.690  1.00  0.00     0.000 C 
BRANCH  16  17
ATOM     17  C   UNL     1       8.035 -29.227 -10.448  1.00  0.00     0.000 C 
BRANCH  17  18
ATOM     18  C   UNL     1       8.844 -29.094  -9.139  1.00  0.00    -0.000 C 
BRANCH  18  19
ATOM     19  C   UNL     1       9.878 -27.950  -9.093  1.00  0.00    -0.000 C 
BRANCH  19  20
ATOM     20  C   UNL     1       9.308 -26.536  -9.337  1.00  0.00    -0.000 C 
BRANCH  20  21
ATOM     21  C   UNL     1       8.627 -25.897  -8.111  1.00  0.00    -0.000 C 
BRANCH  21  22
ATOM     22  C   UNL     1       9.078 -26.464  -6.750  1.00  0.00    -0.000 C 
BRANCH  22  23
ATOM     23  C   UNL     1       8.758 -25.587  -5.523  1.00  0.00    -0.000 C 
BRANCH  23  24
ATOM     24  C   UNL     1       8.196 -24.181  -5.825  1.00  0.00    -0.000 C 
BRANCH  24  25
ATOM     25  C   UNL     1       6.671 -24.126  -6.032  1.00  0.00    -0.003 C 
ATOM     26  C   UNL     1       5.885 -25.033  -5.084  1.00  0.00     0.004 C 
ENDBRANCH  24  25
ENDBRANCH  23  24
ENDBRANCH  22  23
ENDBRANCH  21  22
ENDBRANCH  20  21
ENDBRANCH  19  20
ENDBRANCH  18  19
ENDBRANCH  17  18
ENDBRANCH  16  17
ENDBRANCH  15  16
ENDBRANCH   1  15
TORSDOF 22
ENDMDL
MODEL 6
REMARK VINA RESULT:    14.819      1.272      2.549
REMARK INTER + INTRA:          33.202
REMARK INTER:                  32.280
REMARK INTRA:                   0.923
REMARK UNBOUND:                -0.676
REMARK SMILES CCCCCCCCCCCCCCCCCCCCCCCC(=O)[O-]
REMARK SMILES IDX 13 1 14 2 15 3 16 4 17 5 18 6 19 7 20 8 21 9 22 10 23 11
REMARK SMILES IDX 24 12 25 13 26 14 12 15 11 16 10 17 9 18 8 19 7 20 6 21 5 22
REMARK SMILES IDX 4 23 3 24 2 25 1 26
REMARK H PARENT
REMARK Flexibility Score: inf
ROOT
ATOM      1  C   UNL     1      10.584 -30.021 -11.904  1.00  0.00     0.000 C 
ENDROOT
BRANCH   1   2
ATOM      2  C   UNL     1       9.583 -30.769 -12.809  1.00  0.00     0.000 C 
BRANCH   2   3
ATOM      3  C   UNL     1       9.339 -30.132 -14.189  1.00  0.00     0.000 C 
BRANCH   3   4
ATOM      4  C   UNL     1       9.292 -31.122 -15.371  1.00  0.00     0.000 C 
BRANCH   4   5
ATOM      5  C   UNL     1       9.813 -30.535 -16.702  1.00  0.00     0.000 C 
BRANCH   5   6
ATOM      6  C   UNL     1       9.003 -29.310 -17.163  1.00  0.00     0.000 C 
BRANCH   6   7
ATOM      7  C   UNL     1       7.483 -29.517 -17.029  1.00  0.00     0.000 C 
BRANCH   7   8
ATOM      8  C   UNL     1       6.611 -28.419 -17.673  1.00  0.00     0.000 C 
BRANCH   8   9
ATOM      9  C   UNL     1       6.580 -28.425 -19.212  1.00  0.00     0.000 C 
BRANCH   9  10
ATOM     10  C   UNL     1       7.366 -29.596 -19.820  1.00  0.00     0.006 C 
BRANCH  10  11
ATOM     11  C   UNL     1       7.558 -29.405 -21.329  1.00  0.00     0.053 C 
BRANCH  11  12
ATOM     12  C   UNL     1       6.688 -28.291 -21.830  1.00  0.00     0.041 C 
ATOM     13  O   UNL     1       6.464 -28.165 -23.062  1.00  0.00    -0.550 OA
ATOM     14  O   UNL     1       6.137 -27.383 -20.931  1.00  0.00    -0.550 OA
ENDBRANCH  11  12
ENDBRANCH  10  11
ENDBRANCH   9  10
ENDBRANCH   8   9
ENDBRANCH   7   8
ENDBRANCH   6   7
ENDBRANCH   5   6
ENDBRANCH   4   5
ENDBRANCH   3   4
ENDBRANCH   2   3
ENDBRANCH   1   2
BRANCH   1  15
ATOM     15  C   UNL     1      10.289 -30.147 -10.394  1.00  0.00     0.000 C 
BRANCH  15  16
ATOM     16  C   UNL     1       9.323 -29.061  -9.882  1.00  0.00     0.000 C 
BRANCH  16  17
ATOM     17  C   UNL     1      10.043 -27.828  -9.297  1.00  0.00     0.000 C 
BRANCH  17  18
ATOM     18  C   UNL     1       9.154 -26.574  -9.141  1.00  0.00    -0.000 C 
BRANCH  18  19
ATOM     19  C   UNL     1       8.826 -26.151  -7.694  1.00  0.00    -0.000 C 
BRANCH  19  20
ATOM     20  C   UNL     1       9.841 -26.612  -6.626  1.00  0.00    -0.000 C 
BRANCH  20  21
ATOM     21  C   UNL     1       9.359 -26.455  -5.170  1.00  0.00    -0.000 C 
BRANCH  21  22
ATOM     22  C   UNL     1       9.733 -25.115  -4.505  1.00  0.00    -0.000 C 
BRANCH  22  23
ATOM     23  C   UNL     1       8.548 -24.196  -4.144  1.00  0.00    -0.000 C 
BRANCH  23  24
ATOM     24  C   UNL     1       7.970 -23.353  -5.302  1.00  0.00    -0.000 C 
BRANCH  24  25
ATOM     25  C   UNL     1       6.443 -23.458  -5.476  1.00  0.00    -0.003 C 
ATOM     26  C   UNL     1       5.892 -24.869  -5.267  1.00  0.00     0.004 C 
ENDBRANCH  24  25
ENDBRANCH  23  24
ENDBRANCH  22  23
ENDBRANCH  21  22
ENDBRANCH  20  21
ENDBRANCH  19  20
ENDBRANCH  18  19
ENDBRANCH  17  18
ENDBRANCH  16  17
ENDBRANCH  15  16
ENDBRANCH   1  15
TORSDOF 22
ENDMDL
MODEL 7
REMARK VINA RESULT:    14.871      2.587      5.262
REMARK INTER + INTRA:          33.320
REMARK INTER:                  31.352
REMARK INTRA:                   1.968
REMARK UNBOUND:                -0.676
REMARK SMILES CCCCCCCCCCCCCCCCCCCCCCCC(=O)[O-]
REMARK SMILES IDX 13 1 14 2 15 3 16 4 17 5 18 6 19 7 20 8 21 9 22 10 23 11
REMARK SMILES IDX 24 12 25 13 26 14 12 15 11 16 10 17 9 18 8 19 7 20 6 21 5 22
REMARK SMILES IDX 4 23 3 24 2 25 1 26
REMARK H PARENT
REMARK Flexibility Score: inf
ROOT
ATOM      1  C   UNL     1       7.667 -29.073 -16.422  1.00  0.00     0.000 C 
ENDROOT
BRANCH   1   2
ATOM      2  C   UNL     1       6.611 -28.284 -17.222  1.00  0.00     0.000 C 
BRANCH   2   3
ATOM      3  C   UNL     1       6.265 -28.861 -18.606  1.00  0.00     0.000 C 
BRANCH   3   4
ATOM      4  C   UNL     1       6.417 -27.879 -19.785  1.00  0.00     0.000 C 
BRANCH   4   5
ATOM      5  C   UNL     1       6.616 -28.567 -21.153  1.00  0.00     0.000 C 
BRANCH   5   6
ATOM      6  C   UNL     1       7.466 -29.846 -21.052  1.00  0.00     0.000 C 
BRANCH   6   7
ATOM      7  C   UNL     1       8.864 -29.586 -20.460  1.00  0.00     0.000 C 
BRANCH   7   8
ATOM      8  C   UNL     1       9.238 -30.464 -19.247  1.00  0.00     0.000 C 
BRANCH   8   9
ATOM      9  C   UNL     1       9.831 -29.705 -18.047  1.00  0.00     0.000 C 
BRANCH   9  10
ATOM     10  C   UNL     1      10.413 -30.641 -16.976  1.00  0.00     0.006 C 
BRANCH  10  11
ATOM     11  C   UNL     1       9.303 -31.221 -16.093  1.00  0.00     0.053 C 
BRANCH  11  12
ATOM     12  C   UNL     1       9.248 -32.713 -16.235  1.00  0.00     0.041 C 
ATOM     13  O   UNL     1       9.531 -33.258 -17.334  1.00  0.00    -0.550 OA
ATOM     14  O   UNL     1       8.868 -33.499 -15.152  1.00  0.00    -0.550 OA
ENDBRANCH  11  12
ENDBRANCH  10  11
ENDBRANCH   9  10
ENDBRANCH   8   9
ENDBRANCH   7   8
ENDBRANCH   6   7
ENDBRANCH   5   6
ENDBRANCH   4   5
ENDBRANCH   3   4
ENDBRANCH   2   3
ENDBRANCH   1   2
BRANCH   1  15
ATOM     15  C   UNL     1       7.679 -28.763 -14.909  1.00  0.00     0.000 C 
BRANCH  15  16
ATOM     16  C   UNL     1       8.635 -29.678 -14.120  1.00  0.00     0.000 C 
BRANCH  16  17
ATOM     17  C   UNL     1       8.111 -30.047 -12.717  1.00  0.00     0.000 C 
BRANCH  17  18
ATOM     18  C   UNL     1       7.882 -28.844 -11.774  1.00  0.00    -0.000 C 
BRANCH  18  19
ATOM     19  C   UNL     1       7.856 -29.160 -10.265  1.00  0.00    -0.000 C 
BRANCH  19  20
ATOM     20  C   UNL     1       9.231 -29.138  -9.563  1.00  0.00    -0.000 C 
BRANCH  20  21
ATOM     21  C   UNL     1       9.778 -27.729  -9.263  1.00  0.00    -0.000 C 
BRANCH  21  22
ATOM     22  C   UNL     1       8.715 -26.612  -9.243  1.00  0.00    -0.000 C 
BRANCH  22  23
ATOM     23  C   UNL     1       8.914 -25.521  -8.171  1.00  0.00    -0.000 C 
BRANCH  23  24
ATOM     24  C   UNL     1       7.961 -25.584  -6.958  1.00  0.00    -0.000 C 
BRANCH  24  25
ATOM     25  C   UNL     1       7.904 -24.297  -6.113  1.00  0.00    -0.003 C 
ATOM     26  C   UNL     1       6.595 -24.120  -5.343  1.00  0.00     0.004 C 
ENDBRANCH  24  25
ENDBRANCH  23  24
ENDBRANCH  22  23
ENDBRANCH  21  22
ENDBRANCH  20  21
ENDBRANCH  19  20
ENDBRANCH  18  19
ENDBRANCH  17  18
ENDBRANCH  16  17
ENDBRANCH  15  16
ENDBRANCH   1  15
TORSDOF 22
ENDMDL
MODEL 8
REMARK VINA RESULT:    15.118      2.043      3.931
REMARK INTER + INTRA:          33.885
REMARK INTER:                  31.518
REMARK INTRA:                   2.366
REMARK UNBOUND:                -0.676
REMARK SMILES CCCCCCCCCCCCCCCCCCCCCCCC(=O)[O-]
REMARK SMILES IDX 13 1 14 2 15 3 16 4 17 5 18 6 19 7 20 8 21 9 22 10 23 11
REMARK SMILES IDX 24 12 25 13 26 14 12 15 11 16 10 17 9 18 8 19 7 20 6 21 5 22
REMARK SMILES IDX 4 23 3 24 2 25 1 26
REMARK H PARENT
REMARK Flexibility Score: inf
ROOT
ATOM      1  C   UNL     1       8.710 -30.110 -14.486  1.00  0.00     0.000 C 
ENDROOT
BRANCH   1   2
ATOM      2  C   UNL     1       8.333 -29.446 -15.826  1.00  0.00     0.000 C 
BRANCH   2   3
ATOM      3  C   UNL     1       7.389 -28.235 -15.720  1.00  0.00     0.000 C 
BRANCH   3   4
ATOM      4  C   UNL     1       6.365 -28.098 -16.865  1.00  0.00     0.000 C 
BRANCH   4   5
ATOM      5  C   UNL     1       6.735 -28.890 -18.138  1.00  0.00     0.000 C 
BRANCH   5   6
ATOM      6  C   UNL     1       6.294 -28.175 -19.427  1.00  0.00     0.000 C 
BRANCH   6   7
ATOM      7  C   UNL     1       6.911 -28.796 -20.693  1.00  0.00     0.000 C 
BRANCH   7   8
ATOM      8  C   UNL     1       8.055 -29.800 -20.442  1.00  0.00     0.000 C 
BRANCH   8   9
ATOM      9  C   UNL     1       8.820 -29.604 -19.120  1.00  0.00     0.000 C 
BRANCH   9  10
ATOM     10  C   UNL     1       9.641 -30.839 -18.717  1.00  0.00     0.006 C 
BRANCH  10  11
ATOM     11  C   UNL     1       9.563 -31.081 -17.206  1.00  0.00     0.053 C 
BRANCH  11  12
ATOM     12  C   UNL     1       9.395 -32.542 -16.918  1.00  0.00     0.041 C 
ATOM     13  O   UNL     1       9.448 -33.385 -17.852  1.00  0.00    -0.550 OA
ATOM     14  O   UNL     1       9.166 -32.971 -15.614  1.00  0.00    -0.550 OA
ENDBRANCH  11  12
ENDBRANCH  10  11
ENDBRANCH   9  10
ENDBRANCH   8   9
ENDBRANCH   7   8
ENDBRANCH   6   7
ENDBRANCH   5   6
ENDBRANCH   4   5
ENDBRANCH   3   4
ENDBRANCH   2   3
ENDBRANCH   1   2
BRANCH   1  15
ATOM     15  C   UNL     1       8.017 -29.488 -13.254  1.00  0.00     0.000 C 
BRANCH  15  16
ATOM     16  C   UNL     1       8.728 -29.834 -11.931  1.00  0.00     0.000 C 
BRANCH  16  17
ATOM     17  C   UNL     1       8.008 -29.278 -10.686  1.00  0.00     0.000 C 
BRANCH  17  18
ATOM     18  C   UNL     1       8.900 -29.136  -9.432  1.00  0.00    -0.000 C 
BRANCH  18  19
ATOM     19  C   UNL     1       9.910 -27.970  -9.446  1.00  0.00    -0.000 C 
BRANCH  19  20
ATOM     20  C   UNL     1       9.316 -26.580  -9.130  1.00  0.00    -0.000 C 
BRANCH  20  21
ATOM     21  C   UNL     1       8.929 -26.366  -7.654  1.00  0.00    -0.000 C 
BRANCH  21  22
ATOM     22  C   UNL     1       8.143 -25.070  -7.371  1.00  0.00    -0.000 C 
BRANCH  22  23
ATOM     23  C   UNL     1       8.234 -24.536  -5.927  1.00  0.00    -0.000 C 
BRANCH  23  24
ATOM     24  C   UNL     1       8.777 -25.526  -4.874  1.00  0.00    -0.000 C 
BRANCH  24  25
ATOM     25  C   UNL     1      10.242 -25.289  -4.461  1.00  0.00    -0.003 C 
ATOM     26  C   UNL     1      11.162 -26.478  -4.739  1.00  0.00     0.004 C 
ENDBRANCH  24  25
ENDBRANCH  23  24
ENDBRANCH  22  23
ENDBRANCH  21  22
ENDBRANCH  20  21
ENDBRANCH  19  20
ENDBRANCH  18  19
ENDBRANCH  17  18
ENDBRANCH  16  17
ENDBRANCH  15  16
ENDBRANCH   1  15
TORSDOF 22
ENDMDL
