MODEL 1
REMARK VINA RESULT:    -5.367      0.000      0.000
REMARK INTER + INTRA:          -6.290
REMARK INTER:                  -6.152
REMARK INTRA:                  -0.138
REMARK UNBOUND:                -0.138
REMARK SMILES O=C([O-])C=Cc1ccc(O)cc1
REMARK SMILES IDX 6 1 7 2 12 3 8 4 11 5 9 6 5 7 4 8 2 9 1 10 3 11 10 12
REMARK H PARENT 10 13
REMARK Flexibility Score: inf
ROOT
ATOM      1  C   UNL     1      -5.968   9.965  -7.575  1.00  0.00    -0.025 A 
ATOM      2  C   UNL     1      -5.454  10.127  -8.872  1.00  0.00     0.012 A 
ATOM      3  C   UNL     1      -5.419  10.733  -6.526  1.00  0.00     0.012 A 
ATOM      4  C   UNL     1      -4.434  11.050  -9.125  1.00  0.00     0.047 A 
ATOM      5  C   UNL     1      -4.399  11.654  -6.783  1.00  0.00     0.047 A 
ATOM      6  C   UNL     1      -3.905  11.817  -8.083  1.00  0.00     0.115 A 
ENDROOT
BRANCH   1   7
ATOM      7  C   UNL     1      -7.043   8.966  -7.356  1.00  0.00     0.010 C 
ATOM      8  C   UNL     1      -7.936   9.037  -6.358  1.00  0.00     0.025 C 
BRANCH   8   9
ATOM      9  C   UNL     1      -8.997   8.033  -6.179  1.00  0.00     0.064 C 
ATOM     10  O   UNL     1      -9.692   7.999  -5.129  1.00  0.00    -0.545 OA
ATOM     11  O   UNL     1      -9.240   7.109  -7.187  1.00  0.00    -0.545 OA
ENDBRANCH   8   9
ENDBRANCH   1   7
BRANCH   6  12
ATOM     12  O   UNL     1      -2.890  12.732  -8.348  1.00  0.00    -0.508 OA
ATOM     13  H   UNL     1      -2.442  12.777  -9.257  1.00  0.00     0.293 HD
ENDBRANCH   6  12
TORSDOF 3
ENDMDL
MODEL 2
REMARK VINA RESULT:    -5.053     17.400     18.539
REMARK INTER + INTRA:          -5.930
REMARK INTER:                  -5.796
REMARK INTRA:                  -0.134
REMARK UNBOUND:                -0.138
REMARK SMILES O=C([O-])C=Cc1ccc(O)cc1
REMARK SMILES IDX 6 1 7 2 12 3 8 4 11 5 9 6 5 7 4 8 2 9 1 10 3 11 10 12
REMARK H PARENT 10 13
REMARK Flexibility Score: inf
ROOT
ATOM      1  C   UNL     1       5.737  10.861   6.602  1.00  0.00    -0.025 A 
ATOM      2  C   UNL     1       5.223  11.196   5.338  1.00  0.00     0.012 A 
ATOM      3  C   UNL     1       7.135  10.884   6.794  1.00  0.00     0.012 A 
ATOM      4  C   UNL     1       6.078  11.570   4.297  1.00  0.00     0.047 A 
ATOM      5  C   UNL     1       7.986  11.258   5.750  1.00  0.00     0.047 A 
ATOM      6  C   UNL     1       7.461  11.604   4.500  1.00  0.00     0.115 A 
ENDROOT
BRANCH   1   7
ATOM      7  C   UNL     1       4.790  10.461   7.672  1.00  0.00     0.010 C 
ATOM      8  C   UNL     1       4.127  11.332   8.445  1.00  0.00     0.025 C 
BRANCH   8   9
ATOM      9  C   UNL     1       3.184  10.899   9.489  1.00  0.00     0.064 C 
ATOM     10  O   UNL     1       3.567  10.198  10.463  1.00  0.00    -0.545 OA
ATOM     11  O   UNL     1       1.849  11.271   9.401  1.00  0.00    -0.545 OA
ENDBRANCH   8   9
ENDBRANCH   1   7
BRANCH   6  12
ATOM     12  O   UNL     1       8.301  11.978   3.454  1.00  0.00    -0.508 OA
ATOM     13  H   UNL     1       9.310  11.949   3.549  1.00  0.00     0.293 HD
ENDBRANCH   6  12
TORSDOF 3
ENDMDL
MODEL 3
REMARK VINA RESULT:    -5.045     17.449     18.640
REMARK INTER + INTRA:          -5.920
REMARK INTER:                  -5.784
REMARK INTRA:                  -0.136
REMARK UNBOUND:                -0.138
REMARK SMILES O=C([O-])C=Cc1ccc(O)cc1
REMARK SMILES IDX 6 1 7 2 12 3 8 4 11 5 9 6 5 7 4 8 2 9 1 10 3 11 10 12
REMARK H PARENT 10 13
REMARK Flexibility Score: inf
ROOT
ATOM      1  C   UNL     1       5.824  10.833   6.615  1.00  0.00    -0.025 A 
ATOM      2  C   UNL     1       7.218  10.897   6.778  1.00  0.00     0.012 A 
ATOM      3  C   UNL     1       5.270  11.183   5.366  1.00  0.00     0.012 A 
ATOM      4  C   UNL     1       8.044  11.276   5.715  1.00  0.00     0.047 A 
ATOM      5  C   UNL     1       6.099  11.562   4.306  1.00  0.00     0.047 A 
ATOM      6  C   UNL     1       7.488  11.607   4.476  1.00  0.00     0.115 A 
ENDROOT
BRANCH   1   7
ATOM      7  C   UNL     1       4.990  10.435   7.777  1.00  0.00     0.010 C 
ATOM      8  C   UNL     1       4.137  11.260   8.399  1.00  0.00     0.025 C 
BRANCH   8   9
ATOM      9  C   UNL     1       3.316  10.826   9.541  1.00  0.00     0.064 C 
ATOM     10  O   UNL     1       3.825  10.203  10.511  1.00  0.00    -0.545 OA
ATOM     11  O   UNL     1       1.957  11.111   9.553  1.00  0.00    -0.545 OA
ENDBRANCH   8   9
ENDBRANCH   1   7
BRANCH   6  12
ATOM     12  O   UNL     1       8.322  11.983   3.426  1.00  0.00    -0.508 OA
ATOM     13  H   UNL     1       8.335  11.471   2.551  1.00  0.00     0.293 HD
ENDBRANCH   6  12
TORSDOF 3
ENDMDL
MODEL 4
REMARK VINA RESULT:    -4.921     18.708     19.860
REMARK INTER + INTRA:          -5.778
REMARK INTER:                  -5.642
REMARK INTRA:                  -0.136
REMARK UNBOUND:                -0.138
REMARK SMILES O=C([O-])C=Cc1ccc(O)cc1
REMARK SMILES IDX 6 1 7 2 12 3 8 4 11 5 9 6 5 7 4 8 2 9 1 10 3 11 10 12
REMARK H PARENT 10 13
REMARK Flexibility Score: inf
ROOT
ATOM      1  C   UNL     1       5.030  11.000   7.670  1.00  0.00    -0.025 A 
ATOM      2  C   UNL     1       4.633  11.962   8.614  1.00  0.00     0.012 A 
ATOM      3  C   UNL     1       4.482   9.703   7.751  1.00  0.00     0.012 A 
ATOM      4  C   UNL     1       3.692  11.647   9.600  1.00  0.00     0.047 A 
ATOM      5  C   UNL     1       3.542   9.392   8.739  1.00  0.00     0.047 A 
ATOM      6  C   UNL     1       3.142  10.364   9.664  1.00  0.00     0.115 A 
ENDROOT
BRANCH   1   7
ATOM      7  C   UNL     1       6.039  11.379   6.650  1.00  0.00     0.010 C 
ATOM      8  C   UNL     1       7.278  10.870   6.601  1.00  0.00     0.025 C 
BRANCH   8   9
ATOM      9  C   UNL     1       8.249  11.261   5.566  1.00  0.00     0.064 C 
ATOM     10  O   UNL     1       7.900  11.397   4.364  1.00  0.00    -0.545 OA
ATOM     11  O   UNL     1       9.572  11.487   5.921  1.00  0.00    -0.545 OA
ENDBRANCH   8   9
ENDBRANCH   1   7
BRANCH   6  12
ATOM     12  O   UNL     1       2.207  10.064  10.651  1.00  0.00    -0.508 OA
ATOM     13  H   UNL     1       2.452   9.506  11.460  1.00  0.00     0.293 HD
ENDBRANCH   6  12
TORSDOF 3
ENDMDL
MODEL 5
REMARK VINA RESULT:    -4.753     17.839     19.551
REMARK INTER + INTRA:          -5.585
REMARK INTER:                  -5.447
REMARK INTRA:                  -0.139
REMARK UNBOUND:                -0.138
REMARK SMILES O=C([O-])C=Cc1ccc(O)cc1
REMARK SMILES IDX 6 1 7 2 12 3 8 4 11 5 9 6 5 7 4 8 2 9 1 10 3 11 10 12
REMARK H PARENT 10 13
REMARK Flexibility Score: inf
ROOT
ATOM      1  C   UNL     1       5.625  10.608   6.898  1.00  0.00    -0.025 A 
ATOM      2  C   UNL     1       4.274  10.513   6.524  1.00  0.00     0.012 A 
ATOM      3  C   UNL     1       5.966  10.445   8.257  1.00  0.00     0.012 A 
ATOM      4  C   UNL     1       3.289  10.237   7.476  1.00  0.00     0.047 A 
ATOM      5  C   UNL     1       4.978  10.170   9.206  1.00  0.00     0.047 A 
ATOM      6  C   UNL     1       3.637  10.062   8.819  1.00  0.00     0.115 A 
ENDROOT
BRANCH   1   7
ATOM      7  C   UNL     1       6.633  10.914   5.852  1.00  0.00     0.010 C 
ATOM      8  C   UNL     1       7.609  11.820   5.999  1.00  0.00     0.025 C 
BRANCH   8   9
ATOM      9  C   UNL     1       8.599  12.088   4.943  1.00  0.00     0.064 C 
ATOM     10  O   UNL     1       9.790  12.385   5.226  1.00  0.00    -0.545 OA
ATOM     11  O   UNL     1       8.216  12.007   3.611  1.00  0.00    -0.545 OA
ENDBRANCH   8   9
ENDBRANCH   1   7
BRANCH   6  12
ATOM     12  O   UNL     1       2.645   9.787   9.756  1.00  0.00    -0.508 OA
ATOM     13  H   UNL     1       2.604   8.896  10.238  1.00  0.00     0.293 HD
ENDBRANCH   6  12
TORSDOF 3
ENDMDL
MODEL 6
REMARK VINA RESULT:    -3.913      1.187      5.907
REMARK INTER + INTRA:          -4.622
REMARK INTER:                  -4.488
REMARK INTRA:                  -0.134
REMARK UNBOUND:                -0.138
REMARK SMILES O=C([O-])C=Cc1ccc(O)cc1
REMARK SMILES IDX 6 1 7 2 12 3 8 4 11 5 9 6 5 7 4 8 2 9 1 10 3 11 10 12
REMARK H PARENT 10 13
REMARK Flexibility Score: inf
ROOT
ATOM      1  C   UNL     1      -7.167   9.981  -6.980  1.00  0.00    -0.025 A 
ATOM      2  C   UNL     1      -8.008  10.578  -6.025  1.00  0.00     0.012 A 
ATOM      3  C   UNL     1      -7.316   8.605  -7.250  1.00  0.00     0.012 A 
ATOM      4  C   UNL     1      -8.991   9.828  -5.373  1.00  0.00     0.047 A 
ATOM      5  C   UNL     1      -8.300   7.858  -6.595  1.00  0.00     0.047 A 
ATOM      6  C   UNL     1      -9.142   8.467  -5.657  1.00  0.00     0.115 A 
ENDROOT
BRANCH   1   7
ATOM      7  C   UNL     1      -6.132  10.817  -7.637  1.00  0.00     0.010 C 
ATOM      8  C   UNL     1      -4.837  10.809  -7.292  1.00  0.00     0.025 C 
BRANCH   8   9
ATOM      9  C   UNL     1      -3.836  11.644  -7.976  1.00  0.00     0.064 C 
ATOM     10  O   UNL     1      -3.371  11.315  -9.100  1.00  0.00    -0.545 OA
ATOM     11  O   UNL     1      -3.397  12.816  -7.374  1.00  0.00    -0.545 OA
ENDBRANCH   8   9
ENDBRANCH   1   7
BRANCH   6  12
ATOM     12  O   UNL     1     -10.125   7.732  -5.000  1.00  0.00    -0.508 OA
ATOM     13  H   UNL     1     -11.107   7.972  -5.079  1.00  0.00     0.293 HD
ENDBRANCH   6  12
TORSDOF 3
ENDMDL
