MODEL 1
REMARK VINA RESULT:    -5.306      0.000      0.000
REMARK INTER + INTRA:          -6.220
REMARK INTER:                  -6.081
REMARK INTRA:                  -0.138
REMARK UNBOUND:                -0.138
REMARK SMILES O=C([O-])C=Cc1ccc(O)cc1
REMARK SMILES IDX 6 1 7 2 12 3 8 4 11 5 9 6 5 7 4 8 2 9 1 10 3 11 10 12
REMARK H PARENT 10 13
REMARK Flexibility Score: inf
ROOT
ATOM      1  C   UNL     1      -3.806  14.728   6.900  1.00  0.00    -0.025 A 
ATOM      2  C   UNL     1      -3.074  15.880   6.544  1.00  0.00     0.012 A 
ATOM      3  C   UNL     1      -3.396  13.986   8.022  1.00  0.00     0.012 A 
ATOM      4  C   UNL     1      -1.949  16.260   7.282  1.00  0.00     0.047 A 
ATOM      5  C   UNL     1      -2.270  14.369   8.756  1.00  0.00     0.047 A 
ATOM      6  C   UNL     1      -1.542  15.503   8.388  1.00  0.00     0.115 A 
ENDROOT
BRANCH   1   7
ATOM      7  C   UNL     1      -5.014  14.286   6.160  1.00  0.00     0.010 C 
ATOM      8  C   UNL     1      -6.101  15.051   5.986  1.00  0.00     0.025 C 
BRANCH   8   9
ATOM      9  C   UNL     1      -7.278  14.583   5.235  1.00  0.00     0.064 C 
ATOM     10  O   UNL     1      -7.301  13.441   4.702  1.00  0.00    -0.545 OA
ATOM     11  O   UNL     1      -8.385  15.414   5.113  1.00  0.00    -0.545 OA
ENDBRANCH   8   9
ENDBRANCH   1   7
BRANCH   6  12
ATOM     12  O   UNL     1      -0.421  15.872   9.129  1.00  0.00    -0.508 OA
ATOM     13  H   UNL     1      -0.431  15.865  10.143  1.00  0.00     0.293 HD
ENDBRANCH   6  12
TORSDOF 3
ENDMDL
MODEL 2
REMARK VINA RESULT:    -5.245      0.112      1.402
REMARK INTER + INTRA:          -6.151
REMARK INTER:                  -6.012
REMARK INTRA:                  -0.138
REMARK UNBOUND:                -0.138
REMARK SMILES O=C([O-])C=Cc1ccc(O)cc1
REMARK SMILES IDX 6 1 7 2 12 3 8 4 11 5 9 6 5 7 4 8 2 9 1 10 3 11 10 12
REMARK H PARENT 10 13
REMARK Flexibility Score: inf
ROOT
ATOM      1  C   UNL     1      -3.883  14.688   6.902  1.00  0.00    -0.025 A 
ATOM      2  C   UNL     1      -3.452  13.951   8.024  1.00  0.00     0.012 A 
ATOM      3  C   UNL     1      -3.137  15.811   6.502  1.00  0.00     0.012 A 
ATOM      4  C   UNL     1      -2.317  14.346   8.737  1.00  0.00     0.047 A 
ATOM      5  C   UNL     1      -2.003  16.204   7.220  1.00  0.00     0.047 A 
ATOM      6  C   UNL     1      -1.591  15.476   8.339  1.00  0.00     0.115 A 
ENDROOT
BRANCH   1   7
ATOM      7  C   UNL     1      -5.073  14.306   6.102  1.00  0.00     0.010 C 
ATOM      8  C   UNL     1      -6.233  14.977   6.127  1.00  0.00     0.025 C 
BRANCH   8   9
ATOM      9  C   UNL     1      -7.391  14.575   5.310  1.00  0.00     0.064 C 
ATOM     10  O   UNL     1      -7.408  13.472   4.701  1.00  0.00    -0.545 OA
ATOM     11  O   UNL     1      -8.485  15.426   5.211  1.00  0.00    -0.545 OA
ENDBRANCH   8   9
ENDBRANCH   1   7
BRANCH   6  12
ATOM     12  O   UNL     1      -0.459  15.880   9.044  1.00  0.00    -0.508 OA
ATOM     13  H   UNL     1       0.099  15.218   9.573  1.00  0.00     0.293 HD
ENDBRANCH   6  12
TORSDOF 3
ENDMDL
MODEL 3
REMARK VINA RESULT:    -5.091      1.424      5.766
REMARK INTER + INTRA:          -5.974
REMARK INTER:                  -5.837
REMARK INTRA:                  -0.136
REMARK UNBOUND:                -0.138
REMARK SMILES O=C([O-])C=Cc1ccc(O)cc1
REMARK SMILES IDX 6 1 7 2 12 3 8 4 11 5 9 6 5 7 4 8 2 9 1 10 3 11 10 12
REMARK H PARENT 10 13
REMARK Flexibility Score: inf
ROOT
ATOM      1  C   UNL     1      -4.376  14.714   7.124  1.00  0.00    -0.025 A 
ATOM      2  C   UNL     1      -4.509  14.238   5.804  1.00  0.00     0.012 A 
ATOM      3  C   UNL     1      -5.433  14.504   8.028  1.00  0.00     0.012 A 
ATOM      4  C   UNL     1      -5.680  13.592   5.398  1.00  0.00     0.047 A 
ATOM      5  C   UNL     1      -6.603  13.859   7.617  1.00  0.00     0.047 A 
ATOM      6  C   UNL     1      -6.732  13.403   6.303  1.00  0.00     0.115 A 
ENDROOT
BRANCH   1   7
ATOM      7  C   UNL     1      -3.151  15.395   7.611  1.00  0.00     0.010 C 
ATOM      8  C   UNL     1      -2.214  14.796   8.359  1.00  0.00     0.025 C 
BRANCH   8   9
ATOM      9  C   UNL     1      -1.004  15.500   8.815  1.00  0.00     0.064 C 
ATOM     10  O   UNL     1      -0.164  15.953   7.992  1.00  0.00    -0.545 OA
ATOM     11  O   UNL     1      -0.786  15.672  10.176  1.00  0.00    -0.545 OA
ENDBRANCH   8   9
ENDBRANCH   1   7
BRANCH   6  12
ATOM     12  O   UNL     1      -7.905  12.763   5.908  1.00  0.00    -0.508 OA
ATOM     13  H   UNL     1      -8.714  12.717   6.518  1.00  0.00     0.293 HD
ENDBRANCH   6  12
TORSDOF 3
ENDMDL
MODEL 4
REMARK VINA RESULT:    -5.048      1.358      1.787
REMARK INTER + INTRA:          -5.924
REMARK INTER:                  -5.790
REMARK INTRA:                  -0.134
REMARK UNBOUND:                -0.138
REMARK SMILES O=C([O-])C=Cc1ccc(O)cc1
REMARK SMILES IDX 6 1 7 2 12 3 8 4 11 5 9 6 5 7 4 8 2 9 1 10 3 11 10 12
REMARK H PARENT 10 13
REMARK Flexibility Score: inf
ROOT
ATOM      1  C   UNL     1      -2.786  15.356   7.632  1.00  0.00    -0.025 A 
ATOM      2  C   UNL     1      -2.008  16.244   6.860  1.00  0.00     0.012 A 
ATOM      3  C   UNL     1      -2.207  14.761   8.767  1.00  0.00     0.012 A 
ATOM      4  C   UNL     1      -0.680  16.507   7.207  1.00  0.00     0.047 A 
ATOM      5  C   UNL     1      -0.877  15.026   9.109  1.00  0.00     0.047 A 
ATOM      6  C   UNL     1      -0.110  15.896   8.331  1.00  0.00     0.115 A 
ENDROOT
BRANCH   1   7
ATOM      7  C   UNL     1      -4.203  15.051   7.316  1.00  0.00     0.010 C 
ATOM      8  C   UNL     1      -4.586  14.067   6.491  1.00  0.00     0.025 C 
BRANCH   8   9
ATOM      9  C   UNL     1      -6.004  13.785   6.210  1.00  0.00     0.064 C 
ATOM     10  O   UNL     1      -6.863  13.779   7.132  1.00  0.00    -0.545 OA
ATOM     11  O   UNL     1      -6.403  13.525   4.905  1.00  0.00    -0.545 OA
ENDBRANCH   8   9
ENDBRANCH   1   7
BRANCH   6  12
ATOM     12  O   UNL     1       1.214  16.150   8.684  1.00  0.00    -0.508 OA
ATOM     13  H   UNL     1       1.632  17.064   8.550  1.00  0.00     0.293 HD
ENDBRANCH   6  12
TORSDOF 3
ENDMDL
MODEL 5
REMARK VINA RESULT:    -4.979      1.424      5.855
REMARK INTER + INTRA:          -5.845
REMARK INTER:                  -5.697
REMARK INTRA:                  -0.148
REMARK UNBOUND:                -0.138
REMARK SMILES O=C([O-])C=Cc1ccc(O)cc1
REMARK SMILES IDX 6 1 7 2 12 3 8 4 11 5 9 6 5 7 4 8 2 9 1 10 3 11 10 12
REMARK H PARENT 10 13
REMARK Flexibility Score: inf
ROOT
ATOM      1  C   UNL     1      -5.310  14.783   6.137  1.00  0.00    -0.025 A 
ATOM      2  C   UNL     1      -5.794  13.704   5.369  1.00  0.00     0.012 A 
ATOM      3  C   UNL     1      -6.228  15.721   6.641  1.00  0.00     0.012 A 
ATOM      4  C   UNL     1      -7.160  13.587   5.096  1.00  0.00     0.047 A 
ATOM      5  C   UNL     1      -7.593  15.600   6.364  1.00  0.00     0.047 A 
ATOM      6  C   UNL     1      -8.063  14.536   5.591  1.00  0.00     0.115 A 
ENDROOT
BRANCH   1   7
ATOM      7  C   UNL     1      -3.873  14.949   6.467  1.00  0.00     0.010 C 
ATOM      8  C   UNL     1      -3.307  16.129   6.757  1.00  0.00     0.025 C 
BRANCH   8   9
ATOM      9  C   UNL     1      -1.878  16.254   7.091  1.00  0.00     0.064 C 
ATOM     10  O   UNL     1      -1.076  16.840   6.316  1.00  0.00    -0.545 OA
ATOM     11  O   UNL     1      -1.407  15.721   8.284  1.00  0.00    -0.545 OA
ENDBRANCH   8   9
ENDBRANCH   1   7
BRANCH   6  12
ATOM     12  O   UNL     1      -9.426  14.430   5.323  1.00  0.00    -0.508 OA
ATOM     13  H   UNL     1     -10.048  13.916   5.938  1.00  0.00     0.293 HD
ENDBRANCH   6  12
TORSDOF 3
ENDMDL
MODEL 6
REMARK VINA RESULT:    -4.935      1.703      6.403
REMARK INTER + INTRA:          -5.794
REMARK INTER:                  -5.646
REMARK INTRA:                  -0.148
REMARK UNBOUND:                -0.138
REMARK SMILES O=C([O-])C=Cc1ccc(O)cc1
REMARK SMILES IDX 6 1 7 2 12 3 8 4 11 5 9 6 5 7 4 8 2 9 1 10 3 11 10 12
REMARK H PARENT 10 13
REMARK Flexibility Score: inf
ROOT
ATOM      1  C   UNL     1      -2.435  15.075   8.222  1.00  0.00    -0.025 A 
ATOM      2  C   UNL     1      -3.340  13.994   8.209  1.00  0.00     0.012 A 
ATOM      3  C   UNL     1      -2.672  16.168   7.369  1.00  0.00     0.012 A 
ATOM      4  C   UNL     1      -4.439  14.001   7.344  1.00  0.00     0.047 A 
ATOM      5  C   UNL     1      -3.771  16.170   6.505  1.00  0.00     0.047 A 
ATOM      6  C   UNL     1      -4.656  15.088   6.488  1.00  0.00     0.115 A 
ENDROOT
BRANCH   1   7
ATOM      7  C   UNL     1      -1.260  15.125   9.128  1.00  0.00     0.010 C 
ATOM      8  C   UNL     1      -0.093  15.696   8.802  1.00  0.00     0.025 C 
BRANCH   8   9
ATOM      9  C   UNL     1       1.049  15.737   9.731  1.00  0.00     0.064 C 
ATOM     10  O   UNL     1       2.125  16.314   9.417  1.00  0.00    -0.545 OA
ATOM     11  O   UNL     1       0.938  15.131  10.976  1.00  0.00    -0.545 OA
ENDBRANCH   8   9
ENDBRANCH   1   7
BRANCH   6  12
ATOM     12  O   UNL     1      -5.746  15.104   5.621  1.00  0.00    -0.508 OA
ATOM     13  H   UNL     1      -6.320  15.933   5.507  1.00  0.00     0.293 HD
ENDBRANCH   6  12
TORSDOF 3
ENDMDL
MODEL 7
REMARK VINA RESULT:    -4.927      3.362      6.820
REMARK INTER + INTRA:          -5.786
REMARK INTER:                  -5.650
REMARK INTRA:                  -0.135
REMARK UNBOUND:                -0.138
REMARK SMILES O=C([O-])C=Cc1ccc(O)cc1
REMARK SMILES IDX 6 1 7 2 12 3 8 4 11 5 9 6 5 7 4 8 2 9 1 10 3 11 10 12
REMARK H PARENT 10 13
REMARK Flexibility Score: inf
ROOT
ATOM      1  C   UNL     1      -8.764  15.852   6.227  1.00  0.00    -0.025 A 
ATOM      2  C   UNL     1      -8.784  16.936   7.129  1.00  0.00     0.012 A 
ATOM      3  C   UNL     1      -9.967  15.459   5.614  1.00  0.00     0.012 A 
ATOM      4  C   UNL     1      -9.984  17.590   7.423  1.00  0.00     0.047 A 
ATOM      5  C   UNL     1     -11.164  16.115   5.913  1.00  0.00     0.047 A 
ATOM      6  C   UNL     1     -11.178  17.179   6.818  1.00  0.00     0.115 A 
ENDROOT
BRANCH   1   7
ATOM      7  C   UNL     1      -7.517  15.131   5.870  1.00  0.00     0.010 C 
ATOM      8  C   UNL     1      -6.611  14.722   6.768  1.00  0.00     0.025 C 
BRANCH   8   9
ATOM      9  C   UNL     1      -5.389  13.998   6.378  1.00  0.00     0.064 C 
ATOM     10  O   UNL     1      -5.281  13.468   5.240  1.00  0.00    -0.545 OA
ATOM     11  O   UNL     1      -4.336  13.901   7.279  1.00  0.00    -0.545 OA
ENDBRANCH   8   9
ENDBRANCH   1   7
BRANCH   6  12
ATOM     12  O   UNL     1     -12.380  17.823   7.106  1.00  0.00    -0.508 OA
ATOM     13  H   UNL     1     -12.408  18.663   7.673  1.00  0.00     0.293 HD
ENDBRANCH   6  12
TORSDOF 3
ENDMDL
MODEL 8
REMARK VINA RESULT:    -4.716      1.461      5.955
REMARK INTER + INTRA:          -5.544
REMARK INTER:                  -5.407
REMARK INTRA:                  -0.137
REMARK UNBOUND:                -0.138
REMARK SMILES O=C([O-])C=Cc1ccc(O)cc1
REMARK SMILES IDX 6 1 7 2 12 3 8 4 11 5 9 6 5 7 4 8 2 9 1 10 3 11 10 12
REMARK H PARENT 10 13
REMARK Flexibility Score: inf
ROOT
ATOM      1  C   UNL     1      -3.896  14.360   8.186  1.00  0.00    -0.025 A 
ATOM      2  C   UNL     1      -4.947  14.739   9.046  1.00  0.00     0.012 A 
ATOM      3  C   UNL     1      -4.190  14.086   6.838  1.00  0.00     0.012 A 
ATOM      4  C   UNL     1      -6.259  14.817   8.569  1.00  0.00     0.047 A 
ATOM      5  C   UNL     1      -5.503  14.165   6.366  1.00  0.00     0.047 A 
ATOM      6  C   UNL     1      -6.541  14.527   7.228  1.00  0.00     0.115 A 
ENDROOT
BRANCH   1   7
ATOM      7  C   UNL     1      -2.485  14.273   8.636  1.00  0.00     0.010 C 
ATOM      8  C   UNL     1      -1.639  15.312   8.637  1.00  0.00     0.025 C 
BRANCH   8   9
ATOM      9  C   UNL     1      -0.247  15.191   9.102  1.00  0.00     0.064 C 
ATOM     10  O   UNL     1       0.096  14.282   9.905  1.00  0.00    -0.545 OA
ATOM     11  O   UNL     1       0.706  16.093   8.646  1.00  0.00    -0.545 OA
ENDBRANCH   8   9
ENDBRANCH   1   7
BRANCH   6  12
ATOM     12  O   UNL     1      -7.845  14.600   6.743  1.00  0.00    -0.508 OA
ATOM     13  H   UNL     1      -8.643  14.402   7.338  1.00  0.00     0.293 HD
ENDBRANCH   6  12
TORSDOF 3
ENDMDL
MODEL 9
REMARK VINA RESULT:    -4.641      2.931      4.097
REMARK INTER + INTRA:          -5.458
REMARK INTER:                  -5.306
REMARK INTRA:                  -0.152
REMARK UNBOUND:                -0.138
REMARK SMILES O=C([O-])C=Cc1ccc(O)cc1
REMARK SMILES IDX 6 1 7 2 12 3 8 4 11 5 9 6 5 7 4 8 2 9 1 10 3 11 10 12
REMARK H PARENT 10 13
REMARK Flexibility Score: inf
ROOT
ATOM      1  C   UNL     1      -7.433  14.974   6.449  1.00  0.00    -0.025 A 
ATOM      2  C   UNL     1      -6.603  14.294   5.534  1.00  0.00     0.012 A 
ATOM      3  C   UNL     1      -6.961  15.197   7.755  1.00  0.00     0.012 A 
ATOM      4  C   UNL     1      -5.344  13.831   5.929  1.00  0.00     0.047 A 
ATOM      5  C   UNL     1      -5.702  14.731   8.145  1.00  0.00     0.047 A 
ATOM      6  C   UNL     1      -4.892  14.046   7.237  1.00  0.00     0.115 A 
ENDROOT
BRANCH   1   7
ATOM      7  C   UNL     1      -8.772  15.496   6.080  1.00  0.00     0.010 C 
ATOM      8  C   UNL     1      -9.605  16.088   6.947  1.00  0.00     0.025 C 
BRANCH   8   9
ATOM      9  C   UNL     1     -10.923  16.606   6.542  1.00  0.00     0.064 C 
ATOM     10  O   UNL     1     -11.719  15.903   5.863  1.00  0.00    -0.545 OA
ATOM     11  O   UNL     1     -11.297  17.889   6.919  1.00  0.00    -0.545 OA
ENDBRANCH   8   9
ENDBRANCH   1   7
BRANCH   6  12
ATOM     12  O   UNL     1      -3.640  13.587   7.640  1.00  0.00    -0.508 OA
ATOM     13  H   UNL     1      -3.536  12.953   8.425  1.00  0.00     0.293 HD
ENDBRANCH   6  12
TORSDOF 3
ENDMDL
