MODEL 1
REMARK VINA RESULT:    -5.143      0.000      0.000
REMARK INTER + INTRA:         -17.277
REMARK INTER:                 -12.959
REMARK INTRA:                  -4.318
REMARK UNBOUND:                -4.318
REMARK SMILES CCCCCCCCCCCCCCCCCCCCCCCCCCCC(=O)[O-]
REMARK SMILES IDX 15 1 16 2 17 3 18 4 19 5 20 6 21 7 22 8 23 9 24 10 25 11
REMARK SMILES IDX 26 12 27 13 28 14 29 15 30 16 14 17 13 18 12 19 11 20 10 21
REMARK SMILES IDX 9 22 8 23 7 24 6 25 5 26 4 27 3 28 2 29 1 30
REMARK H PARENT
REMARK Flexibility Score: inf
ROOT
ATOM      1  C   UNL     1      17.251  32.712  57.653  1.00  0.00     0.000 C 
ENDROOT
BRANCH   1   2
ATOM      2  C   UNL     1      15.932  33.488  57.461  1.00  0.00     0.000 C 
BRANCH   2   3
ATOM      3  C   UNL     1      14.657  32.718  57.850  1.00  0.00     0.000 C 
BRANCH   3   4
ATOM      4  C   UNL     1      14.951  31.328  58.433  1.00  0.00     0.000 C 
BRANCH   4   5
ATOM      5  C   UNL     1      13.737  30.397  58.278  1.00  0.00     0.000 C 
BRANCH   5   6
ATOM      6  C   UNL     1      12.402  31.105  58.589  1.00  0.00     0.000 C 
BRANCH   6   7
ATOM      7  C   UNL     1      11.170  30.188  58.506  1.00  0.00     0.000 C 
BRANCH   7   8
ATOM      8  C   UNL     1      10.544  29.891  59.877  1.00  0.00     0.000 C 
BRANCH   8   9
ATOM      9  C   UNL     1      11.325  28.835  60.679  1.00  0.00     0.000 C 
BRANCH   9  10
ATOM     10  C   UNL     1      12.066  29.404  61.907  1.00  0.00     0.000 C 
BRANCH  10  11
ATOM     11  C   UNL     1      13.592  29.400  61.730  1.00  0.00     0.000 C 
BRANCH  11  12
ATOM     12  C   UNL     1      14.240  28.306  62.593  1.00  0.00     0.006 C 
BRANCH  12  13
ATOM     13  C   UNL     1      15.331  28.863  63.517  1.00  0.00     0.053 C 
BRANCH  13  14
ATOM     14  C   UNL     1      16.587  29.189  62.766  1.00  0.00     0.041 C 
ATOM     15  O   UNL     1      16.924  30.389  62.587  1.00  0.00    -0.550 OA
ATOM     16  O   UNL     1      17.372  28.167  62.247  1.00  0.00    -0.550 OA
ENDBRANCH  13  14
ENDBRANCH  12  13
ENDBRANCH  11  12
ENDBRANCH  10  11
ENDBRANCH   9  10
ENDBRANCH   8   9
ENDBRANCH   7   8
ENDBRANCH   6   7
ENDBRANCH   5   6
ENDBRANCH   4   5
ENDBRANCH   3   4
ENDBRANCH   2   3
ENDBRANCH   1   2
BRANCH   1  17
ATOM     17  C   UNL     1      18.010  32.375  56.358  1.00  0.00     0.000 C 
BRANCH  17  18
ATOM     18  C   UNL     1      17.073  32.055  55.182  1.00  0.00     0.000 C 
BRANCH  18  19
ATOM     19  C   UNL     1      16.707  30.562  55.094  1.00  0.00     0.000 C 
BRANCH  19  20
ATOM     20  C   UNL     1      15.202  30.259  54.951  1.00  0.00     0.000 C 
BRANCH  20  21
ATOM     21  C   UNL     1      14.476  31.256  54.031  1.00  0.00     0.000 C 
BRANCH  21  22
ATOM     22  C   UNL     1      13.289  31.951  54.721  1.00  0.00    -0.000 C 
BRANCH  22  23
ATOM     23  C   UNL     1      13.133  33.450  54.402  1.00  0.00    -0.000 C 
BRANCH  23  24
ATOM     24  C   UNL     1      14.373  34.077  53.729  1.00  0.00    -0.000 C 
BRANCH  24  25
ATOM     25  C   UNL     1      14.914  35.282  54.519  1.00  0.00    -0.000 C 
BRANCH  25  26
ATOM     26  C   UNL     1      16.407  35.538  54.257  1.00  0.00    -0.000 C 
BRANCH  26  27
ATOM     27  C   UNL     1      16.975  36.672  55.130  1.00  0.00    -0.000 C 
BRANCH  27  28
ATOM     28  C   UNL     1      16.228  36.799  56.476  1.00  0.00    -0.000 C 
BRANCH  28  29
ATOM     29  C   UNL     1      16.945  37.700  57.495  1.00  0.00    -0.003 C 
ATOM     30  C   UNL     1      18.080  38.517  56.877  1.00  0.00     0.004 C 
ENDBRANCH  28  29
ENDBRANCH  27  28
ENDBRANCH  26  27
ENDBRANCH  25  26
ENDBRANCH  24  25
ENDBRANCH  23  24
ENDBRANCH  22  23
ENDBRANCH  21  22
ENDBRANCH  20  21
ENDBRANCH  19  20
ENDBRANCH  18  19
ENDBRANCH  17  18
ENDBRANCH   1  17
TORSDOF 26
ENDMDL
MODEL 2
REMARK VINA RESULT:    -5.025      0.923      1.720
REMARK INTER + INTRA:         -16.981
REMARK INTER:                 -12.252
REMARK INTRA:                  -4.729
REMARK UNBOUND:                -4.318
REMARK SMILES CCCCCCCCCCCCCCCCCCCCCCCCCCCC(=O)[O-]
REMARK SMILES IDX 15 1 16 2 17 3 18 4 19 5 20 6 21 7 22 8 23 9 24 10 25 11
REMARK SMILES IDX 26 12 27 13 28 14 29 15 30 16 14 17 13 18 12 19 11 20 10 21
REMARK SMILES IDX 9 22 8 23 7 24 6 25 5 26 4 27 3 28 2 29 1 30
REMARK H PARENT
REMARK Flexibility Score: inf
ROOT
ATOM      1  C   UNL     1      17.760  32.194  58.137  1.00  0.00     0.000 C 
ENDROOT
BRANCH   1   2
ATOM      2  C   UNL     1      16.470  32.955  57.766  1.00  0.00     0.000 C 
BRANCH   2   3
ATOM      3  C   UNL     1      15.158  32.233  58.123  1.00  0.00     0.000 C 
BRANCH   3   4
ATOM      4  C   UNL     1      15.209  30.724  57.840  1.00  0.00     0.000 C 
BRANCH   4   5
ATOM      5  C   UNL     1      13.866  30.054  58.172  1.00  0.00     0.000 C 
BRANCH   5   6
ATOM      6  C   UNL     1      12.713  31.071  58.308  1.00  0.00     0.000 C 
BRANCH   6   7
ATOM      7  C   UNL     1      11.368  30.447  58.716  1.00  0.00     0.000 C 
BRANCH   7   8
ATOM      8  C   UNL     1      11.525  29.160  59.540  1.00  0.00     0.000 C 
BRANCH   8   9
ATOM      9  C   UNL     1      10.873  29.252  60.931  1.00  0.00     0.000 C 
BRANCH   9  10
ATOM     10  C   UNL     1      11.845  29.682  62.050  1.00  0.00     0.000 C 
BRANCH  10  11
ATOM     11  C   UNL     1      13.249  29.081  61.876  1.00  0.00     0.000 C 
BRANCH  11  12
ATOM     12  C   UNL     1      14.319  30.185  61.870  1.00  0.00     0.006 C 
BRANCH  12  13
ATOM     13  C   UNL     1      15.686  29.666  61.405  1.00  0.00     0.053 C 
BRANCH  13  14
ATOM     14  C   UNL     1      16.443  29.007  62.518  1.00  0.00     0.041 C 
ATOM     15  O   UNL     1      17.350  28.173  62.259  1.00  0.00    -0.550 OA
ATOM     16  O   UNL     1      16.130  29.299  63.840  1.00  0.00    -0.550 OA
ENDBRANCH  13  14
ENDBRANCH  12  13
ENDBRANCH  11  12
ENDBRANCH  10  11
ENDBRANCH   9  10
ENDBRANCH   8   9
ENDBRANCH   7   8
ENDBRANCH   6   7
ENDBRANCH   5   6
ENDBRANCH   4   5
ENDBRANCH   3   4
ENDBRANCH   2   3
ENDBRANCH   1   2
BRANCH   1  17
ATOM     17  C   UNL     1      18.766  32.007  56.989  1.00  0.00     0.000 C 
BRANCH  17  18
ATOM     18  C   UNL     1      18.348  32.737  55.702  1.00  0.00     0.000 C 
BRANCH  18  19
ATOM     19  C   UNL     1      18.392  31.830  54.457  1.00  0.00     0.000 C 
BRANCH  19  20
ATOM     20  C   UNL     1      17.904  30.385  54.677  1.00  0.00     0.000 C 
BRANCH  20  21
ATOM     21  C   UNL     1      16.802  29.967  53.686  1.00  0.00     0.000 C 
BRANCH  21  22
ATOM     22  C   UNL     1      15.385  30.230  54.224  1.00  0.00    -0.000 C 
BRANCH  22  23
ATOM     23  C   UNL     1      14.716  31.517  53.705  1.00  0.00    -0.000 C 
BRANCH  23  24
ATOM     24  C   UNL     1      13.602  32.056  54.628  1.00  0.00    -0.000 C 
BRANCH  24  25
ATOM     25  C   UNL     1      13.797  33.546  54.963  1.00  0.00    -0.000 C 
BRANCH  25  26
ATOM     26  C   UNL     1      15.194  34.059  54.580  1.00  0.00    -0.000 C 
BRANCH  26  27
ATOM     27  C   UNL     1      15.222  35.581  54.352  1.00  0.00    -0.000 C 
BRANCH  27  28
ATOM     28  C   UNL     1      16.376  36.263  55.120  1.00  0.00    -0.000 C 
BRANCH  28  29
ATOM     29  C   UNL     1      16.049  36.547  56.596  1.00  0.00    -0.003 C 
ATOM     30  C   UNL     1      16.966  37.598  57.220  1.00  0.00     0.004 C 
ENDBRANCH  28  29
ENDBRANCH  27  28
ENDBRANCH  26  27
ENDBRANCH  25  26
ENDBRANCH  24  25
ENDBRANCH  23  24
ENDBRANCH  22  23
ENDBRANCH  21  22
ENDBRANCH  20  21
ENDBRANCH  19  20
ENDBRANCH  18  19
ENDBRANCH  17  18
ENDBRANCH   1  17
TORSDOF 26
ENDMDL
MODEL 3
REMARK VINA RESULT:    -4.852      2.863      8.553
REMARK INTER + INTRA:         -16.544
REMARK INTER:                 -12.500
REMARK INTRA:                  -4.044
REMARK UNBOUND:                -4.318
REMARK SMILES CCCCCCCCCCCCCCCCCCCCCCCCCCCC(=O)[O-]
REMARK SMILES IDX 15 1 16 2 17 3 18 4 19 5 20 6 21 7 22 8 23 9 24 10 25 11
REMARK SMILES IDX 26 12 27 13 28 14 29 15 30 16 14 17 13 18 12 19 11 20 10 21
REMARK SMILES IDX 9 22 8 23 7 24 6 25 5 26 4 27 3 28 2 29 1 30
REMARK H PARENT
REMARK Flexibility Score: inf
ROOT
ATOM      1  C   UNL     1      14.855  31.768  58.417  1.00  0.00     0.000 C 
ENDROOT
BRANCH   1   2
ATOM      2  C   UNL     1      15.343  33.108  57.830  1.00  0.00     0.000 C 
BRANCH   2   3
ATOM      3  C   UNL     1      16.841  33.162  57.480  1.00  0.00     0.000 C 
BRANCH   3   4
ATOM      4  C   UNL     1      17.384  31.823  56.959  1.00  0.00     0.000 C 
BRANCH   4   5
ATOM      5  C   UNL     1      17.216  31.715  55.435  1.00  0.00     0.000 C 
BRANCH   5   6
ATOM      6  C   UNL     1      16.585  30.375  55.001  1.00  0.00     0.000 C 
BRANCH   6   7
ATOM      7  C   UNL     1      15.053  30.334  55.119  1.00  0.00     0.000 C 
BRANCH   7   8
ATOM      8  C   UNL     1      14.346  31.308  54.164  1.00  0.00     0.000 C 
BRANCH   8   9
ATOM      9  C   UNL     1      13.174  32.055  54.824  1.00  0.00     0.000 C 
BRANCH   9  10
ATOM     10  C   UNL     1      13.099  33.551  54.458  1.00  0.00     0.000 C 
BRANCH  10  11
ATOM     11  C   UNL     1      14.467  34.248  54.535  1.00  0.00     0.000 C 
BRANCH  11  12
ATOM     12  C   UNL     1      14.321  35.684  55.063  1.00  0.00     0.006 C 
BRANCH  12  13
ATOM     13  C   UNL     1      15.606  36.191  55.731  1.00  0.00     0.053 C 
BRANCH  13  14
ATOM     14  C   UNL     1      16.775  36.156  54.794  1.00  0.00     0.041 C 
ATOM     15  O   UNL     1      16.767  36.851  53.745  1.00  0.00    -0.550 OA
ATOM     16  O   UNL     1      17.864  35.337  55.072  1.00  0.00    -0.550 OA
ENDBRANCH  13  14
ENDBRANCH  12  13
ENDBRANCH  11  12
ENDBRANCH  10  11
ENDBRANCH   9  10
ENDBRANCH   8   9
ENDBRANCH   7   8
ENDBRANCH   6   7
ENDBRANCH   5   6
ENDBRANCH   4   5
ENDBRANCH   3   4
ENDBRANCH   2   3
ENDBRANCH   1   2
BRANCH   1  17
ATOM     17  C   UNL     1      13.375  31.735  58.835  1.00  0.00     0.000 C 
BRANCH  17  18
ATOM     18  C   UNL     1      12.698  30.387  58.536  1.00  0.00     0.000 C 
BRANCH  18  19
ATOM     19  C   UNL     1      11.160  30.476  58.530  1.00  0.00     0.000 C 
BRANCH  19  20
ATOM     20  C   UNL     1      10.450  29.675  59.639  1.00  0.00     0.000 C 
BRANCH  20  21
ATOM     21  C   UNL     1      11.432  28.946  60.574  1.00  0.00     0.000 C 
BRANCH  21  22
ATOM     22  C   UNL     1      11.614  29.661  61.924  1.00  0.00    -0.000 C 
BRANCH  22  23
ATOM     23  C   UNL     1      13.044  30.157  62.215  1.00  0.00    -0.000 C 
BRANCH  23  24
ATOM     24  C   UNL     1      14.139  29.109  61.922  1.00  0.00    -0.000 C 
BRANCH  24  25
ATOM     25  C   UNL     1      15.516  29.758  61.693  1.00  0.00    -0.000 C 
BRANCH  25  26
ATOM     26  C   UNL     1      16.609  29.153  62.588  1.00  0.00    -0.000 C 
BRANCH  26  27
ATOM     27  C   UNL     1      16.042  28.544  63.884  1.00  0.00    -0.000 C 
BRANCH  27  28
ATOM     28  C   UNL     1      16.648  27.156  64.187  1.00  0.00    -0.000 C 
BRANCH  28  29
ATOM     29  C   UNL     1      17.831  26.789  63.276  1.00  0.00    -0.003 C 
ATOM     30  C   UNL     1      18.689  25.655  63.837  1.00  0.00     0.004 C 
ENDBRANCH  28  29
ENDBRANCH  27  28
ENDBRANCH  26  27
ENDBRANCH  25  26
ENDBRANCH  24  25
ENDBRANCH  23  24
ENDBRANCH  22  23
ENDBRANCH  21  22
ENDBRANCH  20  21
ENDBRANCH  19  20
ENDBRANCH  18  19
ENDBRANCH  17  18
ENDBRANCH   1  17
TORSDOF 26
ENDMDL
MODEL 4
REMARK VINA RESULT:    -4.828      3.835      6.223
REMARK INTER + INTRA:         -16.483
REMARK INTER:                 -12.582
REMARK INTRA:                  -3.901
REMARK UNBOUND:                -4.318
REMARK SMILES CCCCCCCCCCCCCCCCCCCCCCCCCCCC(=O)[O-]
REMARK SMILES IDX 15 1 16 2 17 3 18 4 19 5 20 6 21 7 22 8 23 9 24 10 25 11
REMARK SMILES IDX 26 12 27 13 28 14 29 15 30 16 14 17 13 18 12 19 11 20 10 21
REMARK SMILES IDX 9 22 8 23 7 24 6 25 5 26 4 27 3 28 2 29 1 30
REMARK H PARENT
REMARK Flexibility Score: inf
ROOT
ATOM      1  C   UNL     1      16.105  29.760  60.446  1.00  0.00     0.000 C 
ENDROOT
BRANCH   1   2
ATOM      2  C   UNL     1      16.293  29.807  61.976  1.00  0.00     0.000 C 
BRANCH   2   3
ATOM      3  C   UNL     1      15.000  29.663  62.799  1.00  0.00     0.000 C 
BRANCH   3   4
ATOM      4  C   UNL     1      14.420  28.241  62.762  1.00  0.00     0.000 C 
BRANCH   4   5
ATOM      5  C   UNL     1      13.040  28.225  62.086  1.00  0.00     0.000 C 
BRANCH   5   6
ATOM      6  C   UNL     1      12.294  29.568  62.227  1.00  0.00     0.000 C 
BRANCH   6   7
ATOM      7  C   UNL     1      10.963  29.632  61.458  1.00  0.00     0.000 C 
BRANCH   7   8
ATOM      8  C   UNL     1      10.980  28.822  60.153  1.00  0.00     0.000 C 
BRANCH   8   9
ATOM      9  C   UNL     1       9.716  29.030  59.299  1.00  0.00     0.000 C 
BRANCH   9  10
ATOM     10  C   UNL     1       8.688  29.993  59.928  1.00  0.00     0.000 C 
BRANCH  10  11
ATOM     11  C   UNL     1       8.239  31.095  58.956  1.00  0.00     0.000 C 
BRANCH  11  12
ATOM     12  C   UNL     1       7.120  31.948  59.575  1.00  0.00     0.006 C 
BRANCH  12  13
ATOM     13  C   UNL     1       6.289  32.678  58.511  1.00  0.00     0.053 C 
BRANCH  13  14
ATOM     14  C   UNL     1       5.841  34.029  58.979  1.00  0.00     0.041 C 
ATOM     15  O   UNL     1       4.614  34.293  59.073  1.00  0.00    -0.550 OA
ATOM     16  O   UNL     1       6.782  35.004  59.291  1.00  0.00    -0.550 OA
ENDBRANCH  13  14
ENDBRANCH  12  13
ENDBRANCH  11  12
ENDBRANCH  10  11
ENDBRANCH   9  10
ENDBRANCH   8   9
ENDBRANCH   7   8
ENDBRANCH   6   7
ENDBRANCH   5   6
ENDBRANCH   4   5
ENDBRANCH   3   4
ENDBRANCH   2   3
ENDBRANCH   1   2
BRANCH   1  17
ATOM     17  C   UNL     1      14.884  30.529  59.911  1.00  0.00     0.000 C 
BRANCH  17  18
ATOM     18  C   UNL     1      14.280  29.890  58.650  1.00  0.00     0.000 C 
BRANCH  18  19
ATOM     19  C   UNL     1      13.249  30.797  57.952  1.00  0.00     0.000 C 
BRANCH  19  20
ATOM     20  C   UNL     1      13.602  31.207  56.509  1.00  0.00     0.000 C 
BRANCH  20  21
ATOM     21  C   UNL     1      14.524  30.194  55.807  1.00  0.00     0.000 C 
BRANCH  21  22
ATOM     22  C   UNL     1      14.873  30.602  54.365  1.00  0.00    -0.000 C 
BRANCH  22  23
ATOM     23  C   UNL     1      16.256  31.254  54.185  1.00  0.00    -0.000 C 
BRANCH  23  24
ATOM     24  C   UNL     1      17.303  30.791  55.221  1.00  0.00    -0.000 C 
BRANCH  24  25
ATOM     25  C   UNL     1      18.428  31.825  55.411  1.00  0.00    -0.000 C 
BRANCH  25  26
ATOM     26  C   UNL     1      18.504  32.355  56.852  1.00  0.00    -0.000 C 
BRANCH  26  27
ATOM     27  C   UNL     1      17.241  32.027  57.670  1.00  0.00    -0.000 C 
BRANCH  27  28
ATOM     28  C   UNL     1      16.344  33.266  57.876  1.00  0.00    -0.000 C 
BRANCH  28  29
ATOM     29  C   UNL     1      16.492  34.324  56.770  1.00  0.00    -0.003 C 
ATOM     30  C   UNL     1      15.227  34.495  55.930  1.00  0.00     0.004 C 
ENDBRANCH  28  29
ENDBRANCH  27  28
ENDBRANCH  26  27
ENDBRANCH  25  26
ENDBRANCH  24  25
ENDBRANCH  23  24
ENDBRANCH  22  23
ENDBRANCH  21  22
ENDBRANCH  20  21
ENDBRANCH  19  20
ENDBRANCH  18  19
ENDBRANCH  17  18
ENDBRANCH   1  17
TORSDOF 26
ENDMDL
MODEL 5
REMARK VINA RESULT:    -4.775      2.491      3.654
REMARK INTER + INTRA:         -16.350
REMARK INTER:                 -12.969
REMARK INTRA:                  -3.381
REMARK UNBOUND:                -4.318
REMARK SMILES CCCCCCCCCCCCCCCCCCCCCCCCCCCC(=O)[O-]
REMARK SMILES IDX 15 1 16 2 17 3 18 4 19 5 20 6 21 7 22 8 23 9 24 10 25 11
REMARK SMILES IDX 26 12 27 13 28 14 29 15 30 16 14 17 13 18 12 19 11 20 10 21
REMARK SMILES IDX 9 22 8 23 7 24 6 25 5 26 4 27 3 28 2 29 1 30
REMARK H PARENT
REMARK Flexibility Score: inf
ROOT
ATOM      1  C   UNL     1      18.166  32.393  54.925  1.00  0.00     0.000 C 
ENDROOT
BRANCH   1   2
ATOM      2  C   UNL     1      17.620  31.661  56.168  1.00  0.00     0.000 C 
BRANCH   2   3
ATOM      3  C   UNL     1      18.074  32.241  57.520  1.00  0.00     0.000 C 
BRANCH   3   4
ATOM      4  C   UNL     1      17.134  31.869  58.678  1.00  0.00     0.000 C 
BRANCH   4   5
ATOM      5  C   UNL     1      15.848  31.211  58.154  1.00  0.00     0.000 C 
BRANCH   5   6
ATOM      6  C   UNL     1      15.083  30.443  59.253  1.00  0.00     0.000 C 
BRANCH   6   7
ATOM      7  C   UNL     1      15.964  29.983  60.427  1.00  0.00     0.000 C 
BRANCH   7   8
ATOM      8  C   UNL     1      15.226  29.988  61.774  1.00  0.00     0.000 C 
BRANCH   8   9
ATOM      9  C   UNL     1      14.984  28.575  62.333  1.00  0.00     0.000 C 
BRANCH   9  10
ATOM     10  C   UNL     1      13.497  28.164  62.374  1.00  0.00     0.000 C 
BRANCH  10  11
ATOM     11  C   UNL     1      12.569  29.248  61.803  1.00  0.00     0.000 C 
BRANCH  11  12
ATOM     12  C   UNL     1      11.697  28.681  60.671  1.00  0.00     0.006 C 
BRANCH  12  13
ATOM     13  C   UNL     1      11.467  29.702  59.548  1.00  0.00     0.053 C 
BRANCH  13  14
ATOM     14  C   UNL     1      10.035  29.737  59.109  1.00  0.00     0.041 C 
ATOM     15  O   UNL     1       9.326  30.751  59.340  1.00  0.00    -0.550 OA
ATOM     16  O   UNL     1       9.478  28.639  58.462  1.00  0.00    -0.550 OA
ENDBRANCH  13  14
ENDBRANCH  12  13
ENDBRANCH  11  12
ENDBRANCH  10  11
ENDBRANCH   9  10
ENDBRANCH   8   9
ENDBRANCH   7   8
ENDBRANCH   6   7
ENDBRANCH   5   6
ENDBRANCH   4   5
ENDBRANCH   3   4
ENDBRANCH   2   3
ENDBRANCH   1   2
BRANCH   1  17
ATOM     17  C   UNL     1      17.931  31.675  53.585  1.00  0.00     0.000 C 
BRANCH  17  18
ATOM     18  C   UNL     1      17.970  30.143  53.711  1.00  0.00     0.000 C 
BRANCH  18  19
ATOM     19  C   UNL     1      16.694  29.464  53.178  1.00  0.00     0.000 C 
BRANCH  19  20
ATOM     20  C   UNL     1      15.388  30.254  53.393  1.00  0.00     0.000 C 
BRANCH  20  21
ATOM     21  C   UNL     1      14.819  30.095  54.815  1.00  0.00     0.000 C 
BRANCH  21  22
ATOM     22  C   UNL     1      13.908  31.263  55.228  1.00  0.00    -0.000 C 
BRANCH  22  23
ATOM     23  C   UNL     1      13.777  32.392  54.188  1.00  0.00    -0.000 C 
BRANCH  23  24
ATOM     24  C   UNL     1      14.746  33.571  54.422  1.00  0.00    -0.000 C 
BRANCH  24  25
ATOM     25  C   UNL     1      14.009  34.848  54.863  1.00  0.00    -0.000 C 
BRANCH  25  26
ATOM     26  C   UNL     1      14.961  35.912  55.433  1.00  0.00    -0.000 C 
BRANCH  26  27
ATOM     27  C   UNL     1      16.291  35.990  54.660  1.00  0.00    -0.000 C 
BRANCH  27  28
ATOM     28  C   UNL     1      17.456  36.466  55.555  1.00  0.00    -0.000 C 
BRANCH  28  29
ATOM     29  C   UNL     1      16.998  37.246  56.798  1.00  0.00    -0.003 C 
ATOM     30  C   UNL     1      17.677  38.609  56.933  1.00  0.00     0.004 C 
ENDBRANCH  28  29
ENDBRANCH  27  28
ENDBRANCH  26  27
ENDBRANCH  25  26
ENDBRANCH  24  25
ENDBRANCH  23  24
ENDBRANCH  22  23
ENDBRANCH  21  22
ENDBRANCH  20  21
ENDBRANCH  19  20
ENDBRANCH  18  19
ENDBRANCH  17  18
ENDBRANCH   1  17
TORSDOF 26
ENDMDL
MODEL 6
REMARK VINA RESULT:    -4.767      2.853      5.267
REMARK INTER + INTRA:         -16.329
REMARK INTER:                 -12.381
REMARK INTRA:                  -3.948
REMARK UNBOUND:                -4.318
REMARK SMILES CCCCCCCCCCCCCCCCCCCCCCCCCCCC(=O)[O-]
REMARK SMILES IDX 15 1 16 2 17 3 18 4 19 5 20 6 21 7 22 8 23 9 24 10 25 11
REMARK SMILES IDX 26 12 27 13 28 14 29 15 30 16 14 17 13 18 12 19 11 20 10 21
REMARK SMILES IDX 9 22 8 23 7 24 6 25 5 26 4 27 3 28 2 29 1 30
REMARK H PARENT
REMARK Flexibility Score: inf
ROOT
ATOM      1  C   UNL     1      14.926  30.091  57.724  1.00  0.00     0.000 C 
ENDROOT
BRANCH   1   2
ATOM      2  C   UNL     1      15.514  30.873  58.916  1.00  0.00     0.000 C 
BRANCH   2   3
ATOM      3  C   UNL     1      15.877  30.019  60.144  1.00  0.00     0.000 C 
BRANCH   3   4
ATOM      4  C   UNL     1      17.067  30.583  60.935  1.00  0.00     0.000 C 
BRANCH   4   5
ATOM      5  C   UNL     1      17.161  29.936  62.326  1.00  0.00     0.000 C 
BRANCH   5   6
ATOM      6  C   UNL     1      16.437  28.575  62.400  1.00  0.00     0.000 C 
BRANCH   6   7
ATOM      7  C   UNL     1      15.269  28.538  63.399  1.00  0.00     0.000 C 
BRANCH   7   8
ATOM      8  C   UNL     1      13.965  28.006  62.785  1.00  0.00     0.000 C 
BRANCH   8   9
ATOM      9  C   UNL     1      13.186  29.080  62.005  1.00  0.00     0.000 C 
BRANCH   9  10
ATOM     10  C   UNL     1      12.389  28.527  60.805  1.00  0.00     0.000 C 
BRANCH  10  11
ATOM     11  C   UNL     1      11.596  29.618  60.069  1.00  0.00     0.000 C 
BRANCH  11  12
ATOM     12  C   UNL     1      10.290  29.050  59.491  1.00  0.00     0.006 C 
BRANCH  12  13
ATOM     13  C   UNL     1       9.166  28.998  60.534  1.00  0.00     0.053 C 
BRANCH  13  14
ATOM     14  C   UNL     1       8.165  30.096  60.334  1.00  0.00     0.041 C 
ATOM     15  O   UNL     1       8.324  30.937  59.412  1.00  0.00    -0.550 OA
ATOM     16  O   UNL     1       7.069  30.200  61.183  1.00  0.00    -0.550 OA
ENDBRANCH  13  14
ENDBRANCH  12  13
ENDBRANCH  11  12
ENDBRANCH  10  11
ENDBRANCH   9  10
ENDBRANCH   8   9
ENDBRANCH   7   8
ENDBRANCH   6   7
ENDBRANCH   5   6
ENDBRANCH   4   5
ENDBRANCH   3   4
ENDBRANCH   2   3
ENDBRANCH   1   2
BRANCH   1  17
ATOM     17  C   UNL     1      13.734  30.763  57.020  1.00  0.00     0.000 C 
BRANCH  17  18
ATOM     18  C   UNL     1      13.940  30.912  55.504  1.00  0.00     0.000 C 
BRANCH  18  19
ATOM     19  C   UNL     1      13.451  32.268  54.962  1.00  0.00     0.000 C 
BRANCH  19  20
ATOM     20  C   UNL     1      13.998  32.660  53.576  1.00  0.00     0.000 C 
BRANCH  20  21
ATOM     21  C   UNL     1      14.140  34.182  53.396  1.00  0.00     0.000 C 
BRANCH  21  22
ATOM     22  C   UNL     1      13.956  34.959  54.711  1.00  0.00    -0.000 C 
BRANCH  22  23
ATOM     23  C   UNL     1      15.028  36.029  54.995  1.00  0.00    -0.000 C 
BRANCH  23  24
ATOM     24  C   UNL     1      16.342  35.457  55.569  1.00  0.00    -0.000 C 
BRANCH  24  25
ATOM     25  C   UNL     1      16.117  34.702  56.891  1.00  0.00    -0.000 C 
BRANCH  25  26
ATOM     26  C   UNL     1      16.875  33.366  56.944  1.00  0.00    -0.000 C 
BRANCH  26  27
ATOM     27  C   UNL     1      17.126  32.773  55.545  1.00  0.00    -0.000 C 
BRANCH  27  28
ATOM     28  C   UNL     1      17.794  31.383  55.614  1.00  0.00    -0.000 C 
BRANCH  28  29
ATOM     29  C   UNL     1      17.383  30.446  54.466  1.00  0.00    -0.003 C 
ATOM     30  C   UNL     1      17.417  31.124  53.098  1.00  0.00     0.004 C 
ENDBRANCH  28  29
ENDBRANCH  27  28
ENDBRANCH  26  27
ENDBRANCH  25  26
ENDBRANCH  24  25
ENDBRANCH  23  24
ENDBRANCH  22  23
ENDBRANCH  21  22
ENDBRANCH  20  21
ENDBRANCH  19  20
ENDBRANCH  18  19
ENDBRANCH  17  18
ENDBRANCH   1  17
TORSDOF 26
ENDMDL
MODEL 7
REMARK VINA RESULT:    -4.682      2.686      4.291
REMARK INTER + INTRA:         -16.116
REMARK INTER:                 -10.841
REMARK INTRA:                  -5.275
REMARK UNBOUND:                -4.318
REMARK SMILES CCCCCCCCCCCCCCCCCCCCCCCCCCCC(=O)[O-]
REMARK SMILES IDX 15 1 16 2 17 3 18 4 19 5 20 6 21 7 22 8 23 9 24 10 25 11
REMARK SMILES IDX 26 12 27 13 28 14 29 15 30 16 14 17 13 18 12 19 11 20 10 21
REMARK SMILES IDX 9 22 8 23 7 24 6 25 5 26 4 27 3 28 2 29 1 30
REMARK H PARENT
REMARK Flexibility Score: inf
ROOT
ATOM      1  C   UNL     1      17.084  32.881  56.595  1.00  0.00     0.000 C 
ENDROOT
BRANCH   1   2
ATOM      2  C   UNL     1      16.126  33.375  57.698  1.00  0.00     0.000 C 
BRANCH   2   3
ATOM      3  C   UNL     1      14.633  33.102  57.440  1.00  0.00     0.000 C 
BRANCH   3   4
ATOM      4  C   UNL     1      13.982  32.247  58.538  1.00  0.00     0.000 C 
BRANCH   4   5
ATOM      5  C   UNL     1      13.756  30.806  58.054  1.00  0.00     0.000 C 
BRANCH   5   6
ATOM      6  C   UNL     1      14.654  29.786  58.785  1.00  0.00     0.000 C 
BRANCH   6   7
ATOM      7  C   UNL     1      15.769  30.423  59.632  1.00  0.00     0.000 C 
BRANCH   7   8
ATOM      8  C   UNL     1      16.048  29.660  60.936  1.00  0.00     0.000 C 
BRANCH   8   9
ATOM      9  C   UNL     1      14.960  29.875  62.003  1.00  0.00     0.000 C 
BRANCH   9  10
ATOM     10  C   UNL     1      14.397  28.567  62.596  1.00  0.00     0.000 C 
BRANCH  10  11
ATOM     11  C   UNL     1      13.017  28.205  62.025  1.00  0.00     0.000 C 
BRANCH  11  12
ATOM     12  C   UNL     1      12.175  29.468  61.788  1.00  0.00     0.006 C 
BRANCH  12  13
ATOM     13  C   UNL     1      11.331  29.374  60.509  1.00  0.00     0.053 C 
BRANCH  13  14
ATOM     14  C   UNL     1       9.864  29.306  60.810  1.00  0.00     0.041 C 
ATOM     15  O   UNL     1       9.422  29.741  61.905  1.00  0.00    -0.550 OA
ATOM     16  O   UNL     1       8.991  28.742  59.887  1.00  0.00    -0.550 OA
ENDBRANCH  13  14
ENDBRANCH  12  13
ENDBRANCH  11  12
ENDBRANCH  10  11
ENDBRANCH   9  10
ENDBRANCH   8   9
ENDBRANCH   7   8
ENDBRANCH   6   7
ENDBRANCH   5   6
ENDBRANCH   4   5
ENDBRANCH   3   4
ENDBRANCH   2   3
ENDBRANCH   1   2
BRANCH   1  17
ATOM     17  C   UNL     1      17.126  31.356  56.397  1.00  0.00     0.000 C 
BRANCH  17  18
ATOM     18  C   UNL     1      16.742  30.927  54.971  1.00  0.00     0.000 C 
BRANCH  18  19
ATOM     19  C   UNL     1      15.319  30.342  54.883  1.00  0.00     0.000 C 
BRANCH  19  20
ATOM     20  C   UNL     1      14.258  31.281  54.276  1.00  0.00     0.000 C 
BRANCH  20  21
ATOM     21  C   UNL     1      14.866  32.367  53.371  1.00  0.00     0.000 C 
BRANCH  21  22
ATOM     22  C   UNL     1      14.558  33.793  53.859  1.00  0.00    -0.000 C 
BRANCH  22  23
ATOM     23  C   UNL     1      15.766  34.748  53.896  1.00  0.00    -0.000 C 
BRANCH  23  24
ATOM     24  C   UNL     1      16.901  34.356  52.926  1.00  0.00    -0.000 C 
BRANCH  24  25
ATOM     25  C   UNL     1      18.290  34.490  53.575  1.00  0.00    -0.000 C 
BRANCH  25  26
ATOM     26  C   UNL     1      19.187  33.271  53.308  1.00  0.00    -0.000 C 
BRANCH  26  27
ATOM     27  C   UNL     1      20.083  32.922  54.511  1.00  0.00    -0.000 C 
BRANCH  27  28
ATOM     28  C   UNL     1      20.552  31.451  54.479  1.00  0.00    -0.000 C 
BRANCH  28  29
ATOM     29  C   UNL     1      20.603  30.791  55.867  1.00  0.00    -0.003 C 
ATOM     30  C   UNL     1      20.790  31.798  57.002  1.00  0.00     0.004 C 
ENDBRANCH  28  29
ENDBRANCH  27  28
ENDBRANCH  26  27
ENDBRANCH  25  26
ENDBRANCH  24  25
ENDBRANCH  23  24
ENDBRANCH  22  23
ENDBRANCH  21  22
ENDBRANCH  20  21
ENDBRANCH  19  20
ENDBRANCH  18  19
ENDBRANCH  17  18
ENDBRANCH   1  17
TORSDOF 26
ENDMDL
MODEL 8
REMARK VINA RESULT:    -4.618      2.923      8.335
REMARK INTER + INTRA:         -15.955
REMARK INTER:                 -12.670
REMARK INTRA:                  -3.285
REMARK UNBOUND:                -4.318
REMARK SMILES CCCCCCCCCCCCCCCCCCCCCCCCCCCC(=O)[O-]
REMARK SMILES IDX 15 1 16 2 17 3 18 4 19 5 20 6 21 7 22 8 23 9 24 10 25 11
REMARK SMILES IDX 26 12 27 13 28 14 29 15 30 16 14 17 13 18 12 19 11 20 10 21
REMARK SMILES IDX 9 22 8 23 7 24 6 25 5 26 4 27 3 28 2 29 1 30
REMARK H PARENT
REMARK Flexibility Score: inf
ROOT
ATOM      1  C   UNL     1      17.366  31.945  58.508  1.00  0.00     0.000 C 
ENDROOT
BRANCH   1   2
ATOM      2  C   UNL     1      18.000  32.071  57.108  1.00  0.00     0.000 C 
BRANCH   2   3
ATOM      3  C   UNL     1      19.508  31.765  57.043  1.00  0.00     0.000 C 
BRANCH   3   4
ATOM      4  C   UNL     1      19.998  31.467  55.618  1.00  0.00     0.000 C 
BRANCH   4   5
ATOM      5  C   UNL     1      19.158  32.223  54.576  1.00  0.00     0.000 C 
BRANCH   5   6
ATOM      6  C   UNL     1      18.655  31.307  53.440  1.00  0.00     0.000 C 
BRANCH   6   7
ATOM      7  C   UNL     1      18.164  29.929  53.914  1.00  0.00     0.000 C 
BRANCH   7   8
ATOM      8  C   UNL     1      16.899  29.454  53.183  1.00  0.00     0.000 C 
BRANCH   8   9
ATOM      9  C   UNL     1      15.632  30.216  53.615  1.00  0.00     0.000 C 
BRANCH   9  10
ATOM     10  C   UNL     1      15.419  30.260  55.142  1.00  0.00     0.000 C 
BRANCH  10  11
ATOM     11  C   UNL     1      14.071  30.887  55.532  1.00  0.00     0.000 C 
BRANCH  11  12
ATOM     12  C   UNL     1      13.682  32.004  54.551  1.00  0.00     0.006 C 
BRANCH  12  13
ATOM     13  C   UNL     1      13.653  33.384  55.223  1.00  0.00     0.053 C 
BRANCH  13  14
ATOM     14  C   UNL     1      15.030  33.869  55.565  1.00  0.00     0.041 C 
ATOM     15  O   UNL     1      15.267  34.351  56.703  1.00  0.00    -0.550 OA
ATOM     16  O   UNL     1      16.044  33.809  54.616  1.00  0.00    -0.550 OA
ENDBRANCH  13  14
ENDBRANCH  12  13
ENDBRANCH  11  12
ENDBRANCH  10  11
ENDBRANCH   9  10
ENDBRANCH   8   9
ENDBRANCH   7   8
ENDBRANCH   6   7
ENDBRANCH   5   6
ENDBRANCH   4   5
ENDBRANCH   3   4
ENDBRANCH   2   3
ENDBRANCH   1   2
BRANCH   1  17
ATOM     17  C   UNL     1      15.948  31.349  58.536  1.00  0.00     0.000 C 
BRANCH  17  18
ATOM     18  C   UNL     1      15.769  30.280  59.626  1.00  0.00     0.000 C 
BRANCH  18  19
ATOM     19  C   UNL     1      16.826  30.379  60.743  1.00  0.00     0.000 C 
BRANCH  19  20
ATOM     20  C   UNL     1      16.544  29.524  61.994  1.00  0.00     0.000 C 
BRANCH  20  21
ATOM     21  C   UNL     1      15.082  29.616  62.466  1.00  0.00     0.000 C 
BRANCH  21  22
ATOM     22  C   UNL     1      14.457  28.240  62.751  1.00  0.00    -0.000 C 
BRANCH  22  23
ATOM     23  C   UNL     1      13.036  28.036  62.192  1.00  0.00    -0.000 C 
BRANCH  23  24
ATOM     24  C   UNL     1      12.418  29.312  61.580  1.00  0.00    -0.000 C 
BRANCH  24  25
ATOM     25  C   UNL     1      12.280  29.213  60.050  1.00  0.00    -0.000 C 
BRANCH  25  26
ATOM     26  C   UNL     1      10.841  28.906  59.606  1.00  0.00    -0.000 C 
BRANCH  26  27
ATOM     27  C   UNL     1      10.202  30.071  58.828  1.00  0.00    -0.000 C 
BRANCH  27  28
ATOM     28  C   UNL     1       8.847  30.499  59.431  1.00  0.00    -0.000 C 
BRANCH  28  29
ATOM     29  C   UNL     1       8.417  29.653  60.641  1.00  0.00    -0.003 C 
ATOM     30  C   UNL     1       7.182  30.207  61.351  1.00  0.00     0.004 C 
ENDBRANCH  28  29
ENDBRANCH  27  28
ENDBRANCH  26  27
ENDBRANCH  25  26
ENDBRANCH  24  25
ENDBRANCH  23  24
ENDBRANCH  22  23
ENDBRANCH  21  22
ENDBRANCH  20  21
ENDBRANCH  19  20
ENDBRANCH  18  19
ENDBRANCH  17  18
ENDBRANCH   1  17
TORSDOF 26
ENDMDL
MODEL 9
REMARK VINA RESULT:    -4.600      2.632      4.514
REMARK INTER + INTRA:         -15.909
REMARK INTER:                 -12.051
REMARK INTRA:                  -3.858
REMARK UNBOUND:                -4.318
REMARK SMILES CCCCCCCCCCCCCCCCCCCCCCCCCCCC(=O)[O-]
REMARK SMILES IDX 15 1 16 2 17 3 18 4 19 5 20 6 21 7 22 8 23 9 24 10 25 11
REMARK SMILES IDX 26 12 27 13 28 14 29 15 30 16 14 17 13 18 12 19 11 20 10 21
REMARK SMILES IDX 9 22 8 23 7 24 6 25 5 26 4 27 3 28 2 29 1 30
REMARK H PARENT
REMARK Flexibility Score: inf
ROOT
ATOM      1  C   UNL     1      14.534  32.228  57.594  1.00  0.00     0.000 C 
ENDROOT
BRANCH   1   2
ATOM      2  C   UNL     1      15.710  31.341  58.051  1.00  0.00     0.000 C 
BRANCH   2   3
ATOM      3  C   UNL     1      17.049  32.077  58.242  1.00  0.00     0.000 C 
BRANCH   3   4
ATOM      4  C   UNL     1      17.800  31.634  59.507  1.00  0.00     0.000 C 
BRANCH   4   5
ATOM      5  C   UNL     1      16.907  30.761  60.403  1.00  0.00     0.000 C 
BRANCH   5   6
ATOM      6  C   UNL     1      17.575  30.414  61.750  1.00  0.00     0.000 C 
BRANCH   6   7
ATOM      7  C   UNL     1      16.587  30.011  62.857  1.00  0.00     0.000 C 
BRANCH   7   8
ATOM      8  C   UNL     1      15.745  28.778  62.495  1.00  0.00     0.000 C 
BRANCH   8   9
ATOM      9  C   UNL     1      14.242  28.974  62.767  1.00  0.00     0.000 C 
BRANCH   9  10
ATOM     10  C   UNL     1      13.343  28.686  61.547  1.00  0.00     0.000 C 
BRANCH  10  11
ATOM     11  C   UNL     1      13.389  29.810  60.501  1.00  0.00     0.000 C 
BRANCH  11  12
ATOM     12  C   UNL     1      12.138  29.780  59.609  1.00  0.00     0.006 C 
BRANCH  12  13
ATOM     13  C   UNL     1      10.957  29.074  60.288  1.00  0.00     0.053 C 
BRANCH  13  14
ATOM     14  C   UNL     1       9.659  29.358  59.593  1.00  0.00     0.041 C 
ATOM     15  O   UNL     1       9.448  28.908  58.437  1.00  0.00    -0.550 OA
ATOM     16  O   UNL     1       8.694  30.140  60.217  1.00  0.00    -0.550 OA
ENDBRANCH  13  14
ENDBRANCH  12  13
ENDBRANCH  11  12
ENDBRANCH  10  11
ENDBRANCH   9  10
ENDBRANCH   8   9
ENDBRANCH   7   8
ENDBRANCH   6   7
ENDBRANCH   5   6
ENDBRANCH   4   5
ENDBRANCH   3   4
ENDBRANCH   2   3
ENDBRANCH   1   2
BRANCH   1  17
ATOM     17  C   UNL     1      13.987  31.922  56.189  1.00  0.00     0.000 C 
BRANCH  17  18
ATOM     18  C   UNL     1      14.480  30.575  55.635  1.00  0.00     0.000 C 
BRANCH  18  19
ATOM     19  C   UNL     1      14.985  30.672  54.183  1.00  0.00     0.000 C 
BRANCH  19  20
ATOM     20  C   UNL     1      16.052  29.633  53.786  1.00  0.00     0.000 C 
BRANCH  20  21
ATOM     21  C   UNL     1      17.230  30.250  53.012  1.00  0.00     0.000 C 
BRANCH  21  22
ATOM     22  C   UNL     1      18.542  30.247  53.817  1.00  0.00    -0.000 C 
BRANCH  22  23
ATOM     23  C   UNL     1      18.513  31.072  55.117  1.00  0.00    -0.000 C 
BRANCH  23  24
ATOM     24  C   UNL     1      19.286  32.406  55.027  1.00  0.00    -0.000 C 
BRANCH  24  25
ATOM     25  C   UNL     1      18.386  33.618  55.327  1.00  0.00    -0.000 C 
BRANCH  25  26
ATOM     26  C   UNL     1      17.050  33.563  54.570  1.00  0.00    -0.000 C 
BRANCH  26  27
ATOM     27  C   UNL     1      16.020  34.571  55.115  1.00  0.00    -0.000 C 
BRANCH  27  28
ATOM     28  C   UNL     1      16.545  35.324  56.355  1.00  0.00    -0.000 C 
BRANCH  28  29
ATOM     29  C   UNL     1      16.282  36.839  56.312  1.00  0.00    -0.003 C 
ATOM     30  C   UNL     1      17.019  37.606  57.410  1.00  0.00     0.004 C 
ENDBRANCH  28  29
ENDBRANCH  27  28
ENDBRANCH  26  27
ENDBRANCH  25  26
ENDBRANCH  24  25
ENDBRANCH  23  24
ENDBRANCH  22  23
ENDBRANCH  21  22
ENDBRANCH  20  21
ENDBRANCH  19  20
ENDBRANCH  18  19
ENDBRANCH  17  18
ENDBRANCH   1  17
TORSDOF 26
ENDMDL
