MODEL 1
REMARK VINA RESULT:    -5.642      0.000      0.000
REMARK INTER + INTRA:         -10.545
REMARK INTER:                  -9.599
REMARK INTRA:                  -0.946
REMARK UNBOUND:                -0.946
REMARK SMILES CCCCCCCCCCCCCC(=O)[O-]
REMARK SMILES IDX 8 1 9 2 10 3 11 4 12 5 13 6 14 7 15 8 16 9 7 10 6 11 5 12
REMARK SMILES IDX 4 13 3 14 2 15 1 16
REMARK H PARENT
REMARK Flexibility Score: inf
ROOT
ATOM      1  C   UNL     1      38.900  54.396  60.897  1.00  0.00     0.000 C 
ENDROOT
BRANCH   1   2
ATOM      2  C   UNL     1      40.318  53.837  61.065  1.00  0.00     0.000 C 
BRANCH   2   3
ATOM      3  C   UNL     1      41.255  54.373  59.975  1.00  0.00     0.000 C 
BRANCH   3   4
ATOM      4  C   UNL     1      42.593  54.823  60.572  1.00  0.00     0.000 C 
BRANCH   4   5
ATOM      5  C   UNL     1      43.138  56.054  59.833  1.00  0.00     0.006 C 
BRANCH   5   6
ATOM      6  C   UNL     1      42.071  56.725  58.957  1.00  0.00     0.053 C 
BRANCH   6   7
ATOM      7  C   UNL     1      42.305  58.199  58.827  1.00  0.00     0.041 C 
ATOM      8  O   UNL     1      42.124  58.775  57.723  1.00  0.00    -0.550 OA
ATOM      9  O   UNL     1      42.691  58.941  59.936  1.00  0.00    -0.550 OA
ENDBRANCH   6   7
ENDBRANCH   5   6
ENDBRANCH   4   5
ENDBRANCH   3   4
ENDBRANCH   2   3
ENDBRANCH   1   2
BRANCH   1  10
ATOM     10  C   UNL     1      38.924  55.928  60.775  1.00  0.00     0.000 C 
BRANCH  10  11
ATOM     11  C   UNL     1      38.054  56.446  59.618  1.00  0.00    -0.000 C 
BRANCH  11  12
ATOM     12  C   UNL     1      36.551  56.229  59.867  1.00  0.00    -0.000 C 
BRANCH  12  13
ATOM     13  C   UNL     1      35.883  55.402  58.756  1.00  0.00    -0.000 C 
BRANCH  13  14
ATOM     14  C   UNL     1      35.864  53.895  59.068  1.00  0.00    -0.000 C 
BRANCH  14  15
ATOM     15  C   UNL     1      34.952  53.108  58.115  1.00  0.00    -0.003 C 
ATOM     16  C   UNL     1      35.360  51.639  57.987  1.00  0.00     0.004 C 
ENDBRANCH  14  15
ENDBRANCH  13  14
ENDBRANCH  12  13
ENDBRANCH  11  12
ENDBRANCH  10  11
ENDBRANCH   1  10
TORSDOF 12
ENDMDL
MODEL 2
REMARK VINA RESULT:    -5.473      3.731      7.050
REMARK INTER + INTRA:         -10.258
REMARK INTER:                  -9.169
REMARK INTRA:                  -1.089
REMARK UNBOUND:                -0.946
REMARK SMILES CCCCCCCCCCCCCC(=O)[O-]
REMARK SMILES IDX 8 1 9 2 10 3 11 4 12 5 13 6 14 7 15 8 16 9 7 10 6 11 5 12
REMARK SMILES IDX 4 13 3 14 2 15 1 16
REMARK H PARENT
REMARK Flexibility Score: inf
ROOT
ATOM      1  C   UNL     1      38.872  54.363  60.966  1.00  0.00     0.000 C 
ENDROOT
BRANCH   1   2
ATOM      2  C   UNL     1      38.858  55.853  60.603  1.00  0.00     0.000 C 
BRANCH   2   3
ATOM      3  C   UNL     1      37.752  56.163  59.588  1.00  0.00     0.000 C 
BRANCH   3   4
ATOM      4  C   UNL     1      36.439  55.472  59.976  1.00  0.00     0.000 C 
BRANCH   4   5
ATOM      5  C   UNL     1      35.864  54.680  58.792  1.00  0.00     0.006 C 
BRANCH   5   6
ATOM      6  C   UNL     1      36.195  53.184  58.879  1.00  0.00     0.053 C 
BRANCH   6   7
ATOM      7  C   UNL     1      35.175  52.348  58.169  1.00  0.00     0.041 C 
ATOM      8  O   UNL     1      34.014  52.793  57.973  1.00  0.00    -0.550 OA
ATOM      9  O   UNL     1      35.519  51.088  57.693  1.00  0.00    -0.550 OA
ENDBRANCH   6   7
ENDBRANCH   5   6
ENDBRANCH   4   5
ENDBRANCH   3   4
ENDBRANCH   2   3
ENDBRANCH   1   2
BRANCH   1  10
ATOM     10  C   UNL     1      40.311  53.851  61.132  1.00  0.00     0.000 C 
BRANCH  10  11
ATOM     11  C   UNL     1      41.250  54.345  60.018  1.00  0.00    -0.000 C 
BRANCH  11  12
ATOM     12  C   UNL     1      42.609  54.821  60.560  1.00  0.00    -0.000 C 
BRANCH  12  13
ATOM     13  C   UNL     1      43.014  56.198  60.008  1.00  0.00    -0.000 C 
BRANCH  13  14
ATOM     14  C   UNL     1      42.241  56.576  58.733  1.00  0.00    -0.000 C 
BRANCH  14  15
ATOM     15  C   UNL     1      41.449  57.884  58.890  1.00  0.00    -0.003 C 
ATOM     16  C   UNL     1      42.047  59.036  58.081  1.00  0.00     0.004 C 
ENDBRANCH  14  15
ENDBRANCH  13  14
ENDBRANCH  12  13
ENDBRANCH  11  12
ENDBRANCH  10  11
ENDBRANCH   1  10
TORSDOF 12
ENDMDL
MODEL 3
REMARK VINA RESULT:    -5.385      1.039      1.468
REMARK INTER + INTRA:         -10.109
REMARK INTER:                  -9.395
REMARK INTRA:                  -0.714
REMARK UNBOUND:                -0.946
REMARK SMILES CCCCCCCCCCCCCC(=O)[O-]
REMARK SMILES IDX 8 1 9 2 10 3 11 4 12 5 13 6 14 7 15 8 16 9 7 10 6 11 5 12
REMARK SMILES IDX 4 13 3 14 2 15 1 16
REMARK H PARENT
REMARK Flexibility Score: inf
ROOT
ATOM      1  C   UNL     1      40.612  54.183  60.431  1.00  0.00     0.000 C 
ENDROOT
BRANCH   1   2
ATOM      2  C   UNL     1      42.098  54.510  60.615  1.00  0.00     0.000 C 
BRANCH   2   3
ATOM      3  C   UNL     1      42.687  55.133  59.344  1.00  0.00     0.000 C 
BRANCH   3   4
ATOM      4  C   UNL     1      43.276  56.519  59.631  1.00  0.00     0.000 C 
BRANCH   4   5
ATOM      5  C   UNL     1      43.317  57.374  58.355  1.00  0.00     0.006 C 
BRANCH   5   6
ATOM      6  C   UNL     1      41.945  57.971  58.012  1.00  0.00     0.053 C 
BRANCH   6   7
ATOM      7  C   UNL     1      41.989  59.467  57.958  1.00  0.00     0.041 C 
ATOM      8  O   UNL     1      41.094  60.106  57.347  1.00  0.00    -0.550 OA
ATOM      9  O   UNL     1      43.002  60.157  58.613  1.00  0.00    -0.550 OA
ENDBRANCH   6   7
ENDBRANCH   5   6
ENDBRANCH   4   5
ENDBRANCH   3   4
ENDBRANCH   2   3
ENDBRANCH   1   2
BRANCH   1  10
ATOM     10  C   UNL     1      39.751  55.451  60.546  1.00  0.00     0.000 C 
BRANCH  10  11
ATOM     11  C   UNL     1      38.245  55.146  60.596  1.00  0.00    -0.000 C 
BRANCH  11  12
ATOM     12  C   UNL     1      37.406  56.186  59.834  1.00  0.00    -0.000 C 
BRANCH  12  13
ATOM     13  C   UNL     1      36.292  55.543  58.991  1.00  0.00    -0.000 C 
BRANCH  13  14
ATOM     14  C   UNL     1      36.147  54.034  59.254  1.00  0.00    -0.000 C 
BRANCH  14  15
ATOM     15  C   UNL     1      35.134  53.368  58.311  1.00  0.00    -0.003 C 
ATOM     16  C   UNL     1      35.524  51.936  57.942  1.00  0.00     0.004 C 
ENDBRANCH  14  15
ENDBRANCH  13  14
ENDBRANCH  12  13
ENDBRANCH  11  12
ENDBRANCH  10  11
ENDBRANCH   1  10
TORSDOF 12
ENDMDL
MODEL 4
REMARK VINA RESULT:    -5.362      1.349      2.691
REMARK INTER + INTRA:         -10.069
REMARK INTER:                  -8.896
REMARK INTRA:                  -1.173
REMARK UNBOUND:                -0.946
REMARK SMILES CCCCCCCCCCCCCC(=O)[O-]
REMARK SMILES IDX 8 1 9 2 10 3 11 4 12 5 13 6 14 7 15 8 16 9 7 10 6 11 5 12
REMARK SMILES IDX 4 13 3 14 2 15 1 16
REMARK H PARENT
REMARK Flexibility Score: inf
ROOT
ATOM      1  C   UNL     1      41.611  54.293  59.910  1.00  0.00     0.000 C 
ENDROOT
BRANCH   1   2
ATOM      2  C   UNL     1      42.839  54.966  60.533  1.00  0.00     0.000 C 
BRANCH   2   3
ATOM      3  C   UNL     1      42.871  56.464  60.209  1.00  0.00     0.000 C 
BRANCH   3   4
ATOM      4  C   UNL     1      43.256  56.702  58.744  1.00  0.00     0.000 C 
BRANCH   4   5
ATOM      5  C   UNL     1      42.499  57.908  58.166  1.00  0.00     0.006 C 
BRANCH   5   6
ATOM      6  C   UNL     1      41.012  57.897  58.547  1.00  0.00     0.053 C 
BRANCH   6   7
ATOM      7  C   UNL     1      40.228  58.895  57.751  1.00  0.00     0.041 C 
ATOM      8  O   UNL     1      40.712  60.029  57.503  1.00  0.00    -0.550 OA
ATOM      9  O   UNL     1      38.974  58.558  57.256  1.00  0.00    -0.550 OA
ENDBRANCH   6   7
ENDBRANCH   5   6
ENDBRANCH   4   5
ENDBRANCH   3   4
ENDBRANCH   2   3
ENDBRANCH   1   2
BRANCH   1  10
ATOM     10  C   UNL     1      40.535  54.020  60.973  1.00  0.00     0.000 C 
BRANCH  10  11
ATOM     11  C   UNL     1      39.128  54.441  60.518  1.00  0.00    -0.000 C 
BRANCH  11  12
ATOM     12  C   UNL     1      38.870  55.945  60.715  1.00  0.00    -0.000 C 
BRANCH  12  13
ATOM     13  C   UNL     1      37.411  56.335  60.429  1.00  0.00    -0.000 C 
BRANCH  13  14
ATOM     14  C   UNL     1      37.064  56.278  58.931  1.00  0.00    -0.000 C 
BRANCH  14  15
ATOM     15  C   UNL     1      35.758  55.514  58.659  1.00  0.00    -0.003 C 
ATOM     16  C   UNL     1      35.868  54.024  58.984  1.00  0.00     0.004 C 
ENDBRANCH  14  15
ENDBRANCH  13  14
ENDBRANCH  12  13
ENDBRANCH  11  12
ENDBRANCH  10  11
ENDBRANCH   1  10
TORSDOF 12
ENDMDL
MODEL 5
REMARK VINA RESULT:    -5.265      1.471      3.338
REMARK INTER + INTRA:          -9.904
REMARK INTER:                  -8.751
REMARK INTRA:                  -1.153
REMARK UNBOUND:                -0.946
REMARK SMILES CCCCCCCCCCCCCC(=O)[O-]
REMARK SMILES IDX 8 1 9 2 10 3 11 4 12 5 13 6 14 7 15 8 16 9 7 10 6 11 5 12
REMARK SMILES IDX 4 13 3 14 2 15 1 16
REMARK H PARENT
REMARK Flexibility Score: inf
ROOT
ATOM      1  C   UNL     1      42.512  54.780  60.600  1.00  0.00     0.000 C 
ENDROOT
BRANCH   1   2
ATOM      2  C   UNL     1      42.843  56.254  60.345  1.00  0.00     0.000 C 
BRANCH   2   3
ATOM      3  C   UNL     1      43.403  56.458  58.933  1.00  0.00     0.000 C 
BRANCH   3   4
ATOM      4  C   UNL     1      42.361  57.109  58.016  1.00  0.00     0.000 C 
BRANCH   4   5
ATOM      5  C   UNL     1      41.403  58.002  58.819  1.00  0.00     0.006 C 
BRANCH   5   6
ATOM      6  C   UNL     1      40.630  58.978  57.922  1.00  0.00     0.053 C 
BRANCH   6   7
ATOM      7  C   UNL     1      41.491  60.117  57.470  1.00  0.00     0.041 C 
ATOM      8  O   UNL     1      42.591  60.344  58.036  1.00  0.00    -0.550 OA
ATOM      9  O   UNL     1      41.092  60.907  56.399  1.00  0.00    -0.550 OA
ENDBRANCH   6   7
ENDBRANCH   5   6
ENDBRANCH   4   5
ENDBRANCH   3   4
ENDBRANCH   2   3
ENDBRANCH   1   2
BRANCH   1  10
ATOM     10  C   UNL     1      41.158  54.405  59.979  1.00  0.00     0.000 C 
BRANCH  10  11
ATOM     11  C   UNL     1      40.164  53.844  61.010  1.00  0.00    -0.000 C 
BRANCH  11  12
ATOM     12  C   UNL     1      38.833  54.615  61.026  1.00  0.00    -0.000 C 
BRANCH  12  13
ATOM     13  C   UNL     1      39.009  56.104  60.683  1.00  0.00    -0.000 C 
BRANCH  13  14
ATOM     14  C   UNL     1      38.043  56.578  59.584  1.00  0.00    -0.000 C 
BRANCH  14  15
ATOM     15  C   UNL     1      36.587  56.177  59.868  1.00  0.00    -0.003 C 
ATOM     16  C   UNL     1      35.963  55.374  58.725  1.00  0.00     0.004 C 
ENDBRANCH  14  15
ENDBRANCH  13  14
ENDBRANCH  12  13
ENDBRANCH  11  12
ENDBRANCH  10  11
ENDBRANCH   1  10
TORSDOF 12
ENDMDL
MODEL 6
REMARK VINA RESULT:    -5.244      1.047      2.444
REMARK INTER + INTRA:          -9.869
REMARK INTER:                  -8.556
REMARK INTRA:                  -1.313
REMARK UNBOUND:                -0.946
REMARK SMILES CCCCCCCCCCCCCC(=O)[O-]
REMARK SMILES IDX 8 1 9 2 10 3 11 4 12 5 13 6 14 7 15 8 16 9 7 10 6 11 5 12
REMARK SMILES IDX 4 13 3 14 2 15 1 16
REMARK H PARENT
REMARK Flexibility Score: inf
ROOT
ATOM      1  C   UNL     1      41.286  54.432  59.936  1.00  0.00     0.000 C 
ENDROOT
BRANCH   1   2
ATOM      2  C   UNL     1      42.591  54.879  60.606  1.00  0.00     0.000 C 
BRANCH   2   3
ATOM      3  C   UNL     1      43.232  56.043  59.842  1.00  0.00     0.000 C 
BRANCH   3   4
ATOM      4  C   UNL     1      42.299  56.560  58.741  1.00  0.00     0.000 C 
BRANCH   4   5
ATOM      5  C   UNL     1      41.822  57.988  59.051  1.00  0.00     0.006 C 
BRANCH   5   6
ATOM      6  C   UNL     1      42.679  58.664  60.129  1.00  0.00     0.053 C 
BRANCH   6   7
ATOM      7  C   UNL     1      43.557  59.732  59.552  1.00  0.00     0.041 C 
ATOM      8  O   UNL     1      43.614  59.901  58.306  1.00  0.00    -0.550 OA
ATOM      9  O   UNL     1      44.287  60.562  60.393  1.00  0.00    -0.550 OA
ENDBRANCH   6   7
ENDBRANCH   5   6
ENDBRANCH   4   5
ENDBRANCH   3   4
ENDBRANCH   2   3
ENDBRANCH   1   2
BRANCH   1  10
ATOM     10  C   UNL     1      40.257  53.979  60.984  1.00  0.00     0.000 C 
BRANCH  10  11
ATOM     11  C   UNL     1      38.885  54.646  60.796  1.00  0.00    -0.000 C 
BRANCH  11  12
ATOM     12  C   UNL     1      38.990  56.170  60.605  1.00  0.00    -0.000 C 
BRANCH  12  13
ATOM     13  C   UNL     1      37.947  56.713  59.615  1.00  0.00    -0.000 C 
BRANCH  13  14
ATOM     14  C   UNL     1      36.531  56.178  59.892  1.00  0.00    -0.000 C 
BRANCH  14  15
ATOM     15  C   UNL     1      35.883  55.556  58.646  1.00  0.00    -0.003 C 
ATOM     16  C   UNL     1      35.714  54.040  58.762  1.00  0.00     0.004 C 
ENDBRANCH  14  15
ENDBRANCH  13  14
ENDBRANCH  12  13
ENDBRANCH  11  12
ENDBRANCH  10  11
ENDBRANCH   1  10
TORSDOF 12
ENDMDL
MODEL 7
REMARK VINA RESULT:    -5.243      3.592      6.971
REMARK INTER + INTRA:          -9.867
REMARK INTER:                  -8.822
REMARK INTRA:                  -1.045
REMARK UNBOUND:                -0.946
REMARK SMILES CCCCCCCCCCCCCC(=O)[O-]
REMARK SMILES IDX 8 1 9 2 10 3 11 4 12 5 13 6 14 7 15 8 16 9 7 10 6 11 5 12
REMARK SMILES IDX 4 13 3 14 2 15 1 16
REMARK H PARENT
REMARK Flexibility Score: inf
ROOT
ATOM      1  C   UNL     1      40.485  53.771  60.934  1.00  0.00     0.000 C 
ENDROOT
BRANCH   1   2
ATOM      2  C   UNL     1      38.968  53.980  60.855  1.00  0.00     0.000 C 
BRANCH   2   3
ATOM      3  C   UNL     1      38.628  55.449  60.578  1.00  0.00     0.000 C 
BRANCH   3   4
ATOM      4  C   UNL     1      37.327  55.571  59.776  1.00  0.00     0.000 C 
BRANCH   4   5
ATOM      5  C   UNL     1      36.581  54.229  59.730  1.00  0.00     0.006 C 
BRANCH   5   6
ATOM      6  C   UNL     1      35.505  54.201  58.636  1.00  0.00     0.053 C 
BRANCH   6   7
ATOM      7  C   UNL     1      35.095  52.801  58.297  1.00  0.00     0.041 C 
ATOM      8  O   UNL     1      35.938  51.867  58.329  1.00  0.00    -0.550 OA
ATOM      9  O   UNL     1      33.772  52.522  57.977  1.00  0.00    -0.550 OA
ENDBRANCH   6   7
ENDBRANCH   5   6
ENDBRANCH   4   5
ENDBRANCH   3   4
ENDBRANCH   2   3
ENDBRANCH   1   2
BRANCH   1  10
ATOM     10  C   UNL     1      41.237  55.055  60.554  1.00  0.00     0.000 C 
BRANCH  10  11
ATOM     11  C   UNL     1      42.765  54.879  60.577  1.00  0.00    -0.000 C 
BRANCH  11  12
ATOM     12  C   UNL     1      43.508  56.093  59.995  1.00  0.00    -0.000 C 
BRANCH  12  13
ATOM     13  C   UNL     1      42.820  57.425  60.337  1.00  0.00    -0.000 C 
BRANCH  13  14
ATOM     14  C   UNL     1      42.910  58.450  59.193  1.00  0.00    -0.000 C 
BRANCH  14  15
ATOM     15  C   UNL     1      41.982  58.103  58.018  1.00  0.00    -0.003 C 
ATOM     16  C   UNL     1      40.511  58.025  58.432  1.00  0.00     0.004 C 
ENDBRANCH  14  15
ENDBRANCH  13  14
ENDBRANCH  12  13
ENDBRANCH  11  12
ENDBRANCH  10  11
ENDBRANCH   1  10
TORSDOF 12
ENDMDL
MODEL 8
REMARK VINA RESULT:    -5.218      1.160      1.680
REMARK INTER + INTRA:          -9.824
REMARK INTER:                  -9.143
REMARK INTRA:                  -0.681
REMARK UNBOUND:                -0.946
REMARK SMILES CCCCCCCCCCCCCC(=O)[O-]
REMARK SMILES IDX 8 1 9 2 10 3 11 4 12 5 13 6 14 7 15 8 16 9 7 10 6 11 5 12
REMARK SMILES IDX 4 13 3 14 2 15 1 16
REMARK H PARENT
REMARK Flexibility Score: inf
ROOT
ATOM      1  C   UNL     1      39.862  55.220  60.439  1.00  0.00     0.000 C 
ENDROOT
BRANCH   1   2
ATOM      2  C   UNL     1      40.970  54.173  60.274  1.00  0.00     0.000 C 
BRANCH   2   3
ATOM      3  C   UNL     1      42.131  54.726  59.439  1.00  0.00     0.000 C 
BRANCH   3   4
ATOM      4  C   UNL     1      42.950  55.745  60.240  1.00  0.00     0.000 C 
BRANCH   4   5
ATOM      5  C   UNL     1      43.091  57.066  59.469  1.00  0.00     0.006 C 
BRANCH   5   6
ATOM      6  C   UNL     1      42.220  57.096  58.206  1.00  0.00     0.053 C 
BRANCH   6   7
ATOM      7  C   UNL     1      41.393  58.343  58.132  1.00  0.00     0.041 C 
ATOM      8  O   UNL     1      41.941  59.458  57.930  1.00  0.00    -0.550 OA
ATOM      9  O   UNL     1      40.011  58.268  58.254  1.00  0.00    -0.550 OA
ENDBRANCH   6   7
ENDBRANCH   5   6
ENDBRANCH   4   5
ENDBRANCH   3   4
ENDBRANCH   2   3
ENDBRANCH   1   2
BRANCH   1  10
ATOM     10  C   UNL     1      38.548  54.562  60.889  1.00  0.00     0.000 C 
BRANCH  10  11
ATOM     11  C   UNL     1      37.384  54.839  59.923  1.00  0.00    -0.000 C 
BRANCH  11  12
ATOM     12  C   UNL     1      36.502  53.600  59.691  1.00  0.00    -0.000 C 
BRANCH  12  13
ATOM     13  C   UNL     1      35.493  53.800  58.548  1.00  0.00    -0.000 C 
BRANCH  13  14
ATOM     14  C   UNL     1      34.835  52.483  58.101  1.00  0.00    -0.000 C 
BRANCH  14  15
ATOM     15  C   UNL     1      35.857  51.355  57.894  1.00  0.00    -0.003 C 
ATOM     16  C   UNL     1      35.234  50.097  57.287  1.00  0.00     0.004 C 
ENDBRANCH  14  15
ENDBRANCH  13  14
ENDBRANCH  12  13
ENDBRANCH  11  12
ENDBRANCH  10  11
ENDBRANCH   1  10
TORSDOF 12
ENDMDL
MODEL 9
REMARK VINA RESULT:    -5.100      3.000      6.227
REMARK INTER + INTRA:          -9.623
REMARK INTER:                  -8.467
REMARK INTRA:                  -1.156
REMARK UNBOUND:                -0.946
REMARK SMILES CCCCCCCCCCCCCC(=O)[O-]
REMARK SMILES IDX 8 1 9 2 10 3 11 4 12 5 13 6 14 7 15 8 16 9 7 10 6 11 5 12
REMARK SMILES IDX 4 13 3 14 2 15 1 16
REMARK H PARENT
REMARK Flexibility Score: inf
ROOT
ATOM      1  C   UNL     1      42.586  55.076  59.078  1.00  0.00     0.000 C 
ENDROOT
BRANCH   1   2
ATOM      2  C   UNL     1      41.436  54.154  59.501  1.00  0.00     0.000 C 
BRANCH   2   3
ATOM      3  C   UNL     1      41.083  54.357  60.979  1.00  0.00     0.000 C 
BRANCH   3   4
ATOM      4  C   UNL     1      39.645  53.909  61.268  1.00  0.00     0.000 C 
BRANCH   4   5
ATOM      5  C   UNL     1      38.657  54.572  60.296  1.00  0.00     0.006 C 
BRANCH   5   6
ATOM      6  C   UNL     1      37.395  53.724  60.084  1.00  0.00     0.053 C 
BRANCH   6   7
ATOM      7  C   UNL     1      36.297  54.515  59.442  1.00  0.00     0.041 C 
ATOM      8  O   UNL     1      36.239  55.763  59.598  1.00  0.00    -0.550 OA
ATOM      9  O   UNL     1      35.356  53.877  58.644  1.00  0.00    -0.550 OA
ENDBRANCH   6   7
ENDBRANCH   5   6
ENDBRANCH   4   5
ENDBRANCH   3   4
ENDBRANCH   2   3
ENDBRANCH   1   2
BRANCH   1  10
ATOM     10  C   UNL     1      43.144  55.848  60.283  1.00  0.00     0.000 C 
BRANCH  10  11
ATOM     11  C   UNL     1      44.100  56.981  59.874  1.00  0.00    -0.000 C 
BRANCH  11  12
ATOM     12  C   UNL     1      43.747  57.584  58.503  1.00  0.00    -0.000 C 
BRANCH  12  13
ATOM     13  C   UNL     1      43.122  58.984  58.618  1.00  0.00    -0.000 C 
BRANCH  13  14
ATOM     14  C   UNL     1      41.741  59.074  57.946  1.00  0.00    -0.000 C 
BRANCH  14  15
ATOM     15  C   UNL     1      40.726  58.092  58.551  1.00  0.00    -0.003 C 
ATOM     16  C   UNL     1      39.362  58.153  57.862  1.00  0.00     0.004 C 
ENDBRANCH  14  15
ENDBRANCH  13  14
ENDBRANCH  12  13
ENDBRANCH  11  12
ENDBRANCH  10  11
ENDBRANCH   1  10
TORSDOF 12
ENDMDL
