MODEL 1
REMARK VINA RESULT:    -8.756      0.000      0.000
REMARK INTER + INTRA:         -14.932
REMARK INTER:                 -13.362
REMARK INTRA:                  -1.570
REMARK UNBOUND:                -1.570
REMARK SMILES C[C@@H]1O[C@H](OC[C@H]2O[C@@H](Oc3c(-c4ccc(O)c(O)c4)oc4cc(O)cc(O)c4c3=O)[C@H](O)[C@H](O)[C@H]2O)[C@@H](O)[C@@H](O)[C@H]1O
REMARK SMILES IDX 7 1 36 2 34 3 32 4 9 5 8 6 6 7 5 8 4 9 1 10 2 11 42 12 3 13
REMARK SMILES IDX 40 14 38 15 43 16 41 18 39 20 37 22 35 24 10 26 11 27 12 28
REMARK SMILES IDX 30 29 21 30 29 31 31 32 22 33 27 34 23 35 26 36 24 37 13 38
REMARK SMILES IDX 20 39 14 40 18 41 15 42 16 43 19 44 17 46 28 48 25 50 33 52
REMARK H PARENT 43 17 41 19 39 21 37 23 35 25 19 45 17 47 28 49 25 51 33 53
REMARK Flexibility Score: inf
ROOT
ATOM      1  C   UNL     1     134.865 141.729 122.477  1.00  0.00     0.180 C 
ATOM      2  C   UNL     1     134.297 140.481 122.062  1.00  0.00     0.177 C 
ATOM      3  C   UNL     1     135.046 139.515 122.924  1.00  0.00     0.180 C 
ATOM      4  C   UNL     1     136.688 139.842 123.118  1.00  0.00     0.214 C 
ATOM      5  C   UNL     1     137.391 141.373 122.508  1.00  0.00     0.339 C 
ATOM      6  O   UNL     1     136.203 141.909 121.836  1.00  0.00    -0.332 OA
ENDROOT
BRANCH   1   7
ATOM      7  C   UNL     1     133.939 142.373 123.800  1.00  0.00     0.198 C 
BRANCH   7   8
ATOM      8  O   UNL     1     132.499 142.777 124.083  1.00  0.00    -0.347 OA
BRANCH   8   9
ATOM      9  C   UNL     1     131.940 143.630 123.094  1.00  0.00     0.281 C 
ATOM     10  C   UNL     1     130.677 141.234 124.847  1.00  0.00     0.041 C 
ATOM     11  C   UNL     1     130.103 142.402 123.538  1.00  0.00     0.150 C 
ATOM     12  C   UNL     1     128.911 143.534 123.046  1.00  0.00     0.174 C 
ATOM     13  O   UNL     1     131.059 142.760 122.539  1.00  0.00    -0.344 OA
ATOM     14  C   UNL     1     129.342 145.147 123.103  1.00  0.00     0.179 C 
ATOM     15  C   UNL     1     131.045 145.107 123.380  1.00  0.00     0.202 C 
BRANCH  12  16
ATOM     16  O   UNL     1     128.693 143.238 121.616  1.00  0.00    -0.388 OA
ATOM     17  H   UNL     1     128.173 143.972 121.168  1.00  0.00     0.211 HD
ENDBRANCH  12  16
BRANCH  14  18
ATOM     18  O   UNL     1     128.774 145.945 121.954  1.00  0.00    -0.387 OA
ATOM     19  H   UNL     1     128.989 147.031 121.890  1.00  0.00     0.211 HD
ENDBRANCH  14  18
BRANCH  15  20
ATOM     20  O   UNL     1     131.653 146.246 122.698  1.00  0.00    -0.385 OA
ATOM     21  H   UNL     1     131.285 146.631 121.785  1.00  0.00     0.211 HD
ENDBRANCH  15  20
ENDBRANCH   8   9
ENDBRANCH   7   8
ENDBRANCH   1   7
BRANCH   2  22
ATOM     22  O   UNL     1     132.900 140.410 122.149  1.00  0.00    -0.387 OA
ATOM     23  H   UNL     1     132.438 140.605 121.229  1.00  0.00     0.211 HD
ENDBRANCH   2  22
BRANCH   3  24
ATOM     24  O   UNL     1     134.735 138.194 122.468  1.00  0.00    -0.387 OA
ATOM     25  H   UNL     1     135.665 137.789 122.517  1.00  0.00     0.211 HD
ENDBRANCH   3  24
BRANCH   5  26
ATOM     26  O   UNL     1     138.377 142.587 122.917  1.00  0.00    -0.454 OA
BRANCH  26  27
ATOM     27  C   UNL     1     139.805 143.220 122.924  1.00  0.00     0.214 A 
ATOM     28  C   UNL     1     140.605 144.189 122.042  1.00  0.00     0.180 A 
ATOM     29  C   UNL     1     140.394 143.869 124.111  1.00  0.00     0.239 A 
ATOM     30  O   UNL     1     140.265 145.493 122.083  1.00  0.00    -0.452 OA
ATOM     31  C   UNL     1     140.574 145.326 124.379  1.00  0.00     0.111 A 
ATOM     32  O   UNL     1     140.844 143.063 124.945  1.00  0.00    -0.285 OA
ATOM     33  C   UNL     1     140.277 146.162 123.263  1.00  0.00     0.146 A 
ATOM     34  C   UNL     1     140.973 145.994 125.558  1.00  0.00     0.134 A 
ATOM     35  C   UNL     1     139.796 147.493 123.483  1.00  0.00     0.094 A 
ATOM     36  C   UNL     1     140.529 147.284 125.797  1.00  0.00     0.093 A 
ATOM     37  C   UNL     1     139.769 147.952 124.847  1.00  0.00     0.123 A 
BRANCH  28  38
ATOM     38  C   UNL     1     142.192 144.093 121.979  1.00  0.00     0.025 A 
ATOM     39  C   UNL     1     142.929 145.231 121.693  1.00  0.00     0.062 A 
ATOM     40  C   UNL     1     142.926 142.897 121.750  1.00  0.00     0.016 A 
ATOM     41  C   UNL     1     143.820 145.228 120.567  1.00  0.00     0.158 A 
ATOM     42  C   UNL     1     143.616 142.848 120.503  1.00  0.00     0.051 A 
ATOM     43  C   UNL     1     144.044 144.038 119.884  1.00  0.00     0.157 A 
BRANCH  41  44
ATOM     44  O   UNL     1     144.312 146.461 120.045  1.00  0.00    -0.504 OA
ATOM     45  H   UNL     1     144.916 147.107 120.572  1.00  0.00     0.293 HD
ENDBRANCH  41  44
BRANCH  43  46
ATOM     46  O   UNL     1     144.608 144.071 118.620  1.00  0.00    -0.504 OA
ATOM     47  H   UNL     1     144.462 143.357 117.942  1.00  0.00     0.293 HD
ENDBRANCH  43  46
ENDBRANCH  28  38
BRANCH  34  48
ATOM     48  O   UNL     1     141.764 145.384 126.500  1.00  0.00    -0.507 OA
ATOM     49  H   UNL     1     142.171 144.463 126.242  1.00  0.00     0.293 HD
ENDBRANCH  34  48
BRANCH  37  50
ATOM     50  O   UNL     1     138.861 148.936 125.279  1.00  0.00    -0.508 OA
ATOM     51  H   UNL     1     138.786 149.749 124.668  1.00  0.00     0.293 HD
ENDBRANCH  37  50
ENDBRANCH  26  27
ENDBRANCH   5  26
BRANCH   4  52
ATOM     52  O   UNL     1     137.268 138.771 122.510  1.00  0.00    -0.384 OA
ATOM     53  H   UNL     1     136.745 137.996 122.842  1.00  0.00     0.211 HD
ENDBRANCH   4  52
TORSDOF 16
ENDMDL
MODEL 2
REMARK VINA RESULT:    -8.629      5.707      9.798
REMARK INTER + INTRA:         -14.739
REMARK INTER:                 -12.545
REMARK INTRA:                  -2.194
REMARK UNBOUND:                -1.570
REMARK SMILES C[C@@H]1O[C@H](OC[C@H]2O[C@@H](Oc3c(-c4ccc(O)c(O)c4)oc4cc(O)cc(O)c4c3=O)[C@H](O)[C@H](O)[C@H]2O)[C@@H](O)[C@@H](O)[C@H]1O
REMARK SMILES IDX 7 1 36 2 34 3 32 4 9 5 8 6 6 7 5 8 4 9 1 10 2 11 42 12 3 13
REMARK SMILES IDX 40 14 38 15 43 16 41 18 39 20 37 22 35 24 10 26 11 27 12 28
REMARK SMILES IDX 30 29 21 30 29 31 31 32 22 33 27 34 23 35 26 36 24 37 13 38
REMARK SMILES IDX 20 39 14 40 18 41 15 42 16 43 19 44 17 46 28 48 25 50 33 52
REMARK H PARENT 43 17 41 19 39 21 37 23 35 25 19 45 17 47 28 49 25 51 33 53
REMARK Flexibility Score: inf
ROOT
ATOM      1  C   UNL     1     141.731 146.250 130.512  1.00  0.00     0.180 C 
ATOM      2  C   UNL     1     142.434 147.241 131.272  1.00  0.00     0.177 C 
ATOM      3  C   UNL     1     143.855 146.846 131.028  1.00  0.00     0.180 C 
ATOM      4  C   UNL     1     144.158 145.188 131.041  1.00  0.00     0.214 C 
ATOM      5  C   UNL     1     142.805 144.015 131.114  1.00  0.00     0.339 C 
ATOM      6  O   UNL     1     141.698 144.964 131.274  1.00  0.00    -0.332 OA
ENDROOT
BRANCH   1   7
ATOM      7  C   UNL     1     141.491 146.829 128.891  1.00  0.00     0.198 C 
BRANCH   7   8
ATOM      8  O   UNL     1     140.372 147.447 128.064  1.00  0.00    -0.347 OA
BRANCH   8   9
ATOM      9  C   UNL     1     140.417 147.094 126.688  1.00  0.00     0.281 C 
ATOM     10  C   UNL     1     137.964 147.800 128.661  1.00  0.00     0.041 C 
ATOM     11  C   UNL     1     138.184 147.315 126.894  1.00  0.00     0.150 C 
ATOM     12  C   UNL     1     137.806 147.653 125.254  1.00  0.00     0.174 C 
ATOM     13  O   UNL     1     139.249 146.408 126.609  1.00  0.00    -0.344 OA
ATOM     14  C   UNL     1     139.019 148.340 124.334  1.00  0.00     0.179 C 
ATOM     15  C   UNL     1     140.421 148.200 125.331  1.00  0.00     0.202 C 
BRANCH  12  16
ATOM     16  O   UNL     1     137.562 146.327 124.654  1.00  0.00    -0.388 OA
ATOM     17  H   UNL     1     138.046 146.229 123.779  1.00  0.00     0.211 HD
ENDBRANCH  12  16
BRANCH  14  18
ATOM     18  O   UNL     1     139.037 147.825 122.914  1.00  0.00    -0.387 OA
ATOM     19  H   UNL     1     140.011 147.616 122.426  1.00  0.00     0.211 HD
ENDBRANCH  14  18
BRANCH  15  20
ATOM     20  O   UNL     1     141.583 147.993 124.471  1.00  0.00    -0.385 OA
ATOM     21  H   UNL     1     141.506 147.648 123.476  1.00  0.00     0.211 HD
ENDBRANCH  15  20
ENDBRANCH   8   9
ENDBRANCH   7   8
ENDBRANCH   1   7
BRANCH   2  22
ATOM     22  O   UNL     1     142.112 148.567 130.952  1.00  0.00    -0.387 OA
ATOM     23  H   UNL     1     142.897 149.053 130.455  1.00  0.00     0.211 HD
ENDBRANCH   2  22
BRANCH   3  24
ATOM     24  O   UNL     1     144.679 147.624 131.904  1.00  0.00    -0.387 OA
ATOM     25  H   UNL     1     143.956 147.991 132.515  1.00  0.00     0.211 HD
ENDBRANCH   3  24
BRANCH   5  26
ATOM     26  O   UNL     1     142.254 142.646 130.455  1.00  0.00    -0.454 OA
BRANCH  26  27
ATOM     27  C   UNL     1     142.238 141.634 129.264  1.00  0.00     0.214 A 
ATOM     28  C   UNL     1     141.197 141.077 128.282  1.00  0.00     0.180 A 
ATOM     29  C   UNL     1     143.211 141.676 128.156  1.00  0.00     0.239 A 
ATOM     30  O   UNL     1     140.763 141.897 127.305  1.00  0.00    -0.452 OA
ATOM     31  C   UNL     1     143.006 142.156 126.759  1.00  0.00     0.111 A 
ATOM     32  O   UNL     1     144.315 141.180 128.447  1.00  0.00    -0.285 OA
ATOM     33  C   UNL     1     141.649 142.454 126.441  1.00  0.00     0.146 A 
ATOM     34  C   UNL     1     143.940 142.370 125.721  1.00  0.00     0.134 A 
ATOM     35  C   UNL     1     141.354 143.456 125.461  1.00  0.00     0.094 A 
ATOM     36  C   UNL     1     143.682 143.328 124.755  1.00  0.00     0.093 A 
ATOM     37  C   UNL     1     142.476 144.013 124.751  1.00  0.00     0.123 A 
BRANCH  28  38
ATOM     38  C   UNL     1     141.377 139.621 127.665  1.00  0.00     0.025 A 
ATOM     39  C   UNL     1     140.620 139.255 126.563  1.00  0.00     0.062 A 
ATOM     40  C   UNL     1     141.897 138.499 128.366  1.00  0.00     0.016 A 
ATOM     41  C   UNL     1     139.775 138.097 126.643  1.00  0.00     0.158 A 
ATOM     42  C   UNL     1     140.952 137.464 128.624  1.00  0.00     0.051 A 
ATOM     43  C   UNL     1     139.852 137.278 127.765  1.00  0.00     0.157 A 
BRANCH  41  44
ATOM     44  O   UNL     1     138.742 137.901 125.679  1.00  0.00    -0.504 OA
ATOM     45  H   UNL     1     137.737 137.937 125.901  1.00  0.00     0.293 HD
ENDBRANCH  41  44
BRANCH  43  46
ATOM     46  O   UNL     1     138.834 136.376 128.023  1.00  0.00    -0.504 OA
ATOM     47  H   UNL     1     138.889 135.413 127.779  1.00  0.00     0.293 HD
ENDBRANCH  43  46
ENDBRANCH  28  38
BRANCH  34  48
ATOM     48  O   UNL     1     145.125 141.678 125.664  1.00  0.00    -0.507 OA
ATOM     49  H   UNL     1     145.121 140.790 125.125  1.00  0.00     0.293 HD
ENDBRANCH  34  48
BRANCH  37  50
ATOM     50  O   UNL     1     142.439 145.312 124.211  1.00  0.00    -0.508 OA
ATOM     51  H   UNL     1     141.695 145.907 124.574  1.00  0.00     0.293 HD
ENDBRANCH  37  50
ENDBRANCH  26  27
ENDBRANCH   5  26
BRANCH   4  52
ATOM     52  O   UNL     1     144.970 145.052 132.125  1.00  0.00    -0.384 OA
ATOM     53  H   UNL     1     145.860 144.853 131.733  1.00  0.00     0.211 HD
ENDBRANCH   4  52
TORSDOF 16
ENDMDL
MODEL 3
REMARK VINA RESULT:    -8.577      5.183     10.459
REMARK INTER + INTRA:         -14.660
REMARK INTER:                 -12.945
REMARK INTRA:                  -1.715
REMARK UNBOUND:                -1.570
REMARK SMILES C[C@@H]1O[C@H](OC[C@H]2O[C@@H](Oc3c(-c4ccc(O)c(O)c4)oc4cc(O)cc(O)c4c3=O)[C@H](O)[C@H](O)[C@H]2O)[C@@H](O)[C@@H](O)[C@H]1O
REMARK SMILES IDX 7 1 36 2 34 3 32 4 9 5 8 6 6 7 5 8 4 9 1 10 2 11 42 12 3 13
REMARK SMILES IDX 40 14 38 15 43 16 41 18 39 20 37 22 35 24 10 26 11 27 12 28
REMARK SMILES IDX 30 29 21 30 29 31 31 32 22 33 27 34 23 35 26 36 24 37 13 38
REMARK SMILES IDX 20 39 14 40 18 41 15 42 16 43 19 44 17 46 28 48 25 50 33 52
REMARK H PARENT 43 17 41 19 39 21 37 23 35 25 19 45 17 47 28 49 25 51 33 53
REMARK Flexibility Score: inf
ROOT
ATOM      1  C   UNL     1     134.710 138.252 122.630  1.00  0.00     0.180 C 
ATOM      2  C   UNL     1     135.924 137.938 121.935  1.00  0.00     0.177 C 
ATOM      3  C   UNL     1     136.778 139.114 122.287  1.00  0.00     0.180 C 
ATOM      4  C   UNL     1     135.992 140.605 122.286  1.00  0.00     0.214 C 
ATOM      5  C   UNL     1     134.213 140.698 122.098  1.00  0.00     0.339 C 
ATOM      6  O   UNL     1     133.942 139.276 121.859  1.00  0.00    -0.332 OA
ENDROOT
BRANCH   1   7
ATOM      7  C   UNL     1     134.772 137.580 124.231  1.00  0.00     0.198 C 
BRANCH   7   8
ATOM      8  O   UNL     1     135.786 136.883 125.129  1.00  0.00    -0.347 OA
BRANCH   8   9
ATOM      9  C   UNL     1     135.593 135.479 125.226  1.00  0.00     0.281 C 
ATOM     10  C   UNL     1     138.245 137.312 125.354  1.00  0.00     0.041 C 
ATOM     11  C   UNL     1     137.835 135.515 125.444  1.00  0.00     0.150 C 
ATOM     12  C   UNL     1     138.035 134.038 126.294  1.00  0.00     0.174 C 
ATOM     13  O   UNL     1     136.744 135.068 124.639  1.00  0.00    -0.344 OA
ATOM     14  C   UNL     1     136.732 133.511 127.196  1.00  0.00     0.179 C 
ATOM     15  C   UNL     1     135.445 134.551 126.703  1.00  0.00     0.202 C 
BRANCH  12  16
ATOM     16  O   UNL     1     138.212 133.026 125.234  1.00  0.00    -0.388 OA
ATOM     17  H   UNL     1     138.774 132.257 125.555  1.00  0.00     0.211 HD
ENDBRANCH  12  16
BRANCH  14  18
ATOM     18  O   UNL     1     136.560 132.011 127.156  1.00  0.00    -0.387 OA
ATOM     19  H   UNL     1     136.144 131.539 126.244  1.00  0.00     0.211 HD
ENDBRANCH  14  18
BRANCH  15  20
ATOM     20  O   UNL     1     134.197 133.794 126.740  1.00  0.00    -0.385 OA
ATOM     21  H   UNL     1     133.430 133.988 127.440  1.00  0.00     0.211 HD
ENDBRANCH  15  20
ENDBRANCH   8   9
ENDBRANCH   7   8
ENDBRANCH   1   7
BRANCH   2  22
ATOM     22  O   UNL     1     136.469 136.683 122.239  1.00  0.00    -0.387 OA
ATOM     23  H   UNL     1     136.748 136.609 123.246  1.00  0.00     0.211 HD
ENDBRANCH   2  22
BRANCH   3  24
ATOM     24  O   UNL     1     137.962 139.047 121.486  1.00  0.00    -0.387 OA
ATOM     25  H   UNL     1     138.084 140.038 121.303  1.00  0.00     0.211 HD
ENDBRANCH   3  24
BRANCH   5  26
ATOM     26  O   UNL     1     132.892 141.407 122.702  1.00  0.00    -0.454 OA
BRANCH  26  27
ATOM     27  C   UNL     1     132.235 142.583 123.494  1.00  0.00     0.214 A 
ATOM     28  C   UNL     1     131.817 144.032 123.205  1.00  0.00     0.180 A 
ATOM     29  C   UNL     1     131.010 142.427 124.301  1.00  0.00     0.239 A 
ATOM     30  O   UNL     1     130.723 144.223 122.441  1.00  0.00    -0.452 OA
ATOM     31  C   UNL     1     129.623 142.873 123.979  1.00  0.00     0.111 A 
ATOM     32  O   UNL     1     131.212 141.908 125.413  1.00  0.00    -0.285 OA
ATOM     33  C   UNL     1     129.532 143.690 122.814  1.00  0.00     0.146 A 
ATOM     34  C   UNL     1     128.401 142.602 124.634  1.00  0.00     0.134 A 
ATOM     35  C   UNL     1     128.332 143.680 122.032  1.00  0.00     0.094 A 
ATOM     36  C   UNL     1     127.223 142.590 123.908  1.00  0.00     0.093 A 
ATOM     37  C   UNL     1     127.224 142.927 122.562  1.00  0.00     0.123 A 
BRANCH  28  38
ATOM     38  C   UNL     1     131.800 145.110 124.375  1.00  0.00     0.025 A 
ATOM     39  C   UNL     1     131.296 146.376 124.123  1.00  0.00     0.062 A 
ATOM     40  C   UNL     1     132.636 145.076 125.525  1.00  0.00     0.016 A 
ATOM     41  C   UNL     1     132.130 147.523 124.346  1.00  0.00     0.158 A 
ATOM     42  C   UNL     1     133.610 146.115 125.587  1.00  0.00     0.051 A 
ATOM     43  C   UNL     1     133.367 147.352 124.960  1.00  0.00     0.157 A 
BRANCH  41  44
ATOM     44  O   UNL     1     131.779 148.782 123.775  1.00  0.00    -0.504 OA
ATOM     45  H   UNL     1     130.972 148.923 123.151  1.00  0.00     0.293 HD
ENDBRANCH  41  44
BRANCH  43  46
ATOM     46  O   UNL     1     134.315 148.357 124.877  1.00  0.00    -0.504 OA
ATOM     47  H   UNL     1     134.376 148.983 124.105  1.00  0.00     0.293 HD
ENDBRANCH  43  46
ENDBRANCH  28  38
BRANCH  34  48
ATOM     48  O   UNL     1     128.353 142.310 125.975  1.00  0.00    -0.507 OA
ATOM     49  H   UNL     1     128.866 142.952 126.612  1.00  0.00     0.293 HD
ENDBRANCH  34  48
BRANCH  37  50
ATOM     50  O   UNL     1     126.240 142.370 121.725  1.00  0.00    -0.508 OA
ATOM     51  H   UNL     1     126.566 142.108 120.795  1.00  0.00     0.293 HD
ENDBRANCH  37  50
ENDBRANCH  26  27
ENDBRANCH   5  26
BRANCH   4  52
ATOM     52  O   UNL     1     136.617 141.259 121.269  1.00  0.00    -0.384 OA
ATOM     53  H   UNL     1     137.385 140.672 121.045  1.00  0.00     0.211 HD
ENDBRANCH   4  52
TORSDOF 16
ENDMDL
MODEL 4
REMARK VINA RESULT:    -8.554      5.562     11.547
REMARK INTER + INTRA:         -14.624
REMARK INTER:                 -12.942
REMARK INTRA:                  -1.683
REMARK UNBOUND:                -1.570
REMARK SMILES C[C@@H]1O[C@H](OC[C@H]2O[C@@H](Oc3c(-c4ccc(O)c(O)c4)oc4cc(O)cc(O)c4c3=O)[C@H](O)[C@H](O)[C@H]2O)[C@@H](O)[C@@H](O)[C@H]1O
REMARK SMILES IDX 7 1 36 2 34 3 32 4 9 5 8 6 6 7 5 8 4 9 1 10 2 11 42 12 3 13
REMARK SMILES IDX 40 14 38 15 43 16 41 18 39 20 37 22 35 24 10 26 11 27 12 28
REMARK SMILES IDX 30 29 21 30 29 31 31 32 22 33 27 34 23 35 26 36 24 37 13 38
REMARK SMILES IDX 20 39 14 40 18 41 15 42 16 43 19 44 17 46 28 48 25 50 33 52
REMARK H PARENT 43 17 41 19 39 21 37 23 35 25 19 45 17 47 28 49 25 51 33 53
REMARK Flexibility Score: inf
ROOT
ATOM      1  C   UNL     1     139.686 140.425 128.657  1.00  0.00     0.180 C 
ATOM      2  C   UNL     1     140.436 140.831 129.808  1.00  0.00     0.177 C 
ATOM      3  C   UNL     1     140.769 139.510 130.425  1.00  0.00     0.180 C 
ATOM      4  C   UNL     1     139.529 138.368 130.401  1.00  0.00     0.214 C 
ATOM      5  C   UNL     1     138.020 138.679 129.487  1.00  0.00     0.339 C 
ATOM      6  O   UNL     1     138.297 140.057 129.067  1.00  0.00    -0.332 OA
ENDROOT
BRANCH   1   7
ATOM      7  C   UNL     1     140.766 140.202 127.314  1.00  0.00     0.198 C 
BRANCH   7   8
ATOM      8  O   UNL     1     142.111 140.739 126.842  1.00  0.00    -0.347 OA
BRANCH   8   9
ATOM      9  C   UNL     1     142.014 141.939 126.088  1.00  0.00     0.281 C 
ATOM     10  C   UNL     1     144.431 139.846 126.523  1.00  0.00     0.041 C 
ATOM     11  C   UNL     1     144.156 141.427 125.610  1.00  0.00     0.150 C 
ATOM     12  C   UNL     1     144.296 142.268 124.121  1.00  0.00     0.174 C 
ATOM     13  O   UNL     1     143.290 142.379 126.229  1.00  0.00    -0.344 OA
ATOM     14  C   UNL     1     142.883 142.516 123.266  1.00  0.00     0.179 C 
ATOM     15  C   UNL     1     141.644 142.068 124.381  1.00  0.00     0.202 C 
BRANCH  12  16
ATOM     16  O   UNL     1     144.763 143.615 124.503  1.00  0.00    -0.388 OA
ATOM     17  H   UNL     1     145.693 143.584 124.884  1.00  0.00     0.211 HD
ENDBRANCH  12  16
BRANCH  14  18
ATOM     18  O   UNL     1     142.843 143.861 122.580  1.00  0.00    -0.387 OA
ATOM     19  H   UNL     1     143.734 144.518 122.625  1.00  0.00     0.211 HD
ENDBRANCH  14  18
BRANCH  15  20
ATOM     20  O   UNL     1     140.478 142.915 124.146  1.00  0.00    -0.385 OA
ATOM     21  H   UNL     1     140.371 143.515 123.283  1.00  0.00     0.211 HD
ENDBRANCH  15  20
ENDBRANCH   8   9
ENDBRANCH   7   8
ENDBRANCH   1   7
BRANCH   2  22
ATOM     22  O   UNL     1     141.530 141.663 129.536  1.00  0.00    -0.387 OA
ATOM     23  H   UNL     1     141.490 142.062 128.568  1.00  0.00     0.211 HD
ENDBRANCH   2  22
BRANCH   3  24
ATOM     24  O   UNL     1     141.342 139.763 131.712  1.00  0.00    -0.387 OA
ATOM     25  H   UNL     1     141.862 138.898 131.825  1.00  0.00     0.211 HD
ENDBRANCH   3  24
BRANCH   5  26
ATOM     26  O   UNL     1     136.978 137.998 128.457  1.00  0.00    -0.454 OA
BRANCH  26  27
ATOM     27  C   UNL     1     136.694 137.312 127.081  1.00  0.00     0.214 A 
ATOM     28  C   UNL     1     137.506 136.559 126.017  1.00  0.00     0.180 A 
ATOM     29  C   UNL     1     135.593 136.354 126.870  1.00  0.00     0.239 A 
ATOM     30  O   UNL     1     137.908 135.307 126.313  1.00  0.00    -0.452 OA
ATOM     31  C   UNL     1     135.666 134.870 126.736  1.00  0.00     0.111 A 
ATOM     32  O   UNL     1     134.483 136.898 126.726  1.00  0.00    -0.285 OA
ATOM     33  C   UNL     1     136.995 134.360 126.646  1.00  0.00     0.146 A 
ATOM     34  C   UNL     1     134.636 133.904 126.701  1.00  0.00     0.134 A 
ATOM     35  C   UNL     1     137.284 133.043 127.129  1.00  0.00     0.094 A 
ATOM     36  C   UNL     1     134.885 132.621 127.157  1.00  0.00     0.093 A 
ATOM     37  C   UNL     1     136.159 132.255 127.563  1.00  0.00     0.123 A 
BRANCH  28  38
ATOM     38  C   UNL     1     137.051 136.587 124.493  1.00  0.00     0.025 A 
ATOM     39  C   UNL     1     137.818 135.930 123.545  1.00  0.00     0.062 A 
ATOM     40  C   UNL     1     136.195 137.566 123.918  1.00  0.00     0.016 A 
ATOM     41  C   UNL     1     138.341 136.666 122.428  1.00  0.00     0.158 A 
ATOM     42  C   UNL     1     136.823 138.430 122.974  1.00  0.00     0.051 A 
ATOM     43  C   UNL     1     137.937 137.983 122.237  1.00  0.00     0.157 A 
BRANCH  41  44
ATOM     44  O   UNL     1     139.400 136.118 121.646  1.00  0.00    -0.504 OA
ATOM     45  H   UNL     1     140.207 135.617 122.044  1.00  0.00     0.293 HD
ENDBRANCH  41  44
BRANCH  43  46
ATOM     46  O   UNL     1     138.667 138.806 121.397  1.00  0.00    -0.504 OA
ATOM     47  H   UNL     1     138.703 139.796 121.504  1.00  0.00     0.293 HD
ENDBRANCH  43  46
ENDBRANCH  28  38
BRANCH  34  48
ATOM     48  O   UNL     1     133.373 134.215 126.261  1.00  0.00    -0.507 OA
ATOM     49  H   UNL     1     132.580 133.764 126.758  1.00  0.00     0.293 HD
ENDBRANCH  34  48
BRANCH  37  50
ATOM     50  O   UNL     1     136.296 131.241 128.529  1.00  0.00    -0.508 OA
ATOM     51  H   UNL     1     136.784 131.521 129.379  1.00  0.00     0.293 HD
ENDBRANCH  37  50
ENDBRANCH  26  27
ENDBRANCH   5  26
BRANCH   4  52
ATOM     52  O   UNL     1     139.263 138.204 131.726  1.00  0.00    -0.384 OA
ATOM     53  H   UNL     1     138.411 137.696 131.738  1.00  0.00     0.211 HD
ENDBRANCH   4  52
TORSDOF 16
ENDMDL
MODEL 5
REMARK VINA RESULT:    -8.310      5.161     10.581
REMARK INTER + INTRA:         -14.252
REMARK INTER:                 -11.898
REMARK INTRA:                  -2.354
REMARK UNBOUND:                -1.570
REMARK SMILES C[C@@H]1O[C@H](OC[C@H]2O[C@@H](Oc3c(-c4ccc(O)c(O)c4)oc4cc(O)cc(O)c4c3=O)[C@H](O)[C@H](O)[C@H]2O)[C@@H](O)[C@@H](O)[C@H]1O
REMARK SMILES IDX 7 1 36 2 34 3 32 4 9 5 8 6 6 7 5 8 4 9 1 10 2 11 42 12 3 13
REMARK SMILES IDX 40 14 38 15 43 16 41 18 39 20 37 22 35 24 10 26 11 27 12 28
REMARK SMILES IDX 30 29 21 30 29 31 31 32 22 33 27 34 23 35 26 36 24 37 13 38
REMARK SMILES IDX 20 39 14 40 18 41 15 42 16 43 19 44 17 46 28 48 25 50 33 52
REMARK H PARENT 43 17 41 19 39 21 37 23 35 25 19 45 17 47 28 49 25 51 33 53
REMARK Flexibility Score: inf
ROOT
ATOM      1  C   UNL     1     135.320 138.279 122.507  1.00  0.00     0.180 C 
ATOM      2  C   UNL     1     136.435 137.592 121.925  1.00  0.00     0.177 C 
ATOM      3  C   UNL     1     137.562 138.512 122.271  1.00  0.00     0.180 C 
ATOM      4  C   UNL     1     137.223 140.157 122.123  1.00  0.00     0.214 C 
ATOM      5  C   UNL     1     135.554 140.719 121.797  1.00  0.00     0.339 C 
ATOM      6  O   UNL     1     134.911 139.412 121.622  1.00  0.00    -0.332 OA
ENDROOT
BRANCH   1   7
ATOM      7  C   UNL     1     135.102 137.741 124.145  1.00  0.00     0.198 C 
BRANCH   7   8
ATOM      8  O   UNL     1     135.843 136.885 125.164  1.00  0.00    -0.347 OA
BRANCH   8   9
ATOM      9  C   UNL     1     135.353 135.554 125.255  1.00  0.00     0.281 C 
ATOM     10  C   UNL     1     138.327 136.786 125.485  1.00  0.00     0.041 C 
ATOM     11  C   UNL     1     137.543 135.116 125.561  1.00  0.00     0.150 C 
ATOM     12  C   UNL     1     137.393 133.638 126.420  1.00  0.00     0.174 C 
ATOM     13  O   UNL     1     136.413 134.903 124.714  1.00  0.00    -0.344 OA
ATOM     14  C   UNL     1     135.973 133.408 127.270  1.00  0.00     0.179 C 
ATOM     15  C   UNL     1     134.956 134.692 126.726  1.00  0.00     0.202 C 
BRANCH  12  16
ATOM     16  O   UNL     1     137.391 132.602 125.369  1.00  0.00    -0.388 OA
ATOM     17  H   UNL     1     136.640 131.949 125.503  1.00  0.00     0.211 HD
ENDBRANCH  12  16
BRANCH  14  18
ATOM     18  O   UNL     1     135.490 131.978 127.224  1.00  0.00    -0.387 OA
ATOM     19  H   UNL     1     136.152 131.197 126.801  1.00  0.00     0.211 HD
ENDBRANCH  14  18
BRANCH  15  20
ATOM     20  O   UNL     1     133.575 134.216 126.714  1.00  0.00    -0.385 OA
ATOM     21  H   UNL     1     132.954 134.279 125.862  1.00  0.00     0.211 HD
ENDBRANCH  15  20
ENDBRANCH   8   9
ENDBRANCH   7   8
ENDBRANCH   1   7
BRANCH   2  22
ATOM     22  O   UNL     1     136.592 136.263 122.341  1.00  0.00    -0.387 OA
ATOM     23  H   UNL     1     136.794 135.620 121.539  1.00  0.00     0.211 HD
ENDBRANCH   2  22
BRANCH   3  24
ATOM     24  O   UNL     1     138.723 138.061 121.565  1.00  0.00    -0.387 OA
ATOM     25  H   UNL     1     139.123 138.964 121.329  1.00  0.00     0.211 HD
ENDBRANCH   3  24
BRANCH   5  26
ATOM     26  O   UNL     1     134.451 141.807 122.258  1.00  0.00    -0.454 OA
BRANCH  26  27
ATOM     27  C   UNL     1     133.213 142.184 123.133  1.00  0.00     0.214 A 
ATOM     28  C   UNL     1     131.688 142.026 123.043  1.00  0.00     0.180 A 
ATOM     29  C   UNL     1     133.124 141.889 124.576  1.00  0.00     0.239 A 
ATOM     30  O   UNL     1     131.178 140.794 123.241  1.00  0.00    -0.452 OA
ATOM     31  C   UNL     1     132.329 140.827 125.259  1.00  0.00     0.111 A 
ATOM     32  O   UNL     1     133.759 142.689 125.285  1.00  0.00    -0.285 OA
ATOM     33  C   UNL     1     131.430 140.131 124.398  1.00  0.00     0.146 A 
ATOM     34  C   UNL     1     132.342 140.401 126.605  1.00  0.00     0.134 A 
ATOM     35  C   UNL     1     131.088 138.769 124.681  1.00  0.00     0.094 A 
ATOM     36  C   UNL     1     132.012 139.092 126.912  1.00  0.00     0.093 A 
ATOM     37  C   UNL     1     131.584 138.224 125.918  1.00  0.00     0.123 A 
BRANCH  28  38
ATOM     38  C   UNL     1     130.729 143.079 123.753  1.00  0.00     0.025 A 
ATOM     39  C   UNL     1     129.358 142.969 123.584  1.00  0.00     0.062 A 
ATOM     40  C   UNL     1     131.123 144.376 124.183  1.00  0.00     0.016 A 
ATOM     41  C   UNL     1     128.625 144.077 123.041  1.00  0.00     0.158 A 
ATOM     42  C   UNL     1     130.536 145.451 123.454  1.00  0.00     0.051 A 
ATOM     43  C   UNL     1     129.277 145.290 122.844  1.00  0.00     0.157 A 
BRANCH  41  44
ATOM     44  O   UNL     1     127.307 143.879 122.533  1.00  0.00    -0.504 OA
ATOM     45  H   UNL     1     127.078 143.230 121.767  1.00  0.00     0.293 HD
ENDBRANCH  41  44
BRANCH  43  46
ATOM     46  O   UNL     1     128.707 146.247 122.022  1.00  0.00    -0.504 OA
ATOM     47  H   UNL     1     127.903 146.774 122.281  1.00  0.00     0.293 HD
ENDBRANCH  43  46
ENDBRANCH  28  38
BRANCH  34  48
ATOM     48  O   UNL     1     132.713 141.244 127.623  1.00  0.00    -0.507 OA
ATOM     49  H   UNL     1     132.884 142.237 127.369  1.00  0.00     0.293 HD
ENDBRANCH  34  48
BRANCH  37  50
ATOM     50  O   UNL     1     131.819 136.846 126.078  1.00  0.00    -0.508 OA
ATOM     51  H   UNL     1     132.100 136.357 125.228  1.00  0.00     0.293 HD
ENDBRANCH  37  50
ENDBRANCH  26  27
ENDBRANCH   5  26
BRANCH   4  52
ATOM     52  O   UNL     1     138.062 140.534 121.119  1.00  0.00    -0.384 OA
ATOM     53  H   UNL     1     137.474 140.579 120.321  1.00  0.00     0.211 HD
ENDBRANCH   4  52
TORSDOF 16
ENDMDL
MODEL 6
REMARK VINA RESULT:    -8.275      4.771      5.957
REMARK INTER + INTRA:         -14.199
REMARK INTER:                 -11.180
REMARK INTRA:                  -3.019
REMARK UNBOUND:                -1.570
REMARK SMILES C[C@@H]1O[C@H](OC[C@H]2O[C@@H](Oc3c(-c4ccc(O)c(O)c4)oc4cc(O)cc(O)c4c3=O)[C@H](O)[C@H](O)[C@H]2O)[C@@H](O)[C@@H](O)[C@H]1O
REMARK SMILES IDX 7 1 36 2 34 3 32 4 9 5 8 6 6 7 5 8 4 9 1 10 2 11 42 12 3 13
REMARK SMILES IDX 40 14 38 15 43 16 41 18 39 20 37 22 35 24 10 26 11 27 12 28
REMARK SMILES IDX 30 29 21 30 29 31 31 32 22 33 27 34 23 35 26 36 24 37 13 38
REMARK SMILES IDX 20 39 14 40 18 41 15 42 16 43 19 44 17 46 28 48 25 50 33 52
REMARK H PARENT 43 17 41 19 39 21 37 23 35 25 19 45 17 47 28 49 25 51 33 53
REMARK Flexibility Score: inf
ROOT
ATOM      1  C   UNL     1     139.651 137.835 123.156  1.00  0.00     0.180 C 
ATOM      2  C   UNL     1     139.228 136.466 123.124  1.00  0.00     0.177 C 
ATOM      3  C   UNL     1     138.120 136.477 124.128  1.00  0.00     0.180 C 
ATOM      4  C   UNL     1     138.408 137.394 125.513  1.00  0.00     0.214 C 
ATOM      5  C   UNL     1     139.853 138.447 125.625  1.00  0.00     0.339 C 
ATOM      6  O   UNL     1     140.499 138.069 124.364  1.00  0.00    -0.332 OA
ENDROOT
BRANCH   1   7
ATOM      7  C   UNL     1     138.751 138.745 121.980  1.00  0.00     0.198 C 
BRANCH   7   8
ATOM      8  O   UNL     1     138.776 140.138 121.366  1.00  0.00    -0.347 OA
BRANCH   8   9
ATOM      9  C   UNL     1     139.100 141.165 122.293  1.00  0.00     0.281 C 
ATOM     10  C   UNL     1     138.986 141.118 119.069  1.00  0.00     0.041 C 
ATOM     11  C   UNL     1     139.396 142.338 120.392  1.00  0.00     0.150 C 
ATOM     12  C   UNL     1     139.143 143.915 121.019  1.00  0.00     0.174 C 
ATOM     13  O   UNL     1     140.034 141.822 121.560  1.00  0.00    -0.344 OA
ATOM     14  C   UNL     1     138.191 144.032 122.387  1.00  0.00     0.179 C 
ATOM     15  C   UNL     1     138.014 142.395 122.904  1.00  0.00     0.202 C 
BRANCH  12  16
ATOM     16  O   UNL     1     140.485 144.363 121.438  1.00  0.00    -0.388 OA
ATOM     17  H   UNL     1     141.139 143.600 121.444  1.00  0.00     0.211 HD
ENDBRANCH  12  16
BRANCH  14  18
ATOM     18  O   UNL     1     138.678 145.088 123.350  1.00  0.00    -0.387 OA
ATOM     19  H   UNL     1     139.676 144.974 123.820  1.00  0.00     0.211 HD
ENDBRANCH  14  18
BRANCH  15  20
ATOM     20  O   UNL     1     137.943 142.374 124.363  1.00  0.00    -0.385 OA
ATOM     21  H   UNL     1     137.172 141.883 124.892  1.00  0.00     0.211 HD
ENDBRANCH  15  20
ENDBRANCH   8   9
ENDBRANCH   7   8
ENDBRANCH   1   7
BRANCH   2  22
ATOM     22  O   UNL     1     138.885 135.984 121.853  1.00  0.00    -0.387 OA
ATOM     23  H   UNL     1     138.248 136.641 121.341  1.00  0.00     0.211 HD
ENDBRANCH   2  22
BRANCH   3  24
ATOM     24  O   UNL     1     137.734 135.119 124.364  1.00  0.00    -0.387 OA
ATOM     25  H   UNL     1     137.483 135.195 125.344  1.00  0.00     0.211 HD
ENDBRANCH   3  24
BRANCH   5  26
ATOM     26  O   UNL     1     140.332 139.929 126.056  1.00  0.00    -0.454 OA
BRANCH  26  27
ATOM     27  C   UNL     1     141.322 141.127 125.893  1.00  0.00     0.214 A 
ATOM     28  C   UNL     1     141.465 142.343 124.966  1.00  0.00     0.180 A 
ATOM     29  C   UNL     1     141.751 141.978 127.019  1.00  0.00     0.239 A 
ATOM     30  O   UNL     1     140.602 143.363 125.141  1.00  0.00    -0.452 OA
ATOM     31  C   UNL     1     141.318 143.367 127.350  1.00  0.00     0.111 A 
ATOM     32  O   UNL     1     142.635 141.459 127.724  1.00  0.00    -0.285 OA
ATOM     33  C   UNL     1     140.511 143.979 126.346  1.00  0.00     0.146 A 
ATOM     34  C   UNL     1     141.570 144.152 128.497  1.00  0.00     0.134 A 
ATOM     35  C   UNL     1     139.540 144.963 126.719  1.00  0.00     0.094 A 
ATOM     36  C   UNL     1     140.653 145.116 128.881  1.00  0.00     0.093 A 
ATOM     37  C   UNL     1     139.536 145.373 128.100  1.00  0.00     0.123 A 
BRANCH  28  38
ATOM     38  C   UNL     1     142.902 142.956 124.663  1.00  0.00     0.025 A 
ATOM     39  C   UNL     1     142.996 144.175 124.012  1.00  0.00     0.062 A 
ATOM     40  C   UNL     1     144.107 142.204 124.588  1.00  0.00     0.016 A 
ATOM     41  C   UNL     1     143.733 144.262 122.783  1.00  0.00     0.158 A 
ATOM     42  C   UNL     1     144.685 142.128 123.287  1.00  0.00     0.051 A 
ATOM     43  C   UNL     1     144.468 143.162 122.355  1.00  0.00     0.157 A 
BRANCH  41  44
ATOM     44  O   UNL     1     143.556 145.387 121.924  1.00  0.00    -0.504 OA
ATOM     45  H   UNL     1     142.659 145.639 121.486  1.00  0.00     0.293 HD
ENDBRANCH  41  44
BRANCH  43  46
ATOM     46  O   UNL     1     144.895 143.096 121.040  1.00  0.00    -0.504 OA
ATOM     47  H   UNL     1     144.897 143.883 120.430  1.00  0.00     0.293 HD
ENDBRANCH  43  46
ENDBRANCH  28  38
BRANCH  34  48
ATOM     48  O   UNL     1     142.688 143.960 129.271  1.00  0.00    -0.507 OA
ATOM     49  H   UNL     1     143.294 144.789 129.431  1.00  0.00     0.293 HD
ENDBRANCH  34  48
BRANCH  37  50
ATOM     50  O   UNL     1     138.372 145.860 128.724  1.00  0.00    -0.508 OA
ATOM     51  H   UNL     1     137.592 145.204 128.746  1.00  0.00     0.293 HD
ENDBRANCH  37  50
ENDBRANCH  26  27
ENDBRANCH   5  26
BRANCH   4  52
ATOM     52  O   UNL     1     138.430 136.443 126.487  1.00  0.00    -0.384 OA
ATOM     53  H   UNL     1     138.587 135.598 125.993  1.00  0.00     0.211 HD
ENDBRANCH   4  52
TORSDOF 16
ENDMDL
MODEL 7
REMARK VINA RESULT:    -8.245      4.275      9.977
REMARK INTER + INTRA:         -14.153
REMARK INTER:                 -12.442
REMARK INTRA:                  -1.712
REMARK UNBOUND:                -1.570
REMARK SMILES C[C@@H]1O[C@H](OC[C@H]2O[C@@H](Oc3c(-c4ccc(O)c(O)c4)oc4cc(O)cc(O)c4c3=O)[C@H](O)[C@H](O)[C@H]2O)[C@@H](O)[C@@H](O)[C@H]1O
REMARK SMILES IDX 7 1 36 2 34 3 32 4 9 5 8 6 6 7 5 8 4 9 1 10 2 11 42 12 3 13
REMARK SMILES IDX 40 14 38 15 43 16 41 18 39 20 37 22 35 24 10 26 11 27 12 28
REMARK SMILES IDX 30 29 21 30 29 31 31 32 22 33 27 34 23 35 26 36 24 37 13 38
REMARK SMILES IDX 20 39 14 40 18 41 15 42 16 43 19 44 17 46 28 48 25 50 33 52
REMARK H PARENT 43 17 41 19 39 21 37 23 35 25 19 45 17 47 28 49 25 51 33 53
REMARK Flexibility Score: inf
ROOT
ATOM      1  C   UNL     1     139.703 141.294 121.822  1.00  0.00     0.180 C 
ATOM      2  C   UNL     1     139.495 142.243 120.768  1.00  0.00     0.177 C 
ATOM      3  C   UNL     1     138.059 142.604 120.977  1.00  0.00     0.180 C 
ATOM      4  C   UNL     1     137.040 141.320 121.371  1.00  0.00     0.214 C 
ATOM      5  C   UNL     1     137.713 139.699 121.731  1.00  0.00     0.339 C 
ATOM      6  O   UNL     1     139.123 139.974 121.430  1.00  0.00    -0.332 OA
ENDROOT
BRANCH   1   7
ATOM      7  C   UNL     1     140.241 142.126 123.250  1.00  0.00     0.198 C 
BRANCH   7   8
ATOM      8  O   UNL     1     141.104 143.331 123.601  1.00  0.00    -0.347 OA
BRANCH   8   9
ATOM      9  C   UNL     1     140.400 144.357 124.287  1.00  0.00     0.281 C 
ATOM     10  C   UNL     1     143.296 144.298 122.865  1.00  0.00     0.041 C 
ATOM     11  C   UNL     1     142.267 145.518 123.794  1.00  0.00     0.150 C 
ATOM     12  C   UNL     1     141.606 147.100 123.837  1.00  0.00     0.174 C 
ATOM     13  O   UNL     1     141.457 144.997 124.848  1.00  0.00    -0.344 OA
ATOM     14  C   UNL     1     139.970 147.236 123.528  1.00  0.00     0.179 C 
ATOM     15  C   UNL     1     139.410 145.604 123.559  1.00  0.00     0.202 C 
BRANCH  12  16
ATOM     16  O   UNL     1     141.777 147.532 125.238  1.00  0.00    -0.388 OA
ATOM     17  H   UNL     1     140.948 147.983 125.583  1.00  0.00     0.211 HD
ENDBRANCH  12  16
BRANCH  14  18
ATOM     18  O   UNL     1     139.300 148.289 124.378  1.00  0.00    -0.387 OA
ATOM     19  H   UNL     1     138.671 149.060 123.889  1.00  0.00     0.211 HD
ENDBRANCH  14  18
BRANCH  15  20
ATOM     20  O   UNL     1     138.050 145.589 124.091  1.00  0.00    -0.385 OA
ATOM     21  H   UNL     1     137.451 144.720 124.109  1.00  0.00     0.211 HD
ENDBRANCH  15  20
ENDBRANCH   8   9
ENDBRANCH   7   8
ENDBRANCH   1   7
BRANCH   2  22
ATOM     22  O   UNL     1     140.392 143.319 120.758  1.00  0.00    -0.387 OA
ATOM     23  H   UNL     1     141.378 143.008 120.585  1.00  0.00     0.211 HD
ENDBRANCH   2  22
BRANCH   3  24
ATOM     24  O   UNL     1     137.642 143.393 119.857  1.00  0.00    -0.387 OA
ATOM     25  H   UNL     1     136.643 143.400 120.033  1.00  0.00     0.211 HD
ENDBRANCH   3  24
BRANCH   5  26
ATOM     26  O   UNL     1     137.612 138.468 122.773  1.00  0.00    -0.454 OA
BRANCH  26  27
ATOM     27  C   UNL     1     138.051 137.798 124.115  1.00  0.00     0.214 A 
ATOM     28  C   UNL     1     137.749 137.982 125.610  1.00  0.00     0.180 A 
ATOM     29  C   UNL     1     138.042 136.338 124.328  1.00  0.00     0.239 A 
ATOM     30  O   UNL     1     136.542 137.578 126.054  1.00  0.00    -0.452 OA
ATOM     31  C   UNL     1     137.074 135.520 125.116  1.00  0.00     0.111 A 
ATOM     32  O   UNL     1     139.020 135.758 123.822  1.00  0.00    -0.285 OA
ATOM     33  C   UNL     1     136.147 136.292 125.877  1.00  0.00     0.146 A 
ATOM     34  C   UNL     1     136.929 134.119 125.210  1.00  0.00     0.134 A 
ATOM     35  C   UNL     1     134.845 135.764 126.155  1.00  0.00     0.094 A 
ATOM     36  C   UNL     1     135.684 133.577 125.483  1.00  0.00     0.093 A 
ATOM     37  C   UNL     1     134.602 134.403 125.750  1.00  0.00     0.123 A 
BRANCH  28  38
ATOM     38  C   UNL     1     138.837 137.589 126.702  1.00  0.00     0.025 A 
ATOM     39  C   UNL     1     138.429 137.316 127.997  1.00  0.00     0.062 A 
ATOM     40  C   UNL     1     140.221 137.907 126.622  1.00  0.00     0.016 A 
ATOM     41  C   UNL     1     138.977 138.078 129.084  1.00  0.00     0.158 A 
ATOM     42  C   UNL     1     140.674 138.852 127.589  1.00  0.00     0.051 A 
ATOM     43  C   UNL     1     140.021 138.962 128.831  1.00  0.00     0.157 A 
BRANCH  41  44
ATOM     44  O   UNL     1     138.335 138.068 130.357  1.00  0.00    -0.504 OA
ATOM     45  H   UNL     1     137.542 138.678 130.604  1.00  0.00     0.293 HD
ENDBRANCH  41  44
BRANCH  43  46
ATOM     46  O   UNL     1     140.330 139.938 129.764  1.00  0.00    -0.504 OA
ATOM     47  H   UNL     1     141.226 140.015 130.191  1.00  0.00     0.293 HD
ENDBRANCH  43  46
ENDBRANCH  28  38
BRANCH  34  48
ATOM     48  O   UNL     1     137.986 133.269 124.999  1.00  0.00    -0.507 OA
ATOM     49  H   UNL     1     138.196 132.587 125.755  1.00  0.00     0.293 HD
ENDBRANCH  34  48
BRANCH  37  50
ATOM     50  O   UNL     1     133.308 133.943 125.442  1.00  0.00    -0.508 OA
ATOM     51  H   UNL     1     133.051 134.013 124.458  1.00  0.00     0.293 HD
ENDBRANCH  37  50
ENDBRANCH  26  27
ENDBRANCH   5  26
BRANCH   4  52
ATOM     52  O   UNL     1     136.213 141.268 120.291  1.00  0.00    -0.384 OA
ATOM     53  H   UNL     1     135.306 141.205 120.688  1.00  0.00     0.211 HD
ENDBRANCH   4  52
TORSDOF 16
ENDMDL
MODEL 8
REMARK VINA RESULT:    -8.188      4.166      9.530
REMARK INTER + INTRA:         -14.065
REMARK INTER:                 -11.039
REMARK INTRA:                  -3.026
REMARK UNBOUND:                -1.570
REMARK SMILES C[C@@H]1O[C@H](OC[C@H]2O[C@@H](Oc3c(-c4ccc(O)c(O)c4)oc4cc(O)cc(O)c4c3=O)[C@H](O)[C@H](O)[C@H]2O)[C@@H](O)[C@@H](O)[C@H]1O
REMARK SMILES IDX 7 1 36 2 34 3 32 4 9 5 8 6 6 7 5 8 4 9 1 10 2 11 42 12 3 13
REMARK SMILES IDX 40 14 38 15 43 16 41 18 39 20 37 22 35 24 10 26 11 27 12 28
REMARK SMILES IDX 30 29 21 30 29 31 31 32 22 33 27 34 23 35 26 36 24 37 13 38
REMARK SMILES IDX 20 39 14 40 18 41 15 42 16 43 19 44 17 46 28 48 25 50 33 52
REMARK H PARENT 43 17 41 19 39 21 37 23 35 25 19 45 17 47 28 49 25 51 33 53
REMARK Flexibility Score: inf
ROOT
ATOM      1  C   UNL     1     139.503 146.717 124.108  1.00  0.00     0.180 C 
ATOM      2  C   UNL     1     140.034 147.984 124.514  1.00  0.00     0.177 C 
ATOM      3  C   UNL     1     140.962 147.576 125.614  1.00  0.00     0.180 C 
ATOM      4  C   UNL     1     140.382 146.369 126.639  1.00  0.00     0.214 C 
ATOM      5  C   UNL     1     138.859 145.506 126.260  1.00  0.00     0.339 C 
ATOM      6  O   UNL     1     138.456 146.278 125.080  1.00  0.00    -0.332 OA
ENDROOT
BRANCH   1   7
ATOM      7  C   UNL     1     140.504 146.046 122.856  1.00  0.00     0.198 C 
BRANCH   7   8
ATOM      8  O   UNL     1     141.917 145.498 122.708  1.00  0.00    -0.347 OA
BRANCH   8   9
ATOM      9  C   UNL     1     142.104 144.228 123.318  1.00  0.00     0.281 C 
ATOM     10  C   UNL     1     143.540 145.654 120.805  1.00  0.00     0.041 C 
ATOM     11  C   UNL     1     143.653 144.039 121.692  1.00  0.00     0.150 C 
ATOM     12  C   UNL     1     144.673 142.880 122.441  1.00  0.00     0.174 C 
ATOM     13  O   UNL     1     142.433 143.512 122.214  1.00  0.00    -0.344 OA
ATOM     14  C   UNL     1     144.646 142.828 124.110  1.00  0.00     0.179 C 
ATOM     15  C   UNL     1     143.300 143.824 124.530  1.00  0.00     0.202 C 
BRANCH  12  16
ATOM     16  O   UNL     1     144.134 141.579 122.000  1.00  0.00    -0.388 OA
ATOM     17  H   UNL     1     144.697 140.818 122.339  1.00  0.00     0.211 HD
ENDBRANCH  12  16
BRANCH  14  18
ATOM     18  O   UNL     1     144.756 141.423 124.653  1.00  0.00    -0.387 OA
ATOM     19  H   UNL     1     143.916 140.716 124.498  1.00  0.00     0.211 HD
ENDBRANCH  14  18
BRANCH  15  20
ATOM     20  O   UNL     1     142.681 143.282 125.737  1.00  0.00    -0.385 OA
ATOM     21  H   UNL     1     141.645 143.092 125.814  1.00  0.00     0.211 HD
ENDBRANCH  15  20
ENDBRANCH   8   9
ENDBRANCH   7   8
ENDBRANCH   1   7
BRANCH   2  22
ATOM     22  O   UNL     1     140.614 148.738 123.485  1.00  0.00    -0.387 OA
ATOM     23  H   UNL     1     141.245 148.160 122.880  1.00  0.00     0.211 HD
ENDBRANCH   2  22
BRANCH   3  24
ATOM     24  O   UNL     1     141.412 148.768 126.267  1.00  0.00    -0.387 OA
ATOM     25  H   UNL     1     140.620 148.919 126.883  1.00  0.00     0.211 HD
ENDBRANCH   3  24
BRANCH   5  26
ATOM     26  O   UNL     1     138.199 144.032 126.195  1.00  0.00    -0.454 OA
BRANCH  26  27
ATOM     27  C   UNL     1     138.231 142.563 125.665  1.00  0.00     0.214 A 
ATOM     28  C   UNL     1     137.210 141.530 125.167  1.00  0.00     0.180 A 
ATOM     29  C   UNL     1     139.157 142.104 124.613  1.00  0.00     0.239 A 
ATOM     30  O   UNL     1     136.671 141.727 123.947  1.00  0.00    -0.452 OA
ATOM     31  C   UNL     1     138.862 141.811 123.180  1.00  0.00     0.111 A 
ATOM     32  O   UNL     1     140.309 141.886 125.028  1.00  0.00    -0.285 OA
ATOM     33  C   UNL     1     137.474 141.830 122.857  1.00  0.00     0.146 A 
ATOM     34  C   UNL     1     139.738 141.535 122.106  1.00  0.00     0.134 A 
ATOM     35  C   UNL     1     137.058 142.191 121.536  1.00  0.00     0.094 A 
ATOM     36  C   UNL     1     139.363 141.867 120.816  1.00  0.00     0.093 A 
ATOM     37  C   UNL     1     138.101 142.386 120.562  1.00  0.00     0.123 A 
BRANCH  28  38
ATOM     38  C   UNL     1     137.495 139.974 125.337  1.00  0.00     0.025 A 
ATOM     39  C   UNL     1     138.367 139.549 126.326  1.00  0.00     0.062 A 
ATOM     40  C   UNL     1     137.304 138.996 124.322  1.00  0.00     0.016 A 
ATOM     41  C   UNL     1     139.515 138.765 125.964  1.00  0.00     0.158 A 
ATOM     42  C   UNL     1     138.504 138.405 123.828  1.00  0.00     0.051 A 
ATOM     43  C   UNL     1     139.641 138.316 124.654  1.00  0.00     0.157 A 
BRANCH  41  44
ATOM     44  O   UNL     1     140.595 138.617 126.883  1.00  0.00    -0.504 OA
ATOM     45  H   UNL     1     140.904 139.357 127.529  1.00  0.00     0.293 HD
ENDBRANCH  41  44
BRANCH  43  46
ATOM     46  O   UNL     1     140.870 137.868 124.201  1.00  0.00    -0.504 OA
ATOM     47  H   UNL     1     141.736 138.227 124.538  1.00  0.00     0.293 HD
ENDBRANCH  43  46
ENDBRANCH  28  38
BRANCH  34  48
ATOM     48  O   UNL     1     140.976 140.977 122.311  1.00  0.00    -0.507 OA
ATOM     49  H   UNL     1     141.387 141.089 123.259  1.00  0.00     0.293 HD
ENDBRANCH  34  48
BRANCH  37  50
ATOM     50  O   UNL     1     137.931 143.238 119.455  1.00  0.00    -0.508 OA
ATOM     51  H   UNL     1     138.493 144.088 119.478  1.00  0.00     0.293 HD
ENDBRANCH  37  50
ENDBRANCH  26  27
ENDBRANCH   5  26
BRANCH   4  52
ATOM     52  O   UNL     1     140.281 147.026 127.827  1.00  0.00    -0.384 OA
ATOM     53  H   UNL     1     140.414 146.314 128.505  1.00  0.00     0.211 HD
ENDBRANCH   4  52
TORSDOF 16
ENDMDL
MODEL 9
REMARK VINA RESULT:    -8.145      4.448      9.991
REMARK INTER + INTRA:         -14.000
REMARK INTER:                 -10.902
REMARK INTRA:                  -3.099
REMARK UNBOUND:                -1.570
REMARK SMILES C[C@@H]1O[C@H](OC[C@H]2O[C@@H](Oc3c(-c4ccc(O)c(O)c4)oc4cc(O)cc(O)c4c3=O)[C@H](O)[C@H](O)[C@H]2O)[C@@H](O)[C@@H](O)[C@H]1O
REMARK SMILES IDX 7 1 36 2 34 3 32 4 9 5 8 6 6 7 5 8 4 9 1 10 2 11 42 12 3 13
REMARK SMILES IDX 40 14 38 15 43 16 41 18 39 20 37 22 35 24 10 26 11 27 12 28
REMARK SMILES IDX 30 29 21 30 29 31 31 32 22 33 27 34 23 35 26 36 24 37 13 38
REMARK SMILES IDX 20 39 14 40 18 41 15 42 16 43 19 44 17 46 28 48 25 50 33 52
REMARK H PARENT 43 17 41 19 39 21 37 23 35 25 19 45 17 47 28 49 25 51 33 53
REMARK Flexibility Score: inf
ROOT
ATOM      1  C   UNL     1     140.707 141.644 127.117  1.00  0.00     0.180 C 
ATOM      2  C   UNL     1     141.992 142.278 127.085  1.00  0.00     0.177 C 
ATOM      3  C   UNL     1     142.596 141.659 125.866  1.00  0.00     0.180 C 
ATOM      4  C   UNL     1     142.298 140.011 125.668  1.00  0.00     0.214 C 
ATOM      5  C   UNL     1     141.143 139.159 126.740  1.00  0.00     0.339 C 
ATOM      6  O   UNL     1     140.844 140.260 127.662  1.00  0.00    -0.332 OA
ENDROOT
BRANCH   1   7
ATOM      7  C   UNL     1     139.571 142.599 126.212  1.00  0.00     0.198 C 
BRANCH   7   8
ATOM      8  O   UNL     1     139.360 143.044 124.771  1.00  0.00    -0.347 OA
BRANCH   8   9
ATOM      9  C   UNL     1     138.989 141.988 123.896  1.00  0.00     0.281 C 
ATOM     10  C   UNL     1     138.839 145.198 123.599  1.00  0.00     0.041 C 
ATOM     11  C   UNL     1     138.393 143.721 122.585  1.00  0.00     0.150 C 
ATOM     12  C   UNL     1     138.500 142.941 121.060  1.00  0.00     0.174 C 
ATOM     13  O   UNL     1     137.923 142.576 123.297  1.00  0.00    -0.344 OA
ATOM     14  C   UNL     1     139.540 141.638 120.959  1.00  0.00     0.179 C 
ATOM     15  C   UNL     1     139.962 141.320 122.602  1.00  0.00     0.202 C 
BRANCH  12  16
ATOM     16  O   UNL     1     137.152 142.383 120.838  1.00  0.00    -0.388 OA
ATOM     17  H   UNL     1     137.130 141.397 121.028  1.00  0.00     0.211 HD
ENDBRANCH  12  16
BRANCH  14  18
ATOM     18  O   UNL     1     139.008 140.532 120.079  1.00  0.00    -0.387 OA
ATOM     19  H   UNL     1     137.916 140.343 120.049  1.00  0.00     0.211 HD
ENDBRANCH  14  18
BRANCH  15  20
ATOM     20  O   UNL     1     140.155 139.882 122.762  1.00  0.00    -0.385 OA
ATOM     21  H   UNL     1     140.666 139.290 122.051  1.00  0.00     0.211 HD
ENDBRANCH  15  20
ENDBRANCH   8   9
ENDBRANCH   7   8
ENDBRANCH   1   7
BRANCH   2  22
ATOM     22  O   UNL     1     141.959 143.679 127.098  1.00  0.00    -0.387 OA
ATOM     23  H   UNL     1     142.422 144.091 126.252  1.00  0.00     0.211 HD
ENDBRANCH   2  22
BRANCH   3  24
ATOM     24  O   UNL     1     143.976 142.039 125.824  1.00  0.00    -0.387 OA
ATOM     25  H   UNL     1     144.092 142.315 126.793  1.00  0.00     0.211 HD
ENDBRANCH   3  24
BRANCH   5  26
ATOM     26  O   UNL     1     139.912 138.112 126.729  1.00  0.00    -0.454 OA
BRANCH  26  27
ATOM     27  C   UNL     1     138.953 137.166 125.936  1.00  0.00     0.214 A 
ATOM     28  C   UNL     1     137.509 136.662 126.077  1.00  0.00     0.180 A 
ATOM     29  C   UNL     1     138.739 137.270 124.481  1.00  0.00     0.239 A 
ATOM     30  O   UNL     1     136.517 137.534 125.809  1.00  0.00    -0.452 OA
ATOM     31  C   UNL     1     137.560 137.825 123.753  1.00  0.00     0.111 A 
ATOM     32  O   UNL     1     139.653 136.761 123.808  1.00  0.00    -0.285 OA
ATOM     33  C   UNL     1     136.453 138.139 124.595  1.00  0.00     0.146 A 
ATOM     34  C   UNL     1     137.382 138.098 122.379  1.00  0.00     0.134 A 
ATOM     35  C   UNL     1     135.557 139.192 124.225  1.00  0.00     0.094 A 
ATOM     36  C   UNL     1     136.518 139.106 121.988  1.00  0.00     0.093 A 
ATOM     37  C   UNL     1     135.763 139.789 122.931  1.00  0.00     0.123 A 
BRANCH  28  38
ATOM     38  C   UNL     1     137.095 135.243 125.489  1.00  0.00     0.025 A 
ATOM     39  C   UNL     1     135.759 134.874 125.486  1.00  0.00     0.062 A 
ATOM     40  C   UNL     1     137.968 134.127 125.367  1.00  0.00     0.016 A 
ATOM     41  C   UNL     1     135.359 133.668 126.155  1.00  0.00     0.158 A 
ATOM     42  C   UNL     1     137.662 133.031 126.225  1.00  0.00     0.051 A 
ATOM     43  C   UNL     1     136.338 132.815 126.653  1.00  0.00     0.157 A 
BRANCH  41  44
ATOM     44  O   UNL     1     133.985 133.450 126.469  1.00  0.00    -0.504 OA
ATOM     45  H   UNL     1     133.609 132.550 126.799  1.00  0.00     0.293 HD
ENDBRANCH  41  44
BRANCH  43  46
ATOM     46  O   UNL     1     135.991 131.847 127.581  1.00  0.00    -0.504 OA
ATOM     47  H   UNL     1     136.356 130.921 127.561  1.00  0.00     0.293 HD
ENDBRANCH  43  46
ENDBRANCH  28  38
BRANCH  34  48
ATOM     48  O   UNL     1     138.075 137.411 121.413  1.00  0.00    -0.507 OA
ATOM     49  H   UNL     1     139.111 137.414 121.490  1.00  0.00     0.293 HD
ENDBRANCH  34  48
BRANCH  37  50
ATOM     50  O   UNL     1     135.380 141.116 122.659  1.00  0.00    -0.508 OA
ATOM     51  H   UNL     1     134.604 141.463 123.222  1.00  0.00     0.293 HD
ENDBRANCH  37  50
ENDBRANCH  26  27
ENDBRANCH   5  26
BRANCH   4  52
ATOM     52  O   UNL     1     143.544 139.478 125.783  1.00  0.00    -0.384 OA
ATOM     53  H   UNL     1     143.388 138.498 125.764  1.00  0.00     0.211 HD
ENDBRANCH   4  52
TORSDOF 16
ENDMDL
