MODEL 1
REMARK VINA RESULT:    -4.643      0.000      0.000
REMARK INTER + INTRA:         -10.637
REMARK INTER:                  -8.442
REMARK INTRA:                  -2.195
REMARK UNBOUND:                -2.195
REMARK SMILES CCCCCCCCCCCCCCCC(=O)[O-]
REMARK SMILES IDX 9 1 10 2 11 3 12 4 13 5 14 6 15 7 16 8 17 9 18 10 8 11 7 12
REMARK SMILES IDX 6 13 5 14 4 15 3 16 2 17 1 18
REMARK H PARENT
REMARK Flexibility Score: inf
ROOT
ATOM      1  C   UNL     1      13.283  13.240   5.288  1.00  0.00     0.000 C 
ENDROOT
BRANCH   1   2
ATOM      2  C   UNL     1      13.037  12.008   4.402  1.00  0.00     0.000 C 
BRANCH   2   3
ATOM      3  C   UNL     1      12.376  12.363   3.062  1.00  0.00     0.000 C 
BRANCH   3   4
ATOM      4  C   UNL     1      12.535  13.857   2.750  1.00  0.00     0.000 C 
BRANCH   4   5
ATOM      5  C   UNL     1      12.910  14.076   1.280  1.00  0.00     0.000 C 
BRANCH   5   6
ATOM      6  C   UNL     1      14.323  14.665   1.155  1.00  0.00     0.006 C 
BRANCH   6   7
ATOM      7  C   UNL     1      14.992  14.868   2.520  1.00  0.00     0.053 C 
BRANCH   7   8
ATOM      8  C   UNL     1      16.168  13.957   2.705  1.00  0.00     0.041 C 
ATOM      9  O   UNL     1      16.070  12.732   2.426  1.00  0.00    -0.550 OA
ATOM     10  O   UNL     1      17.360  14.453   3.218  1.00  0.00    -0.550 OA
ENDBRANCH   7   8
ENDBRANCH   6   7
ENDBRANCH   5   6
ENDBRANCH   4   5
ENDBRANCH   3   4
ENDBRANCH   2   3
ENDBRANCH   1   2
BRANCH   1  11
ATOM     11  C   UNL     1      12.208  13.411   6.376  1.00  0.00     0.000 C 
BRANCH  11  12
ATOM     12  C   UNL     1      11.592  14.820   6.380  1.00  0.00    -0.000 C 
BRANCH  12  13
ATOM     13  C   UNL     1      10.064  14.796   6.200  1.00  0.00    -0.000 C 
BRANCH  13  14
ATOM     14  C   UNL     1       9.612  13.873   5.055  1.00  0.00    -0.000 C 
BRANCH  14  15
ATOM     15  C   UNL     1       8.364  13.017   5.353  1.00  0.00    -0.000 C 
BRANCH  15  16
ATOM     16  C   UNL     1       8.501  11.522   5.014  1.00  0.00    -0.000 C 
BRANCH  16  17
ATOM     17  C   UNL     1       9.554  10.810   5.876  1.00  0.00    -0.003 C 
ATOM     18  C   UNL     1      10.240   9.694   5.094  1.00  0.00     0.004 C 
ENDBRANCH  16  17
ENDBRANCH  15  16
ENDBRANCH  14  15
ENDBRANCH  13  14
ENDBRANCH  12  13
ENDBRANCH  11  12
ENDBRANCH   1  11
TORSDOF 14
ENDMDL
MODEL 2
REMARK VINA RESULT:    -4.624      1.655      3.279
REMARK INTER + INTRA:         -10.603
REMARK INTER:                  -8.379
REMARK INTRA:                  -2.224
REMARK UNBOUND:                -2.195
REMARK SMILES CCCCCCCCCCCCCCCC(=O)[O-]
REMARK SMILES IDX 9 1 10 2 11 3 12 4 13 5 14 6 15 7 16 8 17 9 18 10 8 11 7 12
REMARK SMILES IDX 6 13 5 14 4 15 3 16 2 17 1 18
REMARK H PARENT
REMARK Flexibility Score: inf
ROOT
ATOM      1  C   UNL     1      10.665  14.098   4.558  1.00  0.00     0.000 C 
ENDROOT
BRANCH   1   2
ATOM      2  C   UNL     1      11.096  14.376   6.007  1.00  0.00     0.000 C 
BRANCH   2   3
ATOM      3  C   UNL     1      12.327  13.560   6.428  1.00  0.00     0.000 C 
BRANCH   3   4
ATOM      4  C   UNL     1      12.804  12.656   5.284  1.00  0.00     0.000 C 
BRANCH   4   5
ATOM      5  C   UNL     1      14.333  12.657   5.182  1.00  0.00     0.000 C 
BRANCH   5   6
ATOM      6  C   UNL     1      14.792  13.111   3.788  1.00  0.00     0.006 C 
BRANCH   6   7
ATOM      7  C   UNL     1      15.285  14.564   3.783  1.00  0.00     0.053 C 
BRANCH   7   8
ATOM      8  C   UNL     1      16.710  14.666   3.331  1.00  0.00     0.041 C 
ATOM      9  O   UNL     1      17.116  15.705   2.744  1.00  0.00    -0.550 OA
ATOM     10  O   UNL     1      17.582  13.603   3.527  1.00  0.00    -0.550 OA
ENDBRANCH   7   8
ENDBRANCH   6   7
ENDBRANCH   5   6
ENDBRANCH   4   5
ENDBRANCH   3   4
ENDBRANCH   2   3
ENDBRANCH   1   2
BRANCH   1  11
ATOM     11  C   UNL     1       9.138  14.000   4.404  1.00  0.00     0.000 C 
BRANCH  11  12
ATOM     12  C   UNL     1       8.699  12.705   3.701  1.00  0.00    -0.000 C 
BRANCH  12  13
ATOM     13  C   UNL     1       9.626  11.519   4.017  1.00  0.00    -0.000 C 
BRANCH  13  14
ATOM     14  C   UNL     1       9.063  10.595   5.111  1.00  0.00    -0.000 C 
BRANCH  14  15
ATOM     15  C   UNL     1       9.740  10.719   6.491  1.00  0.00    -0.000 C 
BRANCH  15  16
ATOM     16  C   UNL     1       9.007  11.623   7.499  1.00  0.00    -0.000 C 
BRANCH  16  17
ATOM     17  C   UNL     1       7.517  11.796   7.170  1.00  0.00    -0.003 C 
ATOM     18  C   UNL     1       7.068  13.236   7.401  1.00  0.00     0.004 C 
ENDBRANCH  16  17
ENDBRANCH  15  16
ENDBRANCH  14  15
ENDBRANCH  13  14
ENDBRANCH  12  13
ENDBRANCH  11  12
ENDBRANCH   1  11
TORSDOF 14
ENDMDL
MODEL 3
REMARK VINA RESULT:    -4.572      1.308      3.036
REMARK INTER + INTRA:         -10.509
REMARK INTER:                  -8.052
REMARK INTRA:                  -2.457
REMARK UNBOUND:                -2.195
REMARK SMILES CCCCCCCCCCCCCCCC(=O)[O-]
REMARK SMILES IDX 9 1 10 2 11 3 12 4 13 5 14 6 15 7 16 8 17 9 18 10 8 11 7 12
REMARK SMILES IDX 6 13 5 14 4 15 3 16 2 17 1 18
REMARK H PARENT
REMARK Flexibility Score: inf
ROOT
ATOM      1  C   UNL     1       9.942  14.650   3.382  1.00  0.00     0.000 C 
ENDROOT
BRANCH   1   2
ATOM      2  C   UNL     1      11.177  15.456   3.817  1.00  0.00     0.000 C 
BRANCH   2   3
ATOM      3  C   UNL     1      12.310  15.413   2.780  1.00  0.00     0.000 C 
BRANCH   3   4
ATOM      4  C   UNL     1      11.946  14.494   1.608  1.00  0.00     0.000 C 
BRANCH   4   5
ATOM      5  C   UNL     1      13.073  13.496   1.320  1.00  0.00     0.000 C 
BRANCH   5   6
ATOM      6  C   UNL     1      14.449  14.130   1.573  1.00  0.00     0.006 C 
BRANCH   6   7
ATOM      7  C   UNL     1      15.415  13.164   2.270  1.00  0.00     0.053 C 
BRANCH   7   8
ATOM      8  C   UNL     1      16.152  13.827   3.394  1.00  0.00     0.041 C 
ATOM      9  O   UNL     1      15.575  14.691   4.107  1.00  0.00    -0.550 OA
ATOM     10  O   UNL     1      17.484  13.516   3.633  1.00  0.00    -0.550 OA
ENDBRANCH   7   8
ENDBRANCH   6   7
ENDBRANCH   5   6
ENDBRANCH   4   5
ENDBRANCH   3   4
ENDBRANCH   2   3
ENDBRANCH   1   2
BRANCH   1  11
ATOM     11  C   UNL     1       8.805  14.706   4.417  1.00  0.00     0.000 C 
BRANCH  11  12
ATOM     12  C   UNL     1       8.086  13.356   4.576  1.00  0.00    -0.000 C 
BRANCH  12  13
ATOM     13  C   UNL     1       8.724  12.245   3.724  1.00  0.00    -0.000 C 
BRANCH  13  14
ATOM     14  C   UNL     1       9.272  11.083   4.572  1.00  0.00    -0.000 C 
BRANCH  14  15
ATOM     15  C   UNL     1      10.622  11.356   5.267  1.00  0.00    -0.000 C 
BRANCH  15  16
ATOM     16  C   UNL     1      11.816  11.561   4.317  1.00  0.00    -0.000 C 
BRANCH  16  17
ATOM     17  C   UNL     1      12.929  12.419   4.936  1.00  0.00    -0.003 C 
ATOM     18  C   UNL     1      12.419  13.183   6.154  1.00  0.00     0.004 C 
ENDBRANCH  16  17
ENDBRANCH  15  16
ENDBRANCH  14  15
ENDBRANCH  13  14
ENDBRANCH  12  13
ENDBRANCH  11  12
ENDBRANCH   1  11
TORSDOF 14
ENDMDL
MODEL 4
REMARK VINA RESULT:    -4.565      1.355      2.992
REMARK INTER + INTRA:         -10.496
REMARK INTER:                  -8.127
REMARK INTRA:                  -2.369
REMARK UNBOUND:                -2.195
REMARK SMILES CCCCCCCCCCCCCCCC(=O)[O-]
REMARK SMILES IDX 9 1 10 2 11 3 12 4 13 5 14 6 15 7 16 8 17 9 18 10 8 11 7 12
REMARK SMILES IDX 6 13 5 14 4 15 3 16 2 17 1 18
REMARK H PARENT
REMARK Flexibility Score: inf
ROOT
ATOM      1  C   UNL     1       9.450  10.661   5.250  1.00  0.00     0.000 C 
ENDROOT
BRANCH   1   2
ATOM      2  C   UNL     1      10.896  10.489   4.761  1.00  0.00     0.000 C 
BRANCH   2   3
ATOM      3  C   UNL     1      11.278  11.496   3.666  1.00  0.00     0.000 C 
BRANCH   3   4
ATOM      4  C   UNL     1      12.774  11.829   3.723  1.00  0.00     0.000 C 
BRANCH   4   5
ATOM      5  C   UNL     1      13.108  13.025   2.825  1.00  0.00     0.000 C 
BRANCH   5   6
ATOM      6  C   UNL     1      13.841  14.120   3.616  1.00  0.00     0.006 C 
BRANCH   6   7
ATOM      7  C   UNL     1      15.100  13.589   4.313  1.00  0.00     0.053 C 
BRANCH   7   8
ATOM      8  C   UNL     1      16.350  14.143   3.701  1.00  0.00     0.041 C 
ATOM      9  O   UNL     1      17.412  13.465   3.707  1.00  0.00    -0.550 OA
ATOM     10  O   UNL     1      16.353  15.420   3.156  1.00  0.00    -0.550 OA
ENDBRANCH   7   8
ENDBRANCH   6   7
ENDBRANCH   5   6
ENDBRANCH   4   5
ENDBRANCH   3   4
ENDBRANCH   2   3
ENDBRANCH   1   2
BRANCH   1  11
ATOM     11  C   UNL     1       9.359  10.846   6.774  1.00  0.00     0.000 C 
BRANCH  11  12
ATOM     12  C   UNL     1       8.225  11.800   7.185  1.00  0.00    -0.000 C 
BRANCH  12  13
ATOM     13  C   UNL     1       7.608  12.535   5.983  1.00  0.00    -0.000 C 
BRANCH  13  14
ATOM     14  C   UNL     1       7.952  14.035   5.960  1.00  0.00    -0.000 C 
BRANCH  14  15
ATOM     15  C   UNL     1       8.753  14.507   4.729  1.00  0.00    -0.000 C 
BRANCH  15  16
ATOM     16  C   UNL     1      10.277  14.579   4.931  1.00  0.00    -0.000 C 
BRANCH  16  17
ATOM     17  C   UNL     1      10.678  14.709   6.407  1.00  0.00    -0.003 C 
ATOM     18  C   UNL     1      11.695  13.641   6.797  1.00  0.00     0.004 C 
ENDBRANCH  16  17
ENDBRANCH  15  16
ENDBRANCH  14  15
ENDBRANCH  13  14
ENDBRANCH  12  13
ENDBRANCH  11  12
ENDBRANCH   1  11
TORSDOF 14
ENDMDL
MODEL 5
REMARK VINA RESULT:    -4.553      3.736      6.725
REMARK INTER + INTRA:         -10.473
REMARK INTER:                  -8.568
REMARK INTRA:                  -1.905
REMARK UNBOUND:                -2.195
REMARK SMILES CCCCCCCCCCCCCCCC(=O)[O-]
REMARK SMILES IDX 9 1 10 2 11 3 12 4 13 5 14 6 15 7 16 8 17 9 18 10 8 11 7 12
REMARK SMILES IDX 6 13 5 14 4 15 3 16 2 17 1 18
REMARK H PARENT
REMARK Flexibility Score: inf
ROOT
ATOM      1  C   UNL     1      13.490  12.875   5.112  1.00  0.00     0.000 C 
ENDROOT
BRANCH   1   2
ATOM      2  C   UNL     1      12.848  11.740   4.297  1.00  0.00     0.000 C 
BRANCH   2   3
ATOM      3  C   UNL     1      11.667  12.220   3.439  1.00  0.00     0.000 C 
BRANCH   3   4
ATOM      4  C   UNL     1      10.414  11.379   3.710  1.00  0.00     0.000 C 
BRANCH   4   5
ATOM      5  C   UNL     1      10.696  10.288   4.749  1.00  0.00     0.000 C 
BRANCH   5   6
ATOM      6  C   UNL     1       9.635  10.296   5.859  1.00  0.00     0.006 C 
BRANCH   6   7
ATOM      7  C   UNL     1       8.516  11.309   5.586  1.00  0.00     0.053 C 
BRANCH   7   8
ATOM      8  C   UNL     1       7.802  11.703   6.844  1.00  0.00     0.041 C 
ATOM      9  O   UNL     1       8.393  11.640   7.954  1.00  0.00    -0.550 OA
ATOM     10  O   UNL     1       6.473  12.105   6.794  1.00  0.00    -0.550 OA
ENDBRANCH   7   8
ENDBRANCH   6   7
ENDBRANCH   5   6
ENDBRANCH   4   5
ENDBRANCH   3   4
ENDBRANCH   2   3
ENDBRANCH   1   2
BRANCH   1  11
ATOM     11  C   UNL     1      15.028  12.830   5.077  1.00  0.00     0.000 C 
BRANCH  11  12
ATOM     12  C   UNL     1      15.621  13.788   4.030  1.00  0.00    -0.000 C 
BRANCH  12  13
ATOM     13  C   UNL     1      15.670  13.167   2.624  1.00  0.00    -0.000 C 
BRANCH  13  14
ATOM     14  C   UNL     1      14.618  13.763   1.671  1.00  0.00    -0.000 C 
BRANCH  14  15
ATOM     15  C   UNL     1      14.279  15.248   1.910  1.00  0.00    -0.000 C 
BRANCH  15  16
ATOM     16  C   UNL     1      12.830  15.525   2.351  1.00  0.00    -0.000 C 
BRANCH  16  17
ATOM     17  C   UNL     1      12.746  16.225   3.715  1.00  0.00    -0.003 C 
ATOM     18  C   UNL     1      14.009  17.032   3.997  1.00  0.00     0.004 C 
ENDBRANCH  16  17
ENDBRANCH  15  16
ENDBRANCH  14  15
ENDBRANCH  13  14
ENDBRANCH  12  13
ENDBRANCH  11  12
ENDBRANCH   1  11
TORSDOF 14
ENDMDL
MODEL 6
REMARK VINA RESULT:    -4.475      1.397      2.763
REMARK INTER + INTRA:         -10.332
REMARK INTER:                  -8.111
REMARK INTRA:                  -2.221
REMARK UNBOUND:                -2.195
REMARK SMILES CCCCCCCCCCCCCCCC(=O)[O-]
REMARK SMILES IDX 9 1 10 2 11 3 12 4 13 5 14 6 15 7 16 8 17 9 18 10 8 11 7 12
REMARK SMILES IDX 6 13 5 14 4 15 3 16 2 17 1 18
REMARK H PARENT
REMARK Flexibility Score: inf
ROOT
ATOM      1  C   UNL     1      11.076  13.886   3.248  1.00  0.00     0.000 C 
ENDROOT
BRANCH   1   2
ATOM      2  C   UNL     1      11.592  15.080   2.430  1.00  0.00     0.000 C 
BRANCH   2   3
ATOM      3  C   UNL     1      12.286  14.652   1.128  1.00  0.00     0.000 C 
BRANCH   3   4
ATOM      4  C   UNL     1      13.803  14.854   1.223  1.00  0.00     0.000 C 
BRANCH   4   5
ATOM      5  C   UNL     1      14.525  13.518   1.436  1.00  0.00     0.000 C 
BRANCH   5   6
ATOM      6  C   UNL     1      14.769  13.256   2.929  1.00  0.00     0.006 C 
BRANCH   6   7
ATOM      7  C   UNL     1      15.358  14.478   3.645  1.00  0.00     0.053 C 
BRANCH   7   8
ATOM      8  C   UNL     1      16.829  14.617   3.392  1.00  0.00     0.041 C 
ATOM      9  O   UNL     1      17.292  15.689   2.919  1.00  0.00    -0.550 OA
ATOM     10  O   UNL     1      17.683  13.551   3.646  1.00  0.00    -0.550 OA
ENDBRANCH   7   8
ENDBRANCH   6   7
ENDBRANCH   5   6
ENDBRANCH   4   5
ENDBRANCH   3   4
ENDBRANCH   2   3
ENDBRANCH   1   2
BRANCH   1  11
ATOM     11  C   UNL     1      11.653  13.853   4.674  1.00  0.00     0.000 C 
BRANCH  11  12
ATOM     12  C   UNL     1      11.905  12.421   5.175  1.00  0.00    -0.000 C 
BRANCH  12  13
ATOM     13  C   UNL     1      11.532  11.357   4.129  1.00  0.00    -0.000 C 
BRANCH  13  14
ATOM     14  C   UNL     1      10.550  10.304   4.673  1.00  0.00    -0.000 C 
BRANCH  14  15
ATOM     15  C   UNL     1       9.626  10.790   5.808  1.00  0.00    -0.000 C 
BRANCH  15  16
ATOM     16  C   UNL     1       8.221  11.233   5.361  1.00  0.00    -0.000 C 
BRANCH  16  17
ATOM     17  C   UNL     1       8.116  12.750   5.144  1.00  0.00    -0.003 C 
ATOM     18  C   UNL     1       8.403  13.511   6.434  1.00  0.00     0.004 C 
ENDBRANCH  16  17
ENDBRANCH  15  16
ENDBRANCH  14  15
ENDBRANCH  13  14
ENDBRANCH  12  13
ENDBRANCH  11  12
ENDBRANCH   1  11
TORSDOF 14
ENDMDL
MODEL 7
REMARK VINA RESULT:    -4.452      1.315      2.554
REMARK INTER + INTRA:         -10.290
REMARK INTER:                  -8.216
REMARK INTRA:                  -2.074
REMARK UNBOUND:                -2.195
REMARK SMILES CCCCCCCCCCCCCCCC(=O)[O-]
REMARK SMILES IDX 9 1 10 2 11 3 12 4 13 5 14 6 15 7 16 8 17 9 18 10 8 11 7 12
REMARK SMILES IDX 6 13 5 14 4 15 3 16 2 17 1 18
REMARK H PARENT
REMARK Flexibility Score: inf
ROOT
ATOM      1  C   UNL     1      10.824  15.384   4.115  1.00  0.00     0.000 C 
ENDROOT
BRANCH   1   2
ATOM      2  C   UNL     1      10.723  14.922   2.653  1.00  0.00     0.000 C 
BRANCH   2   3
ATOM      3  C   UNL     1      11.746  15.617   1.740  1.00  0.00     0.000 C 
BRANCH   3   4
ATOM      4  C   UNL     1      12.279  14.648   0.677  1.00  0.00     0.000 C 
BRANCH   4   5
ATOM      5  C   UNL     1      13.248  13.633   1.293  1.00  0.00     0.000 C 
BRANCH   5   6
ATOM      6  C   UNL     1      14.597  14.289   1.622  1.00  0.00     0.006 C 
BRANCH   6   7
ATOM      7  C   UNL     1      15.478  13.396   2.506  1.00  0.00     0.053 C 
BRANCH   7   8
ATOM      8  C   UNL     1      16.542  14.183   3.208  1.00  0.00     0.041 C 
ATOM      9  O   UNL     1      16.456  15.438   3.283  1.00  0.00    -0.550 OA
ATOM     10  O   UNL     1      17.646  13.536   3.748  1.00  0.00    -0.550 OA
ENDBRANCH   7   8
ENDBRANCH   6   7
ENDBRANCH   5   6
ENDBRANCH   4   5
ENDBRANCH   3   4
ENDBRANCH   2   3
ENDBRANCH   1   2
BRANCH   1  11
ATOM     11  C   UNL     1      12.255  15.285   4.670  1.00  0.00     0.000 C 
BRANCH  11  12
ATOM     12  C   UNL     1      12.305  14.630   6.060  1.00  0.00    -0.000 C 
BRANCH  12  13
ATOM     13  C   UNL     1      12.060  13.113   6.007  1.00  0.00    -0.000 C 
BRANCH  13  14
ATOM     14  C   UNL     1      12.901  12.410   4.926  1.00  0.00    -0.000 C 
BRANCH  14  15
ATOM     15  C   UNL     1      12.164  11.318   4.124  1.00  0.00    -0.000 C 
BRANCH  15  16
ATOM     16  C   UNL     1      10.642  11.515   4.000  1.00  0.00    -0.000 C 
BRANCH  16  17
ATOM     17  C   UNL     1       9.844  10.594   4.934  1.00  0.00    -0.003 C 
ATOM     18  C   UNL     1       8.506  11.223   5.313  1.00  0.00     0.004 C 
ENDBRANCH  16  17
ENDBRANCH  15  16
ENDBRANCH  14  15
ENDBRANCH  13  14
ENDBRANCH  12  13
ENDBRANCH  11  12
ENDBRANCH   1  11
TORSDOF 14
ENDMDL
MODEL 8
REMARK VINA RESULT:    -4.440      3.285      6.459
REMARK INTER + INTRA:         -10.268
REMARK INTER:                  -8.228
REMARK INTRA:                  -2.040
REMARK UNBOUND:                -2.195
REMARK SMILES CCCCCCCCCCCCCCCC(=O)[O-]
REMARK SMILES IDX 9 1 10 2 11 3 12 4 13 5 14 6 15 7 16 8 17 9 18 10 8 11 7 12
REMARK SMILES IDX 6 13 5 14 4 15 3 16 2 17 1 18
REMARK H PARENT
REMARK Flexibility Score: inf
ROOT
ATOM      1  C   UNL     1      10.587  11.588   3.633  1.00  0.00     0.000 C 
ENDROOT
BRANCH   1   2
ATOM      2  C   UNL     1      10.542  10.515   4.733  1.00  0.00     0.000 C 
BRANCH   2   3
ATOM      3  C   UNL     1       9.182  10.452   5.446  1.00  0.00     0.000 C 
BRANCH   3   4
ATOM      4  C   UNL     1       8.822  11.810   6.061  1.00  0.00     0.000 C 
BRANCH   4   5
ATOM      5  C   UNL     1       9.718  12.125   7.265  1.00  0.00     0.000 C 
BRANCH   5   6
ATOM      6  C   UNL     1      10.480  13.441   7.055  1.00  0.00     0.006 C 
BRANCH   6   7
ATOM      7  C   UNL     1       9.776  14.368   6.055  1.00  0.00     0.053 C 
BRANCH   7   8
ATOM      8  C   UNL     1       9.139  15.541   6.736  1.00  0.00     0.041 C 
ATOM      9  O   UNL     1       8.253  15.360   7.612  1.00  0.00    -0.550 OA
ATOM     10  O   UNL     1       9.500  16.834   6.379  1.00  0.00    -0.550 OA
ENDBRANCH   7   8
ENDBRANCH   6   7
ENDBRANCH   5   6
ENDBRANCH   4   5
ENDBRANCH   3   4
ENDBRANCH   2   3
ENDBRANCH   1   2
BRANCH   1  11
ATOM     11  C   UNL     1      11.938  12.324   3.580  1.00  0.00     0.000 C 
BRANCH  11  12
ATOM     12  C   UNL     1      12.894  11.880   4.699  1.00  0.00    -0.000 C 
BRANCH  12  13
ATOM     13  C   UNL     1      13.684  13.056   5.300  1.00  0.00    -0.000 C 
BRANCH  13  14
ATOM     14  C   UNL     1      15.184  13.002   4.963  1.00  0.00    -0.000 C 
BRANCH  14  15
ATOM     15  C   UNL     1      15.619  13.858   3.756  1.00  0.00    -0.000 C 
BRANCH  15  16
ATOM     16  C   UNL     1      15.533  13.153   2.390  1.00  0.00    -0.000 C 
BRANCH  16  17
ATOM     17  C   UNL     1      14.430  13.730   1.490  1.00  0.00    -0.003 C 
ATOM     18  C   UNL     1      14.509  15.252   1.432  1.00  0.00     0.004 C 
ENDBRANCH  16  17
ENDBRANCH  15  16
ENDBRANCH  14  15
ENDBRANCH  13  14
ENDBRANCH  12  13
ENDBRANCH  11  12
ENDBRANCH   1  11
TORSDOF 14
ENDMDL
MODEL 9
REMARK VINA RESULT:    -4.433      3.651      6.544
REMARK INTER + INTRA:         -10.256
REMARK INTER:                  -7.823
REMARK INTRA:                  -2.432
REMARK UNBOUND:                -2.195
REMARK SMILES CCCCCCCCCCCCCCCC(=O)[O-]
REMARK SMILES IDX 9 1 10 2 11 3 12 4 13 5 14 6 15 7 16 8 17 9 18 10 8 11 7 12
REMARK SMILES IDX 6 13 5 14 4 15 3 16 2 17 1 18
REMARK H PARENT
REMARK Flexibility Score: inf
ROOT
ATOM      1  C   UNL     1      12.283  13.436   4.527  1.00  0.00     0.000 C 
ENDROOT
BRANCH   1   2
ATOM      2  C   UNL     1      12.007  12.324   3.502  1.00  0.00     0.000 C 
BRANCH   2   3
ATOM      3  C   UNL     1      11.318  11.100   4.125  1.00  0.00     0.000 C 
BRANCH   3   4
ATOM      4  C   UNL     1      10.007  11.500   4.813  1.00  0.00     0.000 C 
BRANCH   4   5
ATOM      5  C   UNL     1       8.968  11.971   3.790  1.00  0.00     0.000 C 
BRANCH   5   6
ATOM      6  C   UNL     1       8.103  13.103   4.364  1.00  0.00     0.006 C 
BRANCH   6   7
ATOM      7  C   UNL     1       8.592  13.567   5.742  1.00  0.00     0.053 C 
BRANCH   7   8
ATOM      8  C   UNL     1       7.539  14.343   6.474  1.00  0.00     0.041 C 
ATOM      9  O   UNL     1       7.660  15.588   6.625  1.00  0.00    -0.550 OA
ATOM     10  O   UNL     1       6.442  13.687   7.018  1.00  0.00    -0.550 OA
ENDBRANCH   7   8
ENDBRANCH   6   7
ENDBRANCH   5   6
ENDBRANCH   4   5
ENDBRANCH   3   4
ENDBRANCH   2   3
ENDBRANCH   1   2
BRANCH   1  11
ATOM     11  C   UNL     1      11.801  14.816   4.046  1.00  0.00     0.000 C 
BRANCH  11  12
ATOM     12  C   UNL     1      11.067  14.746   2.697  1.00  0.00    -0.000 C 
BRANCH  12  13
ATOM     13  C   UNL     1      11.747  15.596   1.610  1.00  0.00    -0.000 C 
BRANCH  13  14
ATOM     14  C   UNL     1      12.347  14.747   0.476  1.00  0.00    -0.000 C 
BRANCH  14  15
ATOM     15  C   UNL     1      13.768  14.209   0.737  1.00  0.00    -0.000 C 
BRANCH  15  16
ATOM     16  C   UNL     1      14.715  15.188   1.455  1.00  0.00    -0.000 C 
BRANCH  16  17
ATOM     17  C   UNL     1      15.414  14.560   2.669  1.00  0.00    -0.003 C 
ATOM     18  C   UNL     1      15.572  13.052   2.492  1.00  0.00     0.004 C 
ENDBRANCH  16  17
ENDBRANCH  15  16
ENDBRANCH  14  15
ENDBRANCH  13  14
ENDBRANCH  12  13
ENDBRANCH  11  12
ENDBRANCH   1  11
TORSDOF 14
ENDMDL
