MODEL 1
REMARK VINA RESULT:    -5.245      0.000      0.000
REMARK INTER + INTRA:          -5.399
REMARK INTER:                  -5.399
REMARK INTRA:                   0.000
REMARK UNBOUND:                 0.000
REMARK SMILES O=c1ccc2ccc(O)cc2o1
REMARK SMILES IDX 6 1 7 2 8 3 10 4 11 5 5 6 4 7 3 8 2 9 1 10 12 11 9 12
REMARK H PARENT 9 13
REMARK Flexibility Score: inf
ROOT
ATOM      1  C   UNL     1      29.239   0.862  31.498  1.00  0.00     0.016 A 
ATOM      2  C   UNL     1      29.278  -0.271  30.680  1.00  0.00     0.047 A 
ATOM      3  C   UNL     1      28.775  -0.219  29.374  1.00  0.00     0.119 A 
ATOM      4  C   UNL     1      28.226   0.976  28.883  1.00  0.00     0.094 A 
ATOM      5  C   UNL     1      28.182   2.114  29.695  1.00  0.00     0.142 A 
ATOM      6  C   UNL     1      28.692   2.057  31.011  1.00  0.00     0.018 A 
ATOM      7  C   UNL     1      28.634   3.211  31.798  1.00  0.00     0.019 A 
ATOM      8  C   UNL     1      28.080   4.376  31.266  1.00  0.00     0.094 A 
ATOM      9  C   UNL     1      27.595   4.358  29.954  1.00  0.00     0.336 A 
ATOM     10  O   UNL     1      27.091   5.399  29.457  1.00  0.00    -0.246 OA
ATOM     11  O   UNL     1      27.662   3.246  29.226  1.00  0.00    -0.423 OA
ENDROOT
BRANCH   3  12
ATOM     12  O   UNL     1      28.822  -1.358  28.574  1.00  0.00    -0.508 OA
ATOM     13  H   UNL     1      28.972  -1.298  27.574  1.00  0.00     0.293 HD
ENDBRANCH   3  12
TORSDOF 1
ENDMDL
MODEL 2
REMARK VINA RESULT:    -5.210      2.458      5.546
REMARK INTER + INTRA:          -5.362
REMARK INTER:                  -5.362
REMARK INTRA:                   0.000
REMARK UNBOUND:                 0.000
REMARK SMILES O=c1ccc2ccc(O)cc2o1
REMARK SMILES IDX 6 1 7 2 8 3 10 4 11 5 5 6 4 7 3 8 2 9 1 10 12 11 9 12
REMARK H PARENT 9 13
REMARK Flexibility Score: inf
ROOT
ATOM      1  C   UNL     1      29.925   0.153  30.407  1.00  0.00     0.016 A 
ATOM      2  C   UNL     1      29.220   1.264  30.879  1.00  0.00     0.047 A 
ATOM      3  C   UNL     1      27.907   1.122  31.347  1.00  0.00     0.119 A 
ATOM      4  C   UNL     1      27.295  -0.140  31.340  1.00  0.00     0.094 A 
ATOM      5  C   UNL     1      27.993  -1.257  30.869  1.00  0.00     0.142 A 
ATOM      6  C   UNL     1      29.317  -1.110  30.399  1.00  0.00     0.018 A 
ATOM      7  C   UNL     1      29.989  -2.245  29.935  1.00  0.00     0.019 A 
ATOM      8  C   UNL     1      29.339  -3.479  29.949  1.00  0.00     0.094 A 
ATOM      9  C   UNL     1      28.026  -3.549  30.429  1.00  0.00     0.336 A 
ATOM     10  O   UNL     1      27.423  -4.653  30.449  1.00  0.00    -0.246 OA
ATOM     11  O   UNL     1      27.409  -2.453  30.865  1.00  0.00    -0.423 OA
ENDROOT
BRANCH   3  12
ATOM     12  O   UNL     1      27.221   2.241  31.813  1.00  0.00    -0.508 OA
ATOM     13  H   UNL     1      27.546   2.766  32.616  1.00  0.00     0.293 HD
ENDBRANCH   3  12
TORSDOF 1
ENDMDL
MODEL 3
REMARK VINA RESULT:    -5.207      1.777      2.477
REMARK INTER + INTRA:          -5.359
REMARK INTER:                  -5.359
REMARK INTRA:                   0.000
REMARK UNBOUND:                 0.000
REMARK SMILES O=c1ccc2ccc(O)cc2o1
REMARK SMILES IDX 6 1 7 2 8 3 10 4 11 5 5 6 4 7 3 8 2 9 1 10 12 11 9 12
REMARK H PARENT 9 13
REMARK Flexibility Score: inf
ROOT
ATOM      1  C   UNL     1      27.011   0.514  29.034  1.00  0.00     0.016 A 
ATOM      2  C   UNL     1      27.110  -0.654  29.797  1.00  0.00     0.047 A 
ATOM      3  C   UNL     1      27.532  -0.593  31.131  1.00  0.00     0.119 A 
ATOM      4  C   UNL     1      27.859   0.644  31.706  1.00  0.00     0.094 A 
ATOM      5  C   UNL     1      27.763   1.817  30.950  1.00  0.00     0.142 A 
ATOM      6  C   UNL     1      27.336   1.752  29.605  1.00  0.00     0.018 A 
ATOM      7  C   UNL     1      27.250   2.941  28.875  1.00  0.00     0.019 A 
ATOM      8  C   UNL     1      27.585   4.148  29.490  1.00  0.00     0.094 A 
ATOM      9  C   UNL     1      28.000   4.136  30.826  1.00  0.00     0.336 A 
ATOM     10  O   UNL     1      28.307   5.214  31.398  1.00  0.00    -0.246 OA
ATOM     11  O   UNL     1      28.073   2.989  31.499  1.00  0.00    -0.423 OA
ENDROOT
BRANCH   3  12
ATOM     12  O   UNL     1      27.625  -1.767  31.875  1.00  0.00    -0.508 OA
ATOM     13  H   UNL     1      26.864  -2.082  32.466  1.00  0.00     0.293 HD
ENDBRANCH   3  12
TORSDOF 1
ENDMDL
MODEL 4
REMARK VINA RESULT:    -5.163      2.435      5.530
REMARK INTER + INTRA:          -5.314
REMARK INTER:                  -5.314
REMARK INTRA:                   0.000
REMARK UNBOUND:                 0.000
REMARK SMILES O=c1ccc2ccc(O)cc2o1
REMARK SMILES IDX 6 1 7 2 8 3 10 4 11 5 5 6 4 7 3 8 2 9 1 10 12 11 9 12
REMARK H PARENT 9 13
REMARK Flexibility Score: inf
ROOT
ATOM      1  C   UNL     1      26.365  -0.119  30.290  1.00  0.00     0.016 A 
ATOM      2  C   UNL     1      26.906   1.077  29.808  1.00  0.00     0.047 A 
ATOM      3  C   UNL     1      28.223   1.117  29.333  1.00  0.00     0.119 A 
ATOM      4  C   UNL     1      29.006  -0.047  29.342  1.00  0.00     0.094 A 
ATOM      5  C   UNL     1      28.472  -1.248  29.823  1.00  0.00     0.142 A 
ATOM      6  C   UNL     1      27.143  -1.284  30.300  1.00  0.00     0.018 A 
ATOM      7  C   UNL     1      26.638  -2.499  30.774  1.00  0.00     0.019 A 
ATOM      8  C   UNL     1      27.454  -3.630  30.762  1.00  0.00     0.094 A 
ATOM      9  C   UNL     1      28.761  -3.520  30.275  1.00  0.00     0.336 A 
ATOM     10  O   UNL     1      29.512  -4.530  30.257  1.00  0.00    -0.246 OA
ATOM     11  O   UNL     1      29.217  -2.351  29.829  1.00  0.00    -0.423 OA
ENDROOT
BRANCH   3  12
ATOM     12  O   UNL     1      28.745   2.318  28.858  1.00  0.00    -0.508 OA
ATOM     13  H   UNL     1      29.499   2.795  29.338  1.00  0.00     0.293 HD
ENDBRANCH   3  12
TORSDOF 1
ENDMDL
MODEL 5
REMARK VINA RESULT:    -4.890      1.823      4.872
REMARK INTER + INTRA:          -5.033
REMARK INTER:                  -5.033
REMARK INTRA:                   0.000
REMARK UNBOUND:                 0.000
REMARK SMILES O=c1ccc2ccc(O)cc2o1
REMARK SMILES IDX 6 1 7 2 8 3 10 4 11 5 5 6 4 7 3 8 2 9 1 10 12 11 9 12
REMARK H PARENT 9 13
REMARK Flexibility Score: inf
ROOT
ATOM      1  C   UNL     1      27.327   3.976  28.875  1.00  0.00     0.016 A 
ATOM      2  C   UNL     1      27.030   5.247  29.377  1.00  0.00     0.047 A 
ATOM      3  C   UNL     1      27.369   5.584  30.693  1.00  0.00     0.119 A 
ATOM      4  C   UNL     1      28.008   4.643  31.515  1.00  0.00     0.094 A 
ATOM      5  C   UNL     1      28.309   3.369  31.020  1.00  0.00     0.142 A 
ATOM      6  C   UNL     1      27.966   3.033  29.692  1.00  0.00     0.018 A 
ATOM      7  C   UNL     1      28.279   1.753  29.226  1.00  0.00     0.019 A 
ATOM      8  C   UNL     1      28.916   0.851  30.079  1.00  0.00     0.094 A 
ATOM      9  C   UNL     1      29.226   1.253  31.383  1.00  0.00     0.336 A 
ATOM     10  O   UNL     1      29.800   0.454  32.168  1.00  0.00    -0.246 OA
ATOM     11  O   UNL     1      28.916   2.479  31.801  1.00  0.00    -0.423 OA
ENDROOT
BRANCH   3  12
ATOM     12  O   UNL     1      27.064   6.854  31.176  1.00  0.00    -0.508 OA
ATOM     13  H   UNL     1      27.000   7.043  32.170  1.00  0.00     0.293 HD
ENDBRANCH   3  12
TORSDOF 1
ENDMDL
MODEL 6
REMARK VINA RESULT:    -4.880      3.297      4.957
REMARK INTER + INTRA:          -5.022
REMARK INTER:                  -5.022
REMARK INTRA:                   0.000
REMARK UNBOUND:                 0.000
REMARK SMILES O=c1ccc2ccc(O)cc2o1
REMARK SMILES IDX 6 1 7 2 8 3 10 4 11 5 5 6 4 7 3 8 2 9 1 10 12 11 9 12
REMARK H PARENT 9 13
REMARK Flexibility Score: inf
ROOT
ATOM      1  C   UNL     1      27.020  -3.414  30.833  1.00  0.00     0.016 A 
ATOM      2  C   UNL     1      27.377  -4.689  30.382  1.00  0.00     0.047 A 
ATOM      3  C   UNL     1      28.637  -4.912  29.814  1.00  0.00     0.119 A 
ATOM      4  C   UNL     1      29.548  -3.851  29.693  1.00  0.00     0.094 A 
ATOM      5  C   UNL     1      29.199  -2.572  30.141  1.00  0.00     0.142 A 
ATOM      6  C   UNL     1      27.927  -2.352  30.715  1.00  0.00     0.018 A 
ATOM      7  C   UNL     1      27.608  -1.063  31.152  1.00  0.00     0.019 A 
ATOM      8  C   UNL     1      28.546  -0.041  31.013  1.00  0.00     0.094 A 
ATOM      9  C   UNL     1      29.786  -0.332  30.435  1.00  0.00     0.336 A 
ATOM     10  O   UNL     1      30.646   0.577  30.299  1.00  0.00    -0.246 OA
ATOM     11  O   UNL     1      30.065  -1.568  30.026  1.00  0.00    -0.423 OA
ENDROOT
BRANCH   3  12
ATOM     12  O   UNL     1      28.974  -6.188  29.371  1.00  0.00    -0.508 OA
ATOM     13  H   UNL     1      28.269  -6.840  29.046  1.00  0.00     0.293 HD
ENDBRANCH   3  12
TORSDOF 1
ENDMDL
MODEL 7
REMARK VINA RESULT:    -4.869      1.603      4.340
REMARK INTER + INTRA:          -5.012
REMARK INTER:                  -5.012
REMARK INTRA:                   0.000
REMARK UNBOUND:                 0.000
REMARK SMILES O=c1ccc2ccc(O)cc2o1
REMARK SMILES IDX 6 1 7 2 8 3 10 4 11 5 5 6 4 7 3 8 2 9 1 10 12 11 9 12
REMARK H PARENT 9 13
REMARK Flexibility Score: inf
ROOT
ATOM      1  C   UNL     1      28.411   4.061  31.781  1.00  0.00     0.016 A 
ATOM      2  C   UNL     1      28.466   5.370  31.291  1.00  0.00     0.047 A 
ATOM      3  C   UNL     1      28.039   5.657  29.989  1.00  0.00     0.119 A 
ATOM      4  C   UNL     1      27.554   4.626  29.169  1.00  0.00     0.094 A 
ATOM      5  C   UNL     1      27.494   3.314  29.651  1.00  0.00     0.142 A 
ATOM      6  C   UNL     1      27.925   3.030  30.966  1.00  0.00     0.018 A 
ATOM      7  C   UNL     1      27.854   1.709  31.419  1.00  0.00     0.019 A 
ATOM      8  C   UNL     1      27.363   0.719  30.568  1.00  0.00     0.094 A 
ATOM      9  C   UNL     1      26.954   1.074  29.278  1.00  0.00     0.336 A 
ATOM     10  O   UNL     1      26.508   0.195  28.496  1.00  0.00    -0.246 OA
ATOM     11  O   UNL     1      27.032   2.340  28.872  1.00  0.00    -0.423 OA
ENDROOT
BRANCH   3  12
ATOM     12  O   UNL     1      28.103   6.966  29.518  1.00  0.00    -0.508 OA
ATOM     13  H   UNL     1      28.631   7.205  28.687  1.00  0.00     0.293 HD
ENDBRANCH   3  12
TORSDOF 1
ENDMDL
MODEL 8
REMARK VINA RESULT:    -4.860      1.799      4.340
REMARK INTER + INTRA:          -5.002
REMARK INTER:                  -5.002
REMARK INTRA:                   0.000
REMARK UNBOUND:                 0.000
REMARK SMILES O=c1ccc2ccc(O)cc2o1
REMARK SMILES IDX 6 1 7 2 8 3 10 4 11 5 5 6 4 7 3 8 2 9 1 10 12 11 9 12
REMARK H PARENT 9 13
REMARK Flexibility Score: inf
ROOT
ATOM      1  C   UNL     1      28.144   2.683  30.837  1.00  0.00     0.016 A 
ATOM      2  C   UNL     1      27.674   3.492  29.798  1.00  0.00     0.047 A 
ATOM      3  C   UNL     1      26.939   2.935  28.744  1.00  0.00     0.119 A 
ATOM      4  C   UNL     1      26.672   1.557  28.729  1.00  0.00     0.094 A 
ATOM      5  C   UNL     1      27.138   0.740  29.765  1.00  0.00     0.142 A 
ATOM      6  C   UNL     1      27.879   1.306  30.826  1.00  0.00     0.018 A 
ATOM      7  C   UNL     1      28.332   0.464  31.846  1.00  0.00     0.019 A 
ATOM      8  C   UNL     1      28.041  -0.898  31.788  1.00  0.00     0.094 A 
ATOM      9  C   UNL     1      27.302  -1.390  30.707  1.00  0.00     0.336 A 
ATOM     10  O   UNL     1      27.030  -2.616  30.636  1.00  0.00    -0.246 OA
ATOM     11  O   UNL     1      26.883  -0.566  29.748  1.00  0.00    -0.423 OA
ENDROOT
BRANCH   3  12
ATOM     12  O   UNL     1      26.480   3.756  27.718  1.00  0.00    -0.508 OA
ATOM     13  H   UNL     1      26.870   4.679  27.563  1.00  0.00     0.293 HD
ENDBRANCH   3  12
TORSDOF 1
ENDMDL
MODEL 9
REMARK VINA RESULT:    -4.724      2.540      3.682
REMARK INTER + INTRA:          -4.862
REMARK INTER:                  -4.862
REMARK INTRA:                   0.000
REMARK UNBOUND:                 0.000
REMARK SMILES O=c1ccc2ccc(O)cc2o1
REMARK SMILES IDX 6 1 7 2 8 3 10 4 11 5 5 6 4 7 3 8 2 9 1 10 12 11 9 12
REMARK H PARENT 9 13
REMARK Flexibility Score: inf
ROOT
ATOM      1  C   UNL     1      26.660  -2.628  30.741  1.00  0.00     0.016 A 
ATOM      2  C   UNL     1      27.616  -3.648  30.729  1.00  0.00     0.047 A 
ATOM      3  C   UNL     1      28.930  -3.382  30.326  1.00  0.00     0.119 A 
ATOM      4  C   UNL     1      29.291  -2.085  29.930  1.00  0.00     0.094 A 
ATOM      5  C   UNL     1      28.341  -1.058  29.939  1.00  0.00     0.142 A 
ATOM      6  C   UNL     1      27.017  -1.331  30.347  1.00  0.00     0.018 A 
ATOM      7  C   UNL     1      26.090  -0.284  30.345  1.00  0.00     0.019 A 
ATOM      8  C   UNL     1      26.496   0.989  29.944  1.00  0.00     0.094 A 
ATOM      9  C   UNL     1      27.825   1.185  29.552  1.00  0.00     0.336 A 
ATOM     10  O   UNL     1      28.210   2.326  29.187  1.00  0.00    -0.246 OA
ATOM     11  O   UNL     1      28.687   0.171  29.564  1.00  0.00    -0.423 OA
ENDROOT
BRANCH   3  12
ATOM     12  O   UNL     1      29.868  -4.411  30.321  1.00  0.00    -0.508 OA
ATOM     13  H   UNL     1      29.629  -5.345  30.006  1.00  0.00     0.293 HD
ENDBRANCH   3  12
TORSDOF 1
ENDMDL
