MODEL 1
REMARK VINA RESULT:     6.856      0.000      0.000
REMARK INTER + INTRA:          11.621
REMARK INTER:                  12.468
REMARK INTRA:                  -0.847
REMARK UNBOUND:                -0.847
REMARK SMILES CCCCCCCCCCCCCCCC(=O)[O-]
REMARK SMILES IDX 9 1 10 2 11 3 12 4 13 5 14 6 15 7 16 8 17 9 18 10 8 11 7 12
REMARK SMILES IDX 6 13 5 14 4 15 3 16 2 17 1 18
REMARK H PARENT
REMARK Flexibility Score: inf
ROOT
ATOM      1  C   UNL     1      -8.874  30.206 -15.477  1.00  0.00     0.000 C 
ENDROOT
BRANCH   1   2
ATOM      2  C   UNL     1      -7.978  29.019 -15.864  1.00  0.00     0.000 C 
BRANCH   2   3
ATOM      3  C   UNL     1      -7.615  29.016 -17.359  1.00  0.00     0.000 C 
BRANCH   3   4
ATOM      4  C   UNL     1      -6.276  28.315 -17.639  1.00  0.00     0.000 C 
BRANCH   4   5
ATOM      5  C   UNL     1      -6.157  27.832 -19.095  1.00  0.00     0.000 C 
BRANCH   5   6
ATOM      6  C   UNL     1      -6.416  28.953 -20.113  1.00  0.00     0.006 C 
BRANCH   6   7
ATOM      7  C   UNL     1      -7.105  28.450 -21.388  1.00  0.00     0.053 C 
BRANCH   7   8
ATOM      8  C   UNL     1      -6.096  27.883 -22.337  1.00  0.00     0.041 C 
ATOM      9  O   UNL     1      -4.935  28.369 -22.392  1.00  0.00    -0.550 OA
ATOM     10  O   UNL     1      -6.421  26.787 -23.124  1.00  0.00    -0.550 OA
ENDBRANCH   7   8
ENDBRANCH   6   7
ENDBRANCH   5   6
ENDBRANCH   4   5
ENDBRANCH   3   4
ENDBRANCH   2   3
ENDBRANCH   1   2
BRANCH   1  11
ATOM     11  C   UNL     1      -9.371  30.997 -16.700  1.00  0.00     0.000 C 
BRANCH  11  12
ATOM     12  C   UNL     1      -9.014  32.490 -16.620  1.00  0.00    -0.000 C 
BRANCH  12  13
ATOM     13  C   UNL     1      -8.577  32.917 -15.208  1.00  0.00    -0.000 C 
BRANCH  13  14
ATOM     14  C   UNL     1      -7.917  34.305 -15.184  1.00  0.00    -0.000 C 
BRANCH  14  15
ATOM     15  C   UNL     1      -6.516  34.304 -15.818  1.00  0.00    -0.000 C 
BRANCH  15  16
ATOM     16  C   UNL     1      -6.105  35.691 -16.340  1.00  0.00    -0.000 C 
BRANCH  16  17
ATOM     17  C   UNL     1      -5.277  35.614 -17.631  1.00  0.00    -0.003 C 
ATOM     18  C   UNL     1      -5.827  36.562 -18.693  1.00  0.00     0.004 C 
ENDBRANCH  16  17
ENDBRANCH  15  16
ENDBRANCH  14  15
ENDBRANCH  13  14
ENDBRANCH  12  13
ENDBRANCH  11  12
ENDBRANCH   1  11
TORSDOF 14
ENDMDL
MODEL 2
REMARK VINA RESULT:     8.010      2.742      3.871
REMARK INTER + INTRA:          13.718
REMARK INTER:                  14.587
REMARK INTRA:                  -0.868
REMARK UNBOUND:                -0.847
REMARK SMILES CCCCCCCCCCCCCCCC(=O)[O-]
REMARK SMILES IDX 9 1 10 2 11 3 12 4 13 5 14 6 15 7 16 8 17 9 18 10 8 11 7 12
REMARK SMILES IDX 6 13 5 14 4 15 3 16 2 17 1 18
REMARK H PARENT
REMARK Flexibility Score: inf
ROOT
ATOM      1  C   UNL     1      -9.030  30.537 -15.565  1.00  0.00     0.000 C 
ENDROOT
BRANCH   1   2
ATOM      2  C   UNL     1      -8.229  29.261 -15.866  1.00  0.00     0.000 C 
BRANCH   2   3
ATOM      3  C   UNL     1      -7.998  29.052 -17.373  1.00  0.00     0.000 C 
BRANCH   3   4
ATOM      4  C   UNL     1      -6.760  28.188 -17.665  1.00  0.00     0.000 C 
BRANCH   4   5
ATOM      5  C   UNL     1      -5.912  28.745 -18.822  1.00  0.00     0.000 C 
BRANCH   5   6
ATOM      6  C   UNL     1      -6.718  28.909 -20.120  1.00  0.00     0.006 C 
BRANCH   6   7
ATOM      7  C   UNL     1      -5.830  29.191 -21.339  1.00  0.00     0.053 C 
BRANCH   7   8
ATOM      8  C   UNL     1      -5.875  28.040 -22.294  1.00  0.00     0.041 C 
ATOM      9  O   UNL     1      -4.924  27.846 -23.098  1.00  0.00    -0.550 OA
ATOM     10  O   UNL     1      -6.941  27.152 -22.263  1.00  0.00    -0.550 OA
ENDBRANCH   7   8
ENDBRANCH   6   7
ENDBRANCH   5   6
ENDBRANCH   4   5
ENDBRANCH   3   4
ENDBRANCH   2   3
ENDBRANCH   1   2
BRANCH   1  11
ATOM     11  C   UNL     1      -9.528  31.240 -16.839  1.00  0.00     0.000 C 
BRANCH  11  12
ATOM     12  C   UNL     1      -8.949  32.655 -16.996  1.00  0.00    -0.000 C 
BRANCH  12  13
ATOM     13  C   UNL     1      -9.540  33.403 -18.205  1.00  0.00    -0.000 C 
BRANCH  13  14
ATOM     14  C   UNL     1      -9.269  32.685 -19.538  1.00  0.00    -0.000 C 
BRANCH  14  15
ATOM     15  C   UNL     1      -9.864  33.432 -20.743  1.00  0.00    -0.000 C 
BRANCH  15  16
ATOM     16  C   UNL     1      -9.558  32.733 -22.078  1.00  0.00    -0.000 C 
BRANCH  16  17
ATOM     17  C   UNL     1     -10.664  32.944 -23.122  1.00  0.00    -0.003 C 
ATOM     18  C   UNL     1     -11.874  32.063 -22.825  1.00  0.00     0.004 C 
ENDBRANCH  16  17
ENDBRANCH  15  16
ENDBRANCH  14  15
ENDBRANCH  13  14
ENDBRANCH  12  13
ENDBRANCH  11  12
ENDBRANCH   1  11
TORSDOF 14
ENDMDL
MODEL 3
REMARK VINA RESULT:     8.271      3.291      7.343
REMARK INTER + INTRA:          14.193
REMARK INTER:                  15.240
REMARK INTRA:                  -1.047
REMARK UNBOUND:                -0.847
REMARK SMILES CCCCCCCCCCCCCCCC(=O)[O-]
REMARK SMILES IDX 9 1 10 2 11 3 12 4 13 5 14 6 15 7 16 8 17 9 18 10 8 11 7 12
REMARK SMILES IDX 6 13 5 14 4 15 3 16 2 17 1 18
REMARK H PARENT
REMARK Flexibility Score: inf
ROOT
ATOM      1  C   UNL     1      -8.469  29.625 -15.799  1.00  0.00     0.000 C 
ENDROOT
BRANCH   1   2
ATOM      2  C   UNL     1      -9.123  30.387 -16.962  1.00  0.00     0.000 C 
BRANCH   2   3
ATOM      3  C   UNL     1      -9.057  31.913 -16.778  1.00  0.00     0.000 C 
BRANCH   3   4
ATOM      4  C   UNL     1      -9.058  32.329 -15.298  1.00  0.00     0.000 C 
BRANCH   4   5
ATOM      5  C   UNL     1      -8.122  33.519 -15.020  1.00  0.00     0.000 C 
BRANCH   5   6
ATOM      6  C   UNL     1      -7.416  34.025 -16.288  1.00  0.00     0.006 C 
BRANCH   6   7
ATOM      7  C   UNL     1      -6.071  34.700 -15.989  1.00  0.00     0.053 C 
BRANCH   7   8
ATOM      8  C   UNL     1      -5.863  35.872 -16.896  1.00  0.00     0.041 C 
ATOM      9  O   UNL     1      -6.313  37.005 -16.580  1.00  0.00    -0.550 OA
ATOM     10  O   UNL     1      -5.130  35.724 -18.065  1.00  0.00    -0.550 OA
ENDBRANCH   7   8
ENDBRANCH   6   7
ENDBRANCH   5   6
ENDBRANCH   4   5
ENDBRANCH   3   4
ENDBRANCH   2   3
ENDBRANCH   1   2
BRANCH   1  11
ATOM     11  C   UNL     1      -7.506  28.525 -16.277  1.00  0.00     0.000 C 
BRANCH  11  12
ATOM     12  C   UNL     1      -6.522  29.028 -17.345  1.00  0.00    -0.000 C 
BRANCH  12  13
ATOM     13  C   UNL     1      -6.264  27.984 -18.447  1.00  0.00    -0.000 C 
BRANCH  13  14
ATOM     14  C   UNL     1      -6.960  28.335 -19.772  1.00  0.00    -0.000 C 
BRANCH  14  15
ATOM     15  C   UNL     1      -6.213  29.421 -20.563  1.00  0.00    -0.000 C 
BRANCH  15  16
ATOM     16  C   UNL     1      -5.892  28.984 -22.003  1.00  0.00    -0.000 C 
BRANCH  16  17
ATOM     17  C   UNL     1      -6.133  27.485 -22.232  1.00  0.00    -0.003 C 
ATOM     18  C   UNL     1      -4.931  26.834 -22.910  1.00  0.00     0.004 C 
ENDBRANCH  16  17
ENDBRANCH  15  16
ENDBRANCH  14  15
ENDBRANCH  13  14
ENDBRANCH  12  13
ENDBRANCH  11  12
ENDBRANCH   1  11
TORSDOF 14
ENDMDL
MODEL 4
REMARK VINA RESULT:     8.372      3.957      7.362
REMARK INTER + INTRA:          14.378
REMARK INTER:                  12.265
REMARK INTRA:                   2.112
REMARK UNBOUND:                -0.847
REMARK SMILES CCCCCCCCCCCCCCCC(=O)[O-]
REMARK SMILES IDX 9 1 10 2 11 3 12 4 13 5 14 6 15 7 16 8 17 9 18 10 8 11 7 12
REMARK SMILES IDX 6 13 5 14 4 15 3 16 2 17 1 18
REMARK H PARENT
REMARK Flexibility Score: inf
ROOT
ATOM      1  C   UNL     1      -7.478  28.106 -16.207  1.00  0.00     0.000 C 
ENDROOT
BRANCH   1   2
ATOM      2  C   UNL     1      -7.839  29.090 -15.083  1.00  0.00     0.000 C 
BRANCH   2   3
ATOM      3  C   UNL     1      -8.845  30.162 -15.539  1.00  0.00     0.000 C 
BRANCH   3   4
ATOM      4  C   UNL     1      -9.362  29.915 -16.965  1.00  0.00     0.000 C 
BRANCH   4   5
ATOM      5  C   UNL     1      -9.335  31.188 -17.830  1.00  0.00     0.000 C 
BRANCH   5   6
ATOM      6  C   UNL     1      -9.195  32.469 -16.992  1.00  0.00     0.006 C 
BRANCH   6   7
ATOM      7  C   UNL     1      -8.944  32.182 -15.506  1.00  0.00     0.053 C 
BRANCH   7   8
ATOM      8  C   UNL     1      -8.364  33.386 -14.833  1.00  0.00     0.041 C 
ATOM      9  O   UNL     1      -7.462  34.057 -15.402  1.00  0.00    -0.550 OA
ATOM     10  O   UNL     1      -8.854  33.797 -13.601  1.00  0.00    -0.550 OA
ENDBRANCH   7   8
ENDBRANCH   6   7
ENDBRANCH   5   6
ENDBRANCH   4   5
ENDBRANCH   3   4
ENDBRANCH   2   3
ENDBRANCH   1   2
BRANCH   1  11
ATOM     11  C   UNL     1      -6.093  28.384 -16.816  1.00  0.00     0.000 C 
BRANCH  11  12
ATOM     12  C   UNL     1      -6.035  28.066 -18.319  1.00  0.00    -0.000 C 
BRANCH  12  13
ATOM     13  C   UNL     1      -7.186  28.720 -19.104  1.00  0.00    -0.000 C 
BRANCH  13  14
ATOM     14  C   UNL     1      -7.128  28.413 -20.609  1.00  0.00    -0.000 C 
BRANCH  14  15
ATOM     15  C   UNL     1      -5.789  28.821 -21.244  1.00  0.00    -0.000 C 
BRANCH  15  16
ATOM     16  C   UNL     1      -5.761  28.583 -22.763  1.00  0.00    -0.000 C 
BRANCH  16  17
ATOM     17  C   UNL     1      -5.614  27.097 -23.124  1.00  0.00    -0.003 C 
ATOM     18  C   UNL     1      -4.914  26.328 -22.008  1.00  0.00     0.004 C 
ENDBRANCH  16  17
ENDBRANCH  15  16
ENDBRANCH  14  15
ENDBRANCH  13  14
ENDBRANCH  12  13
ENDBRANCH  11  12
ENDBRANCH   1  11
TORSDOF 14
ENDMDL
MODEL 5
REMARK VINA RESULT:     8.459      3.712      6.340
REMARK INTER + INTRA:          14.536
REMARK INTER:                  15.381
REMARK INTRA:                  -0.845
REMARK UNBOUND:                -0.847
REMARK SMILES CCCCCCCCCCCCCCCC(=O)[O-]
REMARK SMILES IDX 9 1 10 2 11 3 12 4 13 5 14 6 15 7 16 8 17 9 18 10 8 11 7 12
REMARK SMILES IDX 6 13 5 14 4 15 3 16 2 17 1 18
REMARK H PARENT
REMARK Flexibility Score: inf
ROOT
ATOM      1  C   UNL     1      -9.356  31.055 -16.168  1.00  0.00     0.000 C 
ENDROOT
BRANCH   1   2
ATOM      2  C   UNL     1      -9.112  32.366 -16.932  1.00  0.00     0.000 C 
BRANCH   2   3
ATOM      3  C   UNL     1      -9.460  32.251 -18.426  1.00  0.00     0.000 C 
BRANCH   3   4
ATOM      4  C   UNL     1      -9.280  33.580 -19.177  1.00  0.00     0.000 C 
BRANCH   4   5
ATOM      5  C   UNL     1      -9.995  33.589 -20.540  1.00  0.00     0.000 C 
BRANCH   5   6
ATOM      6  C   UNL     1      -9.378  32.597 -21.538  1.00  0.00     0.006 C 
BRANCH   6   7
ATOM      7  C   UNL     1      -9.910  32.782 -22.965  1.00  0.00     0.053 C 
BRANCH   7   8
ATOM      8  C   UNL     1     -11.365  32.443 -23.027  1.00  0.00     0.041 C 
ATOM      9  O   UNL     1     -12.226  33.358 -23.125  1.00  0.00    -0.550 OA
ATOM     10  O   UNL     1     -11.770  31.115 -23.028  1.00  0.00    -0.550 OA
ENDBRANCH   7   8
ENDBRANCH   6   7
ENDBRANCH   5   6
ENDBRANCH   4   5
ENDBRANCH   3   4
ENDBRANCH   2   3
ENDBRANCH   1   2
BRANCH   1  11
ATOM     11  C   UNL     1      -8.877  29.817 -16.946  1.00  0.00     0.000 C 
BRANCH  11  12
ATOM     12  C   UNL     1      -7.739  29.074 -16.229  1.00  0.00    -0.000 C 
BRANCH  12  13
ATOM     13  C   UNL     1      -6.881  28.237 -17.195  1.00  0.00    -0.000 C 
BRANCH  13  14
ATOM     14  C   UNL     1      -6.411  29.039 -18.420  1.00  0.00    -0.000 C 
BRANCH  14  15
ATOM     15  C   UNL     1      -6.737  28.335 -19.747  1.00  0.00    -0.000 C 
BRANCH  15  16
ATOM     16  C   UNL     1      -6.104  29.042 -20.958  1.00  0.00    -0.000 C 
BRANCH  16  17
ATOM     17  C   UNL     1      -5.529  28.054 -21.984  1.00  0.00    -0.003 C 
ATOM     18  C   UNL     1      -6.598  27.613 -22.980  1.00  0.00     0.004 C 
ENDBRANCH  16  17
ENDBRANCH  15  16
ENDBRANCH  14  15
ENDBRANCH  13  14
ENDBRANCH  12  13
ENDBRANCH  11  12
ENDBRANCH   1  11
TORSDOF 14
ENDMDL
MODEL 6
REMARK VINA RESULT:     8.631      2.032      2.968
REMARK INTER + INTRA:          14.848
REMARK INTER:                  12.954
REMARK INTRA:                   1.894
REMARK UNBOUND:                -0.847
REMARK SMILES CCCCCCCCCCCCCCCC(=O)[O-]
REMARK SMILES IDX 9 1 10 2 11 3 12 4 13 5 14 6 15 7 16 8 17 9 18 10 8 11 7 12
REMARK SMILES IDX 6 13 5 14 4 15 3 16 2 17 1 18
REMARK H PARENT
REMARK Flexibility Score: inf
ROOT
ATOM      1  C   UNL     1      -7.804  28.445 -15.868  1.00  0.00     0.000 C 
ENDROOT
BRANCH   1   2
ATOM      2  C   UNL     1      -6.943  28.935 -17.042  1.00  0.00     0.000 C 
BRANCH   2   3
ATOM      3  C   UNL     1      -7.176  28.119 -18.326  1.00  0.00     0.000 C 
BRANCH   3   4
ATOM      4  C   UNL     1      -6.046  28.302 -19.353  1.00  0.00     0.000 C 
BRANCH   4   5
ATOM      5  C   UNL     1      -6.231  29.565 -20.213  1.00  0.00     0.000 C 
BRANCH   5   6
ATOM      6  C   UNL     1      -6.622  29.240 -21.663  1.00  0.00     0.006 C 
BRANCH   6   7
ATOM      7  C   UNL     1      -5.467  28.630 -22.467  1.00  0.00     0.053 C 
BRANCH   7   8
ATOM      8  C   UNL     1      -5.798  27.230 -22.876  1.00  0.00     0.041 C 
ATOM      9  O   UNL     1      -4.876  26.400 -23.098  1.00  0.00    -0.550 OA
ATOM     10  O   UNL     1      -7.123  26.826 -22.963  1.00  0.00    -0.550 OA
ENDBRANCH   7   8
ENDBRANCH   6   7
ENDBRANCH   5   6
ENDBRANCH   4   5
ENDBRANCH   3   4
ENDBRANCH   2   3
ENDBRANCH   1   2
BRANCH   1  11
ATOM     11  C   UNL     1      -8.204  29.581 -14.910  1.00  0.00     0.000 C 
BRANCH  11  12
ATOM     12  C   UNL     1      -9.408  30.386 -15.422  1.00  0.00    -0.000 C 
BRANCH  12  13
ATOM     13  C   UNL     1      -9.607  30.247 -16.942  1.00  0.00    -0.000 C 
BRANCH  13  14
ATOM     14  C   UNL     1      -9.216  31.519 -17.712  1.00  0.00    -0.000 C 
BRANCH  14  15
ATOM     15  C   UNL     1      -9.260  32.779 -16.832  1.00  0.00    -0.000 C 
BRANCH  15  16
ATOM     16  C   UNL     1      -8.725  32.524 -15.413  1.00  0.00    -0.000 C 
BRANCH  16  17
ATOM     17  C   UNL     1      -8.163  33.794 -14.756  1.00  0.00    -0.003 C 
ATOM     18  C   UNL     1      -8.981  34.185 -13.529  1.00  0.00     0.004 C 
ENDBRANCH  16  17
ENDBRANCH  15  16
ENDBRANCH  14  15
ENDBRANCH  13  14
ENDBRANCH  12  13
ENDBRANCH  11  12
ENDBRANCH   1  11
TORSDOF 14
ENDMDL
MODEL 7
REMARK VINA RESULT:     8.739      3.027      7.049
REMARK INTER + INTRA:          15.044
REMARK INTER:                  15.697
REMARK INTRA:                  -0.653
REMARK UNBOUND:                -0.847
REMARK SMILES CCCCCCCCCCCCCCCC(=O)[O-]
REMARK SMILES IDX 9 1 10 2 11 3 12 4 13 5 14 6 15 7 16 8 17 9 18 10 8 11 7 12
REMARK SMILES IDX 6 13 5 14 4 15 3 16 2 17 1 18
REMARK H PARENT
REMARK Flexibility Score: inf
ROOT
ATOM      1  C   UNL     1      -9.479  31.219 -16.557  1.00  0.00     0.000 C 
ENDROOT
BRANCH   1   2
ATOM      2  C   UNL     1      -9.167  31.506 -15.080  1.00  0.00     0.000 C 
BRANCH   2   3
ATOM      3  C   UNL     1      -8.677  32.946 -14.850  1.00  0.00     0.000 C 
BRANCH   3   4
ATOM      4  C   UNL     1      -7.691  33.413 -15.934  1.00  0.00     0.000 C 
BRANCH   4   5
ATOM      5  C   UNL     1      -7.172  34.840 -15.683  1.00  0.00     0.000 C 
BRANCH   5   6
ATOM      6  C   UNL     1      -5.748  35.054 -16.221  1.00  0.00     0.006 C 
BRANCH   6   7
ATOM      7  C   UNL     1      -5.583  36.396 -16.946  1.00  0.00     0.053 C 
BRANCH   7   8
ATOM      8  C   UNL     1      -5.593  36.193 -18.428  1.00  0.00     0.041 C 
ATOM      9  O   UNL     1      -4.875  35.299 -18.950  1.00  0.00    -0.550 OA
ATOM     10  O   UNL     1      -6.432  36.956 -19.229  1.00  0.00    -0.550 OA
ENDBRANCH   7   8
ENDBRANCH   6   7
ENDBRANCH   5   6
ENDBRANCH   4   5
ENDBRANCH   3   4
ENDBRANCH   2   3
ENDBRANCH   1   2
BRANCH   1  11
ATOM     11  C   UNL     1      -8.968  29.841 -17.014  1.00  0.00     0.000 C 
BRANCH  11  12
ATOM     12  C   UNL     1      -7.896  29.269 -16.074  1.00  0.00    -0.000 C 
BRANCH  12  13
ATOM     13  C   UNL     1      -7.045  28.177 -16.746  1.00  0.00    -0.000 C 
BRANCH  13  14
ATOM     14  C   UNL     1      -6.245  28.703 -17.949  1.00  0.00    -0.000 C 
BRANCH  14  15
ATOM     15  C   UNL     1      -6.927  28.395 -19.292  1.00  0.00    -0.000 C 
BRANCH  15  16
ATOM     16  C   UNL     1      -5.917  28.037 -20.395  1.00  0.00    -0.000 C 
BRANCH  16  17
ATOM     17  C   UNL     1      -6.316  28.603 -21.766  1.00  0.00    -0.003 C 
ATOM     18  C   UNL     1      -5.726  27.766 -22.898  1.00  0.00     0.004 C 
ENDBRANCH  16  17
ENDBRANCH  15  16
ENDBRANCH  14  15
ENDBRANCH  13  14
ENDBRANCH  12  13
ENDBRANCH  11  12
ENDBRANCH   1  11
TORSDOF 14
ENDMDL
MODEL 8
REMARK VINA RESULT:     8.785      3.142      6.555
REMARK INTER + INTRA:          15.128
REMARK INTER:                  13.565
REMARK INTRA:                   1.563
REMARK UNBOUND:                -0.847
REMARK SMILES CCCCCCCCCCCCCCCC(=O)[O-]
REMARK SMILES IDX 9 1 10 2 11 3 12 4 13 5 14 6 15 7 16 8 17 9 18 10 8 11 7 12
REMARK SMILES IDX 6 13 5 14 4 15 3 16 2 17 1 18
REMARK H PARENT
REMARK Flexibility Score: inf
ROOT
ATOM      1  C   UNL     1      -7.594  28.685 -16.329  1.00  0.00     0.000 C 
ENDROOT
BRANCH   1   2
ATOM      2  C   UNL     1      -7.791  28.701 -14.805  1.00  0.00     0.000 C 
BRANCH   2   3
ATOM      3  C   UNL     1      -8.248  30.075 -14.284  1.00  0.00     0.000 C 
BRANCH   3   4
ATOM      4  C   UNL     1      -9.527  30.572 -14.977  1.00  0.00     0.000 C 
BRANCH   4   5
ATOM      5  C   UNL     1      -9.334  31.938 -15.660  1.00  0.00     0.000 C 
BRANCH   5   6
ATOM      6  C   UNL     1      -8.988  31.809 -17.152  1.00  0.00     0.006 C 
BRANCH   6   7
ATOM      7  C   UNL     1      -8.563  30.388 -17.542  1.00  0.00     0.053 C 
BRANCH   7   8
ATOM      8  C   UNL     1      -9.540  29.798 -18.509  1.00  0.00     0.041 C 
ATOM      9  O   UNL     1     -10.474  29.059 -18.095  1.00  0.00    -0.550 OA
ATOM     10  O   UNL     1      -9.452  30.102 -19.861  1.00  0.00    -0.550 OA
ENDBRANCH   7   8
ENDBRANCH   6   7
ENDBRANCH   5   6
ENDBRANCH   4   5
ENDBRANCH   3   4
ENDBRANCH   2   3
ENDBRANCH   1   2
BRANCH   1  11
ATOM     11  C   UNL     1      -6.244  28.076 -16.746  1.00  0.00     0.000 C 
BRANCH  11  12
ATOM     12  C   UNL     1      -5.651  28.755 -17.991  1.00  0.00    -0.000 C 
BRANCH  12  13
ATOM     13  C   UNL     1      -6.155  28.126 -19.302  1.00  0.00    -0.000 C 
BRANCH  13  14
ATOM     14  C   UNL     1      -6.112  29.105 -20.486  1.00  0.00    -0.000 C 
BRANCH  14  15
ATOM     15  C   UNL     1      -6.801  28.544 -21.742  1.00  0.00    -0.000 C 
BRANCH  15  16
ATOM     16  C   UNL     1      -5.871  28.533 -22.966  1.00  0.00    -0.000 C 
BRANCH  16  17
ATOM     17  C   UNL     1      -4.879  27.360 -22.943  1.00  0.00    -0.003 C 
ATOM     18  C   UNL     1      -5.601  26.028 -23.125  1.00  0.00     0.004 C 
ENDBRANCH  16  17
ENDBRANCH  15  16
ENDBRANCH  14  15
ENDBRANCH  13  14
ENDBRANCH  12  13
ENDBRANCH  11  12
ENDBRANCH   1  11
TORSDOF 14
ENDMDL
MODEL 9
REMARK VINA RESULT:     8.854      2.045      2.677
REMARK INTER + INTRA:          15.254
REMARK INTER:                  15.886
REMARK INTRA:                  -0.631
REMARK UNBOUND:                -0.847
REMARK SMILES CCCCCCCCCCCCCCCC(=O)[O-]
REMARK SMILES IDX 9 1 10 2 11 3 12 4 13 5 14 6 15 7 16 8 17 9 18 10 8 11 7 12
REMARK SMILES IDX 6 13 5 14 4 15 3 16 2 17 1 18
REMARK H PARENT
REMARK Flexibility Score: inf
ROOT
ATOM      1  C   UNL     1      -8.244  28.965 -16.561  1.00  0.00     0.000 C 
ENDROOT
BRANCH   1   2
ATOM      2  C   UNL     1      -8.768  29.720 -17.792  1.00  0.00     0.000 C 
BRANCH   2   3
ATOM      3  C   UNL     1      -7.910  29.472 -19.045  1.00  0.00     0.000 C 
BRANCH   3   4
ATOM      4  C   UNL     1      -6.900  28.329 -18.850  1.00  0.00     0.000 C 
BRANCH   4   5
ATOM      5  C   UNL     1      -5.959  28.163 -20.057  1.00  0.00     0.000 C 
BRANCH   5   6
ATOM      6  C   UNL     1      -6.117  29.290 -21.090  1.00  0.00     0.006 C 
BRANCH   6   7
ATOM      7  C   UNL     1      -5.520  28.931 -22.457  1.00  0.00     0.053 C 
BRANCH   7   8
ATOM      8  C   UNL     1      -5.805  27.501 -22.791  1.00  0.00     0.041 C 
ATOM      9  O   UNL     1      -4.875  26.651 -22.785  1.00  0.00    -0.550 OA
ATOM     10  O   UNL     1      -7.106  27.096 -23.060  1.00  0.00    -0.550 OA
ENDBRANCH   7   8
ENDBRANCH   6   7
ENDBRANCH   5   6
ENDBRANCH   4   5
ENDBRANCH   3   4
ENDBRANCH   2   3
ENDBRANCH   1   2
BRANCH   1  11
ATOM     11  C   UNL     1      -8.449  29.749 -15.253  1.00  0.00     0.000 C 
BRANCH  11  12
ATOM     12  C   UNL     1      -9.376  30.961 -15.432  1.00  0.00    -0.000 C 
BRANCH  12  13
ATOM     13  C   UNL     1      -8.693  32.287 -15.052  1.00  0.00    -0.000 C 
BRANCH  13  14
ATOM     14  C   UNL     1      -8.647  33.288 -16.218  1.00  0.00    -0.000 C 
BRANCH  14  15
ATOM     15  C   UNL     1      -8.984  32.637 -17.569  1.00  0.00    -0.000 C 
BRANCH  15  16
ATOM     16  C   UNL     1      -9.709  33.602 -18.522  1.00  0.00    -0.000 C 
BRANCH  16  17
ATOM     17  C   UNL     1      -9.136  33.568 -19.946  1.00  0.00    -0.003 C 
ATOM     18  C   UNL     1     -10.202  33.157 -20.958  1.00  0.00     0.004 C 
ENDBRANCH  16  17
ENDBRANCH  15  16
ENDBRANCH  14  15
ENDBRANCH  13  14
ENDBRANCH  12  13
ENDBRANCH  11  12
ENDBRANCH   1  11
TORSDOF 14
ENDMDL
