MODEL 1
REMARK VINA RESULT:    -4.154      0.000      0.000
REMARK INTER + INTRA:          -5.314
REMARK INTER:                  -5.004
REMARK INTRA:                  -0.310
REMARK UNBOUND:                -0.310
REMARK SMILES O=c1c(O)c(-c2ccc(O)c(O)c2)oc2cc(O)cc(O)c12
REMARK SMILES IDX 5 1 3 2 2 3 1 4 22 5 20 6 19 7 17 8 16 9 15 10 14 11 6 12
REMARK SMILES IDX 7 13 8 14 9 15 13 16 11 17 10 18 12 20 4 22 21 24 18 26
REMARK H PARENT 10 19 12 21 4 23 21 25 18 27
REMARK Flexibility Score: inf
ROOT
ATOM      1  C   UNL     1      38.444 -32.150  13.534  1.00  0.00     0.180 A 
ATOM      2  C   UNL     1      37.496 -31.146  13.264  1.00  0.00     0.208 A 
ATOM      3  C   UNL     1      37.278 -30.141  14.220  1.00  0.00     0.238 A 
ATOM      4  O   UNL     1      36.391 -29.278  13.996  1.00  0.00    -0.285 OA
ATOM      5  C   UNL     1      38.020 -30.142  15.426  1.00  0.00     0.111 A 
ATOM      6  C   UNL     1      37.909 -29.151  16.447  1.00  0.00     0.134 A 
ATOM      7  C   UNL     1      38.596 -29.324  17.654  1.00  0.00     0.093 A 
ATOM      8  C   UNL     1      39.440 -30.415  17.854  1.00  0.00     0.123 A 
ATOM      9  C   UNL     1      39.603 -31.360  16.839  1.00  0.00     0.094 A 
ATOM     10  C   UNL     1      38.902 -31.234  15.637  1.00  0.00     0.146 A 
ATOM     11  O   UNL     1      39.076 -32.160  14.701  1.00  0.00    -0.452 OA
ENDROOT
BRANCH   1  12
ATOM     12  C   UNL     1      38.747 -33.228  12.565  1.00  0.00     0.025 A 
ATOM     13  C   UNL     1      39.814 -33.070  11.667  1.00  0.00     0.016 A 
ATOM     14  C   UNL     1      40.105 -34.064  10.730  1.00  0.00     0.051 A 
ATOM     15  C   UNL     1      39.322 -35.224  10.667  1.00  0.00     0.157 A 
ATOM     16  C   UNL     1      37.952 -34.385  12.484  1.00  0.00     0.062 A 
ATOM     17  C   UNL     1      38.241 -35.383  11.543  1.00  0.00     0.158 A 
BRANCH  15  18
ATOM     18  O   UNL     1      39.609 -36.219   9.735  1.00  0.00    -0.504 OA
ATOM     19  H   UNL     1      39.037 -37.052   9.654  1.00  0.00     0.293 HD
ENDBRANCH  15  18
BRANCH  17  20
ATOM     20  O   UNL     1      37.456 -36.532  11.469  1.00  0.00    -0.504 OA
ATOM     21  H   UNL     1      37.540 -37.182  10.696  1.00  0.00     0.293 HD
ENDBRANCH  17  20
ENDBRANCH   1  12
BRANCH   2  22
ATOM     22  O   UNL     1      36.759 -31.177  12.077  1.00  0.00    -0.502 OA
ATOM     23  H   UNL     1      35.938 -30.601  11.931  1.00  0.00     0.293 HD
ENDBRANCH   2  22
BRANCH   6  24
ATOM     24  O   UNL     1      37.165 -27.975  16.314  1.00  0.00    -0.507 OA
ATOM     25  H   UNL     1      37.166 -27.383  15.497  1.00  0.00     0.293 HD
ENDBRANCH   6  24
BRANCH   8  26
ATOM     26  O   UNL     1      40.121 -30.547  19.062  1.00  0.00    -0.508 OA
ATOM     27  H   UNL     1      41.065 -30.199  19.180  1.00  0.00     0.293 HD
ENDBRANCH   8  26
TORSDOF 6
ENDMDL
MODEL 2
REMARK VINA RESULT:    -4.037      2.156      7.308
REMARK INTER + INTRA:          -5.172
REMARK INTER:                  -4.867
REMARK INTRA:                  -0.305
REMARK UNBOUND:                -0.310
REMARK SMILES O=c1c(O)c(-c2ccc(O)c(O)c2)oc2cc(O)cc(O)c12
REMARK SMILES IDX 5 1 3 2 2 3 1 4 22 5 20 6 19 7 17 8 16 9 15 10 14 11 6 12
REMARK SMILES IDX 7 13 8 14 9 15 13 16 11 17 10 18 12 20 4 22 21 24 18 26
REMARK H PARENT 10 19 12 21 4 23 21 25 18 27
REMARK Flexibility Score: inf
ROOT
ATOM      1  C   UNL     1      38.779 -34.073  12.546  1.00  0.00     0.180 A 
ATOM      2  C   UNL     1      39.357 -34.186  11.269  1.00  0.00     0.208 A 
ATOM      3  C   UNL     1      39.538 -35.464  10.715  1.00  0.00     0.238 A 
ATOM      4  O   UNL     1      40.105 -35.561   9.596  1.00  0.00    -0.285 OA
ATOM      5  C   UNL     1      39.125 -36.610  11.436  1.00  0.00     0.111 A 
ATOM      6  C   UNL     1      39.224 -37.949  10.955  1.00  0.00     0.134 A 
ATOM      7  C   UNL     1      38.905 -39.014  11.807  1.00  0.00     0.093 A 
ATOM      8  C   UNL     1      38.429 -38.788  13.097  1.00  0.00     0.123 A 
ATOM      9  C   UNL     1      38.272 -37.479  13.558  1.00  0.00     0.094 A 
ATOM     10  C   UNL     1      38.616 -36.397  12.745  1.00  0.00     0.146 A 
ATOM     11  O   UNL     1      38.463 -35.169  13.224  1.00  0.00    -0.452 OA
ENDROOT
BRANCH   1  12
ATOM     12  C   UNL     1      38.533 -32.759  13.185  1.00  0.00     0.025 A 
ATOM     13  C   UNL     1      37.394 -32.020  12.829  1.00  0.00     0.016 A 
ATOM     14  C   UNL     1      37.153 -30.769  13.402  1.00  0.00     0.051 A 
ATOM     15  C   UNL     1      38.057 -30.233  14.329  1.00  0.00     0.157 A 
ATOM     16  C   UNL     1      39.447 -32.207  14.100  1.00  0.00     0.062 A 
ATOM     17  C   UNL     1      39.208 -30.951  14.675  1.00  0.00     0.158 A 
BRANCH  15  18
ATOM     18  O   UNL     1      37.820 -28.986  14.905  1.00  0.00    -0.504 OA
ATOM     19  H   UNL     1      36.907 -28.733  15.264  1.00  0.00     0.293 HD
ENDBRANCH  15  18
BRANCH  17  20
ATOM     20  O   UNL     1      40.112 -30.408  15.587  1.00  0.00    -0.504 OA
ATOM     21  H   UNL     1      39.928 -29.529  16.055  1.00  0.00     0.293 HD
ENDBRANCH  17  20
ENDBRANCH   1  12
BRANCH   2  22
ATOM     22  O   UNL     1      39.778 -33.043  10.583  1.00  0.00    -0.502 OA
ATOM     23  H   UNL     1      40.756 -32.809  10.465  1.00  0.00     0.293 HD
ENDBRANCH   2  22
BRANCH   6  24
ATOM     24  O   UNL     1      39.600 -38.284   9.651  1.00  0.00    -0.507 OA
ATOM     25  H   UNL     1      38.964 -38.588   8.930  1.00  0.00     0.293 HD
ENDBRANCH   6  24
BRANCH   8  26
ATOM     26  O   UNL     1      38.107 -39.870  13.912  1.00  0.00    -0.508 OA
ATOM     27  H   UNL     1      38.595 -40.043  14.783  1.00  0.00     0.293 HD
ENDBRANCH   8  26
TORSDOF 6
ENDMDL
MODEL 3
REMARK VINA RESULT:    -4.027      2.160      7.580
REMARK INTER + INTRA:          -5.161
REMARK INTER:                  -4.840
REMARK INTRA:                  -0.320
REMARK UNBOUND:                -0.310
REMARK SMILES O=c1c(O)c(-c2ccc(O)c(O)c2)oc2cc(O)cc(O)c12
REMARK SMILES IDX 5 1 3 2 2 3 1 4 22 5 20 6 19 7 17 8 16 9 15 10 14 11 6 12
REMARK SMILES IDX 7 13 8 14 9 15 13 16 11 17 10 18 12 20 4 22 21 24 18 26
REMARK H PARENT 10 19 12 21 4 23 21 25 18 27
REMARK Flexibility Score: inf
ROOT
ATOM      1  C   UNL     1      38.874 -34.443  12.052  1.00  0.00     0.180 A 
ATOM      2  C   UNL     1      39.496 -34.512  10.793  1.00  0.00     0.208 A 
ATOM      3  C   UNL     1      39.520 -35.740  10.112  1.00  0.00     0.238 A 
ATOM      4  O   UNL     1      40.125 -35.807   9.011  1.00  0.00    -0.285 OA
ATOM      5  C   UNL     1      38.910 -36.878  10.691  1.00  0.00     0.111 A 
ATOM      6  C   UNL     1      38.841 -38.163  10.072  1.00  0.00     0.134 A 
ATOM      7  C   UNL     1      38.328 -39.248  10.793  1.00  0.00     0.093 A 
ATOM      8  C   UNL     1      37.823 -39.085  12.082  1.00  0.00     0.123 A 
ATOM      9  C   UNL     1      37.832 -37.821  12.674  1.00  0.00     0.094 A 
ATOM     10  C   UNL     1      38.369 -36.725  11.995  1.00  0.00     0.146 A 
ATOM     11  O   UNL     1      38.369 -35.542  12.597  1.00  0.00    -0.452 OA
ENDROOT
BRANCH   1  12
ATOM     12  C   UNL     1      38.787 -33.178  12.819  1.00  0.00     0.025 A 
ATOM     13  C   UNL     1      39.834 -32.820  13.682  1.00  0.00     0.016 A 
ATOM     14  C   UNL     1      39.764 -31.643  14.431  1.00  0.00     0.051 A 
ATOM     15  C   UNL     1      38.637 -30.815  14.339  1.00  0.00     0.157 A 
ATOM     16  C   UNL     1      37.649 -32.354  12.746  1.00  0.00     0.062 A 
ATOM     17  C   UNL     1      37.576 -31.174  13.498  1.00  0.00     0.158 A 
BRANCH  15  18
ATOM     18  O   UNL     1      38.563 -29.639  15.083  1.00  0.00    -0.504 OA
ATOM     19  H   UNL     1      38.892 -29.596  16.040  1.00  0.00     0.293 HD
ENDBRANCH  15  18
BRANCH  17  20
ATOM     20  O   UNL     1      36.451 -30.355  13.420  1.00  0.00    -0.504 OA
ATOM     21  H   UNL     1      36.441 -29.520  12.847  1.00  0.00     0.293 HD
ENDBRANCH  17  20
ENDBRANCH   1  12
BRANCH   2  22
ATOM     22  O   UNL     1      40.112 -33.380  10.250  1.00  0.00    -0.502 OA
ATOM     23  H   UNL     1      39.810 -32.963   9.378  1.00  0.00     0.293 HD
ENDBRANCH   2  22
BRANCH   6  24
ATOM     24  O   UNL     1      39.232 -38.416   8.755  1.00  0.00    -0.507 OA
ATOM     25  H   UNL     1      38.960 -37.862   7.958  1.00  0.00     0.293 HD
ENDBRANCH   6  24
BRANCH   8  26
ATOM     26  O   UNL     1      37.307 -40.185  12.763  1.00  0.00    -0.508 OA
ATOM     27  H   UNL     1      37.128 -41.065  12.293  1.00  0.00     0.293 HD
ENDBRANCH   8  26
TORSDOF 6
ENDMDL
MODEL 4
REMARK VINA RESULT:    -3.986      3.446      5.924
REMARK INTER + INTRA:          -5.112
REMARK INTER:                  -5.082
REMARK INTRA:                  -0.030
REMARK UNBOUND:                -0.310
REMARK SMILES O=c1c(O)c(-c2ccc(O)c(O)c2)oc2cc(O)cc(O)c12
REMARK SMILES IDX 5 1 3 2 2 3 1 4 22 5 20 6 19 7 17 8 16 9 15 10 14 11 6 12
REMARK SMILES IDX 7 13 8 14 9 15 13 16 11 17 10 18 12 20 4 22 21 24 18 26
REMARK H PARENT 10 19 12 21 4 23 21 25 18 27
REMARK Flexibility Score: inf
ROOT
ATOM      1  C   UNL     1      35.728 -30.252  12.543  1.00  0.00     0.180 A 
ATOM      2  C   UNL     1      36.188 -29.408  13.569  1.00  0.00     0.208 A 
ATOM      3  C   UNL     1      37.374 -29.742  14.244  1.00  0.00     0.238 A 
ATOM      4  O   UNL     1      37.751 -29.012  15.197  1.00  0.00    -0.285 OA
ATOM      5  C   UNL     1      38.092 -30.904  13.875  1.00  0.00     0.111 A 
ATOM      6  C   UNL     1      39.325 -31.316  14.464  1.00  0.00     0.134 A 
ATOM      7  C   UNL     1      39.879 -32.553  14.110  1.00  0.00     0.093 A 
ATOM      8  C   UNL     1      39.283 -33.361  13.144  1.00  0.00     0.123 A 
ATOM      9  C   UNL     1      38.108 -32.940  12.518  1.00  0.00     0.094 A 
ATOM     10  C   UNL     1      37.511 -31.728  12.875  1.00  0.00     0.146 A 
ATOM     11  O   UNL     1      36.388 -31.370  12.265  1.00  0.00    -0.452 OA
ENDROOT
BRANCH   1  12
ATOM     12  C   UNL     1      34.501 -29.954  11.770  1.00  0.00     0.025 A 
ATOM     13  C   UNL     1      33.285 -29.770  12.447  1.00  0.00     0.016 A 
ATOM     14  C   UNL     1      32.111 -29.510  11.737  1.00  0.00     0.051 A 
ATOM     15  C   UNL     1      32.132 -29.444  10.338  1.00  0.00     0.157 A 
ATOM     16  C   UNL     1      34.513 -29.908  10.364  1.00  0.00     0.062 A 
ATOM     17  C   UNL     1      33.335 -29.647   9.650  1.00  0.00     0.158 A 
BRANCH  15  18
ATOM     18  O   UNL     1      30.964 -29.182   9.625  1.00  0.00    -0.504 OA
ATOM     19  H   UNL     1      30.075 -29.049  10.094  1.00  0.00     0.293 HD
ENDBRANCH  15  18
BRANCH  17  20
ATOM     20  O   UNL     1      33.351 -29.596   8.257  1.00  0.00    -0.504 OA
ATOM     21  H   UNL     1      32.508 -29.417   7.724  1.00  0.00     0.293 HD
ENDBRANCH  17  20
ENDBRANCH   1  12
BRANCH   2  22
ATOM     22  O   UNL     1      35.452 -28.277  13.933  1.00  0.00    -0.502 OA
ATOM     23  H   UNL     1      35.096 -27.618  13.252  1.00  0.00     0.293 HD
ENDBRANCH   2  22
BRANCH   6  24
ATOM     24  O   UNL     1      40.053 -30.542  15.372  1.00  0.00    -0.507 OA
ATOM     25  H   UNL     1      40.007 -29.537  15.437  1.00  0.00     0.293 HD
ENDBRANCH   6  24
BRANCH   8  26
ATOM     26  O   UNL     1      39.870 -34.577  12.806  1.00  0.00    -0.508 OA
ATOM     27  H   UNL     1      40.530 -34.654  12.040  1.00  0.00     0.293 HD
ENDBRANCH   8  26
TORSDOF 6
ENDMDL
MODEL 5
REMARK VINA RESULT:    -3.860     10.795     13.512
REMARK INTER + INTRA:          -4.959
REMARK INTER:                  -4.646
REMARK INTRA:                  -0.313
REMARK UNBOUND:                -0.310
REMARK SMILES O=c1c(O)c(-c2ccc(O)c(O)c2)oc2cc(O)cc(O)c12
REMARK SMILES IDX 5 1 3 2 2 3 1 4 22 5 20 6 19 7 17 8 16 9 15 10 14 11 6 12
REMARK SMILES IDX 7 13 8 14 9 15 13 16 11 17 10 18 12 20 4 22 21 24 18 26
REMARK H PARENT 10 19 12 21 4 23 21 25 18 27
REMARK Flexibility Score: inf
ROOT
ATOM      1  C   UNL     1      35.889 -39.756   5.794  1.00  0.00     0.180 A 
ATOM      2  C   UNL     1      36.758 -39.991   6.874  1.00  0.00     0.208 A 
ATOM      3  C   UNL     1      36.991 -41.314   7.284  1.00  0.00     0.238 A 
ATOM      4  O   UNL     1      37.728 -41.514   8.285  1.00  0.00    -0.285 OA
ATOM      5  C   UNL     1      36.366 -42.384   6.602  1.00  0.00     0.111 A 
ATOM      6  C   UNL     1      36.561 -43.765   6.907  1.00  0.00     0.134 A 
ATOM      7  C   UNL     1      35.790 -44.732   6.250  1.00  0.00     0.093 A 
ATOM      8  C   UNL     1      34.880 -44.377   5.257  1.00  0.00     0.123 A 
ATOM      9  C   UNL     1      34.724 -43.034   4.908  1.00  0.00     0.094 A 
ATOM     10  C   UNL     1      35.452 -42.042   5.569  1.00  0.00     0.146 A 
ATOM     11  O   UNL     1      35.267 -40.776   5.217  1.00  0.00    -0.452 OA
ENDROOT
BRANCH   1  12
ATOM     12  C   UNL     1      35.614 -38.392   5.288  1.00  0.00     0.025 A 
ATOM     13  C   UNL     1      36.512 -37.793   4.390  1.00  0.00     0.016 A 
ATOM     14  C   UNL     1      36.283 -36.499   3.916  1.00  0.00     0.051 A 
ATOM     15  C   UNL     1      35.162 -35.778   4.346  1.00  0.00     0.157 A 
ATOM     16  C   UNL     1      34.500 -37.656   5.732  1.00  0.00     0.062 A 
ATOM     17  C   UNL     1      34.271 -36.357   5.259  1.00  0.00     0.158 A 
BRANCH  15  18
ATOM     18  O   UNL     1      34.929 -34.488   3.875  1.00  0.00    -0.504 OA
ATOM     19  H   UNL     1      34.008 -34.066   3.916  1.00  0.00     0.293 HD
ENDBRANCH  15  18
BRANCH  17  20
ATOM     20  O   UNL     1      33.163 -35.632   5.696  1.00  0.00    -0.504 OA
ATOM     21  H   UNL     1      32.226 -35.853   5.379  1.00  0.00     0.293 HD
ENDBRANCH  17  20
ENDBRANCH   1  12
BRANCH   2  22
ATOM     22  O   UNL     1      37.349 -38.918   7.548  1.00  0.00    -0.502 OA
ATOM     23  H   UNL     1      38.170 -38.441   7.198  1.00  0.00     0.293 HD
ENDBRANCH   2  22
BRANCH   6  24
ATOM     24  O   UNL     1      37.511 -44.235   7.817  1.00  0.00    -0.507 OA
ATOM     25  H   UNL     1      37.301 -44.798   8.627  1.00  0.00     0.293 HD
ENDBRANCH   6  24
BRANCH   8  26
ATOM     26  O   UNL     1      34.141 -45.367   4.614  1.00  0.00    -0.508 OA
ATOM     27  H   UNL     1      34.527 -45.903   3.845  1.00  0.00     0.293 HD
ENDBRANCH   8  26
TORSDOF 6
ENDMDL
MODEL 6
REMARK VINA RESULT:    -3.833      4.286      7.293
REMARK INTER + INTRA:          -4.927
REMARK INTER:                  -4.734
REMARK INTRA:                  -0.193
REMARK UNBOUND:                -0.310
REMARK SMILES O=c1c(O)c(-c2ccc(O)c(O)c2)oc2cc(O)cc(O)c12
REMARK SMILES IDX 5 1 3 2 2 3 1 4 22 5 20 6 19 7 17 8 16 9 15 10 14 11 6 12
REMARK SMILES IDX 7 13 8 14 9 15 13 16 11 17 10 18 12 20 4 22 21 24 18 26
REMARK H PARENT 10 19 12 21 4 23 21 25 18 27
REMARK Flexibility Score: inf
ROOT
ATOM      1  C   UNL     1      35.229 -29.938  12.366  1.00  0.00     0.180 A 
ATOM      2  C   UNL     1      34.047 -29.521  13.004  1.00  0.00     0.208 A 
ATOM      3  C   UNL     1      32.881 -29.359  12.238  1.00  0.00     0.238 A 
ATOM      4  O   UNL     1      31.841 -28.934  12.805  1.00  0.00    -0.285 OA
ATOM      5  C   UNL     1      32.906 -29.631  10.849  1.00  0.00     0.111 A 
ATOM      6  C   UNL     1      31.775 -29.539   9.985  1.00  0.00     0.134 A 
ATOM      7  C   UNL     1      31.946 -29.705   8.605  1.00  0.00     0.093 A 
ATOM      8  C   UNL     1      33.191 -30.023   8.065  1.00  0.00     0.123 A 
ATOM      9  C   UNL     1      34.293 -30.174   8.908  1.00  0.00     0.094 A 
ATOM     10  C   UNL     1      34.162 -29.980  10.285  1.00  0.00     0.146 A 
ATOM     11  O   UNL     1      35.237 -30.121  11.051  1.00  0.00    -0.452 OA
ENDROOT
BRANCH   1  12
ATOM     12  C   UNL     1      36.491 -30.154  13.110  1.00  0.00     0.025 A 
ATOM     13  C   UNL     1      37.180 -29.050  13.637  1.00  0.00     0.016 A 
ATOM     14  C   UNL     1      38.383 -29.228  14.324  1.00  0.00     0.051 A 
ATOM     15  C   UNL     1      38.923 -30.512  14.480  1.00  0.00     0.157 A 
ATOM     16  C   UNL     1      37.047 -31.438  13.252  1.00  0.00     0.062 A 
ATOM     17  C   UNL     1      38.255 -31.618  13.940  1.00  0.00     0.158 A 
BRANCH  15  18
ATOM     18  O   UNL     1      40.122 -30.695  15.167  1.00  0.00    -0.504 OA
ATOM     19  H   UNL     1      40.372 -31.591  15.567  1.00  0.00     0.293 HD
ENDBRANCH  15  18
BRANCH  17  20
ATOM     20  O   UNL     1      38.802 -32.892  14.085  1.00  0.00    -0.504 OA
ATOM     21  H   UNL     1      38.432 -33.555  14.756  1.00  0.00     0.293 HD
ENDBRANCH  17  20
ENDBRANCH   1  12
BRANCH   2  22
ATOM     22  O   UNL     1      34.049 -29.236  14.373  1.00  0.00    -0.502 OA
ATOM     23  H   UNL     1      33.951 -28.295  14.732  1.00  0.00     0.293 HD
ENDBRANCH   2  22
BRANCH   6  24
ATOM     24  O   UNL     1      30.469 -29.318  10.430  1.00  0.00    -0.507 OA
ATOM     25  H   UNL     1      29.672 -29.883  10.180  1.00  0.00     0.293 HD
ENDBRANCH   6  24
BRANCH   8  26
ATOM     26  O   UNL     1      33.321 -30.196   6.689  1.00  0.00    -0.508 OA
ATOM     27  H   UNL     1      33.716 -29.474   6.098  1.00  0.00     0.293 HD
ENDBRANCH   8  26
TORSDOF 6
ENDMDL
MODEL 7
REMARK VINA RESULT:    -3.830      2.530      6.679
REMARK INTER + INTRA:          -4.923
REMARK INTER:                  -4.728
REMARK INTRA:                  -0.194
REMARK UNBOUND:                -0.310
REMARK SMILES O=c1c(O)c(-c2ccc(O)c(O)c2)oc2cc(O)cc(O)c12
REMARK SMILES IDX 5 1 3 2 2 3 1 4 22 5 20 6 19 7 17 8 16 9 15 10 14 11 6 12
REMARK SMILES IDX 7 13 8 14 9 15 13 16 11 17 10 18 12 20 4 22 21 24 18 26
REMARK H PARENT 10 19 12 21 4 23 21 25 18 27
REMARK Flexibility Score: inf
ROOT
ATOM      1  C   UNL     1      38.983 -33.585  13.175  1.00  0.00     0.180 A 
ATOM      2  C   UNL     1      39.329 -33.989  11.873  1.00  0.00     0.208 A 
ATOM      3  C   UNL     1      39.669 -35.333  11.646  1.00  0.00     0.238 A 
ATOM      4  O   UNL     1      40.030 -35.676  10.490  1.00  0.00    -0.285 OA
ATOM      5  C   UNL     1      39.644 -36.257  12.717  1.00  0.00     0.111 A 
ATOM      6  C   UNL     1      39.932 -37.650  12.593  1.00  0.00     0.134 A 
ATOM      7  C   UNL     1      40.004 -38.444  13.744  1.00  0.00     0.093 A 
ATOM      8  C   UNL     1      39.736 -37.914  15.004  1.00  0.00     0.123 A 
ATOM      9  C   UNL     1      39.395 -36.567  15.131  1.00  0.00     0.094 A 
ATOM     10  C   UNL     1      39.350 -35.739  14.006  1.00  0.00     0.146 A 
ATOM     11  O   UNL     1      39.033 -34.461  14.170  1.00  0.00    -0.452 OA
ENDROOT
BRANCH   1  12
ATOM     12  C   UNL     1      38.588 -32.192  13.488  1.00  0.00     0.025 A 
ATOM     13  C   UNL     1      39.367 -31.437  14.379  1.00  0.00     0.016 A 
ATOM     14  C   UNL     1      39.003 -30.129  14.705  1.00  0.00     0.051 A 
ATOM     15  C   UNL     1      37.845 -29.562  14.157  1.00  0.00     0.157 A 
ATOM     16  C   UNL     1      37.416 -31.625  12.956  1.00  0.00     0.062 A 
ATOM     17  C   UNL     1      37.048 -30.313  13.284  1.00  0.00     0.158 A 
BRANCH  15  18
ATOM     18  O   UNL     1      37.478 -28.256  14.478  1.00  0.00    -0.504 OA
ATOM     19  H   UNL     1      37.689 -27.480  13.863  1.00  0.00     0.293 HD
ENDBRANCH  15  18
BRANCH  17  20
ATOM     20  O   UNL     1      35.889 -29.751  12.752  1.00  0.00    -0.504 OA
ATOM     21  H   UNL     1      35.749 -28.748  12.727  1.00  0.00     0.293 HD
ENDBRANCH  17  20
ENDBRANCH   1  12
BRANCH   2  22
ATOM     22  O   UNL     1      39.369 -33.055  10.834  1.00  0.00    -0.502 OA
ATOM     23  H   UNL     1      39.289 -32.059  10.994  1.00  0.00     0.293 HD
ENDBRANCH   2  22
BRANCH   6  24
ATOM     24  O   UNL     1      40.125 -38.300  11.371  1.00  0.00    -0.507 OA
ATOM     25  H   UNL     1      40.635 -37.917  10.590  1.00  0.00     0.293 HD
ENDBRANCH   6  24
BRANCH   8  26
ATOM     26  O   UNL     1      39.802 -38.738  16.126  1.00  0.00    -0.508 OA
ATOM     27  H   UNL     1      39.228 -39.569  16.208  1.00  0.00     0.293 HD
ENDBRANCH   8  26
TORSDOF 6
ENDMDL
MODEL 8
REMARK VINA RESULT:    -3.815      2.117      7.725
REMARK INTER + INTRA:          -4.905
REMARK INTER:                  -4.724
REMARK INTRA:                  -0.181
REMARK UNBOUND:                -0.310
REMARK SMILES O=c1c(O)c(-c2ccc(O)c(O)c2)oc2cc(O)cc(O)c12
REMARK SMILES IDX 5 1 3 2 2 3 1 4 22 5 20 6 19 7 17 8 16 9 15 10 14 11 6 12
REMARK SMILES IDX 7 13 8 14 9 15 13 16 11 17 10 18 12 20 4 22 21 24 18 26
REMARK H PARENT 10 19 12 21 4 23 21 25 18 27
REMARK Flexibility Score: inf
ROOT
ATOM      1  C   UNL     1      38.943 -34.267  12.902  1.00  0.00     0.180 A 
ATOM      2  C   UNL     1      38.928 -35.382  13.758  1.00  0.00     0.208 A 
ATOM      3  C   UNL     1      39.216 -36.651  13.229  1.00  0.00     0.238 A 
ATOM      4  O   UNL     1      39.148 -37.651  13.988  1.00  0.00    -0.285 OA
ATOM      5  C   UNL     1      39.531 -36.786  11.856  1.00  0.00     0.111 A 
ATOM      6  C   UNL     1      39.878 -38.016  11.221  1.00  0.00     0.134 A 
ATOM      7  C   UNL     1      40.043 -38.053   9.831  1.00  0.00     0.093 A 
ATOM      8  C   UNL     1      39.939 -36.896   9.061  1.00  0.00     0.123 A 
ATOM      9  C   UNL     1      39.659 -35.676   9.679  1.00  0.00     0.094 A 
ATOM     10  C   UNL     1      39.453 -35.613  11.060  1.00  0.00     0.146 A 
ATOM     11  O   UNL     1      39.178 -34.435  11.607  1.00  0.00    -0.452 OA
ENDROOT
BRANCH   1  12
ATOM     12  C   UNL     1      38.675 -32.895  13.392  1.00  0.00     0.025 A 
ATOM     13  C   UNL     1      37.584 -32.178  12.875  1.00  0.00     0.016 A 
ATOM     14  C   UNL     1      37.324 -30.875  13.306  1.00  0.00     0.051 A 
ATOM     15  C   UNL     1      38.160 -30.265  14.250  1.00  0.00     0.157 A 
ATOM     16  C   UNL     1      39.523 -32.270  14.324  1.00  0.00     0.062 A 
ATOM     17  C   UNL     1      39.264 -30.962  14.757  1.00  0.00     0.158 A 
BRANCH  15  18
ATOM     18  O   UNL     1      37.903 -28.966  14.684  1.00  0.00    -0.504 OA
ATOM     19  H   UNL     1      38.654 -28.328  14.922  1.00  0.00     0.293 HD
ENDBRANCH  15  18
BRANCH  17  20
ATOM     20  O   UNL     1      40.101 -30.347  15.685  1.00  0.00    -0.504 OA
ATOM     21  H   UNL     1      39.993 -29.370  15.932  1.00  0.00     0.293 HD
ENDBRANCH  17  20
ENDBRANCH   1  12
BRANCH   2  22
ATOM     22  O   UNL     1      38.592 -35.230  15.107  1.00  0.00    -0.502 OA
ATOM     23  H   UNL     1      38.679 -34.345  15.592  1.00  0.00     0.293 HD
ENDBRANCH   2  22
BRANCH   6  24
ATOM     24  O   UNL     1      40.098 -39.213  11.908  1.00  0.00    -0.507 OA
ATOM     25  H   UNL     1      39.719 -39.433  12.816  1.00  0.00     0.293 HD
ENDBRANCH   6  24
BRANCH   8  26
ATOM     26  O   UNL     1      40.125 -36.967   7.683  1.00  0.00    -0.508 OA
ATOM     27  H   UNL     1      39.383 -37.267   7.062  1.00  0.00     0.293 HD
ENDBRANCH   8  26
TORSDOF 6
ENDMDL
MODEL 9
REMARK VINA RESULT:    -2.555      1.876      3.571
REMARK INTER + INTRA:          -3.387
REMARK INTER:                  -3.085
REMARK INTRA:                  -0.302
REMARK UNBOUND:                -0.310
REMARK SMILES O=c1c(O)c(-c2ccc(O)c(O)c2)oc2cc(O)cc(O)c12
REMARK SMILES IDX 5 1 3 2 2 3 1 4 22 5 20 6 19 7 17 8 16 9 15 10 14 11 6 12
REMARK SMILES IDX 7 13 8 14 9 15 13 16 11 17 10 18 12 20 4 22 21 24 18 26
REMARK H PARENT 10 19 12 21 4 23 21 25 18 27
REMARK Flexibility Score: inf
ROOT
ATOM      1  C   UNL     1      38.089 -32.368  12.942  1.00  0.00     0.180 A 
ATOM      2  C   UNL     1      38.822 -31.611  13.873  1.00  0.00     0.208 A 
ATOM      3  C   UNL     1      38.238 -30.458  14.422  1.00  0.00     0.238 A 
ATOM      4  O   UNL     1      38.920 -29.755  15.214  1.00  0.00    -0.285 OA
ATOM      5  C   UNL     1      36.926 -30.084  14.046  1.00  0.00     0.111 A 
ATOM      6  C   UNL     1      36.223 -28.958  14.568  1.00  0.00     0.134 A 
ATOM      7  C   UNL     1      34.979 -28.609  14.027  1.00  0.00     0.093 A 
ATOM      8  C   UNL     1      34.384 -29.381  13.031  1.00  0.00     0.123 A 
ATOM      9  C   UNL     1      35.037 -30.519  12.554  1.00  0.00     0.094 A 
ATOM     10  C   UNL     1      36.295 -30.873  13.048  1.00  0.00     0.146 A 
ATOM     11  O   UNL     1      36.887 -31.956  12.560  1.00  0.00    -0.452 OA
ENDROOT
BRANCH   1  12
ATOM     12  C   UNL     1      38.627 -33.610  12.340  1.00  0.00     0.025 A 
ATOM     13  C   UNL     1      39.477 -33.525  11.225  1.00  0.00     0.016 A 
ATOM     14  C   UNL     1      39.978 -34.683  10.627  1.00  0.00     0.051 A 
ATOM     15  C   UNL     1      39.625 -35.944  11.125  1.00  0.00     0.157 A 
ATOM     16  C   UNL     1      38.259 -34.879  12.823  1.00  0.00     0.062 A 
ATOM     17  C   UNL     1      38.760 -36.042  12.223  1.00  0.00     0.158 A 
BRANCH  15  18
ATOM     18  O   UNL     1      40.125 -37.102  10.533  1.00  0.00    -0.504 OA
ATOM     19  H   UNL     1      39.525 -37.737  10.021  1.00  0.00     0.293 HD
ENDBRANCH  15  18
BRANCH  17  20
ATOM     20  O   UNL     1      38.400 -37.298  12.707  1.00  0.00    -0.504 OA
ATOM     21  H   UNL     1      39.097 -37.986  12.967  1.00  0.00     0.293 HD
ENDBRANCH  17  20
ENDBRANCH   1  12
BRANCH   2  22
ATOM     22  O   UNL     1      40.125 -31.986  14.214  1.00  0.00    -0.502 OA
ATOM     23  H   UNL     1      40.940 -31.505  13.855  1.00  0.00     0.293 HD
ENDBRANCH   2  22
BRANCH   6  24
ATOM     24  O   UNL     1      36.685 -28.173  15.629  1.00  0.00    -0.507 OA
ATOM     25  H   UNL     1      36.194 -28.034  16.498  1.00  0.00     0.293 HD
ENDBRANCH   6  24
BRANCH   8  26
ATOM     26  O   UNL     1      33.139 -29.013  12.527  1.00  0.00    -0.508 OA
ATOM     27  H   UNL     1      33.041 -28.588  11.612  1.00  0.00     0.293 HD
ENDBRANCH   8  26
TORSDOF 6
ENDMDL
