MODEL 1
REMARK VINA RESULT:    -6.412      0.000      0.000
REMARK INTER + INTRA:         -18.256
REMARK INTER:                 -16.157
REMARK INTRA:                  -2.099
REMARK UNBOUND:                -2.099
REMARK SMILES CCCCCCCCCCCCCCCCCCCCCCCCCCCC(=O)[O-]
REMARK SMILES IDX 15 1 16 2 17 3 18 4 19 5 20 6 21 7 22 8 23 9 24 10 25 11
REMARK SMILES IDX 26 12 27 13 28 14 29 15 30 16 14 17 13 18 12 19 11 20 10 21
REMARK SMILES IDX 9 22 8 23 7 24 6 25 5 26 4 27 3 28 2 29 1 30
REMARK H PARENT
REMARK Flexibility Score: inf
ROOT
ATOM      1  C   UNL     1      24.775  18.497   5.530  1.00  0.00     0.000 C 
ENDROOT
BRANCH   1   2
ATOM      2  C   UNL     1      23.624  17.493   5.326  1.00  0.00     0.000 C 
BRANCH   2   3
ATOM      3  C   UNL     1      22.339  17.800   6.117  1.00  0.00     0.000 C 
BRANCH   3   4
ATOM      4  C   UNL     1      21.870  19.254   5.971  1.00  0.00     0.000 C 
BRANCH   4   5
ATOM      5  C   UNL     1      20.668  19.534   6.886  1.00  0.00     0.000 C 
BRANCH   5   6
ATOM      6  C   UNL     1      20.233  21.010   6.870  1.00  0.00     0.000 C 
BRANCH   6   7
ATOM      7  C   UNL     1      18.802  21.269   7.375  1.00  0.00     0.000 C 
BRANCH   7   8
ATOM      8  C   UNL     1      18.320  20.207   8.377  1.00  0.00     0.000 C 
BRANCH   8   9
ATOM      9  C   UNL     1      18.149  20.775   9.796  1.00  0.00     0.000 C 
BRANCH   9  10
ATOM     10  C   UNL     1      17.180  19.939  10.651  1.00  0.00     0.000 C 
BRANCH  10  11
ATOM     11  C   UNL     1      16.943  20.540  12.048  1.00  0.00     0.000 C 
BRANCH  11  12
ATOM     12  C   UNL     1      17.247  19.588  13.220  1.00  0.00     0.006 C 
BRANCH  12  13
ATOM     13  C   UNL     1      18.748  19.454  13.511  1.00  0.00     0.053 C 
BRANCH  13  14
ATOM     14  C   UNL     1      18.989  19.228  14.971  1.00  0.00     0.041 C 
ATOM     15  O   UNL     1      18.025  18.971  15.743  1.00  0.00    -0.550 OA
ATOM     16  O   UNL     1      20.280  19.295  15.479  1.00  0.00    -0.550 OA
ENDBRANCH  13  14
ENDBRANCH  12  13
ENDBRANCH  11  12
ENDBRANCH  10  11
ENDBRANCH   9  10
ENDBRANCH   8   9
ENDBRANCH   7   8
ENDBRANCH   6   7
ENDBRANCH   5   6
ENDBRANCH   4   5
ENDBRANCH   3   4
ENDBRANCH   2   3
ENDBRANCH   1   2
BRANCH   1  17
ATOM     17  C   UNL     1      26.104  17.821   5.901  1.00  0.00     0.000 C 
BRANCH  17  18
ATOM     18  C   UNL     1      27.163  18.815   6.433  1.00  0.00     0.000 C 
BRANCH  18  19
ATOM     19  C   UNL     1      28.456  18.137   6.924  1.00  0.00     0.000 C 
BRANCH  19  20
ATOM     20  C   UNL     1      29.313  17.500   5.815  1.00  0.00     0.000 C 
BRANCH  20  21
ATOM     21  C   UNL     1      30.660  18.221   5.587  1.00  0.00     0.000 C 
BRANCH  21  22
ATOM     22  C   UNL     1      31.855  17.441   6.162  1.00  0.00    -0.000 C 
BRANCH  22  23
ATOM     23  C   UNL     1      31.595  16.942   7.595  1.00  0.00    -0.000 C 
BRANCH  23  24
ATOM     24  C   UNL     1      32.881  16.849   8.433  1.00  0.00    -0.000 C 
BRANCH  24  25
ATOM     25  C   UNL     1      33.684  18.160   8.426  1.00  0.00    -0.000 C 
BRANCH  25  26
ATOM     26  C   UNL     1      33.078  19.227   9.356  1.00  0.00    -0.000 C 
BRANCH  26  27
ATOM     27  C   UNL     1      32.595  20.472   8.580  1.00  0.00    -0.000 C 
BRANCH  27  28
ATOM     28  C   UNL     1      31.063  20.602   8.508  1.00  0.00    -0.000 C 
BRANCH  28  29
ATOM     29  C   UNL     1      30.341  19.755   9.565  1.00  0.00    -0.003 C 
ATOM     30  C   UNL     1      28.964  20.331   9.885  1.00  0.00     0.004 C 
ENDBRANCH  28  29
ENDBRANCH  27  28
ENDBRANCH  26  27
ENDBRANCH  25  26
ENDBRANCH  24  25
ENDBRANCH  23  24
ENDBRANCH  22  23
ENDBRANCH  21  22
ENDBRANCH  20  21
ENDBRANCH  19  20
ENDBRANCH  18  19
ENDBRANCH  17  18
ENDBRANCH   1  17
TORSDOF 26
ENDMDL
MODEL 2
REMARK VINA RESULT:    -6.375      4.094     13.103
REMARK INTER + INTRA:         -18.164
REMARK INTER:                 -16.530
REMARK INTRA:                  -1.634
REMARK UNBOUND:                -2.099
REMARK SMILES CCCCCCCCCCCCCCCCCCCCCCCCCCCC(=O)[O-]
REMARK SMILES IDX 15 1 16 2 17 3 18 4 19 5 20 6 21 7 22 8 23 9 24 10 25 11
REMARK SMILES IDX 26 12 27 13 28 14 29 15 30 16 14 17 13 18 12 19 11 20 10 21
REMARK SMILES IDX 9 22 8 23 7 24 6 25 5 26 4 27 3 28 2 29 1 30
REMARK H PARENT
REMARK Flexibility Score: inf
ROOT
ATOM      1  C   UNL     1      18.770  21.109   7.431  1.00  0.00     0.000 C 
ENDROOT
BRANCH   1   2
ATOM      2  C   UNL     1      20.210  20.895   6.927  1.00  0.00     0.000 C 
BRANCH   2   3
ATOM      3  C   UNL     1      20.646  19.424   6.798  1.00  0.00     0.000 C 
BRANCH   3   4
ATOM      4  C   UNL     1      22.005  19.252   6.106  1.00  0.00     0.000 C 
BRANCH   4   5
ATOM      5  C   UNL     1      22.445  17.780   6.123  1.00  0.00     0.000 C 
BRANCH   5   6
ATOM      6  C   UNL     1      23.716  17.523   5.295  1.00  0.00     0.000 C 
BRANCH   6   7
ATOM      7  C   UNL     1      24.811  18.596   5.438  1.00  0.00     0.000 C 
BRANCH   7   8
ATOM      8  C   UNL     1      26.151  18.020   5.927  1.00  0.00     0.000 C 
BRANCH   8   9
ATOM      9  C   UNL     1      27.162  19.120   6.293  1.00  0.00     0.000 C 
BRANCH   9  10
ATOM     10  C   UNL     1      27.724  18.952   7.716  1.00  0.00     0.000 C 
BRANCH  10  11
ATOM     11  C   UNL     1      28.701  20.073   8.111  1.00  0.00     0.000 C 
BRANCH  11  12
ATOM     12  C   UNL     1      30.143  19.881   7.604  1.00  0.00     0.006 C 
BRANCH  12  13
ATOM     13  C   UNL     1      30.728  18.508   7.964  1.00  0.00     0.053 C 
BRANCH  13  14
ATOM     14  C   UNL     1      30.811  17.632   6.753  1.00  0.00     0.041 C 
ATOM     15  O   UNL     1      30.759  16.377   6.870  1.00  0.00    -0.550 OA
ATOM     16  O   UNL     1      30.940  18.202   5.493  1.00  0.00    -0.550 OA
ENDBRANCH  13  14
ENDBRANCH  12  13
ENDBRANCH  11  12
ENDBRANCH  10  11
ENDBRANCH   9  10
ENDBRANCH   8   9
ENDBRANCH   7   8
ENDBRANCH   6   7
ENDBRANCH   5   6
ENDBRANCH   4   5
ENDBRANCH   3   4
ENDBRANCH   2   3
ENDBRANCH   1   2
BRANCH   1  17
ATOM     17  C   UNL     1      18.355  20.097   8.511  1.00  0.00     0.000 C 
BRANCH  17  18
ATOM     18  C   UNL     1      17.790  20.767   9.785  1.00  0.00     0.000 C 
BRANCH  18  19
ATOM     19  C   UNL     1      17.252  19.765  10.824  1.00  0.00     0.000 C 
BRANCH  19  20
ATOM     20  C   UNL     1      16.501  20.402  12.007  1.00  0.00     0.000 C 
BRANCH  20  21
ATOM     21  C   UNL     1      16.056  21.858  11.741  1.00  0.00     0.000 C 
BRANCH  21  22
ATOM     22  C   UNL     1      15.469  22.536  12.991  1.00  0.00    -0.000 C 
BRANCH  22  23
ATOM     23  C   UNL     1      14.786  21.533  13.937  1.00  0.00    -0.000 C 
BRANCH  23  24
ATOM     24  C   UNL     1      14.783  22.006  15.401  1.00  0.00    -0.000 C 
BRANCH  24  25
ATOM     25  C   UNL     1      15.277  20.920  16.371  1.00  0.00    -0.000 C 
BRANCH  25  26
ATOM     26  C   UNL     1      16.501  21.373  17.188  1.00  0.00    -0.000 C 
BRANCH  26  27
ATOM     27  C   UNL     1      17.558  20.256  17.325  1.00  0.00    -0.000 C 
BRANCH  27  28
ATOM     28  C   UNL     1      17.212  18.976  16.541  1.00  0.00    -0.000 C 
BRANCH  28  29
ATOM     29  C   UNL     1      18.360  18.497  15.642  1.00  0.00    -0.003 C 
ATOM     30  C   UNL     1      18.704  19.544  14.586  1.00  0.00     0.004 C 
ENDBRANCH  28  29
ENDBRANCH  27  28
ENDBRANCH  26  27
ENDBRANCH  25  26
ENDBRANCH  24  25
ENDBRANCH  23  24
ENDBRANCH  22  23
ENDBRANCH  21  22
ENDBRANCH  20  21
ENDBRANCH  19  20
ENDBRANCH  18  19
ENDBRANCH  17  18
ENDBRANCH   1  17
TORSDOF 26
ENDMDL
MODEL 3
REMARK VINA RESULT:    -6.311      4.215     13.309
REMARK INTER + INTRA:         -18.003
REMARK INTER:                 -16.562
REMARK INTRA:                  -1.441
REMARK UNBOUND:                -2.099
REMARK SMILES CCCCCCCCCCCCCCCCCCCCCCCCCCCC(=O)[O-]
REMARK SMILES IDX 15 1 16 2 17 3 18 4 19 5 20 6 21 7 22 8 23 9 24 10 25 11
REMARK SMILES IDX 26 12 27 13 28 14 29 15 30 16 14 17 13 18 12 19 11 20 10 21
REMARK SMILES IDX 9 22 8 23 7 24 6 25 5 26 4 27 3 28 2 29 1 30
REMARK H PARENT
REMARK Flexibility Score: inf
ROOT
ATOM      1  C   UNL     1      22.275  19.117   6.121  1.00  0.00     0.000 C 
ENDROOT
BRANCH   1   2
ATOM      2  C   UNL     1      22.501  17.785   5.380  1.00  0.00     0.000 C 
BRANCH   2   3
ATOM      3  C   UNL     1      23.972  17.452   5.068  1.00  0.00     0.000 C 
BRANCH   3   4
ATOM      4  C   UNL     1      24.958  18.501   5.598  1.00  0.00     0.000 C 
BRANCH   4   5
ATOM      5  C   UNL     1      26.256  17.837   6.082  1.00  0.00     0.000 C 
BRANCH   5   6
ATOM      6  C   UNL     1      27.384  18.848   6.351  1.00  0.00     0.000 C 
BRANCH   6   7
ATOM      7  C   UNL     1      28.705  18.229   6.843  1.00  0.00     0.000 C 
BRANCH   7   8
ATOM      8  C   UNL     1      29.515  17.571   5.713  1.00  0.00     0.000 C 
BRANCH   8   9
ATOM      9  C   UNL     1      30.688  16.731   6.245  1.00  0.00     0.000 C 
BRANCH   9  10
ATOM     10  C   UNL     1      32.045  17.432   6.059  1.00  0.00     0.000 C 
BRANCH  10  11
ATOM     11  C   UNL     1      33.031  17.145   7.205  1.00  0.00     0.000 C 
BRANCH  11  12
ATOM     12  C   UNL     1      32.490  17.451   8.614  1.00  0.00     0.006 C 
BRANCH  12  13
ATOM     13  C   UNL     1      31.902  18.864   8.737  1.00  0.00     0.053 C 
BRANCH  13  14
ATOM     14  C   UNL     1      32.985  19.874   8.953  1.00  0.00     0.041 C 
ATOM     15  O   UNL     1      32.878  21.036   8.475  1.00  0.00    -0.550 OA
ATOM     16  O   UNL     1      34.114  19.533   9.688  1.00  0.00    -0.550 OA
ENDBRANCH  13  14
ENDBRANCH  12  13
ENDBRANCH  11  12
ENDBRANCH  10  11
ENDBRANCH   9  10
ENDBRANCH   8   9
ENDBRANCH   7   8
ENDBRANCH   6   7
ENDBRANCH   5   6
ENDBRANCH   4   5
ENDBRANCH   3   4
ENDBRANCH   2   3
ENDBRANCH   1   2
BRANCH   1  17
ATOM     17  C   UNL     1      20.884  19.217   6.767  1.00  0.00     0.000 C 
BRANCH  17  18
ATOM     18  C   UNL     1      20.523  20.653   7.212  1.00  0.00     0.000 C 
BRANCH  18  19
ATOM     19  C   UNL     1      19.008  20.930   7.240  1.00  0.00     0.000 C 
BRANCH  19  20
ATOM     20  C   UNL     1      18.212  20.069   8.237  1.00  0.00     0.000 C 
BRANCH  20  21
ATOM     21  C   UNL     1      17.984  20.760   9.601  1.00  0.00     0.000 C 
BRANCH  21  22
ATOM     22  C   UNL     1      17.327  19.828  10.634  1.00  0.00    -0.000 C 
BRANCH  22  23
ATOM     23  C   UNL     1      16.989  20.554  11.948  1.00  0.00    -0.000 C 
BRANCH  23  24
ATOM     24  C   UNL     1      16.214  21.862  11.721  1.00  0.00    -0.000 C 
BRANCH  24  25
ATOM     25  C   UNL     1      15.355  22.255  12.935  1.00  0.00    -0.000 C 
BRANCH  25  26
ATOM     26  C   UNL     1      14.726  21.035  13.631  1.00  0.00    -0.000 C 
BRANCH  26  27
ATOM     27  C   UNL     1      14.966  21.044  15.157  1.00  0.00    -0.000 C 
BRANCH  27  28
ATOM     28  C   UNL     1      16.249  20.311  15.587  1.00  0.00    -0.000 C 
BRANCH  28  29
ATOM     29  C   UNL     1      17.071  21.098  16.617  1.00  0.00    -0.003 C 
ATOM     30  C   UNL     1      18.349  20.351  16.988  1.00  0.00     0.004 C 
ENDBRANCH  28  29
ENDBRANCH  27  28
ENDBRANCH  26  27
ENDBRANCH  25  26
ENDBRANCH  24  25
ENDBRANCH  23  24
ENDBRANCH  22  23
ENDBRANCH  21  22
ENDBRANCH  20  21
ENDBRANCH  19  20
ENDBRANCH  18  19
ENDBRANCH  17  18
ENDBRANCH   1  17
TORSDOF 26
ENDMDL
MODEL 4
REMARK VINA RESULT:    -6.293      1.520      2.779
REMARK INTER + INTRA:         -17.956
REMARK INTER:                 -15.804
REMARK INTRA:                  -2.152
REMARK UNBOUND:                -2.099
REMARK SMILES CCCCCCCCCCCCCCCCCCCCCCCCCCCC(=O)[O-]
REMARK SMILES IDX 15 1 16 2 17 3 18 4 19 5 20 6 21 7 22 8 23 9 24 10 25 11
REMARK SMILES IDX 26 12 27 13 28 14 29 15 30 16 14 17 13 18 12 19 11 20 10 21
REMARK SMILES IDX 9 22 8 23 7 24 6 25 5 26 4 27 3 28 2 29 1 30
REMARK H PARENT
REMARK Flexibility Score: inf
ROOT
ATOM      1  C   UNL     1      27.124  18.818   6.125  1.00  0.00     0.000 C 
ENDROOT
BRANCH   1   2
ATOM      2  C   UNL     1      25.878  17.913   6.169  1.00  0.00     0.000 C 
BRANCH   2   3
ATOM      3  C   UNL     1      24.610  18.515   5.535  1.00  0.00     0.000 C 
BRANCH   3   4
ATOM      4  C   UNL     1      23.587  17.456   5.101  1.00  0.00     0.000 C 
BRANCH   4   5
ATOM      5  C   UNL     1      22.154  17.947   5.353  1.00  0.00     0.000 C 
BRANCH   5   6
ATOM      6  C   UNL     1      22.099  19.254   6.163  1.00  0.00     0.000 C 
BRANCH   6   7
ATOM      7  C   UNL     1      20.799  19.469   6.959  1.00  0.00     0.000 C 
BRANCH   7   8
ATOM      8  C   UNL     1      19.892  20.548   6.341  1.00  0.00     0.000 C 
BRANCH   8   9
ATOM      9  C   UNL     1      19.023  21.256   7.394  1.00  0.00     0.000 C 
BRANCH   9  10
ATOM     10  C   UNL     1      18.313  20.266   8.333  1.00  0.00     0.000 C 
BRANCH  10  11
ATOM     11  C   UNL     1      18.222  20.774   9.783  1.00  0.00     0.000 C 
BRANCH  11  12
ATOM     12  C   UNL     1      16.964  20.322  10.548  1.00  0.00     0.006 C 
BRANCH  12  13
ATOM     13  C   UNL     1      16.332  21.446  11.380  1.00  0.00     0.053 C 
BRANCH  13  14
ATOM     14  C   UNL     1      15.905  20.939  12.722  1.00  0.00     0.041 C 
ATOM     15  O   UNL     1      16.766  20.633  13.592  1.00  0.00    -0.550 OA
ATOM     16  O   UNL     1      14.553  20.807  13.015  1.00  0.00    -0.550 OA
ENDBRANCH  13  14
ENDBRANCH  12  13
ENDBRANCH  11  12
ENDBRANCH  10  11
ENDBRANCH   9  10
ENDBRANCH   8   9
ENDBRANCH   7   8
ENDBRANCH   6   7
ENDBRANCH   5   6
ENDBRANCH   4   5
ENDBRANCH   3   4
ENDBRANCH   2   3
ENDBRANCH   1   2
BRANCH   1  17
ATOM     17  C   UNL     1      28.382  18.138   6.690  1.00  0.00     0.000 C 
BRANCH  17  18
ATOM     18  C   UNL     1      29.299  17.551   5.592  1.00  0.00     0.000 C 
BRANCH  18  19
ATOM     19  C   UNL     1      30.291  16.494   6.114  1.00  0.00     0.000 C 
BRANCH  19  20
ATOM     20  C   UNL     1      31.397  17.045   7.032  1.00  0.00     0.000 C 
BRANCH  20  21
ATOM     21  C   UNL     1      32.798  17.038   6.379  1.00  0.00     0.000 C 
BRANCH  21  22
ATOM     22  C   UNL     1      33.907  17.474   7.352  1.00  0.00    -0.000 C 
BRANCH  22  23
ATOM     23  C   UNL     1      33.400  17.605   8.799  1.00  0.00    -0.000 C 
BRANCH  23  24
ATOM     24  C   UNL     1      33.957  18.849   9.513  1.00  0.00    -0.000 C 
BRANCH  24  25
ATOM     25  C   UNL     1      32.848  19.814   9.963  1.00  0.00    -0.000 C 
BRANCH  25  26
ATOM     26  C   UNL     1      32.402  20.765   8.838  1.00  0.00    -0.000 C 
BRANCH  26  27
ATOM     27  C   UNL     1      31.022  20.382   8.261  1.00  0.00    -0.000 C 
BRANCH  27  28
ATOM     28  C   UNL     1      30.088  19.708   9.283  1.00  0.00    -0.000 C 
BRANCH  28  29
ATOM     29  C   UNL     1      29.184  20.709  10.016  1.00  0.00    -0.003 C 
ATOM     30  C   UNL     1      29.323  20.569  11.529  1.00  0.00     0.004 C 
ENDBRANCH  28  29
ENDBRANCH  27  28
ENDBRANCH  26  27
ENDBRANCH  25  26
ENDBRANCH  24  25
ENDBRANCH  23  24
ENDBRANCH  22  23
ENDBRANCH  21  22
ENDBRANCH  20  21
ENDBRANCH  19  20
ENDBRANCH  18  19
ENDBRANCH  17  18
ENDBRANCH   1  17
TORSDOF 26
ENDMDL
MODEL 5
REMARK VINA RESULT:    -6.283      4.579     13.933
REMARK INTER + INTRA:         -17.931
REMARK INTER:                 -16.662
REMARK INTRA:                  -1.269
REMARK UNBOUND:                -2.099
REMARK SMILES CCCCCCCCCCCCCCCCCCCCCCCCCCCC(=O)[O-]
REMARK SMILES IDX 15 1 16 2 17 3 18 4 19 5 20 6 21 7 22 8 23 9 24 10 25 11
REMARK SMILES IDX 26 12 27 13 28 14 29 15 30 16 14 17 13 18 12 19 11 20 10 21
REMARK SMILES IDX 9 22 8 23 7 24 6 25 5 26 4 27 3 28 2 29 1 30
REMARK H PARENT
REMARK Flexibility Score: inf
ROOT
ATOM      1  C   UNL     1      18.912  21.002   7.308  1.00  0.00     0.000 C 
ENDROOT
BRANCH   1   2
ATOM      2  C   UNL     1      20.419  20.732   7.130  1.00  0.00     0.000 C 
BRANCH   2   3
ATOM      3  C   UNL     1      20.791  19.264   6.852  1.00  0.00     0.000 C 
BRANCH   3   4
ATOM      4  C   UNL     1      21.971  19.110   5.883  1.00  0.00     0.000 C 
BRANCH   4   5
ATOM      5  C   UNL     1      22.551  17.690   5.949  1.00  0.00     0.000 C 
BRANCH   5   6
ATOM      6  C   UNL     1      24.014  17.615   5.477  1.00  0.00     0.000 C 
BRANCH   6   7
ATOM      7  C   UNL     1      24.687  18.978   5.233  1.00  0.00     0.000 C 
BRANCH   7   8
ATOM      8  C   UNL     1      26.105  19.058   5.824  1.00  0.00     0.000 C 
BRANCH   8   9
ATOM      9  C   UNL     1      26.635  17.684   6.266  1.00  0.00     0.000 C 
BRANCH   9  10
ATOM     10  C   UNL     1      28.095  17.744   6.748  1.00  0.00     0.000 C 
BRANCH  10  11
ATOM     11  C   UNL     1      29.107  17.403   5.640  1.00  0.00     0.000 C 
BRANCH  11  12
ATOM     12  C   UNL     1      30.385  16.698   6.127  1.00  0.00     0.006 C 
BRANCH  12  13
ATOM     13  C   UNL     1      31.626  17.601   6.076  1.00  0.00     0.053 C 
BRANCH  13  14
ATOM     14  C   UNL     1      32.073  17.969   7.457  1.00  0.00     0.041 C 
ATOM     15  O   UNL     1      32.246  19.178   7.770  1.00  0.00    -0.550 OA
ATOM     16  O   UNL     1      32.293  16.974   8.401  1.00  0.00    -0.550 OA
ENDBRANCH  13  14
ENDBRANCH  12  13
ENDBRANCH  11  12
ENDBRANCH  10  11
ENDBRANCH   9  10
ENDBRANCH   8   9
ENDBRANCH   7   8
ENDBRANCH   6   7
ENDBRANCH   5   6
ENDBRANCH   4   5
ENDBRANCH   3   4
ENDBRANCH   2   3
ENDBRANCH   1   2
BRANCH   1  17
ATOM     17  C   UNL     1      18.247  20.057   8.322  1.00  0.00     0.000 C 
BRANCH  17  18
ATOM     18  C   UNL     1      17.969  20.728   9.686  1.00  0.00     0.000 C 
BRANCH  18  19
ATOM     19  C   UNL     1      17.331  19.783  10.722  1.00  0.00     0.000 C 
BRANCH  19  20
ATOM     20  C   UNL     1      16.768  20.482  11.973  1.00  0.00     0.000 C 
BRANCH  20  21
ATOM     21  C   UNL     1      16.177  21.880  11.683  1.00  0.00     0.000 C 
BRANCH  21  22
ATOM     22  C   UNL     1      15.303  22.404  12.835  1.00  0.00    -0.000 C 
BRANCH  22  23
ATOM     23  C   UNL     1      14.790  21.274  13.744  1.00  0.00    -0.000 C 
BRANCH  23  24
ATOM     24  C   UNL     1      14.737  21.682  15.226  1.00  0.00    -0.000 C 
BRANCH  24  25
ATOM     25  C   UNL     1      16.027  21.325  15.982  1.00  0.00    -0.000 C 
BRANCH  25  26
ATOM     26  C   UNL     1      15.873  21.464  17.508  1.00  0.00    -0.000 C 
BRANCH  26  27
ATOM     27  C   UNL     1      14.964  20.368  18.105  1.00  0.00    -0.000 C 
BRANCH  27  28
ATOM     28  C   UNL     1      15.696  19.409  19.062  1.00  0.00    -0.000 C 
BRANCH  28  29
ATOM     29  C   UNL     1      15.134  19.446  20.490  1.00  0.00    -0.003 C 
ATOM     30  C   UNL     1      15.204  20.855  21.072  1.00  0.00     0.004 C 
ENDBRANCH  28  29
ENDBRANCH  27  28
ENDBRANCH  26  27
ENDBRANCH  25  26
ENDBRANCH  24  25
ENDBRANCH  23  24
ENDBRANCH  22  23
ENDBRANCH  21  22
ENDBRANCH  20  21
ENDBRANCH  19  20
ENDBRANCH  18  19
ENDBRANCH  17  18
ENDBRANCH   1  17
TORSDOF 26
ENDMDL
MODEL 6
REMARK VINA RESULT:    -6.276      3.713     12.962
REMARK INTER + INTRA:         -17.914
REMARK INTER:                 -16.549
REMARK INTRA:                  -1.364
REMARK UNBOUND:                -2.099
REMARK SMILES CCCCCCCCCCCCCCCCCCCCCCCCCCCC(=O)[O-]
REMARK SMILES IDX 15 1 16 2 17 3 18 4 19 5 20 6 21 7 22 8 23 9 24 10 25 11
REMARK SMILES IDX 26 12 27 13 28 14 29 15 30 16 14 17 13 18 12 19 11 20 10 21
REMARK SMILES IDX 9 22 8 23 7 24 6 25 5 26 4 27 3 28 2 29 1 30
REMARK H PARENT
REMARK Flexibility Score: inf
ROOT
ATOM      1  C   UNL     1      24.076  17.556   5.514  1.00  0.00     0.000 C 
ENDROOT
BRANCH   1   2
ATOM      2  C   UNL     1      24.856  18.879   5.386  1.00  0.00     0.000 C 
BRANCH   2   3
ATOM      3  C   UNL     1      26.259  18.876   6.021  1.00  0.00     0.000 C 
BRANCH   3   4
ATOM      4  C   UNL     1      26.894  17.480   6.082  1.00  0.00     0.000 C 
BRANCH   4   5
ATOM      5  C   UNL     1      28.250  17.465   5.361  1.00  0.00     0.000 C 
BRANCH   5   6
ATOM      6  C   UNL     1      29.441  17.648   6.318  1.00  0.00     0.000 C 
BRANCH   6   7
ATOM      7  C   UNL     1      30.763  18.047   5.639  1.00  0.00     0.000 C 
BRANCH   7   8
ATOM      8  C   UNL     1      31.984  17.876   6.559  1.00  0.00     0.000 C 
BRANCH   8   9
ATOM      9  C   UNL     1      31.596  17.833   8.046  1.00  0.00     0.000 C 
BRANCH   9  10
ATOM     10  C   UNL     1      32.775  17.436   8.950  1.00  0.00     0.000 C 
BRANCH  10  11
ATOM     11  C   UNL     1      33.405  18.637   9.678  1.00  0.00     0.000 C 
BRANCH  11  12
ATOM     12  C   UNL     1      32.579  19.184  10.857  1.00  0.00     0.006 C 
BRANCH  12  13
ATOM     13  C   UNL     1      32.620  20.715  10.959  1.00  0.00     0.053 C 
BRANCH  13  14
ATOM     14  C   UNL     1      31.918  21.344   9.796  1.00  0.00     0.041 C 
ATOM     15  O   UNL     1      32.489  22.238   9.114  1.00  0.00    -0.550 OA
ATOM     16  O   UNL     1      30.632  20.938   9.461  1.00  0.00    -0.550 OA
ENDBRANCH  13  14
ENDBRANCH  12  13
ENDBRANCH  11  12
ENDBRANCH  10  11
ENDBRANCH   9  10
ENDBRANCH   8   9
ENDBRANCH   7   8
ENDBRANCH   6   7
ENDBRANCH   5   6
ENDBRANCH   4   5
ENDBRANCH   3   4
ENDBRANCH   2   3
ENDBRANCH   1   2
BRANCH   1  17
ATOM     17  C   UNL     1      22.576  17.765   5.778  1.00  0.00     0.000 C 
BRANCH  17  18
ATOM     18  C   UNL     1      22.231  19.210   6.206  1.00  0.00     0.000 C 
BRANCH  18  19
ATOM     19  C   UNL     1      20.776  19.383   6.683  1.00  0.00     0.000 C 
BRANCH  19  20
ATOM     20  C   UNL     1      20.337  20.842   6.901  1.00  0.00     0.000 C 
BRANCH  20  21
ATOM     21  C   UNL     1      18.843  20.986   7.270  1.00  0.00     0.000 C 
BRANCH  21  22
ATOM     22  C   UNL     1      18.421  20.046   8.412  1.00  0.00    -0.000 C 
BRANCH  22  23
ATOM     23  C   UNL     1      17.970  20.812   9.667  1.00  0.00    -0.000 C 
BRANCH  23  24
ATOM     24  C   UNL     1      17.271  19.908  10.696  1.00  0.00    -0.000 C 
BRANCH  24  25
ATOM     25  C   UNL     1      16.951  20.645  12.007  1.00  0.00    -0.000 C 
BRANCH  25  26
ATOM     26  C   UNL     1      15.710  21.549  11.886  1.00  0.00    -0.000 C 
BRANCH  26  27
ATOM     27  C   UNL     1      15.583  22.528  13.073  1.00  0.00    -0.000 C 
BRANCH  27  28
ATOM     28  C   UNL     1      14.668  22.018  14.202  1.00  0.00    -0.000 C 
BRANCH  28  29
ATOM     29  C   UNL     1      15.180  22.390  15.600  1.00  0.00    -0.003 C 
ATOM     30  C   UNL     1      16.143  21.331  16.132  1.00  0.00     0.004 C 
ENDBRANCH  28  29
ENDBRANCH  27  28
ENDBRANCH  26  27
ENDBRANCH  25  26
ENDBRANCH  24  25
ENDBRANCH  23  24
ENDBRANCH  22  23
ENDBRANCH  21  22
ENDBRANCH  20  21
ENDBRANCH  19  20
ENDBRANCH  18  19
ENDBRANCH  17  18
ENDBRANCH   1  17
TORSDOF 26
ENDMDL
MODEL 7
REMARK VINA RESULT:    -6.196      1.857      2.835
REMARK INTER + INTRA:         -17.711
REMARK INTER:                 -16.219
REMARK INTRA:                  -1.492
REMARK UNBOUND:                -2.099
REMARK SMILES CCCCCCCCCCCCCCCCCCCCCCCCCCCC(=O)[O-]
REMARK SMILES IDX 15 1 16 2 17 3 18 4 19 5 20 6 21 7 22 8 23 9 24 10 25 11
REMARK SMILES IDX 26 12 27 13 28 14 29 15 30 16 14 17 13 18 12 19 11 20 10 21
REMARK SMILES IDX 9 22 8 23 7 24 6 25 5 26 4 27 3 28 2 29 1 30
REMARK H PARENT
REMARK Flexibility Score: inf
ROOT
ATOM      1  C   UNL     1      22.609  17.834   5.709  1.00  0.00     0.000 C 
ENDROOT
BRANCH   1   2
ATOM      2  C   UNL     1      22.239  19.297   6.023  1.00  0.00     0.000 C 
BRANCH   2   3
ATOM      3  C   UNL     1      20.945  19.485   6.836  1.00  0.00     0.000 C 
BRANCH   3   4
ATOM      4  C   UNL     1      20.460  20.940   6.877  1.00  0.00     0.000 C 
BRANCH   4   5
ATOM      5  C   UNL     1      18.988  21.013   7.309  1.00  0.00     0.000 C 
BRANCH   5   6
ATOM      6  C   UNL     1      18.626  19.978   8.389  1.00  0.00     0.000 C 
BRANCH   6   7
ATOM      7  C   UNL     1      17.450  20.374   9.298  1.00  0.00     0.000 C 
BRANCH   7   8
ATOM      8  C   UNL     1      17.891  20.720  10.731  1.00  0.00     0.000 C 
BRANCH   8   9
ATOM      9  C   UNL     1      16.746  20.578  11.747  1.00  0.00     0.000 C 
BRANCH   9  10
ATOM     10  C   UNL     1      15.892  21.853  11.854  1.00  0.00     0.000 C 
BRANCH  10  11
ATOM     11  C   UNL     1      15.524  22.209  13.305  1.00  0.00     0.000 C 
BRANCH  11  12
ATOM     12  C   UNL     1      15.196  21.002  14.203  1.00  0.00     0.006 C 
BRANCH  12  13
ATOM     13  C   UNL     1      16.087  20.924  15.451  1.00  0.00     0.053 C 
BRANCH  13  14
ATOM     14  C   UNL     1      15.432  21.603  16.614  1.00  0.00     0.041 C 
ATOM     15  O   UNL     1      14.748  20.937  17.439  1.00  0.00    -0.550 OA
ATOM     16  O   UNL     1      15.581  22.973  16.790  1.00  0.00    -0.550 OA
ENDBRANCH  13  14
ENDBRANCH  12  13
ENDBRANCH  11  12
ENDBRANCH  10  11
ENDBRANCH   9  10
ENDBRANCH   8   9
ENDBRANCH   7   8
ENDBRANCH   6   7
ENDBRANCH   5   6
ENDBRANCH   4   5
ENDBRANCH   3   4
ENDBRANCH   2   3
ENDBRANCH   1   2
BRANCH   1  17
ATOM     17  C   UNL     1      23.985  17.692   5.040  1.00  0.00     0.000 C 
BRANCH  17  18
ATOM     18  C   UNL     1      25.097  18.487   5.762  1.00  0.00     0.000 C 
BRANCH  18  19
ATOM     19  C   UNL     1      26.438  17.735   5.851  1.00  0.00     0.000 C 
BRANCH  19  20
ATOM     20  C   UNL     1      27.305  18.102   7.069  1.00  0.00     0.000 C 
BRANCH  20  21
ATOM     21  C   UNL     1      28.646  18.770   6.690  1.00  0.00     0.000 C 
BRANCH  21  22
ATOM     22  C   UNL     1      29.510  17.887   5.774  1.00  0.00    -0.000 C 
BRANCH  22  23
ATOM     23  C   UNL     1      30.981  18.338   5.741  1.00  0.00    -0.000 C 
BRANCH  23  24
ATOM     24  C   UNL     1      31.948  17.248   6.234  1.00  0.00    -0.000 C 
BRANCH  24  25
ATOM     25  C   UNL     1      31.651  16.807   7.676  1.00  0.00    -0.000 C 
BRANCH  25  26
ATOM     26  C   UNL     1      32.603  17.455   8.698  1.00  0.00    -0.000 C 
BRANCH  26  27
ATOM     27  C   UNL     1      32.045  18.783   9.255  1.00  0.00    -0.000 C 
BRANCH  27  28
ATOM     28  C   UNL     1      32.851  20.023   8.825  1.00  0.00    -0.000 C 
BRANCH  28  29
ATOM     29  C   UNL     1      31.977  21.272   8.649  1.00  0.00    -0.003 C 
ATOM     30  C   UNL     1      32.065  22.181   9.871  1.00  0.00     0.004 C 
ENDBRANCH  28  29
ENDBRANCH  27  28
ENDBRANCH  26  27
ENDBRANCH  25  26
ENDBRANCH  24  25
ENDBRANCH  23  24
ENDBRANCH  22  23
ENDBRANCH  21  22
ENDBRANCH  20  21
ENDBRANCH  19  20
ENDBRANCH  18  19
ENDBRANCH  17  18
ENDBRANCH   1  17
TORSDOF 26
ENDMDL
MODEL 8
REMARK VINA RESULT:    -6.183      1.579      3.351
REMARK INTER + INTRA:         -17.679
REMARK INTER:                 -15.988
REMARK INTRA:                  -1.691
REMARK UNBOUND:                -2.099
REMARK SMILES CCCCCCCCCCCCCCCCCCCCCCCCCCCC(=O)[O-]
REMARK SMILES IDX 15 1 16 2 17 3 18 4 19 5 20 6 21 7 22 8 23 9 24 10 25 11
REMARK SMILES IDX 26 12 27 13 28 14 29 15 30 16 14 17 13 18 12 19 11 20 10 21
REMARK SMILES IDX 9 22 8 23 7 24 6 25 5 26 4 27 3 28 2 29 1 30
REMARK H PARENT
REMARK Flexibility Score: inf
ROOT
ATOM      1  C   UNL     1      21.865  19.230   6.079  1.00  0.00     0.000 C 
ENDROOT
BRANCH   1   2
ATOM      2  C   UNL     1      20.617  19.401   6.966  1.00  0.00     0.000 C 
BRANCH   2   3
ATOM      3  C   UNL     1      20.000  20.812   6.961  1.00  0.00     0.000 C 
BRANCH   3   4
ATOM      4  C   UNL     1      18.536  20.835   7.421  1.00  0.00     0.000 C 
BRANCH   4   5
ATOM      5  C   UNL     1      18.355  20.020   8.710  1.00  0.00     0.000 C 
BRANCH   5   6
ATOM      6  C   UNL     1      17.571  20.777   9.796  1.00  0.00     0.000 C 
BRANCH   6   7
ATOM      7  C   UNL     1      17.990  20.456  11.241  1.00  0.00     0.000 C 
BRANCH   7   8
ATOM      8  C   UNL     1      16.809  20.484  12.227  1.00  0.00     0.000 C 
BRANCH   8   9
ATOM      9  C   UNL     1      15.737  21.512  11.827  1.00  0.00     0.000 C 
BRANCH   9  10
ATOM     10  C   UNL     1      15.491  22.561  12.926  1.00  0.00     0.000 C 
BRANCH  10  11
ATOM     11  C   UNL     1      14.716  21.998  14.130  1.00  0.00     0.000 C 
BRANCH  11  12
ATOM     12  C   UNL     1      15.402  22.202  15.493  1.00  0.00     0.006 C 
BRANCH  12  13
ATOM     13  C   UNL     1      15.496  20.910  16.317  1.00  0.00     0.053 C 
BRANCH  13  14
ATOM     14  C   UNL     1      16.845  20.279  16.163  1.00  0.00     0.041 C 
ATOM     15  O   UNL     1      16.986  19.238  15.464  1.00  0.00    -0.550 OA
ATOM     16  O   UNL     1      17.950  20.844  16.789  1.00  0.00    -0.550 OA
ENDBRANCH  13  14
ENDBRANCH  12  13
ENDBRANCH  11  12
ENDBRANCH  10  11
ENDBRANCH   9  10
ENDBRANCH   8   9
ENDBRANCH   7   8
ENDBRANCH   6   7
ENDBRANCH   5   6
ENDBRANCH   4   5
ENDBRANCH   3   4
ENDBRANCH   2   3
ENDBRANCH   1   2
BRANCH   1  17
ATOM     17  C   UNL     1      22.111  17.771   5.661  1.00  0.00     0.000 C 
BRANCH  17  18
ATOM     18  C   UNL     1      23.587  17.483   5.302  1.00  0.00     0.000 C 
BRANCH  18  19
ATOM     19  C   UNL     1      24.555  18.607   5.714  1.00  0.00     0.000 C 
BRANCH  19  20
ATOM     20  C   UNL     1      26.034  18.343   5.377  1.00  0.00     0.000 C 
BRANCH  20  21
ATOM     21  C   UNL     1      27.011  18.841   6.466  1.00  0.00     0.000 C 
BRANCH  21  22
ATOM     22  C   UNL     1      28.050  17.777   6.862  1.00  0.00    -0.000 C 
BRANCH  22  23
ATOM     23  C   UNL     1      28.899  17.312   5.666  1.00  0.00    -0.000 C 
BRANCH  23  24
ATOM     24  C   UNL     1      30.409  17.397   5.942  1.00  0.00    -0.000 C 
BRANCH  24  25
ATOM     25  C   UNL     1      30.795  18.664   6.724  1.00  0.00    -0.000 C 
BRANCH  25  26
ATOM     26  C   UNL     1      32.148  18.522   7.444  1.00  0.00    -0.000 C 
BRANCH  26  27
ATOM     27  C   UNL     1      32.346  19.600   8.532  1.00  0.00    -0.000 C 
BRANCH  27  28
ATOM     28  C   UNL     1      31.304  20.733   8.480  1.00  0.00    -0.000 C 
BRANCH  28  29
ATOM     29  C   UNL     1      30.432  20.800   9.741  1.00  0.00    -0.003 C 
ATOM     30  C   UNL     1      28.962  20.558   9.406  1.00  0.00     0.004 C 
ENDBRANCH  28  29
ENDBRANCH  27  28
ENDBRANCH  26  27
ENDBRANCH  25  26
ENDBRANCH  24  25
ENDBRANCH  23  24
ENDBRANCH  22  23
ENDBRANCH  21  22
ENDBRANCH  20  21
ENDBRANCH  19  20
ENDBRANCH  18  19
ENDBRANCH  17  18
ENDBRANCH   1  17
TORSDOF 26
ENDMDL
MODEL 9
REMARK VINA RESULT:    -6.017      7.019      9.282
REMARK INTER + INTRA:         -17.261
REMARK INTER:                 -13.804
REMARK INTRA:                  -3.457
REMARK UNBOUND:                -2.099
REMARK SMILES CCCCCCCCCCCCCCCCCCCCCCCCCCCC(=O)[O-]
REMARK SMILES IDX 15 1 16 2 17 3 18 4 19 5 20 6 21 7 22 8 23 9 24 10 25 11
REMARK SMILES IDX 26 12 27 13 28 14 29 15 30 16 14 17 13 18 12 19 11 20 10 21
REMARK SMILES IDX 9 22 8 23 7 24 6 25 5 26 4 27 3 28 2 29 1 30
REMARK H PARENT
REMARK Flexibility Score: inf
ROOT
ATOM      1  C   UNL     1      18.704  19.125  16.825  1.00  0.00     0.000 C 
ENDROOT
BRANCH   1   2
ATOM      2  C   UNL     1      18.211  19.995  15.653  1.00  0.00     0.000 C 
BRANCH   2   3
ATOM      3  C   UNL     1      17.365  19.255  14.601  1.00  0.00     0.000 C 
BRANCH   3   4
ATOM      4  C   UNL     1      18.143  18.921  13.321  1.00  0.00     0.000 C 
BRANCH   4   5
ATOM      5  C   UNL     1      18.326  20.174  12.451  1.00  0.00     0.000 C 
BRANCH   5   6
ATOM      6  C   UNL     1      17.279  20.285  11.329  1.00  0.00     0.000 C 
BRANCH   6   7
ATOM      7  C   UNL     1      16.370  21.524  11.412  1.00  0.00     0.000 C 
BRANCH   7   8
ATOM      8  C   UNL     1      15.301  21.410  12.512  1.00  0.00     0.000 C 
BRANCH   8   9
ATOM      9  C   UNL     1      15.560  22.371  13.684  1.00  0.00     0.000 C 
BRANCH   9  10
ATOM     10  C   UNL     1      14.682  22.057  14.908  1.00  0.00     0.000 C 
BRANCH  10  11
ATOM     11  C   UNL     1      15.364  22.411  16.241  1.00  0.00     0.000 C 
BRANCH  11  12
ATOM     12  C   UNL     1      14.733  21.755  17.483  1.00  0.00     0.006 C 
BRANCH  12  13
ATOM     13  C   UNL     1      15.067  20.262  17.608  1.00  0.00     0.053 C 
BRANCH  13  14
ATOM     14  C   UNL     1      15.568  19.943  18.983  1.00  0.00     0.041 C 
ATOM     15  O   UNL     1      16.686  20.379  19.371  1.00  0.00    -0.550 OA
ATOM     16  O   UNL     1      14.796  19.167  19.838  1.00  0.00    -0.550 OA
ENDBRANCH  13  14
ENDBRANCH  12  13
ENDBRANCH  11  12
ENDBRANCH  10  11
ENDBRANCH   9  10
ENDBRANCH   8   9
ENDBRANCH   7   8
ENDBRANCH   6   7
ENDBRANCH   5   6
ENDBRANCH   4   5
ENDBRANCH   3   4
ENDBRANCH   2   3
ENDBRANCH   1   2
BRANCH   1  17
ATOM     17  C   UNL     1      18.270  17.655  16.708  1.00  0.00     0.000 C 
BRANCH  17  18
ATOM     18  C   UNL     1      19.463  16.678  16.598  1.00  0.00     0.000 C 
BRANCH  18  19
ATOM     19  C   UNL     1      20.540  17.126  15.591  1.00  0.00     0.000 C 
BRANCH  19  20
ATOM     20  C   UNL     1      21.859  17.599  16.226  1.00  0.00     0.000 C 
BRANCH  20  21
ATOM     21  C   UNL     1      23.061  16.681  15.905  1.00  0.00     0.000 C 
BRANCH  21  22
ATOM     22  C   UNL     1      24.134  16.703  17.007  1.00  0.00    -0.000 C 
BRANCH  22  23
ATOM     23  C   UNL     1      25.538  17.001  16.452  1.00  0.00    -0.000 C 
BRANCH  23  24
ATOM     24  C   UNL     1      25.509  17.502  14.999  1.00  0.00    -0.000 C 
BRANCH  24  25
ATOM     25  C   UNL     1      26.517  18.636  14.747  1.00  0.00    -0.000 C 
BRANCH  25  26
ATOM     26  C   UNL     1      26.200  19.899  15.568  1.00  0.00    -0.000 C 
BRANCH  26  27
ATOM     27  C   UNL     1      24.877  20.564  15.131  1.00  0.00    -0.000 C 
BRANCH  27  28
ATOM     28  C   UNL     1      24.724  22.018  15.616  1.00  0.00    -0.000 C 
BRANCH  28  29
ATOM     29  C   UNL     1      23.521  22.213  16.548  1.00  0.00    -0.003 C 
ATOM     30  C   UNL     1      22.383  21.262  16.184  1.00  0.00     0.004 C 
ENDBRANCH  28  29
ENDBRANCH  27  28
ENDBRANCH  26  27
ENDBRANCH  25  26
ENDBRANCH  24  25
ENDBRANCH  23  24
ENDBRANCH  22  23
ENDBRANCH  21  22
ENDBRANCH  20  21
ENDBRANCH  19  20
ENDBRANCH  18  19
ENDBRANCH  17  18
ENDBRANCH   1  17
TORSDOF 26
ENDMDL
