MODEL 1
REMARK VINA RESULT:    39.321      0.000      0.000
REMARK INTER + INTRA:          47.024
REMARK INTER:                  47.367
REMARK INTRA:                  -0.342
REMARK UNBOUND:                -0.342
REMARK SMILES Oc1cc(O)c2cc(O)c(-c3ccc(O)c(O)c3)[o+]c2c1.[Cl-]
REMARK SMILES IDX 10 1 19 2 20 3 21 4 2 5 3 6 4 7 6 8 7 9 8 10 11 11 12 12
REMARK SMILES IDX 13 13 14 14 18 15 16 16 15 17 17 19 9 21 1 23 5 25
REMARK H PARENT 15 18 17 20 9 22 1 24 5 26
REMARK Flexibility Score: inf
ROOT
ATOM      1  C   UNL     1      -9.556  23.292 -22.393  1.00  0.00     0.402 A 
ATOM      2  O   UNL     1      -8.975  24.100 -23.276  1.00  0.00    -0.202 OA
ATOM      3  C   UNL     1      -9.592  25.137 -23.831  1.00  0.00     0.368 A 
ATOM      4  C   UNL     1      -8.898  25.929 -24.751  1.00  0.00     0.162 A 
ATOM      5  C   UNL     1      -9.522  27.022 -25.352  1.00  0.00     0.128 A 
ATOM      6  C   UNL     1     -10.849  27.328 -25.035  1.00  0.00     0.093 A 
ATOM      7  C   UNL     1     -11.567  26.551 -24.117  1.00  0.00     0.136 A 
ATOM      8  C   UNL     1     -10.935  25.440 -23.501  1.00  0.00     0.125 A 
ATOM      9  C   UNL     1     -11.572  24.614 -22.560  1.00  0.00     0.078 A 
ATOM     10  C   UNL     1     -10.881  23.538 -21.992  1.00  0.00     0.223 A 
ENDROOT
BRANCH   1  11
ATOM     11  C   UNL     1      -8.765  22.162 -21.852  1.00  0.00     0.087 A 
ATOM     12  C   UNL     1      -8.905  20.860 -22.363  1.00  0.00     0.022 A 
ATOM     13  C   UNL     1      -8.131  19.814 -21.851  1.00  0.00     0.051 A 
ATOM     14  C   UNL     1      -7.199  20.055 -20.834  1.00  0.00     0.157 A 
ATOM     15  C   UNL     1      -7.815  22.403 -20.847  1.00  0.00     0.068 A 
ATOM     16  C   UNL     1      -7.039  21.358 -20.332  1.00  0.00     0.158 A 
BRANCH  14  17
ATOM     17  O   UNL     1      -6.431  19.011 -20.324  1.00  0.00    -0.504 OA
ATOM     18  H   UNL     1      -6.540  18.689 -19.369  1.00  0.00     0.293 HD
ENDBRANCH  14  17
BRANCH  16  19
ATOM     19  O   UNL     1      -6.115  21.633 -19.324  1.00  0.00    -0.504 OA
ATOM     20  H   UNL     1      -5.158  21.306 -19.367  1.00  0.00     0.293 HD
ENDBRANCH  16  19
ENDBRANCH   1  11
BRANCH  10  21
ATOM     21  O   UNL     1     -11.497  22.748 -21.021  1.00  0.00    -0.500 OA
ATOM     22  H   UNL     1     -11.135  21.835 -20.768  1.00  0.00     0.294 HD
ENDBRANCH  10  21
BRANCH   5  23
ATOM     23  O   UNL     1      -8.813  27.799 -26.267  1.00  0.00    -0.507 OA
ATOM     24  H   UNL     1      -9.020  27.771 -27.258  1.00  0.00     0.293 HD
ENDBRANCH   5  23
BRANCH   7  25
ATOM     25  O   UNL     1     -12.889  26.920 -23.855  1.00  0.00    -0.507 OA
ATOM     26  H   UNL     1     -13.166  27.605 -23.167  1.00  0.00     0.293 HD
ENDBRANCH   7  25
TORSDOF 6
ENDMDL
MODEL 2
REMARK VINA RESULT:    39.964      7.426     12.183
REMARK INTER + INTRA:          47.798
REMARK INTER:                  47.970
REMARK INTRA:                  -0.171
REMARK UNBOUND:                -0.342
REMARK SMILES Oc1cc(O)c2cc(O)c(-c3ccc(O)c(O)c3)[o+]c2c1.[Cl-]
REMARK SMILES IDX 10 1 19 2 20 3 21 4 2 5 3 6 4 7 6 8 7 9 8 10 11 11 12 12
REMARK SMILES IDX 13 13 14 14 18 15 16 16 15 17 17 19 9 21 1 23 5 25
REMARK H PARENT 15 18 17 20 9 22 1 24 5 26
REMARK Flexibility Score: inf
ROOT
ATOM      1  C   UNL     1      -2.866  16.400 -19.495  1.00  0.00     0.402 A 
ATOM      2  O   UNL     1      -2.461  15.672 -20.532  1.00  0.00    -0.202 OA
ATOM      3  C   UNL     1      -1.216  15.231 -20.672  1.00  0.00     0.368 A 
ATOM      4  C   UNL     1      -0.885  14.473 -21.799  1.00  0.00     0.162 A 
ATOM      5  C   UNL     1       0.415  13.999 -21.974  1.00  0.00     0.128 A 
ATOM      6  C   UNL     1       1.396  14.285 -21.018  1.00  0.00     0.093 A 
ATOM      7  C   UNL     1       1.091  15.042 -19.880  1.00  0.00     0.136 A 
ATOM      8  C   UNL     1      -0.232  15.523 -19.697  1.00  0.00     0.125 A 
ATOM      9  C   UNL     1      -0.631  16.278 -18.581  1.00  0.00     0.078 A 
ATOM     10  C   UNL     1      -1.956  16.713 -18.468  1.00  0.00     0.223 A 
ENDROOT
BRANCH   1  11
ATOM     11  C   UNL     1      -4.279  16.841 -19.458  1.00  0.00     0.087 A 
ATOM     12  C   UNL     1      -5.149  16.422 -18.436  1.00  0.00     0.022 A 
ATOM     13  C   UNL     1      -6.474  16.870 -18.409  1.00  0.00     0.051 A 
ATOM     14  C   UNL     1      -6.943  17.751 -19.392  1.00  0.00     0.157 A 
ATOM     15  C   UNL     1      -4.748  17.740 -20.428  1.00  0.00     0.068 A 
ATOM     16  C   UNL     1      -6.074  18.190 -20.405  1.00  0.00     0.158 A 
BRANCH  14  17
ATOM     17  O   UNL     1      -8.264  18.193 -19.364  1.00  0.00    -0.504 OA
ATOM     18  H   UNL     1      -8.872  18.098 -20.169  1.00  0.00     0.293 HD
ENDBRANCH  14  17
BRANCH  16  19
ATOM     19  O   UNL     1      -6.507  19.072 -21.394  1.00  0.00    -0.504 OA
ATOM     20  H   UNL     1      -7.124  18.779 -22.143  1.00  0.00     0.293 HD
ENDBRANCH  16  19
ENDBRANCH   1  11
BRANCH  10  21
ATOM     21  O   UNL     1      -2.365  17.420 -17.337  1.00  0.00    -0.500 OA
ATOM     22  H   UNL     1      -2.655  18.390 -17.390  1.00  0.00     0.294 HD
ENDBRANCH  10  21
BRANCH   5  23
ATOM     23  O   UNL     1       0.725  13.246 -23.104  1.00  0.00    -0.507 OA
ATOM     24  H   UNL     1       1.199  13.655 -23.901  1.00  0.00     0.293 HD
ENDBRANCH   5  23
BRANCH   7  25
ATOM     25  O   UNL     1       2.125  15.287 -18.972  1.00  0.00    -0.507 OA
ATOM     26  H   UNL     1       3.029  14.839 -19.002  1.00  0.00     0.293 HD
ENDBRANCH   7  25
TORSDOF 6
ENDMDL
