MODEL 1
REMARK VINA RESULT:    -3.262      0.000      0.000
REMARK INTER + INTRA:         -12.931
REMARK INTER:                  -8.219
REMARK INTRA:                  -4.712
REMARK UNBOUND:                -4.712
REMARK SMILES CCCCCCCCCCCCCCCCCCCCCCCCCCCC(=O)[O-]
REMARK SMILES IDX 15 1 16 2 17 3 18 4 19 5 20 6 21 7 22 8 23 9 24 10 25 11
REMARK SMILES IDX 26 12 27 13 28 14 29 15 30 16 14 17 13 18 12 19 11 20 10 21
REMARK SMILES IDX 9 22 8 23 7 24 6 25 5 26 4 27 3 28 2 29 1 30
REMARK H PARENT
REMARK Flexibility Score: inf
ROOT
ATOM      1  C   UNL     1      -0.731   8.030  38.437  1.00  0.00     0.000 C 
ENDROOT
BRANCH   1   2
ATOM      2  C   UNL     1      -1.621   7.207  37.485  1.00  0.00     0.000 C 
BRANCH   2   3
ATOM      3  C   UNL     1      -0.934   6.710  36.198  1.00  0.00     0.000 C 
BRANCH   3   4
ATOM      4  C   UNL     1       0.597   6.850  36.233  1.00  0.00     0.000 C 
BRANCH   4   5
ATOM      5  C   UNL     1       1.322   5.554  35.832  1.00  0.00     0.000 C 
BRANCH   5   6
ATOM      6  C   UNL     1       0.407   4.309  35.824  1.00  0.00     0.000 C 
BRANCH   6   7
ATOM      7  C   UNL     1       0.462   3.555  34.482  1.00  0.00     0.000 C 
BRANCH   7   8
ATOM      8  C   UNL     1      -0.784   3.805  33.619  1.00  0.00     0.000 C 
BRANCH   8   9
ATOM      9  C   UNL     1      -0.455   4.558  32.317  1.00  0.00     0.000 C 
BRANCH   9  10
ATOM     10  C   UNL     1      -0.042   6.018  32.568  1.00  0.00     0.000 C 
BRANCH  10  11
ATOM     11  C   UNL     1       1.361   6.330  32.021  1.00  0.00     0.000 C 
BRANCH  11  12
ATOM     12  C   UNL     1       1.352   7.402  30.914  1.00  0.00     0.006 C 
BRANCH  12  13
ATOM     13  C   UNL     1       1.358   6.843  29.481  1.00  0.00     0.053 C 
BRANCH  13  14
ATOM     14  C   UNL     1       1.567   7.914  28.455  1.00  0.00     0.041 C 
ATOM     15  O   UNL     1       2.474   8.776  28.614  1.00  0.00    -0.550 OA
ATOM     16  O   UNL     1       0.783   7.944  27.308  1.00  0.00    -0.550 OA
ENDBRANCH  13  14
ENDBRANCH  12  13
ENDBRANCH  11  12
ENDBRANCH  10  11
ENDBRANCH   9  10
ENDBRANCH   8   9
ENDBRANCH   7   8
ENDBRANCH   6   7
ENDBRANCH   5   6
ENDBRANCH   4   5
ENDBRANCH   3   4
ENDBRANCH   2   3
ENDBRANCH   1   2
BRANCH   1  17
ATOM     17  C   UNL     1      -1.495   8.590  39.645  1.00  0.00     0.000 C 
BRANCH  17  18
ATOM     18  C   UNL     1      -3.010   8.399  39.471  1.00  0.00     0.000 C 
BRANCH  18  19
ATOM     19  C   UNL     1      -3.658   7.678  40.667  1.00  0.00     0.000 C 
BRANCH  19  20
ATOM     20  C   UNL     1      -4.036   6.205  40.411  1.00  0.00     0.000 C 
BRANCH  20  21
ATOM     21  C   UNL     1      -3.337   5.183  41.327  1.00  0.00     0.000 C 
BRANCH  21  22
ATOM     22  C   UNL     1      -2.174   5.793  42.122  1.00  0.00    -0.000 C 
BRANCH  22  23
ATOM     23  C   UNL     1      -0.828   5.207  41.676  1.00  0.00    -0.000 C 
BRANCH  23  24
ATOM     24  C   UNL     1      -0.950   4.562  40.287  1.00  0.00    -0.000 C 
BRANCH  24  25
ATOM     25  C   UNL     1       0.335   4.696  39.455  1.00  0.00    -0.000 C 
BRANCH  25  26
ATOM     26  C   UNL     1       1.373   5.617  40.114  1.00  0.00    -0.000 C 
BRANCH  26  27
ATOM     27  C   UNL     1       2.590   5.812  39.201  1.00  0.00    -0.000 C 
BRANCH  27  28
ATOM     28  C   UNL     1       3.610   4.679  39.393  1.00  0.00    -0.000 C 
BRANCH  28  29
ATOM     29  C   UNL     1       3.875   3.897  38.098  1.00  0.00    -0.003 C 
ATOM     30  C   UNL     1       2.976   2.670  37.956  1.00  0.00     0.004 C 
ENDBRANCH  28  29
ENDBRANCH  27  28
ENDBRANCH  26  27
ENDBRANCH  25  26
ENDBRANCH  24  25
ENDBRANCH  23  24
ENDBRANCH  22  23
ENDBRANCH  21  22
ENDBRANCH  20  21
ENDBRANCH  19  20
ENDBRANCH  18  19
ENDBRANCH  17  18
ENDBRANCH   1  17
TORSDOF 26
ENDMDL
MODEL 2
REMARK VINA RESULT:    -3.211      3.849      6.790
REMARK INTER + INTRA:         -12.803
REMARK INTER:                  -7.805
REMARK INTRA:                  -4.998
REMARK UNBOUND:                -4.712
REMARK SMILES CCCCCCCCCCCCCCCCCCCCCCCCCCCC(=O)[O-]
REMARK SMILES IDX 15 1 16 2 17 3 18 4 19 5 20 6 21 7 22 8 23 9 24 10 25 11
REMARK SMILES IDX 26 12 27 13 28 14 29 15 30 16 14 17 13 18 12 19 11 20 10 21
REMARK SMILES IDX 9 22 8 23 7 24 6 25 5 26 4 27 3 28 2 29 1 30
REMARK H PARENT
REMARK Flexibility Score: inf
ROOT
ATOM      1  C   UNL     1      -3.818   7.572  40.602  1.00  0.00     0.000 C 
ENDROOT
BRANCH   1   2
ATOM      2  C   UNL     1      -2.395   8.030  40.973  1.00  0.00     0.000 C 
BRANCH   2   3
ATOM      3  C   UNL     1      -1.622   8.763  39.858  1.00  0.00     0.000 C 
BRANCH   3   4
ATOM      4  C   UNL     1      -2.482   9.061  38.618  1.00  0.00     0.000 C 
BRANCH   4   5
ATOM      5  C   UNL     1      -1.782   8.675  37.303  1.00  0.00     0.000 C 
BRANCH   5   6
ATOM      6  C   UNL     1      -0.272   9.000  37.286  1.00  0.00     0.000 C 
BRANCH   6   7
ATOM      7  C   UNL     1       0.580   7.785  36.875  1.00  0.00     0.000 C 
BRANCH   7   8
ATOM      8  C   UNL     1       1.126   7.015  38.088  1.00  0.00     0.000 C 
BRANCH   8   9
ATOM      9  C   UNL     1       1.980   5.801  37.677  1.00  0.00     0.000 C 
BRANCH   9  10
ATOM     10  C   UNL     1       1.331   4.463  38.066  1.00  0.00     0.000 C 
BRANCH  10  11
ATOM     11  C   UNL     1       1.923   3.278  37.286  1.00  0.00     0.000 C 
BRANCH  11  12
ATOM     12  C   UNL     1       3.297   2.830  37.823  1.00  0.00     0.006 C 
BRANCH  12  13
ATOM     13  C   UNL     1       3.341   2.577  39.339  1.00  0.00     0.053 C 
BRANCH  13  14
ATOM     14  C   UNL     1       4.411   3.376  40.017  1.00  0.00     0.041 C 
ATOM     15  O   UNL     1       4.462   4.626  39.864  1.00  0.00    -0.550 OA
ATOM     16  O   UNL     1       5.334   2.746  40.843  1.00  0.00    -0.550 OA
ENDBRANCH  13  14
ENDBRANCH  12  13
ENDBRANCH  11  12
ENDBRANCH  10  11
ENDBRANCH   9  10
ENDBRANCH   8   9
ENDBRANCH   7   8
ENDBRANCH   6   7
ENDBRANCH   5   6
ENDBRANCH   4   5
ENDBRANCH   3   4
ENDBRANCH   2   3
ENDBRANCH   1   2
BRANCH   1  17
ATOM     17  C   UNL     1      -3.942   6.049  40.449  1.00  0.00     0.000 C 
BRANCH  17  18
ATOM     18  C   UNL     1      -2.593   5.361  40.712  1.00  0.00     0.000 C 
BRANCH  18  19
ATOM     19  C   UNL     1      -1.864   4.969  39.415  1.00  0.00     0.000 C 
BRANCH  19  20
ATOM     20  C   UNL     1      -2.724   5.042  38.137  1.00  0.00     0.000 C 
BRANCH  20  21
ATOM     21  C   UNL     1      -1.931   5.129  36.819  1.00  0.00     0.000 C 
BRANCH  21  22
ATOM     22  C   UNL     1      -1.946   3.813  36.027  1.00  0.00    -0.000 C 
BRANCH  22  23
ATOM     23  C   UNL     1      -1.129   3.934  34.734  1.00  0.00    -0.000 C 
BRANCH  23  24
ATOM     24  C   UNL     1      -1.044   5.400  34.280  1.00  0.00    -0.000 C 
BRANCH  24  25
ATOM     25  C   UNL     1       0.197   5.684  33.420  1.00  0.00    -0.000 C 
BRANCH  25  26
ATOM     26  C   UNL     1       1.508   5.554  34.211  1.00  0.00    -0.000 C 
BRANCH  26  27
ATOM     27  C   UNL     1       2.581   4.841  33.380  1.00  0.00    -0.000 C 
BRANCH  27  28
ATOM     28  C   UNL     1       2.638   3.343  33.720  1.00  0.00    -0.000 C 
BRANCH  28  29
ATOM     29  C   UNL     1       4.074   2.796  33.732  1.00  0.00    -0.003 C 
ATOM     30  C   UNL     1       4.991   3.567  34.680  1.00  0.00     0.004 C 
ENDBRANCH  28  29
ENDBRANCH  27  28
ENDBRANCH  26  27
ENDBRANCH  25  26
ENDBRANCH  24  25
ENDBRANCH  23  24
ENDBRANCH  22  23
ENDBRANCH  21  22
ENDBRANCH  20  21
ENDBRANCH  19  20
ENDBRANCH  18  19
ENDBRANCH  17  18
ENDBRANCH   1  17
TORSDOF 26
ENDMDL
MODEL 3
REMARK VINA RESULT:    -3.100      1.239      2.592
REMARK INTER + INTRA:         -12.524
REMARK INTER:                  -8.782
REMARK INTRA:                  -3.742
REMARK UNBOUND:                -4.712
REMARK SMILES CCCCCCCCCCCCCCCCCCCCCCCCCCCC(=O)[O-]
REMARK SMILES IDX 15 1 16 2 17 3 18 4 19 5 20 6 21 7 22 8 23 9 24 10 25 11
REMARK SMILES IDX 26 12 27 13 28 14 29 15 30 16 14 17 13 18 12 19 11 20 10 21
REMARK SMILES IDX 9 22 8 23 7 24 6 25 5 26 4 27 3 28 2 29 1 30
REMARK H PARENT
REMARK Flexibility Score: inf
ROOT
ATOM      1  C   UNL     1      -1.684   7.522  36.702  1.00  0.00     0.000 C 
ENDROOT
BRANCH   1   2
ATOM      2  C   UNL     1      -2.059   6.204  35.997  1.00  0.00     0.000 C 
BRANCH   2   3
ATOM      3  C   UNL     1      -1.988   4.939  36.874  1.00  0.00     0.000 C 
BRANCH   3   4
ATOM      4  C   UNL     1      -1.198   3.792  36.223  1.00  0.00     0.000 C 
BRANCH   4   5
ATOM      5  C   UNL     1       0.190   4.234  35.726  1.00  0.00     0.000 C 
BRANCH   5   6
ATOM      6  C   UNL     1       0.301   4.313  34.188  1.00  0.00     0.000 C 
BRANCH   6   7
ATOM      7  C   UNL     1       1.262   5.425  33.729  1.00  0.00     0.000 C 
BRANCH   7   8
ATOM      8  C   UNL     1       0.549   6.773  33.536  1.00  0.00     0.000 C 
BRANCH   8   9
ATOM      9  C   UNL     1       0.798   7.374  32.141  1.00  0.00     0.000 C 
BRANCH   9  10
ATOM     10  C   UNL     1       1.617   6.441  31.233  1.00  0.00     0.000 C 
BRANCH  10  11
ATOM     11  C   UNL     1       0.810   5.951  30.019  1.00  0.00     0.000 C 
BRANCH  11  12
ATOM     12  C   UNL     1       1.407   6.411  28.675  1.00  0.00     0.006 C 
BRANCH  12  13
ATOM     13  C   UNL     1       1.695   7.919  28.584  1.00  0.00     0.053 C 
BRANCH  13  14
ATOM     14  C   UNL     1       2.726   8.239  27.547  1.00  0.00     0.041 C 
ATOM     15  O   UNL     1       3.661   9.043  27.808  1.00  0.00    -0.550 OA
ATOM     16  O   UNL     1       2.675   7.626  26.301  1.00  0.00    -0.550 OA
ENDBRANCH  13  14
ENDBRANCH  12  13
ENDBRANCH  11  12
ENDBRANCH  10  11
ENDBRANCH   9  10
ENDBRANCH   8   9
ENDBRANCH   7   8
ENDBRANCH   6   7
ENDBRANCH   5   6
ENDBRANCH   4   5
ENDBRANCH   3   4
ENDBRANCH   2   3
ENDBRANCH   1   2
BRANCH   1  17
ATOM     17  C   UNL     1      -0.184   7.637  37.011  1.00  0.00     0.000 C 
BRANCH  17  18
ATOM     18  C   UNL     1       0.053   8.503  38.257  1.00  0.00     0.000 C 
BRANCH  18  19
ATOM     19  C   UNL     1      -1.248   9.109  38.815  1.00  0.00     0.000 C 
BRANCH  19  20
ATOM     20  C   UNL     1      -1.806   8.408  40.070  1.00  0.00     0.000 C 
BRANCH  20  21
ATOM     21  C   UNL     1      -3.314   8.094  40.027  1.00  0.00     0.000 C 
BRANCH  21  22
ATOM     22  C   UNL     1      -3.768   7.197  41.188  1.00  0.00    -0.000 C 
BRANCH  22  23
ATOM     23  C   UNL     1      -3.590   5.712  40.844  1.00  0.00    -0.000 C 
BRANCH  23  24
ATOM     24  C   UNL     1      -2.946   4.957  42.016  1.00  0.00    -0.000 C 
BRANCH  24  25
ATOM     25  C   UNL     1      -1.578   4.356  41.655  1.00  0.00    -0.000 C 
BRANCH  25  26
ATOM     26  C   UNL     1      -1.124   4.730  40.236  1.00  0.00    -0.000 C 
BRANCH  26  27
ATOM     27  C   UNL     1       0.394   4.570  40.087  1.00  0.00    -0.000 C 
BRANCH  27  28
ATOM     28  C   UNL     1       1.108   5.925  40.218  1.00  0.00    -0.000 C 
BRANCH  28  29
ATOM     29  C   UNL     1       2.503   5.922  39.574  1.00  0.00    -0.003 C 
ATOM     30  C   UNL     1       2.497   5.345  38.159  1.00  0.00     0.004 C 
ENDBRANCH  28  29
ENDBRANCH  27  28
ENDBRANCH  26  27
ENDBRANCH  25  26
ENDBRANCH  24  25
ENDBRANCH  23  24
ENDBRANCH  22  23
ENDBRANCH  21  22
ENDBRANCH  20  21
ENDBRANCH  19  20
ENDBRANCH  18  19
ENDBRANCH  17  18
ENDBRANCH   1  17
TORSDOF 26
ENDMDL
MODEL 4
REMARK VINA RESULT:    -3.096      6.753     11.434
REMARK INTER + INTRA:         -12.513
REMARK INTER:                  -7.429
REMARK INTRA:                  -5.084
REMARK UNBOUND:                -4.712
REMARK SMILES CCCCCCCCCCCCCCCCCCCCCCCCCCCC(=O)[O-]
REMARK SMILES IDX 15 1 16 2 17 3 18 4 19 5 20 6 21 7 22 8 23 9 24 10 25 11
REMARK SMILES IDX 26 12 27 13 28 14 29 15 30 16 14 17 13 18 12 19 11 20 10 21
REMARK SMILES IDX 9 22 8 23 7 24 6 25 5 26 4 27 3 28 2 29 1 30
REMARK H PARENT
REMARK Flexibility Score: inf
ROOT
ATOM      1  C   UNL     1      -1.915   4.575  26.671  1.00  0.00     0.000 C 
ENDROOT
BRANCH   1   2
ATOM      2  C   UNL     1      -1.889   3.182  26.012  1.00  0.00     0.000 C 
BRANCH   2   3
ATOM      3  C   UNL     1      -3.270   2.563  25.715  1.00  0.00     0.000 C 
BRANCH   3   4
ATOM      4  C   UNL     1      -4.361   3.010  26.702  1.00  0.00     0.000 C 
BRANCH   4   5
ATOM      5  C   UNL     1      -4.379   2.167  27.989  1.00  0.00     0.000 C 
BRANCH   5   6
ATOM      6  C   UNL     1      -4.180   2.996  29.276  1.00  0.00     0.000 C 
BRANCH   6   7
ATOM      7  C   UNL     1      -3.810   2.116  30.485  1.00  0.00     0.000 C 
BRANCH   7   8
ATOM      8  C   UNL     1      -2.339   2.278  30.898  1.00  0.00     0.000 C 
BRANCH   8   9
ATOM      9  C   UNL     1      -1.412   2.508  29.690  1.00  0.00     0.000 C 
BRANCH   9  10
ATOM     10  C   UNL     1       0.069   2.261  30.026  1.00  0.00     0.000 C 
BRANCH  10  11
ATOM     11  C   UNL     1       0.761   3.521  30.573  1.00  0.00     0.000 C 
BRANCH  11  12
ATOM     12  C   UNL     1       0.250   4.820  29.920  1.00  0.00     0.006 C 
BRANCH  12  13
ATOM     13  C   UNL     1       0.969   6.097  30.386  1.00  0.00     0.053 C 
BRANCH  13  14
ATOM     14  C   UNL     1       1.060   6.186  31.878  1.00  0.00     0.041 C 
ATOM     15  O   UNL     1       2.184   6.163  32.447  1.00  0.00    -0.550 OA
ATOM     16  O   UNL     1      -0.094   6.324  32.640  1.00  0.00    -0.550 OA
ENDBRANCH  13  14
ENDBRANCH  12  13
ENDBRANCH  11  12
ENDBRANCH  10  11
ENDBRANCH   9  10
ENDBRANCH   8   9
ENDBRANCH   7   8
ENDBRANCH   6   7
ENDBRANCH   5   6
ENDBRANCH   4   5
ENDBRANCH   3   4
ENDBRANCH   2   3
ENDBRANCH   1   2
BRANCH   1  17
ATOM     17  C   UNL     1      -0.882   5.543  26.077  1.00  0.00     0.000 C 
BRANCH  17  18
ATOM     18  C   UNL     1      -0.282   4.976  24.781  1.00  0.00     0.000 C 
BRANCH  18  19
ATOM     19  C   UNL     1       0.523   6.023  23.991  1.00  0.00     0.000 C 
BRANCH  19  20
ATOM     20  C   UNL     1       0.191   7.491  24.330  1.00  0.00     0.000 C 
BRANCH  20  21
ATOM     21  C   UNL     1       1.320   8.499  24.043  1.00  0.00     0.000 C 
BRANCH  21  22
ATOM     22  C   UNL     1       1.899   9.125  25.321  1.00  0.00    -0.000 C 
BRANCH  22  23
ATOM     23  C   UNL     1       1.149   8.637  26.567  1.00  0.00    -0.000 C 
BRANCH  23  24
ATOM     24  C   UNL     1       2.096   7.876  27.507  1.00  0.00    -0.000 C 
BRANCH  24  25
ATOM     25  C   UNL     1       3.492   7.664  26.901  1.00  0.00    -0.000 C 
BRANCH  25  26
ATOM     26  C   UNL     1       3.749   6.202  26.507  1.00  0.00    -0.000 C 
BRANCH  26  27
ATOM     27  C   UNL     1       2.781   5.260  27.235  1.00  0.00    -0.000 C 
BRANCH  27  28
ATOM     28  C   UNL     1       2.978   3.806  26.779  1.00  0.00    -0.000 C 
BRANCH  28  29
ATOM     29  C   UNL     1       1.732   2.940  27.018  1.00  0.00    -0.003 C 
ATOM     30  C   UNL     1       1.624   1.777  26.032  1.00  0.00     0.004 C 
ENDBRANCH  28  29
ENDBRANCH  27  28
ENDBRANCH  26  27
ENDBRANCH  25  26
ENDBRANCH  24  25
ENDBRANCH  23  24
ENDBRANCH  22  23
ENDBRANCH  21  22
ENDBRANCH  20  21
ENDBRANCH  19  20
ENDBRANCH  18  19
ENDBRANCH  17  18
ENDBRANCH   1  17
TORSDOF 26
ENDMDL
MODEL 5
REMARK VINA RESULT:    -3.076      3.552      6.353
REMARK INTER + INTRA:         -12.462
REMARK INTER:                  -7.420
REMARK INTRA:                  -5.042
REMARK UNBOUND:                -4.712
REMARK SMILES CCCCCCCCCCCCCCCCCCCCCCCCCCCC(=O)[O-]
REMARK SMILES IDX 15 1 16 2 17 3 18 4 19 5 20 6 21 7 22 8 23 9 24 10 25 11
REMARK SMILES IDX 26 12 27 13 28 14 29 15 30 16 14 17 13 18 12 19 11 20 10 21
REMARK SMILES IDX 9 22 8 23 7 24 6 25 5 26 4 27 3 28 2 29 1 30
REMARK H PARENT
REMARK Flexibility Score: inf
ROOT
ATOM      1  C   UNL     1      -3.849   7.547  40.540  1.00  0.00     0.000 C 
ENDROOT
BRANCH   1   2
ATOM      2  C   UNL     1      -2.446   8.018  40.969  1.00  0.00     0.000 C 
BRANCH   2   3
ATOM      3  C   UNL     1      -1.630   8.749  39.884  1.00  0.00     0.000 C 
BRANCH   3   4
ATOM      4  C   UNL     1      -2.410   8.958  38.575  1.00  0.00     0.000 C 
BRANCH   4   5
ATOM      5  C   UNL     1      -1.600   8.557  37.330  1.00  0.00     0.000 C 
BRANCH   5   6
ATOM      6  C   UNL     1      -0.107   8.941  37.412  1.00  0.00     0.000 C 
BRANCH   6   7
ATOM      7  C   UNL     1       0.818   7.770  37.029  1.00  0.00     0.000 C 
BRANCH   7   8
ATOM      8  C   UNL     1       1.240   6.935  38.248  1.00  0.00     0.000 C 
BRANCH   8   9
ATOM      9  C   UNL     1       2.118   5.731  37.858  1.00  0.00     0.000 C 
BRANCH   9  10
ATOM     10  C   UNL     1       1.404   4.386  38.071  1.00  0.00     0.000 C 
BRANCH  10  11
ATOM     11  C   UNL     1       2.100   3.232  37.329  1.00  0.00     0.000 C 
BRANCH  11  12
ATOM     12  C   UNL     1       1.177   2.018  37.104  1.00  0.00     0.006 C 
BRANCH  12  13
ATOM     13  C   UNL     1       1.887   0.655  37.162  1.00  0.00     0.053 C 
BRANCH  13  14
ATOM     14  C   UNL     1       1.624  -0.174  35.943  1.00  0.00     0.041 C 
ATOM     15  O   UNL     1       1.875   0.287  34.797  1.00  0.00    -0.550 OA
ATOM     16  O   UNL     1       1.132  -1.467  36.072  1.00  0.00    -0.550 OA
ENDBRANCH  13  14
ENDBRANCH  12  13
ENDBRANCH  11  12
ENDBRANCH  10  11
ENDBRANCH   9  10
ENDBRANCH   8   9
ENDBRANCH   7   8
ENDBRANCH   6   7
ENDBRANCH   5   6
ENDBRANCH   4   5
ENDBRANCH   3   4
ENDBRANCH   2   3
ENDBRANCH   1   2
BRANCH   1  17
ATOM     17  C   UNL     1      -3.955   6.023  40.392  1.00  0.00     0.000 C 
BRANCH  17  18
ATOM     18  C   UNL     1      -2.620   5.345  40.733  1.00  0.00     0.000 C 
BRANCH  18  19
ATOM     19  C   UNL     1      -1.862   4.863  39.483  1.00  0.00     0.000 C 
BRANCH  19  20
ATOM     20  C   UNL     1      -2.624   5.035  38.153  1.00  0.00     0.000 C 
BRANCH  20  21
ATOM     21  C   UNL     1      -1.741   5.055  36.891  1.00  0.00     0.000 C 
BRANCH  21  22
ATOM     22  C   UNL     1      -1.933   3.811  36.010  1.00  0.00    -0.000 C 
BRANCH  22  23
ATOM     23  C   UNL     1      -1.161   3.941  34.691  1.00  0.00    -0.000 C 
BRANCH  23  24
ATOM     24  C   UNL     1      -1.101   5.408  34.238  1.00  0.00    -0.000 C 
BRANCH  24  25
ATOM     25  C   UNL     1       0.167   5.730  33.433  1.00  0.00    -0.000 C 
BRANCH  25  26
ATOM     26  C   UNL     1       1.443   5.659  34.287  1.00  0.00    -0.000 C 
BRANCH  26  27
ATOM     27  C   UNL     1       2.592   5.014  33.502  1.00  0.00    -0.000 C 
BRANCH  27  28
ATOM     28  C   UNL     1       2.671   3.505  33.780  1.00  0.00    -0.000 C 
BRANCH  28  29
ATOM     29  C   UNL     1       4.118   2.992  33.838  1.00  0.00    -0.003 C 
ATOM     30  C   UNL     1       4.913   3.596  34.994  1.00  0.00     0.004 C 
ENDBRANCH  28  29
ENDBRANCH  27  28
ENDBRANCH  26  27
ENDBRANCH  25  26
ENDBRANCH  24  25
ENDBRANCH  23  24
ENDBRANCH  22  23
ENDBRANCH  21  22
ENDBRANCH  20  21
ENDBRANCH  19  20
ENDBRANCH  18  19
ENDBRANCH  17  18
ENDBRANCH   1  17
TORSDOF 26
ENDMDL
MODEL 6
REMARK VINA RESULT:    -3.051      5.708      9.511
REMARK INTER + INTRA:         -12.400
REMARK INTER:                  -7.491
REMARK INTRA:                  -4.909
REMARK UNBOUND:                -4.712
REMARK SMILES CCCCCCCCCCCCCCCCCCCCCCCCCCCC(=O)[O-]
REMARK SMILES IDX 15 1 16 2 17 3 18 4 19 5 20 6 21 7 22 8 23 9 24 10 25 11
REMARK SMILES IDX 26 12 27 13 28 14 29 15 30 16 14 17 13 18 12 19 11 20 10 21
REMARK SMILES IDX 9 22 8 23 7 24 6 25 5 26 4 27 3 28 2 29 1 30
REMARK H PARENT
REMARK Flexibility Score: inf
ROOT
ATOM      1  C   UNL     1       1.379   8.174  28.822  1.00  0.00     0.000 C 
ENDROOT
BRANCH   1   2
ATOM      2  C   UNL     1       2.457   9.023  28.121  1.00  0.00     0.000 C 
BRANCH   2   3
ATOM      3  C   UNL     1       2.738   8.656  26.650  1.00  0.00     0.000 C 
BRANCH   3   4
ATOM      4  C   UNL     1       1.572   8.998  25.706  1.00  0.00     0.000 C 
BRANCH   4   5
ATOM      5  C   UNL     1       1.037   7.767  24.954  1.00  0.00     0.000 C 
BRANCH   5   6
ATOM      6  C   UNL     1      -0.383   7.344  25.388  1.00  0.00     0.000 C 
BRANCH   6   7
ATOM      7  C   UNL     1      -0.374   6.062  26.242  1.00  0.00     0.000 C 
BRANCH   7   8
ATOM      8  C   UNL     1      -1.173   4.921  25.593  1.00  0.00     0.000 C 
BRANCH   8   9
ATOM      9  C   UNL     1      -0.300   3.688  25.296  1.00  0.00     0.000 C 
BRANCH   9  10
ATOM     10  C   UNL     1       0.708   3.937  24.162  1.00  0.00     0.000 C 
BRANCH  10  11
ATOM     11  C   UNL     1       2.135   3.509  24.544  1.00  0.00     0.000 C 
BRANCH  11  12
ATOM     12  C   UNL     1       3.085   4.702  24.759  1.00  0.00     0.006 C 
BRANCH  12  13
ATOM     13  C   UNL     1       3.305   5.090  26.231  1.00  0.00     0.053 C 
BRANCH  13  14
ATOM     14  C   UNL     1       4.729   4.910  26.659  1.00  0.00     0.041 C 
ATOM     15  O   UNL     1       5.501   5.903  26.728  1.00  0.00    -0.550 OA
ATOM     16  O   UNL     1       5.196   3.649  27.012  1.00  0.00    -0.550 OA
ENDBRANCH  13  14
ENDBRANCH  12  13
ENDBRANCH  11  12
ENDBRANCH  10  11
ENDBRANCH   9  10
ENDBRANCH   8   9
ENDBRANCH   7   8
ENDBRANCH   6   7
ENDBRANCH   5   6
ENDBRANCH   4   5
ENDBRANCH   3   4
ENDBRANCH   2   3
ENDBRANCH   1   2
BRANCH   1  17
ATOM     17  C   UNL     1       1.740   6.683  28.900  1.00  0.00     0.000 C 
BRANCH  17  18
ATOM     18  C   UNL     1       0.823   5.949  29.889  1.00  0.00     0.000 C 
BRANCH  18  19
ATOM     19  C   UNL     1       0.457   6.811  31.111  1.00  0.00     0.000 C 
BRANCH  19  20
ATOM     20  C   UNL     1       1.397   6.654  32.323  1.00  0.00     0.000 C 
BRANCH  20  21
ATOM     21  C   UNL     1       1.676   5.201  32.751  1.00  0.00     0.000 C 
BRANCH  21  22
ATOM     22  C   UNL     1       0.435   4.499  33.321  1.00  0.00    -0.000 C 
BRANCH  22  23
ATOM     23  C   UNL     1       0.055   3.273  32.481  1.00  0.00    -0.000 C 
BRANCH  23  24
ATOM     24  C   UNL     1       1.257   2.786  31.657  1.00  0.00    -0.000 C 
BRANCH  24  25
ATOM     25  C   UNL     1       0.846   2.197  30.298  1.00  0.00    -0.000 C 
BRANCH  25  26
ATOM     26  C   UNL     1      -0.679   2.147  30.113  1.00  0.00    -0.000 C 
BRANCH  26  27
ATOM     27  C   UNL     1      -1.115   3.019  28.929  1.00  0.00    -0.000 C 
BRANCH  27  28
ATOM     28  C   UNL     1      -2.227   3.996  29.343  1.00  0.00    -0.000 C 
BRANCH  28  29
ATOM     29  C   UNL     1      -3.622   3.519  28.912  1.00  0.00    -0.003 C 
ATOM     30  C   UNL     1      -3.625   2.886  27.521  1.00  0.00     0.004 C 
ENDBRANCH  28  29
ENDBRANCH  27  28
ENDBRANCH  26  27
ENDBRANCH  25  26
ENDBRANCH  24  25
ENDBRANCH  23  24
ENDBRANCH  22  23
ENDBRANCH  21  22
ENDBRANCH  20  21
ENDBRANCH  19  20
ENDBRANCH  18  19
ENDBRANCH  17  18
ENDBRANCH   1  17
TORSDOF 26
ENDMDL
MODEL 7
REMARK VINA RESULT:    -3.023      6.229     11.877
REMARK INTER + INTRA:         -12.330
REMARK INTER:                  -6.840
REMARK INTRA:                  -5.490
REMARK UNBOUND:                -4.712
REMARK SMILES CCCCCCCCCCCCCCCCCCCCCCCCCCCC(=O)[O-]
REMARK SMILES IDX 15 1 16 2 17 3 18 4 19 5 20 6 21 7 22 8 23 9 24 10 25 11
REMARK SMILES IDX 26 12 27 13 28 14 29 15 30 16 14 17 13 18 12 19 11 20 10 21
REMARK SMILES IDX 9 22 8 23 7 24 6 25 5 26 4 27 3 28 2 29 1 30
REMARK H PARENT
REMARK Flexibility Score: inf
ROOT
ATOM      1  C   UNL     1       3.326   5.527  26.891  1.00  0.00     0.000 C 
ENDROOT
BRANCH   1   2
ATOM      2  C   UNL     1       3.935   4.115  26.806  1.00  0.00     0.000 C 
BRANCH   2   3
ATOM      3  C   UNL     1       3.270   3.165  25.790  1.00  0.00     0.000 C 
BRANCH   3   4
ATOM      4  C   UNL     1       2.431   2.059  26.452  1.00  0.00     0.000 C 
BRANCH   4   5
ATOM      5  C   UNL     1       3.157   1.389  27.632  1.00  0.00     0.000 C 
BRANCH   5   6
ATOM      6  C   UNL     1       2.202   0.787  28.686  1.00  0.00     0.000 C 
BRANCH   6   7
ATOM      7  C   UNL     1       2.199   1.594  29.997  1.00  0.00     0.000 C 
BRANCH   7   8
ATOM      8  C   UNL     1       0.787   2.045  30.404  1.00  0.00     0.000 C 
BRANCH   8   9
ATOM      9  C   UNL     1       0.152   2.991  29.367  1.00  0.00     0.000 C 
BRANCH   9  10
ATOM     10  C   UNL     1       0.987   4.261  29.138  1.00  0.00     0.000 C 
BRANCH  10  11
ATOM     11  C   UNL     1       0.325   5.512  29.739  1.00  0.00     0.000 C 
BRANCH  11  12
ATOM     12  C   UNL     1       1.330   6.448  30.438  1.00  0.00     0.006 C 
BRANCH  12  13
ATOM     13  C   UNL     1       1.095   6.628  31.947  1.00  0.00     0.053 C 
BRANCH  13  14
ATOM     14  C   UNL     1       0.741   5.340  32.624  1.00  0.00     0.041 C 
ATOM     15  O   UNL     1       1.648   4.534  32.966  1.00  0.00    -0.550 OA
ATOM     16  O   UNL     1      -0.586   5.043  32.907  1.00  0.00    -0.550 OA
ENDBRANCH  13  14
ENDBRANCH  12  13
ENDBRANCH  11  12
ENDBRANCH  10  11
ENDBRANCH   9  10
ENDBRANCH   8   9
ENDBRANCH   7   8
ENDBRANCH   6   7
ENDBRANCH   5   6
ENDBRANCH   4   5
ENDBRANCH   3   4
ENDBRANCH   2   3
ENDBRANCH   1   2
BRANCH   1  17
ATOM     17  C   UNL     1       4.326   6.639  26.540  1.00  0.00     0.000 C 
BRANCH  17  18
ATOM     18  C   UNL     1       3.639   8.012  26.535  1.00  0.00     0.000 C 
BRANCH  18  19
ATOM     19  C   UNL     1       2.336   8.027  27.354  1.00  0.00     0.000 C 
BRANCH  19  20
ATOM     20  C   UNL     1       1.070   8.405  26.558  1.00  0.00     0.000 C 
BRANCH  20  21
ATOM     21  C   UNL     1       1.326   8.910  25.125  1.00  0.00     0.000 C 
BRANCH  21  22
ATOM     22  C   UNL     1       0.498   8.158  24.072  1.00  0.00    -0.000 C 
BRANCH  22  23
ATOM     23  C   UNL     1       1.389   7.263  23.202  1.00  0.00    -0.000 C 
BRANCH  23  24
ATOM     24  C   UNL     1       1.463   5.842  23.782  1.00  0.00    -0.000 C 
BRANCH  24  25
ATOM     25  C   UNL     1       0.080   5.269  24.127  1.00  0.00    -0.000 C 
BRANCH  25  26
ATOM     26  C   UNL     1      -0.031   4.836  25.597  1.00  0.00    -0.000 C 
BRANCH  26  27
ATOM     27  C   UNL     1      -1.276   5.445  26.254  1.00  0.00    -0.000 C 
BRANCH  27  28
ATOM     28  C   UNL     1      -2.139   4.358  26.915  1.00  0.00    -0.000 C 
BRANCH  28  29
ATOM     29  C   UNL     1      -1.982   2.988  26.236  1.00  0.00    -0.003 C 
ATOM     30  C   UNL     1      -3.135   2.665  25.287  1.00  0.00     0.004 C 
ENDBRANCH  28  29
ENDBRANCH  27  28
ENDBRANCH  26  27
ENDBRANCH  25  26
ENDBRANCH  24  25
ENDBRANCH  23  24
ENDBRANCH  22  23
ENDBRANCH  21  22
ENDBRANCH  20  21
ENDBRANCH  19  20
ENDBRANCH  18  19
ENDBRANCH  17  18
ENDBRANCH   1  17
TORSDOF 26
ENDMDL
MODEL 8
REMARK VINA RESULT:    -3.000      5.710      9.752
REMARK INTER + INTRA:         -12.272
REMARK INTER:                  -7.293
REMARK INTRA:                  -4.980
REMARK UNBOUND:                -4.712
REMARK SMILES CCCCCCCCCCCCCCCCCCCCCCCCCCCC(=O)[O-]
REMARK SMILES IDX 15 1 16 2 17 3 18 4 19 5 20 6 21 7 22 8 23 9 24 10 25 11
REMARK SMILES IDX 26 12 27 13 28 14 29 15 30 16 14 17 13 18 12 19 11 20 10 21
REMARK SMILES IDX 9 22 8 23 7 24 6 25 5 26 4 27 3 28 2 29 1 30
REMARK H PARENT
REMARK Flexibility Score: inf
ROOT
ATOM      1  C   UNL     1       3.440   3.637  26.839  1.00  0.00     0.000 C 
ENDROOT
BRANCH   1   2
ATOM      2  C   UNL     1       4.277   4.915  26.643  1.00  0.00     0.000 C 
BRANCH   2   3
ATOM      3  C   UNL     1       3.521   6.119  26.049  1.00  0.00     0.000 C 
BRANCH   3   4
ATOM      4  C   UNL     1       3.952   7.466  26.653  1.00  0.00     0.000 C 
BRANCH   4   5
ATOM      5  C   UNL     1       3.177   8.657  26.064  1.00  0.00     0.000 C 
BRANCH   5   6
ATOM      6  C   UNL     1       1.862   8.971  26.809  1.00  0.00     0.000 C 
BRANCH   6   7
ATOM      7  C   UNL     1       0.635   8.359  26.108  1.00  0.00     0.000 C 
BRANCH   7   8
ATOM      8  C   UNL     1       0.799   8.305  24.580  1.00  0.00     0.000 C 
BRANCH   8   9
ATOM      9  C   UNL     1       0.271   6.989  23.979  1.00  0.00     0.000 C 
BRANCH   9  10
ATOM     10  C   UNL     1      -0.500   6.140  25.003  1.00  0.00     0.000 C 
BRANCH  10  11
ATOM     11  C   UNL     1      -0.815   4.730  24.474  1.00  0.00     0.000 C 
BRANCH  11  12
ATOM     12  C   UNL     1      -1.728   3.923  25.417  1.00  0.00     0.006 C 
BRANCH  12  13
ATOM     13  C   UNL     1      -2.051   4.621  26.749  1.00  0.00     0.053 C 
BRANCH  13  14
ATOM     14  C   UNL     1      -2.468   3.652  27.812  1.00  0.00     0.041 C 
ATOM     15  O   UNL     1      -2.882   4.071  28.926  1.00  0.00    -0.550 OA
ATOM     16  O   UNL     1      -2.428   2.285  27.563  1.00  0.00    -0.550 OA
ENDBRANCH  13  14
ENDBRANCH  12  13
ENDBRANCH  11  12
ENDBRANCH  10  11
ENDBRANCH   9  10
ENDBRANCH   8   9
ENDBRANCH   7   8
ENDBRANCH   6   7
ENDBRANCH   5   6
ENDBRANCH   4   5
ENDBRANCH   3   4
ENDBRANCH   2   3
ENDBRANCH   1   2
BRANCH   1  17
ATOM     17  C   UNL     1       1.927   3.885  26.748  1.00  0.00     0.000 C 
BRANCH  17  18
ATOM     18  C   UNL     1       1.196   3.257  27.944  1.00  0.00     0.000 C 
BRANCH  18  19
ATOM     19  C   UNL     1       1.001   4.246  29.107  1.00  0.00     0.000 C 
BRANCH  19  20
ATOM     20  C   UNL     1       0.907   5.728  28.693  1.00  0.00     0.000 C 
BRANCH  20  21
ATOM     21  C   UNL     1       1.707   6.706  29.574  1.00  0.00     0.000 C 
BRANCH  21  22
ATOM     22  C   UNL     1       0.807   7.661  30.372  1.00  0.00    -0.000 C 
BRANCH  22  23
ATOM     23  C   UNL     1       0.656   7.197  31.826  1.00  0.00    -0.000 C 
BRANCH  23  24
ATOM     24  C   UNL     1       1.820   6.278  32.228  1.00  0.00    -0.000 C 
BRANCH  24  25
ATOM     25  C   UNL     1       1.439   5.289  33.340  1.00  0.00    -0.000 C 
BRANCH  25  26
ATOM     26  C   UNL     1       0.627   4.094  32.816  1.00  0.00    -0.000 C 
BRANCH  26  27
ATOM     27  C   UNL     1       0.645   2.937  33.822  1.00  0.00    -0.000 C 
BRANCH  27  28
ATOM     28  C   UNL     1       1.693   1.883  33.434  1.00  0.00    -0.000 C 
BRANCH  28  29
ATOM     29  C   UNL     1       1.294   1.088  32.181  1.00  0.00    -0.003 C 
ATOM     30  C   UNL     1       2.253   1.310  31.012  1.00  0.00     0.004 C 
ENDBRANCH  28  29
ENDBRANCH  27  28
ENDBRANCH  26  27
ENDBRANCH  25  26
ENDBRANCH  24  25
ENDBRANCH  23  24
ENDBRANCH  22  23
ENDBRANCH  21  22
ENDBRANCH  20  21
ENDBRANCH  19  20
ENDBRANCH  18  19
ENDBRANCH  17  18
ENDBRANCH   1  17
TORSDOF 26
ENDMDL
MODEL 9
REMARK VINA RESULT:    -2.964      2.489      5.344
REMARK INTER + INTRA:         -12.180
REMARK INTER:                  -7.240
REMARK INTRA:                  -4.940
REMARK UNBOUND:                -4.712
REMARK SMILES CCCCCCCCCCCCCCCCCCCCCCCCCCCC(=O)[O-]
REMARK SMILES IDX 15 1 16 2 17 3 18 4 19 5 20 6 21 7 22 8 23 9 24 10 25 11
REMARK SMILES IDX 26 12 27 13 28 14 29 15 30 16 14 17 13 18 12 19 11 20 10 21
REMARK SMILES IDX 9 22 8 23 7 24 6 25 5 26 4 27 3 28 2 29 1 30
REMARK H PARENT
REMARK Flexibility Score: inf
ROOT
ATOM      1  C   UNL     1      -1.194   8.773  39.752  1.00  0.00     0.000 C 
ENDROOT
BRANCH   1   2
ATOM      2  C   UNL     1      -0.594   8.201  41.052  1.00  0.00     0.000 C 
BRANCH   2   3
ATOM      3  C   UNL     1       0.632   7.284  40.870  1.00  0.00     0.000 C 
BRANCH   3   4
ATOM      4  C   UNL     1       1.102   7.181  39.409  1.00  0.00     0.000 C 
BRANCH   4   5
ATOM      5  C   UNL     1       1.162   5.728  38.906  1.00  0.00     0.000 C 
BRANCH   5   6
ATOM      6  C   UNL     1       2.535   5.331  38.323  1.00  0.00     0.000 C 
BRANCH   6   7
ATOM      7  C   UNL     1       2.520   3.920  37.706  1.00  0.00     0.000 C 
BRANCH   7   8
ATOM      8  C   UNL     1       1.301   3.098  38.154  1.00  0.00     0.000 C 
BRANCH   8   9
ATOM      9  C   UNL     1       0.293   2.873  37.013  1.00  0.00     0.000 C 
BRANCH   9  10
ATOM     10  C   UNL     1       0.937   2.229  35.774  1.00  0.00     0.000 C 
BRANCH  10  11
ATOM     11  C   UNL     1      -0.048   2.111  34.598  1.00  0.00     0.000 C 
BRANCH  11  12
ATOM     12  C   UNL     1       0.656   1.912  33.242  1.00  0.00     0.006 C 
BRANCH  12  13
ATOM     13  C   UNL     1      -0.201   1.212  32.172  1.00  0.00     0.053 C 
BRANCH  13  14
ATOM     14  C   UNL     1      -1.286   2.100  31.645  1.00  0.00     0.041 C 
ATOM     15  O   UNL     1      -1.025   2.969  30.771  1.00  0.00    -0.550 OA
ATOM     16  O   UNL     1      -2.592   1.947  32.094  1.00  0.00    -0.550 OA
ENDBRANCH  13  14
ENDBRANCH  12  13
ENDBRANCH  11  12
ENDBRANCH  10  11
ENDBRANCH   9  10
ENDBRANCH   8   9
ENDBRANCH   7   8
ENDBRANCH   6   7
ENDBRANCH   5   6
ENDBRANCH   4   5
ENDBRANCH   3   4
ENDBRANCH   2   3
ENDBRANCH   1   2
BRANCH   1  17
ATOM     17  C   UNL     1      -2.617   8.269  39.470  1.00  0.00     0.000 C 
BRANCH  17  18
ATOM     18  C   UNL     1      -2.985   7.114  40.414  1.00  0.00     0.000 C 
BRANCH  18  19
ATOM     19  C   UNL     1      -3.285   5.805  39.662  1.00  0.00     0.000 C 
BRANCH  19  20
ATOM     20  C   UNL     1      -2.215   5.384  38.635  1.00  0.00     0.000 C 
BRANCH  20  21
ATOM     21  C   UNL     1      -2.764   4.857  37.296  1.00  0.00     0.000 C 
BRANCH  21  22
ATOM     22  C   UNL     1      -2.154   5.569  36.080  1.00  0.00    -0.000 C 
BRANCH  22  23
ATOM     23  C   UNL     1      -1.648   6.969  36.453  1.00  0.00    -0.000 C 
BRANCH  23  24
ATOM     24  C   UNL     1      -0.274   7.236  35.820  1.00  0.00    -0.000 C 
BRANCH  24  25
ATOM     25  C   UNL     1       0.033   6.294  34.646  1.00  0.00    -0.000 C 
BRANCH  25  26
ATOM     26  C   UNL     1       1.430   5.661  34.745  1.00  0.00    -0.000 C 
BRANCH  26  27
ATOM     27  C   UNL     1       1.974   5.314  33.354  1.00  0.00    -0.000 C 
BRANCH  27  28
ATOM     28  C   UNL     1       0.923   5.586  32.267  1.00  0.00    -0.000 C 
BRANCH  28  29
ATOM     29  C   UNL     1       1.459   6.482  31.139  1.00  0.00    -0.003 C 
ATOM     30  C   UNL     1       0.806   7.864  31.123  1.00  0.00     0.004 C 
ENDBRANCH  28  29
ENDBRANCH  27  28
ENDBRANCH  26  27
ENDBRANCH  25  26
ENDBRANCH  24  25
ENDBRANCH  23  24
ENDBRANCH  22  23
ENDBRANCH  21  22
ENDBRANCH  20  21
ENDBRANCH  19  20
ENDBRANCH  18  19
ENDBRANCH  17  18
ENDBRANCH   1  17
TORSDOF 26
ENDMDL
