MODEL 1
REMARK VINA RESULT:    -2.288      0.000      0.000
REMARK INTER + INTRA:          -5.053
REMARK INTER:                  -3.893
REMARK INTRA:                  -1.160
REMARK UNBOUND:                -1.160
REMARK SMILES CCCCCCCCCCCCCC(=O)[O-]
REMARK SMILES IDX 8 1 9 2 10 3 11 4 12 5 13 6 14 7 15 8 16 9 7 10 6 11 5 12
REMARK SMILES IDX 4 13 3 14 2 15 1 16
REMARK H PARENT
REMARK Flexibility Score: inf
ROOT
ATOM      1  C   UNL     1      -1.441  60.616  -4.493  1.00  0.00     0.000 C 
ENDROOT
BRANCH   1   2
ATOM      2  C   UNL     1      -0.685  59.577  -5.334  1.00  0.00     0.000 C 
BRANCH   2   3
ATOM      3  C   UNL     1      -1.469  59.221  -6.604  1.00  0.00     0.000 C 
BRANCH   3   4
ATOM      4  C   UNL     1      -0.520  58.875  -7.757  1.00  0.00     0.000 C 
BRANCH   4   5
ATOM      5  C   UNL     1       0.940  58.875  -7.288  1.00  0.00     0.006 C 
BRANCH   5   6
ATOM      6  C   UNL     1       1.729  60.010  -7.948  1.00  0.00     0.053 C 
BRANCH   6   7
ATOM      7  C   UNL     1       2.886  60.413  -7.089  1.00  0.00     0.041 C 
ATOM      8  O   UNL     1       2.686  60.887  -5.940  1.00  0.00    -0.550 OA
ATOM      9  O   UNL     1       4.183  60.312  -7.576  1.00  0.00    -0.550 OA
ENDBRANCH   6   7
ENDBRANCH   5   6
ENDBRANCH   4   5
ENDBRANCH   3   4
ENDBRANCH   2   3
ENDBRANCH   1   2
BRANCH   1  10
ATOM     10  C   UNL     1      -1.935  60.037  -3.149  1.00  0.00     0.000 C 
BRANCH  10  11
ATOM     11  C   UNL     1      -2.937  58.877  -3.305  1.00  0.00    -0.000 C 
BRANCH  11  12
ATOM     12  C   UNL     1      -4.356  59.298  -3.721  1.00  0.00    -0.000 C 
BRANCH  12  13
ATOM     13  C   UNL     1      -4.645  59.200  -5.231  1.00  0.00    -0.000 C 
BRANCH  13  14
ATOM     14  C   UNL     1      -4.943  60.560  -5.897  1.00  0.00    -0.000 C 
BRANCH  14  15
ATOM     15  C   UNL     1      -4.723  60.528  -7.417  1.00  0.00    -0.003 C 
ATOM     16  C   UNL     1      -4.675  59.095  -7.936  1.00  0.00     0.004 C 
ENDBRANCH  14  15
ENDBRANCH  13  14
ENDBRANCH  12  13
ENDBRANCH  11  12
ENDBRANCH  10  11
ENDBRANCH   1  10
TORSDOF 12
ENDMDL
MODEL 2
REMARK VINA RESULT:    -1.988      3.415      6.672
REMARK INTER + INTRA:          -4.543
REMARK INTER:                  -3.546
REMARK INTRA:                  -0.997
REMARK UNBOUND:                -1.160
REMARK SMILES CCCCCCCCCCCCCC(=O)[O-]
REMARK SMILES IDX 8 1 9 2 10 3 11 4 12 5 13 6 14 7 15 8 16 9 7 10 6 11 5 12
REMARK SMILES IDX 4 13 3 14 2 15 1 16
REMARK H PARENT
REMARK Flexibility Score: inf
ROOT
ATOM      1  C   UNL     1      -0.154  60.687  -4.583  1.00  0.00     0.000 C 
ENDROOT
BRANCH   1   2
ATOM      2  C   UNL     1      -1.255  60.580  -3.518  1.00  0.00     0.000 C 
BRANCH   2   3
ATOM      3  C   UNL     1      -2.377  59.641  -3.978  1.00  0.00     0.000 C 
BRANCH   3   4
ATOM      4  C   UNL     1      -3.718  60.381  -4.051  1.00  0.00     0.000 C 
BRANCH   4   5
ATOM      5  C   UNL     1      -3.940  60.981  -5.444  1.00  0.00     0.006 C 
BRANCH   5   6
ATOM      6  C   UNL     1      -3.953  59.889  -6.518  1.00  0.00     0.053 C 
BRANCH   6   7
ATOM      7  C   UNL     1      -5.153  60.033  -7.398  1.00  0.00     0.041 C 
ATOM      8  O   UNL     1      -5.670  59.018  -7.935  1.00  0.00    -0.550 OA
ATOM      9  O   UNL     1      -5.673  61.293  -7.666  1.00  0.00    -0.550 OA
ENDBRANCH   6   7
ENDBRANCH   5   6
ENDBRANCH   4   5
ENDBRANCH   3   4
ENDBRANCH   2   3
ENDBRANCH   1   2
BRANCH   1  10
ATOM     10  C   UNL     1       0.273  59.306  -5.126  1.00  0.00     0.000 C 
BRANCH  10  11
ATOM     11  C   UNL     1      -0.140  59.062  -6.590  1.00  0.00    -0.000 C 
BRANCH  11  12
ATOM     12  C   UNL     1       1.029  58.972  -7.586  1.00  0.00    -0.000 C 
BRANCH  12  13
ATOM     13  C   UNL     1       1.802  60.287  -7.801  1.00  0.00    -0.000 C 
BRANCH  13  14
ATOM     14  C   UNL     1       3.233  60.268  -7.224  1.00  0.00    -0.000 C 
BRANCH  14  15
ATOM     15  C   UNL     1       3.877  58.875  -7.305  1.00  0.00    -0.003 C 
ATOM     16  C   UNL     1       5.266  58.946  -7.931  1.00  0.00     0.004 C 
ENDBRANCH  14  15
ENDBRANCH  13  14
ENDBRANCH  12  13
ENDBRANCH  11  12
ENDBRANCH  10  11
ENDBRANCH   1  10
TORSDOF 12
ENDMDL
MODEL 3
REMARK VINA RESULT:    -1.883      3.258      7.295
REMARK INTER + INTRA:          -4.364
REMARK INTER:                  -3.786
REMARK INTRA:                  -0.578
REMARK UNBOUND:                -1.160
REMARK SMILES CCCCCCCCCCCCCC(=O)[O-]
REMARK SMILES IDX 8 1 9 2 10 3 11 4 12 5 13 6 14 7 15 8 16 9 7 10 6 11 5 12
REMARK SMILES IDX 4 13 3 14 2 15 1 16
REMARK H PARENT
REMARK Flexibility Score: inf
ROOT
ATOM      1  C   UNL     1       1.014  60.586  -5.079  1.00  0.00     0.000 C 
ENDROOT
BRANCH   1   2
ATOM      2  C   UNL     1       0.743  60.500  -3.570  1.00  0.00     0.000 C 
BRANCH   2   3
ATOM      3  C   UNL     1      -0.759  60.370  -3.287  1.00  0.00     0.000 C 
BRANCH   3   4
ATOM      4  C   UNL     1      -1.505  59.827  -4.511  1.00  0.00     0.000 C 
BRANCH   4   5
ATOM      5  C   UNL     1      -2.775  59.076  -4.093  1.00  0.00     0.006 C 
BRANCH   5   6
ATOM      6  C   UNL     1      -4.005  59.985  -4.183  1.00  0.00     0.053 C 
BRANCH   6   7
ATOM      7  C   UNL     1      -4.413  60.175  -5.610  1.00  0.00     0.041 C 
ATOM      8  O   UNL     1      -4.904  59.216  -6.261  1.00  0.00    -0.550 OA
ATOM      9  O   UNL     1      -4.204  61.398  -6.236  1.00  0.00    -0.550 OA
ENDBRANCH   6   7
ENDBRANCH   5   6
ENDBRANCH   4   5
ENDBRANCH   3   4
ENDBRANCH   2   3
ENDBRANCH   1   2
BRANCH   1  10
ATOM     10  C   UNL     1       1.650  59.293  -5.635  1.00  0.00     0.000 C 
BRANCH  10  11
ATOM     11  C   UNL     1       1.163  58.920  -7.048  1.00  0.00    -0.000 C 
BRANCH  11  12
ATOM     12  C   UNL     1       2.263  58.875  -8.122  1.00  0.00    -0.000 C 
BRANCH  12  13
ATOM     13  C   UNL     1       3.548  59.647  -7.766  1.00  0.00    -0.000 C 
BRANCH  13  14
ATOM     14  C   UNL     1       4.846  58.876  -8.093  1.00  0.00    -0.000 C 
BRANCH  14  15
ATOM     15  C   UNL     1       6.069  59.458  -7.367  1.00  0.00    -0.003 C 
ATOM     16  C   UNL     1       7.364  59.068  -8.072  1.00  0.00     0.004 C 
ENDBRANCH  14  15
ENDBRANCH  13  14
ENDBRANCH  12  13
ENDBRANCH  11  12
ENDBRANCH  10  11
ENDBRANCH   1  10
TORSDOF 12
ENDMDL
MODEL 4
REMARK VINA RESULT:    -1.605      1.539      2.483
REMARK INTER + INTRA:          -3.892
REMARK INTER:                  -3.946
REMARK INTRA:                   0.055
REMARK UNBOUND:                -1.160
REMARK SMILES CCCCCCCCCCCCCC(=O)[O-]
REMARK SMILES IDX 8 1 9 2 10 3 11 4 12 5 13 6 14 7 15 8 16 9 7 10 6 11 5 12
REMARK SMILES IDX 4 13 3 14 2 15 1 16
REMARK H PARENT
REMARK Flexibility Score: inf
ROOT
ATOM      1  C   UNL     1       1.101  60.334  -5.215  1.00  0.00     0.000 C 
ENDROOT
BRANCH   1   2
ATOM      2  C   UNL     1       1.036  59.038  -6.036  1.00  0.00     0.000 C 
BRANCH   2   3
ATOM      3  C   UNL     1       1.047  59.338  -7.541  1.00  0.00     0.000 C 
BRANCH   3   4
ATOM      4  C   UNL     1       2.478  59.346  -8.090  1.00  0.00     0.000 C 
BRANCH   4   5
ATOM      5  C   UNL     1       3.122  60.728  -7.929  1.00  0.00     0.006 C 
BRANCH   5   6
ATOM      6  C   UNL     1       4.639  60.654  -8.125  1.00  0.00     0.053 C 
BRANCH   6   7
ATOM      7  C   UNL     1       5.197  59.447  -7.441  1.00  0.00     0.041 C 
ATOM      8  O   UNL     1       6.254  58.909  -7.866  1.00  0.00    -0.550 OA
ATOM      9  O   UNL     1       4.524  58.884  -6.363  1.00  0.00    -0.550 OA
ENDBRANCH   6   7
ENDBRANCH   5   6
ENDBRANCH   4   5
ENDBRANCH   3   4
ENDBRANCH   2   3
ENDBRANCH   1   2
BRANCH   1  10
ATOM     10  C   UNL     1      -0.169  60.553  -4.364  1.00  0.00     0.000 C 
BRANCH  10  11
ATOM     11  C   UNL     1      -1.329  59.607  -4.726  1.00  0.00    -0.000 C 
BRANCH  11  12
ATOM     12  C   UNL     1      -2.635  59.858  -3.954  1.00  0.00    -0.000 C 
BRANCH  12  13
ATOM     13  C   UNL     1      -3.435  61.091  -4.416  1.00  0.00    -0.000 C 
BRANCH  13  14
ATOM     14  C   UNL     1      -4.462  60.784  -5.528  1.00  0.00    -0.000 C 
BRANCH  14  15
ATOM     15  C   UNL     1      -3.816  60.728  -6.921  1.00  0.00    -0.003 C 
ATOM     16  C   UNL     1      -4.873  60.768  -8.019  1.00  0.00     0.004 C 
ENDBRANCH  14  15
ENDBRANCH  13  14
ENDBRANCH  12  13
ENDBRANCH  11  12
ENDBRANCH  10  11
ENDBRANCH   1  10
TORSDOF 12
ENDMDL
MODEL 5
REMARK VINA RESULT:    -1.481      2.584      5.936
REMARK INTER + INTRA:          -3.679
REMARK INTER:                  -4.261
REMARK INTRA:                   0.582
REMARK UNBOUND:                -1.160
REMARK SMILES CCCCCCCCCCCCCC(=O)[O-]
REMARK SMILES IDX 8 1 9 2 10 3 11 4 12 5 13 6 14 7 15 8 16 9 7 10 6 11 5 12
REMARK SMILES IDX 4 13 3 14 2 15 1 16
REMARK H PARENT
REMARK Flexibility Score: inf
ROOT
ATOM      1  C   UNL     1      -2.039  59.826  -3.269  1.00  0.00     0.000 C 
ENDROOT
BRANCH   1   2
ATOM      2  C   UNL     1      -3.238  59.093  -2.650  1.00  0.00     0.000 C 
BRANCH   2   3
ATOM      3  C   UNL     1      -4.514  59.336  -3.468  1.00  0.00     0.000 C 
BRANCH   3   4
ATOM      4  C   UNL     1      -4.324  58.900  -4.925  1.00  0.00     0.000 C 
BRANCH   4   5
ATOM      5  C   UNL     1      -5.366  59.559  -5.836  1.00  0.00     0.006 C 
BRANCH   5   6
ATOM      6  C   UNL     1      -5.115  59.205  -7.305  1.00  0.00     0.053 C 
BRANCH   6   7
ATOM      7  C   UNL     1      -3.989  60.022  -7.856  1.00  0.00     0.041 C 
ATOM      8  O   UNL     1      -4.162  61.240  -8.123  1.00  0.00    -0.550 OA
ATOM      9  O   UNL     1      -2.762  59.426  -8.122  1.00  0.00    -0.550 OA
ENDBRANCH   6   7
ENDBRANCH   5   6
ENDBRANCH   4   5
ENDBRANCH   3   4
ENDBRANCH   2   3
ENDBRANCH   1   2
BRANCH   1  10
ATOM     10  C   UNL     1      -1.983  59.669  -4.804  1.00  0.00     0.000 C 
BRANCH  10  11
ATOM     11  C   UNL     1      -0.579  59.884  -5.399  1.00  0.00    -0.000 C 
BRANCH  11  12
ATOM     12  C   UNL     1       0.476  60.393  -4.401  1.00  0.00    -0.000 C 
BRANCH  12  13
ATOM     13  C   UNL     1       1.932  60.042  -4.763  1.00  0.00    -0.000 C 
BRANCH  13  14
ATOM     14  C   UNL     1       2.097  59.462  -6.184  1.00  0.00    -0.000 C 
BRANCH  14  15
ATOM     15  C   UNL     1       2.640  60.500  -7.179  1.00  0.00    -0.003 C 
ATOM     16  C   UNL     1       4.088  60.199  -7.551  1.00  0.00     0.004 C 
ENDBRANCH  14  15
ENDBRANCH  13  14
ENDBRANCH  12  13
ENDBRANCH  11  12
ENDBRANCH  10  11
ENDBRANCH   1  10
TORSDOF 12
ENDMDL
MODEL 6
REMARK VINA RESULT:    -1.478      2.036      3.030
REMARK INTER + INTRA:          -3.674
REMARK INTER:                  -3.199
REMARK INTRA:                  -0.475
REMARK UNBOUND:                -1.160
REMARK SMILES CCCCCCCCCCCCCC(=O)[O-]
REMARK SMILES IDX 8 1 9 2 10 3 11 4 12 5 13 6 14 7 15 8 16 9 7 10 6 11 5 12
REMARK SMILES IDX 4 13 3 14 2 15 1 16
REMARK H PARENT
REMARK Flexibility Score: inf
ROOT
ATOM      1  C   UNL     1       0.822  60.708  -4.768  1.00  0.00     0.000 C 
ENDROOT
BRANCH   1   2
ATOM      2  C   UNL     1       2.105  60.097  -5.350  1.00  0.00     0.000 C 
BRANCH   2   3
ATOM      3  C   UNL     1       2.058  60.075  -6.884  1.00  0.00     0.000 C 
BRANCH   3   4
ATOM      4  C   UNL     1       2.871  58.901  -7.442  1.00  0.00     0.000 C 
BRANCH   4   5
ATOM      5  C   UNL     1       4.322  58.953  -6.951  1.00  0.00     0.006 C 
BRANCH   5   6
ATOM      6  C   UNL     1       5.303  58.878  -8.125  1.00  0.00     0.053 C 
BRANCH   6   7
ATOM      7  C   UNL     1       6.329  59.961  -8.021  1.00  0.00     0.041 C 
ATOM      8  O   UNL     1       7.534  59.673  -7.794  1.00  0.00    -0.550 OA
ATOM      9  O   UNL     1       5.948  61.294  -8.125  1.00  0.00    -0.550 OA
ENDBRANCH   6   7
ENDBRANCH   5   6
ENDBRANCH   4   5
ENDBRANCH   3   4
ENDBRANCH   2   3
ENDBRANCH   1   2
BRANCH   1  10
ATOM     10  C   UNL     1       0.753  60.573  -3.231  1.00  0.00     0.000 C 
BRANCH  10  11
ATOM     11  C   UNL     1      -0.666  60.743  -2.658  1.00  0.00    -0.000 C 
BRANCH  11  12
ATOM     12  C   UNL     1      -1.764  59.965  -3.402  1.00  0.00    -0.000 C 
BRANCH  12  13
ATOM     13  C   UNL     1      -2.786  60.840  -4.152  1.00  0.00    -0.000 C 
BRANCH  13  14
ATOM     14  C   UNL     1      -3.729  60.041  -5.077  1.00  0.00    -0.000 C 
BRANCH  14  15
ATOM     15  C   UNL     1      -4.449  60.940  -6.094  1.00  0.00    -0.003 C 
ATOM     16  C   UNL     1      -4.400  60.336  -7.493  1.00  0.00     0.004 C 
ENDBRANCH  14  15
ENDBRANCH  13  14
ENDBRANCH  12  13
ENDBRANCH  11  12
ENDBRANCH  10  11
ENDBRANCH   1  10
TORSDOF 12
ENDMDL
MODEL 7
REMARK VINA RESULT:    -0.919      2.744      4.906
REMARK INTER + INTRA:          -2.724
REMARK INTER:                  -2.182
REMARK INTRA:                  -0.543
REMARK UNBOUND:                -1.160
REMARK SMILES CCCCCCCCCCCCCC(=O)[O-]
REMARK SMILES IDX 8 1 9 2 10 3 11 4 12 5 13 6 14 7 15 8 16 9 7 10 6 11 5 12
REMARK SMILES IDX 4 13 3 14 2 15 1 16
REMARK H PARENT
REMARK Flexibility Score: inf
ROOT
ATOM      1  C   UNL     1       2.175  59.709  -6.688  1.00  0.00     0.000 C 
ENDROOT
BRANCH   1   2
ATOM      2  C   UNL     1       2.175  60.627  -5.457  1.00  0.00     0.000 C 
BRANCH   2   3
ATOM      3  C   UNL     1       0.758  60.794  -4.895  1.00  0.00     0.000 C 
BRANCH   3   4
ATOM      4  C   UNL     1       0.680  60.303  -3.444  1.00  0.00     0.000 C 
BRANCH   4   5
ATOM      5  C   UNL     1      -0.741  60.452  -2.888  1.00  0.00     0.006 C 
BRANCH   5   6
ATOM      6  C   UNL     1      -1.706  59.484  -3.580  1.00  0.00     0.053 C 
BRANCH   6   7
ATOM      7  C   UNL     1      -2.998  60.167  -3.896  1.00  0.00     0.041 C 
ATOM      8  O   UNL     1      -2.998  61.274  -4.496  1.00  0.00    -0.550 OA
ATOM      9  O   UNL     1      -4.201  59.607  -3.484  1.00  0.00    -0.550 OA
ENDBRANCH   6   7
ENDBRANCH   5   6
ENDBRANCH   4   5
ENDBRANCH   3   4
ENDBRANCH   2   3
ENDBRANCH   1   2
BRANCH   1  10
ATOM     10  C   UNL     1       0.860  58.910  -6.824  1.00  0.00     0.000 C 
BRANCH  10  11
ATOM     11  C   UNL     1       0.087  59.205  -8.123  1.00  0.00    -0.000 C 
BRANCH  11  12
ATOM     12  C   UNL     1      -1.414  58.876  -8.073  1.00  0.00    -0.000 C 
BRANCH  12  13
ATOM     13  C   UNL     1      -2.207  59.629  -6.987  1.00  0.00    -0.000 C 
BRANCH  13  14
ATOM     14  C   UNL     1      -3.603  60.099  -7.451  1.00  0.00    -0.000 C 
BRANCH  14  15
ATOM     15  C   UNL     1      -4.588  58.932  -7.615  1.00  0.00    -0.003 C 
ATOM     16  C   UNL     1      -5.727  59.028  -6.606  1.00  0.00     0.004 C 
ENDBRANCH  14  15
ENDBRANCH  13  14
ENDBRANCH  12  13
ENDBRANCH  11  12
ENDBRANCH  10  11
ENDBRANCH   1  10
TORSDOF 12
ENDMDL
MODEL 8
REMARK VINA RESULT:    -0.707      2.030      4.375
REMARK INTER + INTRA:          -2.364
REMARK INTER:                  -1.396
REMARK INTRA:                  -0.968
REMARK UNBOUND:                -1.160
REMARK SMILES CCCCCCCCCCCCCC(=O)[O-]
REMARK SMILES IDX 8 1 9 2 10 3 11 4 12 5 13 6 14 7 15 8 16 9 7 10 6 11 5 12
REMARK SMILES IDX 4 13 3 14 2 15 1 16
REMARK H PARENT
REMARK Flexibility Score: inf
ROOT
ATOM      1  C   UNL     1      -3.669  60.639  -5.109  1.00  0.00     0.000 C 
ENDROOT
BRANCH   1   2
ATOM      2  C   UNL     1      -3.767  60.046  -6.522  1.00  0.00     0.000 C 
BRANCH   2   3
ATOM      3  C   UNL     1      -2.720  58.946  -6.732  1.00  0.00     0.000 C 
BRANCH   3   4
ATOM      4  C   UNL     1      -2.078  59.054  -8.120  1.00  0.00     0.000 C 
BRANCH   4   5
ATOM      5  C   UNL     1      -0.557  58.875  -8.038  1.00  0.00     0.006 C 
BRANCH   5   6
ATOM      6  C   UNL     1      -0.058  59.067  -6.603  1.00  0.00     0.053 C 
BRANCH   6   7
ATOM      7  C   UNL     1       1.365  59.527  -6.600  1.00  0.00     0.041 C 
ATOM      8  O   UNL     1       2.043  59.498  -7.661  1.00  0.00    -0.550 OA
ATOM      9  O   UNL     1       1.960  59.943  -5.415  1.00  0.00    -0.550 OA
ENDBRANCH   6   7
ENDBRANCH   5   6
ENDBRANCH   4   5
ENDBRANCH   3   4
ENDBRANCH   2   3
ENDBRANCH   1   2
BRANCH   1  10
ATOM     10  C   UNL     1      -4.206  59.674  -4.030  1.00  0.00     0.000 C 
BRANCH  10  11
ATOM     11  C   UNL     1      -3.251  59.486  -2.836  1.00  0.00    -0.000 C 
BRANCH  11  12
ATOM     12  C   UNL     1      -1.767  59.746  -3.146  1.00  0.00    -0.000 C 
BRANCH  12  13
ATOM     13  C   UNL     1      -1.076  60.756  -2.210  1.00  0.00    -0.000 C 
BRANCH  13  14
ATOM     14  C   UNL     1       0.464  60.744  -2.312  1.00  0.00    -0.000 C 
BRANCH  14  15
ATOM     15  C   UNL     1       1.142  60.825  -0.935  1.00  0.00    -0.003 C 
ATOM     16  C   UNL     1       1.344  62.274  -0.506  1.00  0.00     0.004 C 
ENDBRANCH  14  15
ENDBRANCH  13  14
ENDBRANCH  12  13
ENDBRANCH  11  12
ENDBRANCH  10  11
ENDBRANCH   1  10
TORSDOF 12
ENDMDL
