MODEL 1
REMARK VINA RESULT:    -7.726      0.000      0.000
REMARK INTER + INTRA:          -9.574
REMARK INTER:                  -9.533
REMARK INTRA:                  -0.041
REMARK UNBOUND:                -0.041
REMARK SMILES Oc1cc(O)c2cc(O)c(-c3cc(O)c(O)c(O)c3)[o+]c2c1.[Cl-]
REMARK SMILES IDX 10 1 20 2 21 3 22 4 2 5 3 6 4 7 6 8 7 9 8 10 11 11 12 12
REMARK SMILES IDX 13 13 19 14 15 15 17 16 14 17 16 19 18 21 9 23 1 25 5 27
REMARK H PARENT 14 18 16 20 18 22 9 24 1 26 5 28
REMARK Flexibility Score: inf
ROOT
ATOM      1  C   UNL     1      22.200  -5.677 -38.916  1.00  0.00     0.402 A 
ATOM      2  O   UNL     1      21.679  -5.158 -40.024  1.00  0.00    -0.202 OA
ATOM      3  C   UNL     1      20.808  -4.154 -40.020  1.00  0.00     0.368 A 
ATOM      4  C   UNL     1      20.313  -3.678 -41.236  1.00  0.00     0.162 A 
ATOM      5  C   UNL     1      19.394  -2.625 -41.261  1.00  0.00     0.128 A 
ATOM      6  C   UNL     1      18.967  -2.046 -40.064  1.00  0.00     0.093 A 
ATOM      7  C   UNL     1      19.448  -2.505 -38.830  1.00  0.00     0.136 A 
ATOM      8  C   UNL     1      20.383  -3.572 -38.800  1.00  0.00     0.125 A 
ATOM      9  C   UNL     1      20.928  -4.088 -37.614  1.00  0.00     0.078 A 
ATOM     10  C   UNL     1      21.849  -5.138 -37.664  1.00  0.00     0.223 A 
ENDROOT
BRANCH   1  11
ATOM     11  C   UNL     1      23.154  -6.802 -39.051  1.00  0.00     0.091 A 
ATOM     12  C   UNL     1      22.788  -7.929 -39.802  1.00  0.00     0.068 A 
ATOM     13  C   UNL     1      23.664  -9.016 -39.929  1.00  0.00     0.162 A 
ATOM     14  C   UNL     1      24.397  -6.791 -38.396  1.00  0.00     0.068 A 
ATOM     15  C   UNL     1      24.910  -8.990 -39.290  1.00  0.00     0.200 A 
ATOM     16  C   UNL     1      25.276  -7.876 -38.518  1.00  0.00     0.162 A 
BRANCH  13  17
ATOM     17  O   UNL     1      23.301 -10.127 -40.688  1.00  0.00    -0.504 OA
ATOM     18  H   UNL     1      22.371 -10.222 -41.080  1.00  0.00     0.293 HD
ENDBRANCH  13  17
BRANCH  15  19
ATOM     19  O   UNL     1      25.769 -10.080 -39.430  1.00  0.00    -0.502 OA
ATOM     20  H   UNL     1      25.621 -10.798 -40.131  1.00  0.00     0.293 HD
ENDBRANCH  15  19
BRANCH  16  21
ATOM     21  O   UNL     1      26.510  -7.852 -37.869  1.00  0.00    -0.504 OA
ATOM     22  H   UNL     1      27.374  -7.689 -38.374  1.00  0.00     0.293 HD
ENDBRANCH  16  21
ENDBRANCH   1  11
BRANCH  10  23
ATOM     23  O   UNL     1      22.429  -5.617 -36.488  1.00  0.00    -0.500 OA
ATOM     24  H   UNL     1      22.021  -5.433 -35.580  1.00  0.00     0.294 HD
ENDBRANCH  10  23
BRANCH   5  25
ATOM     25  O   UNL     1      18.897  -2.145 -42.471  1.00  0.00    -0.507 OA
ATOM     26  H   UNL     1      17.967  -2.386 -42.795  1.00  0.00     0.293 HD
ENDBRANCH   5  25
BRANCH   7  27
ATOM     27  O   UNL     1      18.969  -1.875 -37.679  1.00  0.00    -0.507 OA
ATOM     28  H   UNL     1      19.538  -1.639 -36.879  1.00  0.00     0.293 HD
ENDBRANCH   7  27
TORSDOF 7
ENDMDL
MODEL 2
REMARK VINA RESULT:    -7.631      0.088      1.790
REMARK INTER + INTRA:          -9.456
REMARK INTER:                  -9.429
REMARK INTRA:                  -0.027
REMARK UNBOUND:                -0.041
REMARK SMILES Oc1cc(O)c2cc(O)c(-c3cc(O)c(O)c(O)c3)[o+]c2c1.[Cl-]
REMARK SMILES IDX 10 1 20 2 21 3 22 4 2 5 3 6 4 7 6 8 7 9 8 10 11 11 12 12
REMARK SMILES IDX 13 13 19 14 15 15 17 16 14 17 16 19 18 21 9 23 1 25 5 27
REMARK H PARENT 14 18 16 20 18 22 9 24 1 26 5 28
REMARK Flexibility Score: inf
ROOT
ATOM      1  C   UNL     1      22.119  -5.734 -38.941  1.00  0.00     0.402 A 
ATOM      2  O   UNL     1      21.607  -5.195 -40.043  1.00  0.00    -0.202 OA
ATOM      3  C   UNL     1      20.757  -4.172 -40.030  1.00  0.00     0.368 A 
ATOM      4  C   UNL     1      20.271  -3.676 -41.242  1.00  0.00     0.162 A 
ATOM      5  C   UNL     1      19.374  -2.604 -41.256  1.00  0.00     0.128 A 
ATOM      6  C   UNL     1      18.962  -2.026 -40.054  1.00  0.00     0.093 A 
ATOM      7  C   UNL     1      19.435  -2.506 -38.825  1.00  0.00     0.136 A 
ATOM      8  C   UNL     1      20.347  -3.592 -38.805  1.00  0.00     0.125 A 
ATOM      9  C   UNL     1      20.883  -4.129 -37.623  1.00  0.00     0.078 A 
ATOM     10  C   UNL     1      21.781  -5.198 -37.684  1.00  0.00     0.223 A 
ENDROOT
BRANCH   1  11
ATOM     11  C   UNL     1      23.048  -6.878 -39.086  1.00  0.00     0.091 A 
ATOM     12  C   UNL     1      24.298  -6.836 -38.449  1.00  0.00     0.068 A 
ATOM     13  C   UNL     1      25.203  -7.897 -38.587  1.00  0.00     0.162 A 
ATOM     14  C   UNL     1      22.729  -7.982 -39.894  1.00  0.00     0.068 A 
ATOM     15  C   UNL     1      24.871  -9.004 -39.377  1.00  0.00     0.200 A 
ATOM     16  C   UNL     1      23.632  -9.045 -40.037  1.00  0.00     0.162 A 
BRANCH  13  17
ATOM     17  O   UNL     1      26.437  -7.857 -37.939  1.00  0.00    -0.504 OA
ATOM     18  H   UNL     1      26.822  -8.673 -37.479  1.00  0.00     0.293 HD
ENDBRANCH  13  17
BRANCH  15  19
ATOM     19  O   UNL     1      25.784 -10.052 -39.500  1.00  0.00    -0.502 OA
ATOM     20  H   UNL     1      25.760 -10.700 -40.279  1.00  0.00     0.293 HD
ENDBRANCH  15  19
BRANCH  16  21
ATOM     21  O   UNL     1      23.303 -10.139 -40.836  1.00  0.00    -0.504 OA
ATOM     22  H   UNL     1      24.016 -10.721 -41.261  1.00  0.00     0.293 HD
ENDBRANCH  16  21
ENDBRANCH   1  11
BRANCH  10  23
ATOM     23  O   UNL     1      22.352  -5.699 -36.513  1.00  0.00    -0.500 OA
ATOM     24  H   UNL     1      22.222  -5.241 -35.619  1.00  0.00     0.294 HD
ENDBRANCH  10  23
BRANCH   5  25
ATOM     25  O   UNL     1      18.885  -2.104 -42.461  1.00  0.00    -0.507 OA
ATOM     26  H   UNL     1      18.420  -1.206 -42.512  1.00  0.00     0.293 HD
ENDBRANCH   5  25
BRANCH   7  27
ATOM     27  O   UNL     1      18.970  -1.875 -37.667  1.00  0.00    -0.507 OA
ATOM     28  H   UNL     1      19.226  -0.939 -37.385  1.00  0.00     0.293 HD
ENDBRANCH   7  27
TORSDOF 7
ENDMDL
MODEL 3
REMARK VINA RESULT:    -7.552      2.417      7.096
REMARK INTER + INTRA:          -9.359
REMARK INTER:                  -9.016
REMARK INTRA:                  -0.343
REMARK UNBOUND:                -0.041
REMARK SMILES Oc1cc(O)c2cc(O)c(-c3cc(O)c(O)c(O)c3)[o+]c2c1.[Cl-]
REMARK SMILES IDX 10 1 20 2 21 3 22 4 2 5 3 6 4 7 6 8 7 9 8 10 11 11 12 12
REMARK SMILES IDX 13 13 19 14 15 15 17 16 14 17 16 19 18 21 9 23 1 25 5 27
REMARK H PARENT 14 18 16 20 18 22 9 24 1 26 5 28
REMARK Flexibility Score: inf
ROOT
ATOM      1  C   UNL     1      23.122  -4.582 -38.672  1.00  0.00     0.402 A 
ATOM      2  O   UNL     1      24.212  -3.820 -38.646  1.00  0.00    -0.202 OA
ATOM      3  C   UNL     1      25.429  -4.296 -38.403  1.00  0.00     0.368 A 
ATOM      4  C   UNL     1      26.514  -3.416 -38.393  1.00  0.00     0.162 A 
ATOM      5  C   UNL     1      27.804  -3.889 -38.137  1.00  0.00     0.128 A 
ATOM      6  C   UNL     1      28.010  -5.248 -37.890  1.00  0.00     0.093 A 
ATOM      7  C   UNL     1      26.939  -6.151 -37.894  1.00  0.00     0.136 A 
ATOM      8  C   UNL     1      25.628  -5.676 -38.155  1.00  0.00     0.125 A 
ATOM      9  C   UNL     1      24.498  -6.509 -38.192  1.00  0.00     0.078 A 
ATOM     10  C   UNL     1      23.237  -5.968 -38.461  1.00  0.00     0.223 A 
ENDROOT
BRANCH   1  11
ATOM     11  C   UNL     1      21.819  -3.931 -38.943  1.00  0.00     0.091 A 
ATOM     12  C   UNL     1      21.277  -3.988 -40.237  1.00  0.00     0.068 A 
ATOM     13  C   UNL     1      20.055  -3.364 -40.524  1.00  0.00     0.162 A 
ATOM     14  C   UNL     1      21.139  -3.210 -37.948  1.00  0.00     0.068 A 
ATOM     15  C   UNL     1      19.372  -2.664 -39.522  1.00  0.00     0.200 A 
ATOM     16  C   UNL     1      19.918  -2.583 -38.231  1.00  0.00     0.162 A 
BRANCH  13  17
ATOM     17  O   UNL     1      19.514  -3.435 -41.807  1.00  0.00    -0.504 OA
ATOM     18  H   UNL     1      20.096  -3.595 -42.621  1.00  0.00     0.293 HD
ENDBRANCH  13  17
BRANCH  15  19
ATOM     19  O   UNL     1      18.156  -2.052 -39.827  1.00  0.00    -0.502 OA
ATOM     20  H   UNL     1      17.402  -2.550 -40.286  1.00  0.00     0.293 HD
ENDBRANCH  15  19
BRANCH  16  21
ATOM     21  O   UNL     1      19.248  -1.875 -37.234  1.00  0.00    -0.504 OA
ATOM     22  H   UNL     1      19.721  -1.564 -36.392  1.00  0.00     0.293 HD
ENDBRANCH  16  21
ENDBRANCH   1  11
BRANCH  10  23
ATOM     23  O   UNL     1      22.122  -6.803 -38.548  1.00  0.00    -0.500 OA
ATOM     24  H   UNL     1      21.738  -7.264 -37.732  1.00  0.00     0.294 HD
ENDBRANCH  10  23
BRANCH   5  25
ATOM     25  O   UNL     1      28.890  -3.017 -38.126  1.00  0.00    -0.507 OA
ATOM     26  H   UNL     1      28.867  -2.148 -37.605  1.00  0.00     0.293 HD
ENDBRANCH   5  25
BRANCH   7  27
ATOM     27  O   UNL     1      27.229  -7.493 -37.634  1.00  0.00    -0.507 OA
ATOM     28  H   UNL     1      27.888  -7.810 -36.937  1.00  0.00     0.293 HD
ENDBRANCH   7  27
TORSDOF 7
ENDMDL
MODEL 4
REMARK VINA RESULT:    -7.518      2.419      7.271
REMARK INTER + INTRA:          -9.318
REMARK INTER:                  -8.986
REMARK INTRA:                  -0.332
REMARK UNBOUND:                -0.041
REMARK SMILES Oc1cc(O)c2cc(O)c(-c3cc(O)c(O)c(O)c3)[o+]c2c1.[Cl-]
REMARK SMILES IDX 10 1 20 2 21 3 22 4 2 5 3 6 4 7 6 8 7 9 8 10 11 11 12 12
REMARK SMILES IDX 13 13 19 14 15 15 17 16 14 17 16 19 18 21 9 23 1 25 5 27
REMARK H PARENT 14 18 16 20 18 22 9 24 1 26 5 28
REMARK Flexibility Score: inf
ROOT
ATOM      1  C   UNL     1      23.167  -4.537 -38.704  1.00  0.00     0.402 A 
ATOM      2  O   UNL     1      24.268  -3.792 -38.667  1.00  0.00    -0.202 OA
ATOM      3  C   UNL     1      25.477  -4.287 -38.419  1.00  0.00     0.368 A 
ATOM      4  C   UNL     1      26.574  -3.423 -38.398  1.00  0.00     0.162 A 
ATOM      5  C   UNL     1      27.855  -3.917 -38.136  1.00  0.00     0.128 A 
ATOM      6  C   UNL     1      28.040  -5.280 -37.894  1.00  0.00     0.093 A 
ATOM      7  C   UNL     1      26.955  -6.167 -37.909  1.00  0.00     0.136 A 
ATOM      8  C   UNL     1      25.653  -5.671 -38.177  1.00  0.00     0.125 A 
ATOM      9  C   UNL     1      24.511  -6.487 -38.225  1.00  0.00     0.078 A 
ATOM     10  C   UNL     1      23.260  -5.926 -38.500  1.00  0.00     0.223 A 
ENDROOT
BRANCH   1  11
ATOM     11  C   UNL     1      21.876  -3.866 -38.981  1.00  0.00     0.091 A 
ATOM     12  C   UNL     1      21.216  -3.187 -37.945  1.00  0.00     0.068 A 
ATOM     13  C   UNL     1      19.984  -2.561 -38.176  1.00  0.00     0.162 A 
ATOM     14  C   UNL     1      21.267  -3.941 -40.246  1.00  0.00     0.068 A 
ATOM     15  C   UNL     1      19.393  -2.622 -39.444  1.00  0.00     0.200 A 
ATOM     16  C   UNL     1      20.034  -3.318 -40.481  1.00  0.00     0.162 A 
BRANCH  13  17
ATOM     17  O   UNL     1      19.340  -1.875 -37.147  1.00  0.00    -0.504 OA
ATOM     18  H   UNL     1      18.811  -2.363 -36.434  1.00  0.00     0.293 HD
ENDBRANCH  13  17
BRANCH  15  19
ATOM     19  O   UNL     1      18.167  -1.990 -39.654  1.00  0.00    -0.502 OA
ATOM     20  H   UNL     1      17.427  -2.416 -40.201  1.00  0.00     0.293 HD
ENDBRANCH  15  19
BRANCH  16  21
ATOM     21  O   UNL     1      19.443  -3.393 -41.741  1.00  0.00    -0.504 OA
ATOM     22  H   UNL     1      18.805  -4.142 -41.986  1.00  0.00     0.293 HD
ENDBRANCH  16  21
ENDBRANCH   1  11
BRANCH  10  23
ATOM     23  O   UNL     1      22.133  -6.743 -38.598  1.00  0.00    -0.500 OA
ATOM     24  H   UNL     1      21.874  -7.190 -39.469  1.00  0.00     0.294 HD
ENDBRANCH  10  23
BRANCH   5  25
ATOM     25  O   UNL     1      28.954  -3.061 -38.113  1.00  0.00    -0.507 OA
ATOM     26  H   UNL     1      29.569  -2.966 -38.914  1.00  0.00     0.293 HD
ENDBRANCH   5  25
BRANCH   7  27
ATOM     27  O   UNL     1      27.223  -7.515 -37.654  1.00  0.00    -0.507 OA
ATOM     28  H   UNL     1      26.708  -8.085 -36.998  1.00  0.00     0.293 HD
ENDBRANCH   7  27
TORSDOF 7
ENDMDL
MODEL 5
REMARK VINA RESULT:    -7.317      1.663      7.238
REMARK INTER + INTRA:          -9.069
REMARK INTER:                  -8.779
REMARK INTRA:                  -0.290
REMARK UNBOUND:                -0.041
REMARK SMILES Oc1cc(O)c2cc(O)c(-c3cc(O)c(O)c(O)c3)[o+]c2c1.[Cl-]
REMARK SMILES IDX 10 1 20 2 21 3 22 4 2 5 3 6 4 7 6 8 7 9 8 10 11 11 12 12
REMARK SMILES IDX 13 13 19 14 15 15 17 16 14 17 16 19 18 21 9 23 1 25 5 27
REMARK H PARENT 14 18 16 20 18 22 9 24 1 26 5 28
REMARK Flexibility Score: inf
ROOT
ATOM      1  C   UNL     1      22.853  -4.403 -38.948  1.00  0.00     0.402 A 
ATOM      2  O   UNL     1      22.884  -5.732 -38.937  1.00  0.00    -0.202 OA
ATOM      3  C   UNL     1      23.983  -6.434 -38.676  1.00  0.00     0.368 A 
ATOM      4  C   UNL     1      23.918  -7.829 -38.690  1.00  0.00     0.162 A 
ATOM      5  C   UNL     1      25.059  -8.591 -38.423  1.00  0.00     0.128 A 
ATOM      6  C   UNL     1      26.270  -7.956 -38.141  1.00  0.00     0.093 A 
ATOM      7  C   UNL     1      26.361  -6.557 -38.121  1.00  0.00     0.136 A 
ATOM      8  C   UNL     1      25.206  -5.780 -38.390  1.00  0.00     0.125 A 
ATOM      9  C   UNL     1      25.201  -4.375 -38.378  1.00  0.00     0.078 A 
ATOM     10  C   UNL     1      24.020  -3.676 -38.648  1.00  0.00     0.223 A 
ENDROOT
BRANCH   1  11
ATOM     11  C   UNL     1      21.569  -3.735 -39.263  1.00  0.00     0.091 A 
ATOM     12  C   UNL     1      20.841  -3.120 -38.233  1.00  0.00     0.068 A 
ATOM     13  C   UNL     1      19.614  -2.498 -38.501  1.00  0.00     0.162 A 
ATOM     14  C   UNL     1      21.033  -3.753 -40.562  1.00  0.00     0.068 A 
ATOM     15  C   UNL     1      19.095  -2.501 -39.802  1.00  0.00     0.200 A 
ATOM     16  C   UNL     1      19.805  -3.134 -40.836  1.00  0.00     0.162 A 
BRANCH  13  17
ATOM     17  O   UNL     1      18.902  -1.875 -37.477  1.00  0.00    -0.504 OA
ATOM     18  H   UNL     1      19.373  -1.438 -36.694  1.00  0.00     0.293 HD
ENDBRANCH  13  17
BRANCH  15  19
ATOM     19  O   UNL     1      17.874  -1.875 -40.050  1.00  0.00    -0.502 OA
ATOM     20  H   UNL     1      17.272  -2.151 -40.818  1.00  0.00     0.293 HD
ENDBRANCH  15  19
BRANCH  16  21
ATOM     21  O   UNL     1      19.286  -3.152 -42.129  1.00  0.00    -0.504 OA
ATOM     22  H   UNL     1      18.470  -2.607 -42.383  1.00  0.00     0.293 HD
ENDBRANCH  16  21
ENDBRANCH   1  11
BRANCH  10  23
ATOM     23  O   UNL     1      24.003  -2.283 -38.588  1.00  0.00    -0.500 OA
ATOM     24  H   UNL     1      24.694  -1.720 -39.070  1.00  0.00     0.294 HD
ENDBRANCH  10  23
BRANCH   5  25
ATOM     25  O   UNL     1      25.001  -9.983 -38.436  1.00  0.00    -0.507 OA
ATOM     26  H   UNL     1      25.797 -10.549 -38.167  1.00  0.00     0.293 HD
ENDBRANCH   5  25
BRANCH   7  27
ATOM     27  O   UNL     1      27.610  -5.999 -37.835  1.00  0.00    -0.507 OA
ATOM     28  H   UNL     1      28.173  -5.488 -38.499  1.00  0.00     0.293 HD
ENDBRANCH   7  27
TORSDOF 7
ENDMDL
MODEL 6
REMARK VINA RESULT:    -7.149      1.593      7.064
REMARK INTER + INTRA:          -8.862
REMARK INTER:                  -8.654
REMARK INTRA:                  -0.209
REMARK UNBOUND:                -0.041
REMARK SMILES Oc1cc(O)c2cc(O)c(-c3cc(O)c(O)c(O)c3)[o+]c2c1.[Cl-]
REMARK SMILES IDX 10 1 20 2 21 3 22 4 2 5 3 6 4 7 6 8 7 9 8 10 11 11 12 12
REMARK SMILES IDX 13 13 19 14 15 15 17 16 14 17 16 19 18 21 9 23 1 25 5 27
REMARK H PARENT 14 18 16 20 18 22 9 24 1 26 5 28
REMARK Flexibility Score: inf
ROOT
ATOM      1  C   UNL     1      22.695  -4.489 -38.712  1.00  0.00     0.402 A 
ATOM      2  O   UNL     1      22.778  -5.808 -38.862  1.00  0.00    -0.202 OA
ATOM      3  C   UNL     1      23.878  -6.505 -38.595  1.00  0.00     0.368 A 
ATOM      4  C   UNL     1      23.871  -7.888 -38.787  1.00  0.00     0.162 A 
ATOM      5  C   UNL     1      25.015  -8.644 -38.516  1.00  0.00     0.128 A 
ATOM      6  C   UNL     1      26.171  -8.014 -38.053  1.00  0.00     0.093 A 
ATOM      7  C   UNL     1      26.205  -6.628 -37.852  1.00  0.00     0.136 A 
ATOM      8  C   UNL     1      25.046  -5.856 -38.123  1.00  0.00     0.125 A 
ATOM      9  C   UNL     1      24.984  -4.466 -37.939  1.00  0.00     0.078 A 
ATOM     10  C   UNL     1      23.803  -3.773 -38.223  1.00  0.00     0.223 A 
ENDROOT
BRANCH   1  11
ATOM     11  C   UNL     1      21.416  -3.825 -39.054  1.00  0.00     0.091 A 
ATOM     12  C   UNL     1      20.985  -3.805 -40.390  1.00  0.00     0.068 A 
ATOM     13  C   UNL     1      19.789  -3.166 -40.743  1.00  0.00     0.162 A 
ATOM     14  C   UNL     1      20.649  -3.164 -38.079  1.00  0.00     0.068 A 
ATOM     15  C   UNL     1      19.019  -2.527 -39.762  1.00  0.00     0.200 A 
ATOM     16  C   UNL     1      19.453  -2.522 -38.427  1.00  0.00     0.162 A 
BRANCH  13  17
ATOM     17  O   UNL     1      19.358  -3.162 -42.069  1.00  0.00    -0.504 OA
ATOM     18  H   UNL     1      19.802  -3.740 -42.772  1.00  0.00     0.293 HD
ENDBRANCH  13  17
BRANCH  15  19
ATOM     19  O   UNL     1      17.830  -1.899 -40.133  1.00  0.00    -0.502 OA
ATOM     20  H   UNL     1      17.041  -1.821 -39.500  1.00  0.00     0.293 HD
ENDBRANCH  15  19
BRANCH  16  21
ATOM     21  O   UNL     1      18.697  -1.875 -37.450  1.00  0.00    -0.504 OA
ATOM     22  H   UNL     1      19.133  -1.335 -36.711  1.00  0.00     0.293 HD
ENDBRANCH  16  21
ENDBRANCH   1  11
BRANCH  10  23
ATOM     23  O   UNL     1      23.725  -2.399 -37.993  1.00  0.00    -0.500 OA
ATOM     24  H   UNL     1      22.857  -1.889 -38.102  1.00  0.00     0.294 HD
ENDBRANCH  10  23
BRANCH   5  25
ATOM     25  O   UNL     1      25.014 -10.024 -38.705  1.00  0.00    -0.507 OA
ATOM     26  H   UNL     1      24.868 -10.665 -37.934  1.00  0.00     0.293 HD
ENDBRANCH   5  25
BRANCH   7  27
ATOM     27  O   UNL     1      27.402  -6.074 -37.390  1.00  0.00    -0.507 OA
ATOM     28  H   UNL     1      28.037  -5.531 -37.958  1.00  0.00     0.293 HD
ENDBRANCH   7  27
TORSDOF 7
ENDMDL
MODEL 7
REMARK VINA RESULT:    -6.917      1.538      3.166
REMARK INTER + INTRA:          -8.576
REMARK INTER:                  -8.741
REMARK INTRA:                   0.165
REMARK UNBOUND:                -0.041
REMARK SMILES Oc1cc(O)c2cc(O)c(-c3cc(O)c(O)c(O)c3)[o+]c2c1.[Cl-]
REMARK SMILES IDX 10 1 20 2 21 3 22 4 2 5 3 6 4 7 6 8 7 9 8 10 11 11 12 12
REMARK SMILES IDX 13 13 19 14 15 15 17 16 14 17 16 19 18 21 9 23 1 25 5 27
REMARK H PARENT 14 18 16 20 18 22 9 24 1 26 5 28
REMARK Flexibility Score: inf
ROOT
ATOM      1  C   UNL     1      22.624  -5.689 -38.455  1.00  0.00     0.402 A 
ATOM      2  O   UNL     1      22.698  -5.105 -37.262  1.00  0.00    -0.202 OA
ATOM      3  C   UNL     1      21.928  -4.084 -36.899  1.00  0.00     0.368 A 
ATOM      4  C   UNL     1      22.082  -3.535 -35.624  1.00  0.00     0.162 A 
ATOM      5  C   UNL     1      21.287  -2.459 -35.219  1.00  0.00     0.128 A 
ATOM      6  C   UNL     1      20.333  -1.931 -36.091  1.00  0.00     0.093 A 
ATOM      7  C   UNL     1      20.159  -2.464 -37.376  1.00  0.00     0.136 A 
ATOM      8  C   UNL     1      20.962  -3.557 -37.792  1.00  0.00     0.125 A 
ATOM      9  C   UNL     1      20.848  -4.162 -39.053  1.00  0.00     0.078 A 
ATOM     10  C   UNL     1      21.673  -5.240 -39.390  1.00  0.00     0.223 A 
ENDROOT
BRANCH   1  11
ATOM     11  C   UNL     1      23.545  -6.811 -38.744  1.00  0.00     0.091 A 
ATOM     12  C   UNL     1      23.082  -7.910 -39.484  1.00  0.00     0.068 A 
ATOM     13  C   UNL     1      23.928  -8.994 -39.755  1.00  0.00     0.162 A 
ATOM     14  C   UNL     1      24.860  -6.828 -38.246  1.00  0.00     0.068 A 
ATOM     15  C   UNL     1      25.243  -8.995 -39.273  1.00  0.00     0.200 A 
ATOM     16  C   UNL     1      25.709  -7.910 -38.513  1.00  0.00     0.162 A 
BRANCH  13  17
ATOM     17  O   UNL     1      23.467 -10.077 -40.503  1.00  0.00    -0.504 OA
ATOM     18  H   UNL     1      22.737 -10.689 -40.156  1.00  0.00     0.293 HD
ENDBRANCH  13  17
BRANCH  15  19
ATOM     19  O   UNL     1      26.071 -10.082 -39.555  1.00  0.00    -0.502 OA
ATOM     20  H   UNL     1      25.713 -11.028 -39.626  1.00  0.00     0.293 HD
ENDBRANCH  15  19
BRANCH  16  21
ATOM     21  O   UNL     1      27.013  -7.913 -38.019  1.00  0.00    -0.504 OA
ATOM     22  H   UNL     1      27.643  -8.690 -38.185  1.00  0.00     0.293 HD
ENDBRANCH  16  21
ENDBRANCH   1  11
BRANCH  10  23
ATOM     23  O   UNL     1      21.526  -5.874 -40.624  1.00  0.00    -0.500 OA
ATOM     24  H   UNL     1      21.071  -5.419 -41.406  1.00  0.00     0.294 HD
ENDBRANCH  10  23
BRANCH   5  25
ATOM     25  O   UNL     1      21.435  -1.907 -33.948  1.00  0.00    -0.507 OA
ATOM     26  H   UNL     1      21.479  -0.904 -33.808  1.00  0.00     0.293 HD
ENDBRANCH   5  25
BRANCH   7  27
ATOM     27  O   UNL     1      19.187  -1.875 -38.189  1.00  0.00    -0.507 OA
ATOM     28  H   UNL     1      19.186  -1.917 -39.198  1.00  0.00     0.293 HD
ENDBRANCH   7  27
TORSDOF 7
ENDMDL
MODEL 8
REMARK VINA RESULT:    -6.675      1.057      1.266
REMARK INTER + INTRA:          -8.278
REMARK INTER:                  -8.347
REMARK INTRA:                   0.069
REMARK UNBOUND:                -0.041
REMARK SMILES Oc1cc(O)c2cc(O)c(-c3cc(O)c(O)c(O)c3)[o+]c2c1.[Cl-]
REMARK SMILES IDX 10 1 20 2 21 3 22 4 2 5 3 6 4 7 6 8 7 9 8 10 11 11 12 12
REMARK SMILES IDX 13 13 19 14 15 15 17 16 14 17 16 19 18 21 9 23 1 25 5 27
REMARK H PARENT 14 18 16 20 18 22 9 24 1 26 5 28
REMARK Flexibility Score: inf
ROOT
ATOM      1  C   UNL     1      22.681  -5.656 -38.076  1.00  0.00     0.402 A 
ATOM      2  O   UNL     1      21.877  -5.096 -38.975  1.00  0.00    -0.202 OA
ATOM      3  C   UNL     1      21.059  -4.086 -38.694  1.00  0.00     0.368 A 
ATOM      4  C   UNL     1      20.249  -3.565 -39.706  1.00  0.00     0.162 A 
ATOM      5  C   UNL     1      19.377  -2.506 -39.437  1.00  0.00     0.128 A 
ATOM      6  C   UNL     1      19.315  -1.965 -38.151  1.00  0.00     0.093 A 
ATOM      7  C   UNL     1      20.117  -2.470 -37.118  1.00  0.00     0.136 A 
ATOM      8  C   UNL     1      21.005  -3.543 -37.387  1.00  0.00     0.125 A 
ATOM      9  C   UNL     1      21.854  -4.103 -36.419  1.00  0.00     0.078 A 
ATOM     10  C   UNL     1      22.706  -5.158 -36.760  1.00  0.00     0.223 A 
ENDROOT
BRANCH   1  11
ATOM     11  C   UNL     1      23.539  -6.782 -38.509  1.00  0.00     0.091 A 
ATOM     12  C   UNL     1      22.992  -7.797 -39.310  1.00  0.00     0.068 A 
ATOM     13  C   UNL     1      23.778  -8.884 -39.717  1.00  0.00     0.162 A 
ATOM     14  C   UNL     1      24.876  -6.889 -38.089  1.00  0.00     0.068 A 
ATOM     15  C   UNL     1      25.116  -8.973 -39.312  1.00  0.00     0.200 A 
ATOM     16  C   UNL     1      25.665  -7.974 -38.492  1.00  0.00     0.162 A 
BRANCH  13  17
ATOM     17  O   UNL     1      23.234  -9.881 -40.525  1.00  0.00    -0.504 OA
ATOM     18  H   UNL     1      23.591 -10.064 -41.456  1.00  0.00     0.293 HD
ENDBRANCH  13  17
BRANCH  15  19
ATOM     19  O   UNL     1      25.882 -10.061 -39.730  1.00  0.00    -0.502 OA
ATOM     20  H   UNL     1      26.294 -10.714 -39.074  1.00  0.00     0.293 HD
ENDBRANCH  15  19
BRANCH  16  21
ATOM     21  O   UNL     1      26.992  -8.067 -38.075  1.00  0.00    -0.504 OA
ATOM     22  H   UNL     1      27.271  -8.679 -37.317  1.00  0.00     0.293 HD
ENDBRANCH  16  21
ENDBRANCH   1  11
BRANCH  10  23
ATOM     23  O   UNL     1      23.586  -5.681 -35.811  1.00  0.00    -0.500 OA
ATOM     24  H   UNL     1      23.994  -5.102 -35.087  1.00  0.00     0.294 HD
ENDBRANCH  10  23
BRANCH   5  25
ATOM     25  O   UNL     1      18.567  -1.982 -40.442  1.00  0.00    -0.507 OA
ATOM     26  H   UNL     1      18.754  -2.161 -41.421  1.00  0.00     0.293 HD
ENDBRANCH   5  25
BRANCH   7  27
ATOM     27  O   UNL     1      19.992  -1.877 -35.859  1.00  0.00    -0.507 OA
ATOM     28  H   UNL     1      19.878  -2.388 -34.996  1.00  0.00     0.293 HD
ENDBRANCH   7  27
TORSDOF 7
ENDMDL
