MODEL 1
REMARK VINA RESULT:    -8.165      0.000      0.000
REMARK INTER + INTRA:          -8.998
REMARK INTER:                  -8.881
REMARK INTRA:                  -0.117
REMARK UNBOUND:                -0.117
REMARK SMILES C[C@H]1[C@H](C)CC[C@]2(C(=O)[O-])CC[C@]3(C)C(=CC[C@H]4[C@]5(C)CC[C@H](O)C(C)(C)[C@@H]5CC[C@@]43C)[C@H]12
REMARK SMILES IDX 7 1 6 2 11 3 33 4 5 5 12 6 15 7 2 8 3 9 13 10 16 11 1 12
REMARK SMILES IDX 4 13 14 14 31 15 17 16 18 17 30 18 32 19 19 20 29 21 28 22
REMARK SMILES IDX 21 23 20 24 25 25 22 26 23 27 26 28 27 29 8 30 9 31 10 32
REMARK SMILES IDX 24 33
REMARK H PARENT 24 34
REMARK Flexibility Score: inf
ROOT
ATOM      1  C   UNL     1      98.889  85.611  84.573  1.00  0.00     0.017 C 
ATOM      2  C   UNL     1     100.199  85.401  85.390  1.00  0.00     0.014 C 
ATOM      3  C   UNL     1      98.656  84.400  83.625  1.00  0.00     0.014 C 
ATOM      4  C   UNL     1      98.957  86.938  83.744  1.00  0.00     0.030 C 
ATOM      5  C   UNL     1     101.479  85.603  84.575  1.00  0.00     0.004 C 
ATOM      6  C   UNL     1      97.405  84.541  82.718  1.00  0.00     0.013 C 
ATOM      7  C   UNL     1      97.709  87.037  82.850  1.00  0.00    -0.063 C 
ATOM      8  C   UNL     1     100.303  87.174  82.984  1.00  0.00    -0.003 C 
ATOM      9  C   UNL     1     101.508  87.005  83.949  1.00  0.00    -0.011 C 
ATOM     10  C   UNL     1      97.329  85.872  81.891  1.00  0.00    -0.006 C 
ATOM     11  C   UNL     1      96.851  88.046  83.131  1.00  0.00    -0.027 C 
ATOM     12  C   UNL     1     100.302  88.574  82.336  1.00  0.00     0.008 C 
ATOM     13  C   UNL     1     102.865  87.221  83.249  1.00  0.00     0.008 C 
ATOM     14  C   UNL     1      98.381  85.759  80.740  1.00  0.00     0.017 C 
ATOM     15  C   UNL     1      95.859  86.105  81.245  1.00  0.00    -0.020 C 
ATOM     16  C   UNL     1      95.392  88.051  82.773  1.00  0.00     0.032 C 
ATOM     17  C   UNL     1      94.888  86.646  82.345  1.00  0.00     0.006 C 
ATOM     18  C   UNL     1      95.264  84.778  80.717  1.00  0.00     0.008 C 
ATOM     19  C   UNL     1      95.966  87.125  80.057  1.00  0.00     0.012 C 
ATOM     20  C   UNL     1      93.294  86.460  82.092  1.00  0.00    -0.025 C 
ATOM     21  C   UNL     1      93.909  84.925  80.034  1.00  0.00     0.005 C 
ATOM     22  C   UNL     1      92.923  85.996  80.611  1.00  0.00     0.003 C 
ATOM     23  C   UNL     1      92.769  85.375  83.082  1.00  0.00     0.010 C 
ATOM     24  C   UNL     1      92.577  87.804  82.429  1.00  0.00     0.012 C 
ATOM     25  C   UNL     1      91.396  85.550  80.379  1.00  0.00    -0.006 C 
ATOM     26  C   UNL     1      91.287  84.992  82.914  1.00  0.00     0.033 C 
ATOM     27  C   UNL     1      90.929  84.539  81.479  1.00  0.00     0.120 C 
ATOM     28  C   UNL     1      91.207  84.900  78.969  1.00  0.00     0.014 C 
ATOM     29  C   UNL     1      90.427  86.778  80.363  1.00  0.00     0.014 C 
ENDROOT
BRANCH   1  30
ATOM     30  C   UNL     1      97.757  85.717  85.599  1.00  0.00     0.048 C 
ATOM     31  O   UNL     1      97.656  86.739  86.331  1.00  0.00    -0.550 OA
ATOM     32  O   UNL     1      96.878  84.659  85.824  1.00  0.00    -0.550 OA
ENDBRANCH   1  30
BRANCH  27  33
ATOM     33  O   UNL     1      91.362  83.221  81.211  1.00  0.00    -0.393 OA
ATOM     34  H   UNL     1      90.580  82.632  81.057  1.00  0.00     0.210 HD
ENDBRANCH  27  33
TORSDOF 2
ENDMDL
MODEL 2
REMARK VINA RESULT:    -7.334      2.290      8.040
REMARK INTER + INTRA:          -8.094
REMARK INTER:                  -8.244
REMARK INTRA:                   0.150
REMARK UNBOUND:                -0.117
REMARK SMILES C[C@H]1[C@H](C)CC[C@]2(C(=O)[O-])CC[C@]3(C)C(=CC[C@H]4[C@]5(C)CC[C@H](O)C(C)(C)[C@@H]5CC[C@@]43C)[C@H]12
REMARK SMILES IDX 7 1 6 2 11 3 33 4 5 5 12 6 15 7 2 8 3 9 13 10 16 11 1 12
REMARK SMILES IDX 4 13 14 14 31 15 17 16 18 17 30 18 32 19 19 20 29 21 28 22
REMARK SMILES IDX 21 23 20 24 25 25 22 26 23 27 26 28 27 29 8 30 9 31 10 32
REMARK SMILES IDX 24 33
REMARK H PARENT 24 34
REMARK Flexibility Score: inf
ROOT
ATOM      1  C   UNL     1      95.556  85.311  80.622  1.00  0.00     0.017 C 
ATOM      2  C   UNL     1      94.507  84.651  79.679  1.00  0.00     0.014 C 
ATOM      3  C   UNL     1      96.304  84.215  81.434  1.00  0.00     0.014 C 
ATOM      4  C   UNL     1      94.867  86.326  81.597  1.00  0.00     0.030 C 
ATOM      5  C   UNL     1      93.262  84.128  80.402  1.00  0.00     0.004 C 
ATOM      6  C   UNL     1      97.330  84.775  82.453  1.00  0.00     0.013 C 
ATOM      7  C   UNL     1      95.912  86.849  82.598  1.00  0.00    -0.063 C 
ATOM      8  C   UNL     1      93.551  85.811  82.264  1.00  0.00    -0.003 C 
ATOM      9  C   UNL     1      92.578  85.257  81.188  1.00  0.00    -0.011 C 
ATOM     10  C   UNL     1      96.769  85.858  83.438  1.00  0.00    -0.006 C 
ATOM     11  C   UNL     1      96.213  88.167  82.514  1.00  0.00    -0.027 C 
ATOM     12  C   UNL     1      92.893  86.948  83.074  1.00  0.00     0.008 C 
ATOM     13  C   UNL     1      91.261  84.728  81.792  1.00  0.00     0.008 C 
ATOM     14  C   UNL     1      95.865  85.114  84.474  1.00  0.00     0.017 C 
ATOM     15  C   UNL     1      97.952  86.637  84.228  1.00  0.00    -0.020 C 
ATOM     16  C   UNL     1      97.497  88.782  82.991  1.00  0.00     0.032 C 
ATOM     17  C   UNL     1      98.585  87.714  83.288  1.00  0.00     0.006 C 
ATOM     18  C   UNL     1      99.082  85.664  84.641  1.00  0.00     0.008 C 
ATOM     19  C   UNL     1      97.364  87.312  85.518  1.00  0.00     0.012 C 
ATOM     20  C   UNL     1     100.080  88.237  83.649  1.00  0.00    -0.025 C 
ATOM     21  C   UNL     1     100.203  86.309  85.447  1.00  0.00     0.005 C 
ATOM     22  C   UNL     1     100.595  87.783  85.089  1.00  0.00     0.003 C 
ATOM     23  C   UNL     1     101.065  87.667  82.583  1.00  0.00     0.010 C 
ATOM     24  C   UNL     1     100.102  89.793  83.538  1.00  0.00     0.012 C 
ATOM     25  C   UNL     1     102.150  88.049  85.393  1.00  0.00    -0.006 C 
ATOM     26  C   UNL     1     102.553  87.978  82.827  1.00  0.00     0.033 C 
ATOM     27  C   UNL     1     103.052  87.534  84.223  1.00  0.00     0.120 C 
ATOM     28  C   UNL     1     102.591  87.359  86.725  1.00  0.00     0.014 C 
ATOM     29  C   UNL     1     102.443  89.567  85.638  1.00  0.00     0.014 C 
ENDROOT
BRANCH   1  30
ATOM     30  C   UNL     1      96.531  86.068  79.716  1.00  0.00     0.048 C 
ATOM     31  O   UNL     1      96.119  86.615  78.656  1.00  0.00    -0.550 OA
ATOM     32  O   UNL     1      97.900  86.088  79.975  1.00  0.00    -0.550 OA
ENDBRANCH   1  30
BRANCH  27  33
ATOM     33  O   UNL     1     103.271  86.140  84.292  1.00  0.00    -0.393 OA
ATOM     34  H   UNL     1     104.239  85.944  84.206  1.00  0.00     0.210 HD
ENDBRANCH  27  33
TORSDOF 2
ENDMDL
MODEL 3
REMARK VINA RESULT:    -6.850      3.554      8.863
REMARK INTER + INTRA:          -7.567
REMARK INTER:                  -7.451
REMARK INTRA:                  -0.116
REMARK UNBOUND:                -0.117
REMARK SMILES C[C@H]1[C@H](C)CC[C@]2(C(=O)[O-])CC[C@]3(C)C(=CC[C@H]4[C@]5(C)CC[C@H](O)C(C)(C)[C@@H]5CC[C@@]43C)[C@H]12
REMARK SMILES IDX 7 1 6 2 11 3 33 4 5 5 12 6 15 7 2 8 3 9 13 10 16 11 1 12
REMARK SMILES IDX 4 13 14 14 31 15 17 16 18 17 30 18 32 19 19 20 29 21 28 22
REMARK SMILES IDX 21 23 20 24 25 25 22 26 23 27 26 28 27 29 8 30 9 31 10 32
REMARK SMILES IDX 24 33
REMARK H PARENT 24 34
REMARK Flexibility Score: inf
ROOT
ATOM      1  C   UNL     1      90.533  85.104  80.644  1.00  0.00     0.017 C 
ATOM      2  C   UNL     1      89.920  84.370  79.414  1.00  0.00     0.014 C 
ATOM      3  C   UNL     1      90.503  84.171  81.888  1.00  0.00     0.014 C 
ATOM      4  C   UNL     1      89.754  86.429  80.946  1.00  0.00     0.030 C 
ATOM      5  C   UNL     1      88.395  84.240  79.464  1.00  0.00     0.004 C 
ATOM      6  C   UNL     1      91.036  84.832  83.185  1.00  0.00     0.013 C 
ATOM      7  C   UNL     1      90.302  87.048  82.244  1.00  0.00    -0.063 C 
ATOM      8  C   UNL     1      88.197  86.302  80.910  1.00  0.00    -0.003 C 
ATOM      9  C   UNL     1      87.738  85.623  79.591  1.00  0.00    -0.011 C 
ATOM     10  C   UNL     1      90.377  86.208  83.551  1.00  0.00    -0.006 C 
ATOM     11  C   UNL     1      90.934  88.240  82.117  1.00  0.00    -0.027 C 
ATOM     12  C   UNL     1      87.553  87.695  81.070  1.00  0.00     0.008 C 
ATOM     13  C   UNL     1      86.206  85.466  79.505  1.00  0.00     0.008 C 
ATOM     14  C   UNL     1      88.936  85.903  84.076  1.00  0.00     0.017 C 
ATOM     15  C   UNL     1      91.206  86.994  84.702  1.00  0.00    -0.020 C 
ATOM     16  C   UNL     1      91.953  88.772  83.084  1.00  0.00     0.032 C 
ATOM     17  C   UNL     1      92.459  87.680  84.065  1.00  0.00     0.006 C 
ATOM     18  C   UNL     1      91.717  86.018  85.788  1.00  0.00     0.008 C 
ATOM     19  C   UNL     1      90.277  88.066  85.376  1.00  0.00     0.012 C 
ATOM     20  C   UNL     1      93.686  88.065  85.057  1.00  0.00    -0.025 C 
ATOM     21  C   UNL     1      92.451  86.691  86.942  1.00  0.00     0.005 C 
ATOM     22  C   UNL     1      93.329  87.944  86.607  1.00  0.00     0.003 C 
ATOM     23  C   UNL     1      94.872  87.097  84.759  1.00  0.00     0.010 C 
ATOM     24  C   UNL     1      94.156  89.516  84.726  1.00  0.00     0.012 C 
ATOM     25  C   UNL     1      94.569  88.061  87.623  1.00  0.00    -0.006 C 
ATOM     26  C   UNL     1      96.095  87.250  85.683  1.00  0.00     0.033 C 
ATOM     27  C   UNL     1      95.748  87.129  87.186  1.00  0.00     0.120 C 
ATOM     28  C   UNL     1      94.139  87.698  89.081  1.00  0.00     0.014 C 
ATOM     29  C   UNL     1      95.090  89.532  87.738  1.00  0.00     0.014 C 
ENDROOT
BRANCH   1  30
ATOM     30  C   UNL     1      91.977  85.445  80.262  1.00  0.00     0.048 C 
ATOM     31  O   UNL     1      92.215  86.349  79.415  1.00  0.00    -0.550 OA
ATOM     32  O   UNL     1      93.053  84.709  80.754  1.00  0.00    -0.550 OA
ENDBRANCH   1  30
BRANCH  27  33
ATOM     33  O   UNL     1      95.542  85.788  87.580  1.00  0.00    -0.393 OA
ATOM     34  H   UNL     1      95.150  85.270  86.831  1.00  0.00     0.210 HD
ENDBRANCH  27  33
TORSDOF 2
ENDMDL
MODEL 4
REMARK VINA RESULT:    -6.818      2.700      7.945
REMARK INTER + INTRA:          -7.532
REMARK INTER:                  -7.464
REMARK INTRA:                  -0.068
REMARK UNBOUND:                -0.117
REMARK SMILES C[C@H]1[C@H](C)CC[C@]2(C(=O)[O-])CC[C@]3(C)C(=CC[C@H]4[C@]5(C)CC[C@H](O)C(C)(C)[C@@H]5CC[C@@]43C)[C@H]12
REMARK SMILES IDX 7 1 6 2 11 3 33 4 5 5 12 6 15 7 2 8 3 9 13 10 16 11 1 12
REMARK SMILES IDX 4 13 14 14 31 15 17 16 18 17 30 18 32 19 19 20 29 21 28 22
REMARK SMILES IDX 21 23 20 24 25 25 22 26 23 27 26 28 27 29 8 30 9 31 10 32
REMARK SMILES IDX 24 33
REMARK H PARENT 24 34
REMARK Flexibility Score: inf
ROOT
ATOM      1  C   UNL     1      96.825  87.052  80.422  1.00  0.00     0.017 C 
ATOM      2  C   UNL     1      96.256  87.056  78.972  1.00  0.00     0.014 C 
ATOM      3  C   UNL     1      97.931  85.966  80.556  1.00  0.00     0.014 C 
ATOM      4  C   UNL     1      95.686  86.791  81.466  1.00  0.00     0.030 C 
ATOM      5  C   UNL     1      95.338  85.871  78.661  1.00  0.00     0.004 C 
ATOM      6  C   UNL     1      98.520  85.838  81.984  1.00  0.00     0.013 C 
ATOM      7  C   UNL     1      96.309  86.658  82.866  1.00  0.00    -0.063 C 
ATOM      8  C   UNL     1      94.703  85.634  81.094  1.00  0.00    -0.003 C 
ATOM      9  C   UNL     1      94.164  85.822  79.650  1.00  0.00    -0.011 C 
ATOM     10  C   UNL     1      97.461  85.646  83.126  1.00  0.00    -0.006 C 
ATOM     11  C   UNL     1      95.985  87.624  83.759  1.00  0.00    -0.027 C 
ATOM     12  C   UNL     1      93.548  85.578  82.116  1.00  0.00     0.008 C 
ATOM     13  C   UNL     1      93.192  84.701  79.228  1.00  0.00     0.008 C 
ATOM     14  C   UNL     1      96.925  84.181  83.014  1.00  0.00     0.017 C 
ATOM     15  C   UNL     1      98.106  85.863  84.599  1.00  0.00    -0.020 C 
ATOM     16  C   UNL     1      96.815  87.995  84.953  1.00  0.00     0.032 C 
ATOM     17  C   UNL     1      98.245  87.394  84.885  1.00  0.00     0.006 C 
ATOM     18  C   UNL     1      99.523  85.247  84.685  1.00  0.00     0.008 C 
ATOM     19  C   UNL     1      97.189  85.185  85.677  1.00  0.00     0.012 C 
ATOM     20  C   UNL     1      99.312  87.849  86.023  1.00  0.00    -0.025 C 
ATOM     21  C   UNL     1     100.171  85.354  86.060  1.00  0.00     0.005 C 
ATOM     22  C   UNL     1      99.876  86.642  86.900  1.00  0.00     0.003 C 
ATOM     23  C   UNL     1     100.519  88.533  85.311  1.00  0.00     0.010 C 
ATOM     24  C   UNL     1      98.634  88.910  86.944  1.00  0.00     0.012 C 
ATOM     25  C   UNL     1     101.117  86.994  87.860  1.00  0.00    -0.006 C 
ATOM     26  C   UNL     1     101.683  88.939  86.233  1.00  0.00     0.033 C 
ATOM     27  C   UNL     1     102.233  87.767  87.081  1.00  0.00     0.120 C 
ATOM     28  C   UNL     1     101.730  85.700  88.487  1.00  0.00     0.014 C 
ATOM     29  C   UNL     1     100.672  87.841  89.098  1.00  0.00     0.014 C 
ENDROOT
BRANCH   1  30
ATOM     30  C   UNL     1      97.411  88.447  80.656  1.00  0.00     0.048 C 
ATOM     31  O   UNL     1      96.673  89.387  81.062  1.00  0.00    -0.550 OA
ATOM     32  O   UNL     1      98.734  88.745  80.334  1.00  0.00    -0.550 OA
ENDBRANCH   1  30
BRANCH  27  33
ATOM     33  O   UNL     1     103.054  86.901  86.325  1.00  0.00    -0.393 OA
ATOM     34  H   UNL     1     103.568  86.307  86.930  1.00  0.00     0.210 HD
ENDBRANCH  27  33
TORSDOF 2
ENDMDL
MODEL 5
REMARK VINA RESULT:    -6.803      2.709      4.391
REMARK INTER + INTRA:          -7.516
REMARK INTER:                  -7.765
REMARK INTRA:                   0.249
REMARK UNBOUND:                -0.117
REMARK SMILES C[C@H]1[C@H](C)CC[C@]2(C(=O)[O-])CC[C@]3(C)C(=CC[C@H]4[C@]5(C)CC[C@H](O)C(C)(C)[C@@H]5CC[C@@]43C)[C@H]12
REMARK SMILES IDX 7 1 6 2 11 3 33 4 5 5 12 6 15 7 2 8 3 9 13 10 16 11 1 12
REMARK SMILES IDX 4 13 14 14 31 15 17 16 18 17 30 18 32 19 19 20 29 21 28 22
REMARK SMILES IDX 21 23 20 24 25 25 22 26 23 27 26 28 27 29 8 30 9 31 10 32
REMARK SMILES IDX 24 33
REMARK H PARENT 24 34
REMARK Flexibility Score: inf
ROOT
ATOM      1  C   UNL     1      99.288  90.053  80.993  1.00  0.00     0.017 C 
ATOM      2  C   UNL     1     100.390  91.153  80.949  1.00  0.00     0.014 C 
ATOM      3  C   UNL     1      98.046  90.576  81.770  1.00  0.00     0.014 C 
ATOM      4  C   UNL     1      99.832  88.747  81.667  1.00  0.00     0.030 C 
ATOM      5  C   UNL     1     101.122  91.354  82.279  1.00  0.00     0.004 C 
ATOM      6  C   UNL     1      96.912  89.530  81.926  1.00  0.00     0.013 C 
ATOM      7  C   UNL     1      98.679  87.739  81.815  1.00  0.00    -0.063 C 
ATOM      8  C   UNL     1     100.651  88.972  82.979  1.00  0.00    -0.003 C 
ATOM      9  C   UNL     1     101.758  90.038  82.751  1.00  0.00    -0.011 C 
ATOM     10  C   UNL     1      97.357  88.150  82.525  1.00  0.00    -0.006 C 
ATOM     11  C   UNL     1      98.781  86.603  81.085  1.00  0.00    -0.027 C 
ATOM     12  C   UNL     1     101.256  87.636  83.456  1.00  0.00     0.008 C 
ATOM     13  C   UNL     1     102.594  90.306  84.019  1.00  0.00     0.008 C 
ATOM     14  C   UNL     1      97.614  88.372  84.051  1.00  0.00     0.017 C 
ATOM     15  C   UNL     1      96.218  87.009  82.340  1.00  0.00    -0.020 C 
ATOM     16  C   UNL     1      97.617  85.748  80.670  1.00  0.00     0.032 C 
ATOM     17  C   UNL     1      96.257  86.468  80.873  1.00  0.00     0.006 C 
ATOM     18  C   UNL     1      94.803  87.588  82.581  1.00  0.00     0.008 C 
ATOM     19  C   UNL     1      96.473  85.845  83.361  1.00  0.00     0.012 C 
ATOM     20  C   UNL     1      94.921  85.734  80.311  1.00  0.00    -0.025 C 
ATOM     21  C   UNL     1      93.681  86.560  82.489  1.00  0.00     0.005 C 
ATOM     22  C   UNL     1      93.837  85.412  81.436  1.00  0.00     0.003 C 
ATOM     23  C   UNL     1      94.258  86.673  79.258  1.00  0.00     0.010 C 
ATOM     24  C   UNL     1      95.346  84.420  79.584  1.00  0.00     0.012 C 
ATOM     25  C   UNL     1      92.400  84.925  80.906  1.00  0.00    -0.006 C 
ATOM     26  C   UNL     1      92.914  86.180  78.689  1.00  0.00     0.033 C 
ATOM     27  C   UNL     1      91.862  85.872  79.781  1.00  0.00     0.120 C 
ATOM     28  C   UNL     1      91.359  84.867  82.071  1.00  0.00     0.014 C 
ATOM     29  C   UNL     1      92.446  83.457  80.365  1.00  0.00     0.014 C 
ENDROOT
BRANCH   1  30
ATOM     30  C   UNL     1      98.924  89.753  79.537  1.00  0.00     0.048 C 
ATOM     31  O   UNL     1      99.745  90.001  78.611  1.00  0.00    -0.550 OA
ATOM     32  O   UNL     1      97.655  89.299  79.182  1.00  0.00    -0.550 OA
ENDBRANCH   1  30
BRANCH  27  33
ATOM     33  O   UNL     1      91.278  87.046  80.306  1.00  0.00    -0.393 OA
ATOM     34  H   UNL     1      90.422  86.827  80.756  1.00  0.00     0.210 HD
ENDBRANCH  27  33
TORSDOF 2
ENDMDL
MODEL 6
REMARK VINA RESULT:    -6.511      2.115      8.178
REMARK INTER + INTRA:          -7.199
REMARK INTER:                  -7.074
REMARK INTRA:                  -0.124
REMARK UNBOUND:                -0.117
REMARK SMILES C[C@H]1[C@H](C)CC[C@]2(C(=O)[O-])CC[C@]3(C)C(=CC[C@H]4[C@]5(C)CC[C@H](O)C(C)(C)[C@@H]5CC[C@@]43C)[C@H]12
REMARK SMILES IDX 7 1 6 2 11 3 33 4 5 5 12 6 15 7 2 8 3 9 13 10 16 11 1 12
REMARK SMILES IDX 4 13 14 14 31 15 17 16 18 17 30 18 32 19 19 20 29 21 28 22
REMARK SMILES IDX 21 23 20 24 25 25 22 26 23 27 26 28 27 29 8 30 9 31 10 32
REMARK SMILES IDX 24 33
REMARK H PARENT 24 34
REMARK Flexibility Score: inf
ROOT
ATOM      1  C   UNL     1      95.389  86.582  83.788  1.00  0.00     0.017 C 
ATOM      2  C   UNL     1      93.923  86.086  83.965  1.00  0.00     0.014 C 
ATOM      3  C   UNL     1      95.437  88.135  83.857  1.00  0.00     0.014 C 
ATOM      4  C   UNL     1      95.984  86.086  82.426  1.00  0.00     0.030 C 
ATOM      5  C   UNL     1      93.037  86.316  82.738  1.00  0.00     0.004 C 
ATOM      6  C   UNL     1      96.848  88.735  83.628  1.00  0.00     0.013 C 
ATOM      7  C   UNL     1      97.376  86.709  82.229  1.00  0.00    -0.063 C 
ATOM      8  C   UNL     1      95.035  86.247  81.194  1.00  0.00    -0.003 C 
ATOM      9  C   UNL     1      93.641  85.637  81.500  1.00  0.00    -0.011 C 
ATOM     10  C   UNL     1      97.575  88.250  82.325  1.00  0.00    -0.006 C 
ATOM     11  C   UNL     1      98.422  85.848  82.229  1.00  0.00    -0.027 C 
ATOM     12  C   UNL     1      95.671  85.587  79.952  1.00  0.00     0.008 C 
ATOM     13  C   UNL     1      92.659  85.774  80.317  1.00  0.00     0.008 C 
ATOM     14  C   UNL     1      96.875  88.956  81.118  1.00  0.00     0.017 C 
ATOM     15  C   UNL     1      99.150  88.635  82.325  1.00  0.00    -0.020 C 
ATOM     16  C   UNL     1      99.838  86.225  82.560  1.00  0.00     0.032 C 
ATOM     17  C   UNL     1      99.933  87.625  83.225  1.00  0.00     0.006 C 
ATOM     18  C   UNL     1      99.379  90.049  82.911  1.00  0.00     0.008 C 
ATOM     19  C   UNL     1      99.698  88.598  80.854  1.00  0.00     0.012 C 
ATOM     20  C   UNL     1     101.381  88.095  83.793  1.00  0.00    -0.025 C 
ATOM     21  C   UNL     1     100.832  90.512  82.885  1.00  0.00     0.005 C 
ATOM     22  C   UNL     1     101.939  89.429  83.119  1.00  0.00     0.003 C 
ATOM     23  C   UNL     1     101.242  88.351  85.325  1.00  0.00     0.010 C 
ATOM     24  C   UNL     1     102.396  86.927  83.592  1.00  0.00     0.012 C 
ATOM     25  C   UNL     1     103.233  90.079  83.817  1.00  0.00    -0.006 C 
ATOM     26  C   UNL     1     102.500  88.906  86.017  1.00  0.00     0.033 C 
ATOM     27  C   UNL     1     103.038  90.202  85.365  1.00  0.00     0.120 C 
ATOM     28  C   UNL     1     103.545  91.490  83.223  1.00  0.00     0.014 C 
ATOM     29  C   UNL     1     104.528  89.250  83.525  1.00  0.00     0.014 C 
ENDROOT
BRANCH   1  30
ATOM     30  C   UNL     1      96.191  85.968  84.940  1.00  0.00     0.048 C 
ATOM     31  O   UNL     1      96.518  84.750  84.909  1.00  0.00    -0.550 OA
ATOM     32  O   UNL     1      96.491  86.698  86.088  1.00  0.00    -0.550 OA
ENDBRANCH   1  30
BRANCH  27  33
ATOM     33  O   UNL     1     102.271  91.335  85.717  1.00  0.00    -0.393 OA
ATOM     34  H   UNL     1     102.759  91.880  86.387  1.00  0.00     0.210 HD
ENDBRANCH  27  33
TORSDOF 2
ENDMDL
MODEL 7
REMARK VINA RESULT:    -6.501      3.377      5.161
REMARK INTER + INTRA:          -7.188
REMARK INTER:                  -7.120
REMARK INTRA:                  -0.068
REMARK UNBOUND:                -0.117
REMARK SMILES C[C@H]1[C@H](C)CC[C@]2(C(=O)[O-])CC[C@]3(C)C(=CC[C@H]4[C@]5(C)CC[C@H](O)C(C)(C)[C@@H]5CC[C@@]43C)[C@H]12
REMARK SMILES IDX 7 1 6 2 11 3 33 4 5 5 12 6 15 7 2 8 3 9 13 10 16 11 1 12
REMARK SMILES IDX 4 13 14 14 31 15 17 16 18 17 30 18 32 19 19 20 29 21 28 22
REMARK SMILES IDX 21 23 20 24 25 25 22 26 23 27 26 28 27 29 8 30 9 31 10 32
REMARK SMILES IDX 24 33
REMARK H PARENT 24 34
REMARK Flexibility Score: inf
ROOT
ATOM      1  C   UNL     1      98.091  85.248  82.976  1.00  0.00     0.017 C 
ATOM      2  C   UNL     1      98.533  83.763  82.811  1.00  0.00     0.014 C 
ATOM      3  C   UNL     1      97.651  85.827  81.601  1.00  0.00     0.014 C 
ATOM      4  C   UNL     1      99.254  86.111  83.575  1.00  0.00     0.030 C 
ATOM      5  C   UNL     1      99.896  83.592  82.134  1.00  0.00     0.004 C 
ATOM      6  C   UNL     1      97.251  87.325  81.647  1.00  0.00     0.013 C 
ATOM      7  C   UNL     1      98.826  87.588  83.593  1.00  0.00    -0.063 C 
ATOM      8  C   UNL     1     100.657  85.864  82.933  1.00  0.00    -0.003 C 
ATOM      9  C   UNL     1     100.985  84.346  82.911  1.00  0.00    -0.011 C 
ATOM     10  C   UNL     1      98.313  88.279  82.297  1.00  0.00    -0.006 C 
ATOM     11  C   UNL     1      98.678  88.153  84.815  1.00  0.00    -0.027 C 
ATOM     12  C   UNL     1     101.735  86.653  83.706  1.00  0.00     0.008 C 
ATOM     13  C   UNL     1     102.360  84.043  82.280  1.00  0.00     0.008 C 
ATOM     14  C   UNL     1      99.483  88.430  81.271  1.00  0.00     0.017 C 
ATOM     15  C   UNL     1      97.699  89.745  82.621  1.00  0.00    -0.020 C 
ATOM     16  C   UNL     1      97.817  89.349  85.104  1.00  0.00     0.032 C 
ATOM     17  C   UNL     1      96.851  89.675  83.934  1.00  0.00     0.006 C 
ATOM     18  C   UNL     1      96.757  90.220  81.489  1.00  0.00     0.008 C 
ATOM     19  C   UNL     1      98.869  90.779  82.778  1.00  0.00     0.012 C 
ATOM     20  C   UNL     1      95.741  90.838  84.170  1.00  0.00    -0.025 C 
ATOM     21  C   UNL     1      96.190  91.620  81.689  1.00  0.00     0.005 C 
ATOM     22  C   UNL     1      95.860  92.062  83.155  1.00  0.00     0.003 C 
ATOM     23  C   UNL     1      94.328  90.202  83.994  1.00  0.00     0.010 C 
ATOM     24  C   UNL     1      95.859  91.345  85.640  1.00  0.00     0.012 C 
ATOM     25  C   UNL     1      94.641  93.109  83.174  1.00  0.00    -0.006 C 
ATOM     26  C   UNL     1      93.147  91.186  84.082  1.00  0.00     0.033 C 
ATOM     27  C   UNL     1      93.262  92.372  83.095  1.00  0.00     0.120 C 
ATOM     28  C   UNL     1      94.750  94.124  81.991  1.00  0.00     0.014 C 
ATOM     29  C   UNL     1      94.669  94.012  84.452  1.00  0.00     0.014 C 
ENDROOT
BRANCH   1  30
ATOM     30  C   UNL     1      96.916  85.238  83.957  1.00  0.00     0.048 C 
ATOM     31  O   UNL     1      97.085  84.860  85.149  1.00  0.00    -0.550 OA
ATOM     32  O   UNL     1      95.621  85.544  83.545  1.00  0.00    -0.550 OA
ENDBRANCH   1  30
BRANCH  27  33
ATOM     33  O   UNL     1      92.931  92.000  81.773  1.00  0.00    -0.393 OA
ATOM     34  H   UNL     1      93.032  92.778  81.166  1.00  0.00     0.210 HD
ENDBRANCH  27  33
TORSDOF 2
ENDMDL
MODEL 8
REMARK VINA RESULT:    -6.465      4.121      6.194
REMARK INTER + INTRA:          -7.149
REMARK INTER:                  -7.025
REMARK INTRA:                  -0.124
REMARK UNBOUND:                -0.117
REMARK SMILES C[C@H]1[C@H](C)CC[C@]2(C(=O)[O-])CC[C@]3(C)C(=CC[C@H]4[C@]5(C)CC[C@H](O)C(C)(C)[C@@H]5CC[C@@]43C)[C@H]12
REMARK SMILES IDX 7 1 6 2 11 3 33 4 5 5 12 6 15 7 2 8 3 9 13 10 16 11 1 12
REMARK SMILES IDX 4 13 14 14 31 15 17 16 18 17 30 18 32 19 19 20 29 21 28 22
REMARK SMILES IDX 21 23 20 24 25 25 22 26 23 27 26 28 27 29 8 30 9 31 10 32
REMARK SMILES IDX 24 33
REMARK H PARENT 24 34
REMARK Flexibility Score: inf
ROOT
ATOM      1  C   UNL     1      91.855  86.879  85.714  1.00  0.00     0.017 C 
ATOM      2  C   UNL     1      92.704  87.076  87.006  1.00  0.00     0.014 C 
ATOM      3  C   UNL     1      91.937  85.398  85.246  1.00  0.00     0.014 C 
ATOM      4  C   UNL     1      92.349  87.832  84.573  1.00  0.00     0.030 C 
ATOM      5  C   UNL     1      94.216  87.081  86.761  1.00  0.00     0.004 C 
ATOM      6  C   UNL     1      91.173  85.110  83.927  1.00  0.00     0.013 C 
ATOM      7  C   UNL     1      91.579  87.509  83.280  1.00  0.00    -0.063 C 
ATOM      8  C   UNL     1      93.900  87.894  84.390  1.00  0.00    -0.003 C 
ATOM      9  C   UNL     1      94.597  88.173  85.749  1.00  0.00    -0.011 C 
ATOM     10  C   UNL     1      91.535  86.055  82.729  1.00  0.00    -0.006 C 
ATOM     11  C   UNL     1      90.757  88.480  82.817  1.00  0.00    -0.027 C 
ATOM     12  C   UNL     1      94.264  88.972  83.348  1.00  0.00     0.008 C 
ATOM     13  C   UNL     1      96.133  88.238  85.628  1.00  0.00     0.008 C 
ATOM     14  C   UNL     1      92.951  85.631  82.220  1.00  0.00     0.017 C 
ATOM     15  C   UNL     1      90.472  85.927  81.509  1.00  0.00    -0.020 C 
ATOM     16  C   UNL     1      89.572  88.241  81.925  1.00  0.00     0.032 C 
ATOM     17  C   UNL     1      89.182  86.740  81.856  1.00  0.00     0.006 C 
ATOM     18  C   UNL     1      90.046  84.456  81.291  1.00  0.00     0.008 C 
ATOM     19  C   UNL     1      91.124  86.471  80.189  1.00  0.00     0.012 C 
ATOM     20  C   UNL     1      87.817  86.348  81.067  1.00  0.00    -0.025 C 
ATOM     21  C   UNL     1      89.097  84.245  80.118  1.00  0.00     0.005 C 
ATOM     22  C   UNL     1      88.043  85.367  79.830  1.00  0.00     0.003 C 
ATOM     23  C   UNL     1      86.859  85.642  82.074  1.00  0.00     0.010 C 
ATOM     24  C   UNL     1      87.126  87.663  80.589  1.00  0.00     0.012 C 
ATOM     25  C   UNL     1      86.712  84.745  79.177  1.00  0.00    -0.006 C 
ATOM     26  C   UNL     1      85.548  85.106  81.472  1.00  0.00     0.033 C 
ATOM     27  C   UNL     1      85.768  84.151  80.275  1.00  0.00     0.120 C 
ATOM     28  C   UNL     1      87.062  83.629  78.139  1.00  0.00     0.014 C 
ATOM     29  C   UNL     1      85.925  85.807  78.340  1.00  0.00     0.014 C 
ENDROOT
BRANCH   1  30
ATOM     30  C   UNL     1      90.416  87.247  86.088  1.00  0.00     0.048 C 
ATOM     31  O   UNL     1      90.081  88.457  86.214  1.00  0.00    -0.550 OA
ATOM     32  O   UNL     1      89.472  86.269  86.396  1.00  0.00    -0.550 OA
ENDBRANCH   1  30
BRANCH  27  33
ATOM     33  O   UNL     1      86.175  82.862  80.688  1.00  0.00    -0.393 OA
ATOM     34  H   UNL     1      85.753  82.173  80.113  1.00  0.00     0.210 HD
ENDBRANCH  27  33
TORSDOF 2
ENDMDL
MODEL 9
REMARK VINA RESULT:    -6.371      2.843      8.069
REMARK INTER + INTRA:          -7.046
REMARK INTER:                  -6.924
REMARK INTRA:                  -0.123
REMARK UNBOUND:                -0.117
REMARK SMILES C[C@H]1[C@H](C)CC[C@]2(C(=O)[O-])CC[C@]3(C)C(=CC[C@H]4[C@]5(C)CC[C@H](O)C(C)(C)[C@@H]5CC[C@@]43C)[C@H]12
REMARK SMILES IDX 7 1 6 2 11 3 33 4 5 5 12 6 15 7 2 8 3 9 13 10 16 11 1 12
REMARK SMILES IDX 4 13 14 14 31 15 17 16 18 17 30 18 32 19 19 20 29 21 28 22
REMARK SMILES IDX 21 23 20 24 25 25 22 26 23 27 26 28 27 29 8 30 9 31 10 32
REMARK SMILES IDX 24 33
REMARK H PARENT 24 34
REMARK Flexibility Score: inf
ROOT
ATOM      1  C   UNL     1      90.138  86.702  83.685  1.00  0.00     0.017 C 
ATOM      2  C   UNL     1      88.581  86.659  83.666  1.00  0.00     0.014 C 
ATOM      3  C   UNL     1      90.693  85.485  84.480  1.00  0.00     0.014 C 
ATOM      4  C   UNL     1      90.651  88.039  84.321  1.00  0.00     0.030 C 
ATOM      5  C   UNL     1      87.933  87.044  84.999  1.00  0.00     0.004 C 
ATOM      6  C   UNL     1      92.238  85.469  84.611  1.00  0.00     0.013 C 
ATOM      7  C   UNL     1      92.183  87.981  84.446  1.00  0.00    -0.063 C 
ATOM      8  C   UNL     1      89.922  88.466  85.636  1.00  0.00    -0.003 C 
ATOM      9  C   UNL     1      88.382  88.447  85.434  1.00  0.00    -0.011 C 
ATOM     10  C   UNL     1      92.873  86.790  85.172  1.00  0.00    -0.006 C 
ATOM     11  C   UNL     1      92.878  88.860  83.686  1.00  0.00    -0.027 C 
ATOM     12  C   UNL     1      90.407  89.863  86.076  1.00  0.00     0.008 C 
ATOM     13  C   UNL     1      87.610  88.856  86.705  1.00  0.00     0.008 C 
ATOM     14  C   UNL     1      92.557  86.838  86.702  1.00  0.00     0.017 C 
ATOM     15  C   UNL     1      94.481  86.832  84.960  1.00  0.00    -0.020 C 
ATOM     16  C   UNL     1      94.304  88.673  83.253  1.00  0.00     0.032 C 
ATOM     17  C   UNL     1      94.801  87.220  83.480  1.00  0.00     0.006 C 
ATOM     18  C   UNL     1      95.115  85.445  85.222  1.00  0.00     0.008 C 
ATOM     19  C   UNL     1      95.111  87.875  85.950  1.00  0.00     0.012 C 
ATOM     20  C   UNL     1      96.267  86.823  82.903  1.00  0.00    -0.025 C 
ATOM     21  C   UNL     1      96.635  85.418  85.107  1.00  0.00     0.005 C 
ATOM     22  C   UNL     1      97.293  86.336  84.023  1.00  0.00     0.003 C 
ATOM     23  C   UNL     1      96.087  85.662  81.877  1.00  0.00     0.010 C 
ATOM     24  C   UNL     1      96.850  88.053  82.140  1.00  0.00     0.012 C 
ATOM     25  C   UNL     1      98.664  85.690  83.485  1.00  0.00    -0.006 C 
ATOM     26  C   UNL     1      97.393  85.085  81.301  1.00  0.00     0.033 C 
ATOM     27  C   UNL     1      98.386  84.609  82.388  1.00  0.00     0.120 C 
ATOM     28  C   UNL     1      99.479  85.043  84.651  1.00  0.00     0.014 C 
ATOM     29  C   UNL     1      99.630  86.777  82.905  1.00  0.00     0.014 C 
ENDROOT
BRANCH   1  30
ATOM     30  C   UNL     1      90.586  86.638  82.222  1.00  0.00     0.048 C 
ATOM     31  O   UNL     1      90.521  87.664  81.491  1.00  0.00    -0.550 OA
ATOM     32  O   UNL     1      90.976  85.437  81.632  1.00  0.00    -0.550 OA
ENDBRANCH   1  30
BRANCH  27  33
ATOM     33  O   UNL     1      98.012  83.366  82.946  1.00  0.00    -0.393 OA
ATOM     34  H   UNL     1      98.498  82.631  82.491  1.00  0.00     0.210 HD
ENDBRANCH  27  33
TORSDOF 2
ENDMDL
