MODEL 1
REMARK VINA RESULT:     0.896      0.000      0.000
REMARK INTER + INTRA:           0.789
REMARK INTER:                   1.053
REMARK INTRA:                  -0.263
REMARK UNBOUND:                -0.263
REMARK SMILES O=c1cc(-c2ccc(O)c(O)c2)oc2cc(O)cc(O)c12
REMARK SMILES IDX 4 1 3 2 2 3 1 4 21 5 19 6 18 7 16 8 15 9 14 10 13 11 5 12
REMARK SMILES IDX 6 13 7 14 8 15 12 16 10 17 9 18 11 20 20 22 17 24
REMARK H PARENT 9 19 11 21 20 23 17 25
REMARK Flexibility Score: inf
ROOT
ATOM      1  C   UNL     1       8.425  16.777  38.008  1.00  0.00     0.138 A 
ATOM      2  C   UNL     1       8.700  15.660  38.807  1.00  0.00     0.100 A 
ATOM      3  C   UNL     1       8.557  15.750  40.192  1.00  0.00     0.197 A 
ATOM      4  O   UNL     1       8.871  14.750  40.888  1.00  0.00    -0.289 OA
ATOM      5  C   UNL     1       8.107  16.959  40.776  1.00  0.00     0.107 A 
ATOM      6  C   UNL     1       7.886  17.154  42.172  1.00  0.00     0.134 A 
ATOM      7  C   UNL     1       7.551  18.428  42.646  1.00  0.00     0.093 A 
ATOM      8  C   UNL     1       7.370  19.499  41.767  1.00  0.00     0.123 A 
ATOM      9  C   UNL     1       7.532  19.306  40.397  1.00  0.00     0.094 A 
ATOM     10  C   UNL     1       7.899  18.055  39.897  1.00  0.00     0.146 A 
ATOM     11  O   UNL     1       8.056  17.916  38.585  1.00  0.00    -0.456 OA
ENDROOT
BRANCH   1  12
ATOM     12  C   UNL     1       8.560  16.735  36.529  1.00  0.00     0.021 A 
ATOM     13  C   UNL     1       9.770  17.060  35.888  1.00  0.00     0.016 A 
ATOM     14  C   UNL     1       9.872  17.002  34.496  1.00  0.00     0.051 A 
ATOM     15  C   UNL     1       8.772  16.610  33.721  1.00  0.00     0.157 A 
ATOM     16  C   UNL     1       7.465  16.329  35.745  1.00  0.00     0.062 A 
ATOM     17  C   UNL     1       7.564  16.271  34.350  1.00  0.00     0.158 A 
BRANCH  15  18
ATOM     18  O   UNL     1       8.878  16.555  32.332  1.00  0.00    -0.504 OA
ATOM     19  H   UNL     1       8.911  17.396  31.768  1.00  0.00     0.293 HD
ENDBRANCH  15  18
BRANCH  17  20
ATOM     20  O   UNL     1       6.453  15.873  33.608  1.00  0.00    -0.504 OA
ATOM     21  H   UNL     1       5.973  14.998  33.785  1.00  0.00     0.293 HD
ENDBRANCH  17  20
ENDBRANCH   1  12
BRANCH   6  22
ATOM     22  O   UNL     1       7.956  16.133  43.125  1.00  0.00    -0.507 OA
ATOM     23  H   UNL     1       8.811  15.719  43.464  1.00  0.00     0.293 HD
ENDBRANCH   6  22
BRANCH   8  24
ATOM     24  O   UNL     1       7.022  20.761  42.247  1.00  0.00    -0.508 OA
ATOM     25  H   UNL     1       6.472  20.874  43.090  1.00  0.00     0.293 HD
ENDBRANCH   8  24
TORSDOF 5
ENDMDL
MODEL 2
REMARK VINA RESULT:     2.938      1.187      2.703
REMARK INTER + INTRA:           3.189
REMARK INTER:                   3.457
REMARK INTRA:                  -0.268
REMARK UNBOUND:                -0.263
REMARK SMILES O=c1cc(-c2ccc(O)c(O)c2)oc2cc(O)cc(O)c12
REMARK SMILES IDX 4 1 3 2 2 3 1 4 21 5 19 6 18 7 16 8 15 9 14 10 13 11 5 12
REMARK SMILES IDX 6 13 7 14 8 15 12 16 10 17 9 18 11 20 20 22 17 24
REMARK H PARENT 9 19 11 21 20 23 17 25
REMARK Flexibility Score: inf
ROOT
ATOM      1  C   UNL     1       8.266  17.337  38.195  1.00  0.00     0.138 A 
ATOM      2  C   UNL     1       7.951  18.584  38.750  1.00  0.00     0.100 A 
ATOM      3  C   UNL     1       7.700  18.687  40.119  1.00  0.00     0.197 A 
ATOM      4  O   UNL     1       7.358  19.807  40.579  1.00  0.00    -0.289 OA
ATOM      5  C   UNL     1       7.797  17.537  40.940  1.00  0.00     0.107 A 
ATOM      6  C   UNL     1       7.603  17.529  42.354  1.00  0.00     0.134 A 
ATOM      7  C   UNL     1       7.610  16.311  43.045  1.00  0.00     0.093 A 
ATOM      8  C   UNL     1       7.863  15.108  42.381  1.00  0.00     0.123 A 
ATOM      9  C   UNL     1       8.107  15.111  41.010  1.00  0.00     0.094 A 
ATOM     10  C   UNL     1       8.073  16.306  40.287  1.00  0.00     0.146 A 
ATOM     11  O   UNL     1       8.296  16.264  38.978  1.00  0.00    -0.456 OA
ENDROOT
BRANCH   1  12
ATOM     12  C   UNL     1       8.542  17.172  36.744  1.00  0.00     0.021 A 
ATOM     13  C   UNL     1       9.779  17.536  36.181  1.00  0.00     0.016 A 
ATOM     14  C   UNL     1      10.015  17.360  34.816  1.00  0.00     0.051 A 
ATOM     15  C   UNL     1       9.025  16.810  33.991  1.00  0.00     0.157 A 
ATOM     16  C   UNL     1       7.558  16.608  35.913  1.00  0.00     0.062 A 
ATOM     17  C   UNL     1       7.791  16.432  34.544  1.00  0.00     0.158 A 
BRANCH  15  18
ATOM     18  O   UNL     1       9.264  16.638  32.628  1.00  0.00    -0.504 OA
ATOM     19  H   UNL     1       9.133  17.394  31.967  1.00  0.00     0.293 HD
ENDBRANCH  15  18
BRANCH  17  20
ATOM     20  O   UNL     1       6.787  15.878  33.752  1.00  0.00    -0.504 OA
ATOM     21  H   UNL     1       6.143  15.180  34.108  1.00  0.00     0.293 HD
ENDBRANCH  17  20
ENDBRANCH   1  12
BRANCH   6  22
ATOM     22  O   UNL     1       7.427  18.683  43.125  1.00  0.00    -0.507 OA
ATOM     23  H   UNL     1       7.477  18.716  44.131  1.00  0.00     0.293 HD
ENDBRANCH   6  22
BRANCH   8  24
ATOM     24  O   UNL     1       7.883  13.902  43.079  1.00  0.00    -0.508 OA
ATOM     25  H   UNL     1       8.665  13.262  43.010  1.00  0.00     0.293 HD
ENDBRANCH   8  24
TORSDOF 5
ENDMDL
