MODEL 1
REMARK VINA RESULT:    -5.922      0.000      0.000
REMARK INTER + INTRA:         -13.641
REMARK INTER:                 -11.116
REMARK INTRA:                  -2.526
REMARK UNBOUND:                -2.526
REMARK SMILES CCCCCCCCC=CCCCCCCCC(=O)[O-]
REMARK SMILES IDX 10 1 9 2 11 3 12 4 13 5 14 6 15 7 16 8 17 9 18 10 19 11
REMARK SMILES IDX 20 12 8 13 7 14 6 15 5 16 4 17 3 18 2 19 1 20
REMARK H PARENT
REMARK Flexibility Score: inf
ROOT
ATOM      1  C   UNL     1       9.642 -12.679  -3.535  1.00  0.00    -0.031 C 
ATOM      2  C   UNL     1       9.033 -11.525  -3.200  1.00  0.00    -0.031 C 
ENDROOT
BRANCH   1   3
ATOM      3  C   UNL     1       8.989 -13.813  -4.287  1.00  0.00     0.027 C 
BRANCH   3   4
ATOM      4  C   UNL     1       9.499 -13.919  -5.734  1.00  0.00     0.004 C 
BRANCH   4   5
ATOM      5  C   UNL     1       8.877 -12.846  -6.642  1.00  0.00     0.000 C 
BRANCH   5   6
ATOM      6  C   UNL     1       9.926 -12.085  -7.474  1.00  0.00     0.000 C 
BRANCH   6   7
ATOM      7  C   UNL     1      11.386 -12.274  -7.023  1.00  0.00     0.000 C 
BRANCH   7   8
ATOM      8  C   UNL     1      11.877 -11.287  -5.945  1.00  0.00     0.006 C 
BRANCH   8   9
ATOM      9  C   UNL     1      13.210 -11.691  -5.289  1.00  0.00     0.053 C 
BRANCH   9  10
ATOM     10  C   UNL     1      13.025 -12.681  -4.179  1.00  0.00     0.041 C 
ATOM     11  O   UNL     1      13.084 -12.307  -2.979  1.00  0.00    -0.550 OA
ATOM     12  O   UNL     1      12.751 -14.011  -4.471  1.00  0.00    -0.550 OA
ENDBRANCH   9  10
ENDBRANCH   8   9
ENDBRANCH   7   8
ENDBRANCH   6   7
ENDBRANCH   5   6
ENDBRANCH   4   5
ENDBRANCH   3   4
ENDBRANCH   1   3
BRANCH   2  13
ATOM     13  C   UNL     1       7.615 -11.150  -3.563  1.00  0.00     0.027 C 
BRANCH  13  14
ATOM     14  C   UNL     1       6.883 -10.511  -2.373  1.00  0.00     0.004 C 
BRANCH  14  15
ATOM     15  C   UNL     1       7.033 -11.300  -1.059  1.00  0.00     0.000 C 
BRANCH  15  16
ATOM     16  C   UNL     1       6.289 -12.647  -1.098  1.00  0.00     0.000 C 
BRANCH  16  17
ATOM     17  C   UNL     1       7.238 -13.851  -0.985  1.00  0.00    -0.000 C 
BRANCH  17  18
ATOM     18  C   UNL     1       8.071 -13.830   0.307  1.00  0.00    -0.000 C 
BRANCH  18  19
ATOM     19  C   UNL     1       9.584 -13.811   0.031  1.00  0.00    -0.003 C 
ATOM     20  C   UNL     1      10.279 -12.584   0.622  1.00  0.00     0.004 C 
ENDBRANCH  18  19
ENDBRANCH  17  18
ENDBRANCH  16  17
ENDBRANCH  15  16
ENDBRANCH  14  15
ENDBRANCH  13  14
ENDBRANCH   2  13
TORSDOF 15
ENDMDL
MODEL 2
REMARK VINA RESULT:    -5.902      2.594      5.699
REMARK INTER + INTRA:         -13.604
REMARK INTER:                 -11.348
REMARK INTRA:                  -2.256
REMARK UNBOUND:                -2.526
REMARK SMILES CCCCCCCCC=CCCCCCCCC(=O)[O-]
REMARK SMILES IDX 10 1 9 2 11 3 12 4 13 5 14 6 15 7 16 8 17 9 18 10 19 11
REMARK SMILES IDX 20 12 8 13 7 14 6 15 5 16 4 17 3 18 2 19 1 20
REMARK H PARENT
REMARK Flexibility Score: inf
ROOT
ATOM      1  C   UNL     1       9.216 -12.300  -7.212  1.00  0.00    -0.031 C 
ATOM      2  C   UNL     1      10.451 -12.076  -7.702  1.00  0.00    -0.031 C 
ENDROOT
BRANCH   1   3
ATOM      3  C   UNL     1       8.917 -12.975  -5.896  1.00  0.00     0.027 C 
BRANCH   3   4
ATOM      4  C   UNL     1       8.319 -12.002  -4.868  1.00  0.00     0.004 C 
BRANCH   4   5
ATOM      5  C   UNL     1       9.300 -11.700  -3.723  1.00  0.00     0.000 C 
BRANCH   5   6
ATOM      6  C   UNL     1       8.728 -12.045  -2.336  1.00  0.00     0.000 C 
BRANCH   6   7
ATOM      7  C   UNL     1       8.449 -13.540  -2.095  1.00  0.00     0.000 C 
BRANCH   7   8
ATOM      8  C   UNL     1       7.406 -13.849  -1.002  1.00  0.00     0.006 C 
BRANCH   8   9
ATOM      9  C   UNL     1       7.963 -14.659   0.183  1.00  0.00     0.053 C 
BRANCH   9  10
ATOM     10  C   UNL     1       8.272 -13.798   1.370  1.00  0.00     0.041 C 
ATOM     11  O   UNL     1       7.382 -13.556   2.226  1.00  0.00    -0.550 OA
ATOM     12  O   UNL     1       9.553 -13.292   1.550  1.00  0.00    -0.550 OA
ENDBRANCH   9  10
ENDBRANCH   8   9
ENDBRANCH   7   8
ENDBRANCH   6   7
ENDBRANCH   5   6
ENDBRANCH   4   5
ENDBRANCH   3   4
ENDBRANCH   1   3
BRANCH   2  13
ATOM     13  C   UNL     1      11.743 -12.416  -6.996  1.00  0.00     0.027 C 
BRANCH  13  14
ATOM     14  C   UNL     1      12.188 -11.279  -6.064  1.00  0.00     0.004 C 
BRANCH  14  15
ATOM     15  C   UNL     1      12.903 -11.768  -4.791  1.00  0.00     0.000 C 
BRANCH  15  16
ATOM     16  C   UNL     1      12.476 -13.192  -4.391  1.00  0.00     0.000 C 
BRANCH  16  17
ATOM     17  C   UNL     1      13.077 -13.635  -3.048  1.00  0.00    -0.000 C 
BRANCH  17  18
ATOM     18  C   UNL     1      12.020 -13.761  -1.938  1.00  0.00    -0.000 C 
BRANCH  18  19
ATOM     19  C   UNL     1      12.165 -12.672  -0.862  1.00  0.00    -0.003 C 
ATOM     20  C   UNL     1      13.598 -12.155  -0.731  1.00  0.00     0.004 C 
ENDBRANCH  18  19
ENDBRANCH  17  18
ENDBRANCH  16  17
ENDBRANCH  15  16
ENDBRANCH  14  15
ENDBRANCH  13  14
ENDBRANCH   2  13
TORSDOF 15
ENDMDL
MODEL 3
REMARK VINA RESULT:    -5.898      2.377      5.819
REMARK INTER + INTRA:         -13.596
REMARK INTER:                 -11.255
REMARK INTRA:                  -2.341
REMARK UNBOUND:                -2.526
REMARK SMILES CCCCCCCCC=CCCCCCCCC(=O)[O-]
REMARK SMILES IDX 10 1 9 2 11 3 12 4 13 5 14 6 15 7 16 8 17 9 18 10 19 11
REMARK SMILES IDX 20 12 8 13 7 14 6 15 5 16 4 17 3 18 2 19 1 20
REMARK H PARENT
REMARK Flexibility Score: inf
ROOT
ATOM      1  C   UNL     1       9.068 -13.258  -4.603  1.00  0.00    -0.031 C 
ATOM      2  C   UNL     1       9.470 -13.458  -5.873  1.00  0.00    -0.031 C 
ENDROOT
BRANCH   1   3
ATOM      3  C   UNL     1       9.000 -11.913  -3.921  1.00  0.00     0.027 C 
BRANCH   3   4
ATOM      4  C   UNL     1       7.589 -11.306  -3.975  1.00  0.00     0.004 C 
BRANCH   4   5
ATOM      5  C   UNL     1       7.281 -10.457  -2.730  1.00  0.00     0.000 C 
BRANCH   5   6
ATOM      6  C   UNL     1       7.446 -11.240  -1.415  1.00  0.00     0.000 C 
BRANCH   6   7
ATOM      7  C   UNL     1       6.602 -12.523  -1.306  1.00  0.00     0.000 C 
BRANCH   7   8
ATOM      8  C   UNL     1       7.386 -13.801  -0.946  1.00  0.00     0.006 C 
BRANCH   8   9
ATOM      9  C   UNL     1       8.799 -13.533  -0.396  1.00  0.00     0.053 C 
BRANCH   9  10
ATOM     10  C   UNL     1       8.827 -13.467   1.101  1.00  0.00     0.041 C 
ATOM     11  O   UNL     1       9.850 -13.042   1.698  1.00  0.00    -0.550 OA
ATOM     12  O   UNL     1       7.710 -13.842   1.836  1.00  0.00    -0.550 OA
ENDBRANCH   9  10
ENDBRANCH   8   9
ENDBRANCH   7   8
ENDBRANCH   6   7
ENDBRANCH   5   6
ENDBRANCH   4   5
ENDBRANCH   3   4
ENDBRANCH   1   3
BRANCH   2  13
ATOM     13  C   UNL     1       9.871 -12.371  -6.842  1.00  0.00     0.027 C 
BRANCH  13  14
ATOM     14  C   UNL     1      11.399 -12.255  -6.953  1.00  0.00     0.004 C 
BRANCH  14  15
ATOM     15  C   UNL     1      12.013 -11.235  -5.976  1.00  0.00     0.000 C 
BRANCH  15  16
ATOM     16  C   UNL     1      13.155 -11.840  -5.140  1.00  0.00     0.000 C 
BRANCH  16  17
ATOM     17  C   UNL     1      12.687 -12.316  -3.755  1.00  0.00    -0.000 C 
BRANCH  17  18
ATOM     18  C   UNL     1      12.919 -13.821  -3.537  1.00  0.00    -0.000 C 
BRANCH  18  19
ATOM     19  C   UNL     1      11.756 -14.492  -2.788  1.00  0.00    -0.003 C 
ATOM     20  C   UNL     1      12.217 -15.280  -1.561  1.00  0.00     0.004 C 
ENDBRANCH  18  19
ENDBRANCH  17  18
ENDBRANCH  16  17
ENDBRANCH  15  16
ENDBRANCH  14  15
ENDBRANCH  13  14
ENDBRANCH   2  13
TORSDOF 15
ENDMDL
MODEL 4
REMARK VINA RESULT:    -5.885      1.193      2.388
REMARK INTER + INTRA:         -13.572
REMARK INTER:                 -11.388
REMARK INTRA:                  -2.184
REMARK UNBOUND:                -2.526
REMARK SMILES CCCCCCCCC=CCCCCCCCC(=O)[O-]
REMARK SMILES IDX 10 1 9 2 11 3 12 4 13 5 14 6 15 7 16 8 17 9 18 10 19 11
REMARK SMILES IDX 20 12 8 13 7 14 6 15 5 16 4 17 3 18 2 19 1 20
REMARK H PARENT
REMARK Flexibility Score: inf
ROOT
ATOM      1  C   UNL     1       9.137 -13.268  -5.422  1.00  0.00    -0.031 C 
ATOM      2  C   UNL     1       9.104 -13.002  -4.103  1.00  0.00    -0.031 C 
ENDROOT
BRANCH   1   3
ATOM      3  C   UNL     1       8.983 -12.240  -6.516  1.00  0.00     0.027 C 
BRANCH   3   4
ATOM      4  C   UNL     1      10.090 -12.349  -7.576  1.00  0.00     0.004 C 
BRANCH   4   5
ATOM      5  C   UNL     1      11.476 -12.548  -6.941  1.00  0.00     0.000 C 
BRANCH   5   6
ATOM      6  C   UNL     1      12.020 -11.270  -6.277  1.00  0.00     0.000 C 
BRANCH   6   7
ATOM      7  C   UNL     1      12.930 -11.501  -5.057  1.00  0.00     0.000 C 
BRANCH   7   8
ATOM      8  C   UNL     1      12.762 -12.864  -4.356  1.00  0.00     0.006 C 
BRANCH   8   9
ATOM      9  C   UNL     1      12.529 -12.762  -2.838  1.00  0.00     0.053 C 
BRANCH   9  10
ATOM     10  C   UNL     1      13.495 -13.596  -2.053  1.00  0.00     0.041 C 
ATOM     11  O   UNL     1      14.347 -14.308  -2.646  1.00  0.00    -0.550 OA
ATOM     12  O   UNL     1      13.478 -13.561  -0.664  1.00  0.00    -0.550 OA
ENDBRANCH   9  10
ENDBRANCH   8   9
ENDBRANCH   7   8
ENDBRANCH   6   7
ENDBRANCH   5   6
ENDBRANCH   4   5
ENDBRANCH   3   4
ENDBRANCH   1   3
BRANCH   2  13
ATOM     13  C   UNL     1       8.957 -11.626  -3.495  1.00  0.00     0.027 C 
BRANCH  13  14
ATOM     14  C   UNL     1       7.479 -11.254  -3.303  1.00  0.00     0.004 C 
BRANCH  14  15
ATOM     15  C   UNL     1       7.233 -10.288  -2.129  1.00  0.00     0.000 C 
BRANCH  15  16
ATOM     16  C   UNL     1       6.345 -10.910  -1.036  1.00  0.00     0.000 C 
BRANCH  16  17
ATOM     17  C   UNL     1       6.495 -12.438  -0.950  1.00  0.00    -0.000 C 
BRANCH  17  18
ATOM     18  C   UNL     1       7.729 -12.867  -0.140  1.00  0.00    -0.000 C 
BRANCH  18  19
ATOM     19  C   UNL     1       7.868 -14.396  -0.047  1.00  0.00    -0.003 C 
ATOM     20  C   UNL     1       7.727 -15.087  -1.404  1.00  0.00     0.004 C 
ENDBRANCH  18  19
ENDBRANCH  17  18
ENDBRANCH  16  17
ENDBRANCH  15  16
ENDBRANCH  14  15
ENDBRANCH  13  14
ENDBRANCH   2  13
TORSDOF 15
ENDMDL
MODEL 5
REMARK VINA RESULT:    -5.826      2.032      4.141
REMARK INTER + INTRA:         -13.460
REMARK INTER:                 -10.623
REMARK INTRA:                  -2.837
REMARK UNBOUND:                -2.526
REMARK SMILES CCCCCCCCC=CCCCCCCCC(=O)[O-]
REMARK SMILES IDX 10 1 9 2 11 3 12 4 13 5 14 6 15 7 16 8 17 9 18 10 19 11
REMARK SMILES IDX 20 12 8 13 7 14 6 15 5 16 4 17 3 18 2 19 1 20
REMARK H PARENT
REMARK Flexibility Score: inf
ROOT
ATOM      1  C   UNL     1      10.276 -12.094  -7.567  1.00  0.00    -0.031 C 
ATOM      2  C   UNL     1       9.063 -12.319  -7.028  1.00  0.00    -0.031 C 
ENDROOT
BRANCH   1   3
ATOM      3  C   UNL     1      11.591 -12.444  -6.914  1.00  0.00     0.027 C 
BRANCH   3   4
ATOM      4  C   UNL     1      12.060 -11.356  -5.935  1.00  0.00     0.004 C 
BRANCH   4   5
ATOM      5  C   UNL     1      12.857 -11.946  -4.759  1.00  0.00     0.000 C 
BRANCH   5   6
ATOM      6  C   UNL     1      12.429 -13.382  -4.407  1.00  0.00     0.000 C 
BRANCH   6   7
ATOM      7  C   UNL     1      12.628 -13.784  -2.933  1.00  0.00     0.000 C 
BRANCH   7   8
ATOM      8  C   UNL     1      12.519 -12.631  -1.915  1.00  0.00     0.006 C 
BRANCH   8   9
ATOM      9  C   UNL     1      12.345 -13.099  -0.458  1.00  0.00     0.053 C 
BRANCH   9  10
ATOM     10  C   UNL     1      11.204 -12.414   0.230  1.00  0.00     0.041 C 
ATOM     11  O   UNL     1      10.723 -11.351  -0.242  1.00  0.00    -0.550 OA
ATOM     12  O   UNL     1      10.647 -12.969   1.376  1.00  0.00    -0.550 OA
ENDBRANCH   9  10
ENDBRANCH   8   9
ENDBRANCH   7   8
ENDBRANCH   6   7
ENDBRANCH   5   6
ENDBRANCH   4   5
ENDBRANCH   3   4
ENDBRANCH   1   3
BRANCH   2  13
ATOM     13  C   UNL     1       8.811 -13.003  -5.704  1.00  0.00     0.027 C 
BRANCH  13  14
ATOM     14  C   UNL     1       8.523 -11.984  -4.592  1.00  0.00     0.004 C 
BRANCH  14  15
ATOM     15  C   UNL     1       9.147 -12.358  -3.235  1.00  0.00     0.000 C 
BRANCH  15  16
ATOM     16  C   UNL     1       8.082 -12.653  -2.163  1.00  0.00     0.000 C 
BRANCH  16  17
ATOM     17  C   UNL     1       8.072 -14.127  -1.727  1.00  0.00    -0.000 C 
BRANCH  17  18
ATOM     18  C   UNL     1       9.192 -14.947  -2.389  1.00  0.00    -0.000 C 
BRANCH  18  19
ATOM     19  C   UNL     1       8.646 -16.056  -3.304  1.00  0.00    -0.003 C 
ATOM     20  C   UNL     1       9.562 -16.348  -4.493  1.00  0.00     0.004 C 
ENDBRANCH  18  19
ENDBRANCH  17  18
ENDBRANCH  16  17
ENDBRANCH  15  16
ENDBRANCH  14  15
ENDBRANCH  13  14
ENDBRANCH   2  13
TORSDOF 15
ENDMDL
MODEL 6
REMARK VINA RESULT:    -5.755      1.912      4.699
REMARK INTER + INTRA:         -13.327
REMARK INTER:                 -11.317
REMARK INTRA:                  -2.010
REMARK UNBOUND:                -2.526
REMARK SMILES CCCCCCCCC=CCCCCCCCC(=O)[O-]
REMARK SMILES IDX 10 1 9 2 11 3 12 4 13 5 14 6 15 7 16 8 17 9 18 10 19 11
REMARK SMILES IDX 20 12 8 13 7 14 6 15 5 16 4 17 3 18 2 19 1 20
REMARK H PARENT
REMARK Flexibility Score: inf
ROOT
ATOM      1  C   UNL     1      11.445 -12.166  -6.962  1.00  0.00    -0.031 C 
ATOM      2  C   UNL     1      10.231 -12.740  -7.065  1.00  0.00    -0.031 C 
ENDROOT
BRANCH   1   3
ATOM      3  C   UNL     1      11.853 -11.198  -5.878  1.00  0.00     0.027 C 
BRANCH   3   4
ATOM      4  C   UNL     1      13.109 -11.666  -5.126  1.00  0.00     0.004 C 
BRANCH   4   5
ATOM      5  C   UNL     1      12.830 -12.903  -4.256  1.00  0.00     0.000 C 
BRANCH   5   6
ATOM      6  C   UNL     1      12.823 -12.587  -2.749  1.00  0.00     0.000 C 
BRANCH   6   7
ATOM      7  C   UNL     1      12.938 -13.811  -1.822  1.00  0.00     0.000 C 
BRANCH   7   8
ATOM      8  C   UNL     1      12.853 -13.506  -0.313  1.00  0.00     0.006 C 
BRANCH   8   9
ATOM      9  C   UNL     1      11.499 -13.869   0.323  1.00  0.00     0.053 C 
BRANCH   9  10
ATOM     10  C   UNL     1      10.687 -12.658   0.671  1.00  0.00     0.041 C 
ATOM     11  O   UNL     1       9.960 -12.655   1.698  1.00  0.00    -0.550 OA
ATOM     12  O   UNL     1      10.761 -11.519  -0.121  1.00  0.00    -0.550 OA
ENDBRANCH   9  10
ENDBRANCH   8   9
ENDBRANCH   7   8
ENDBRANCH   6   7
ENDBRANCH   5   6
ENDBRANCH   4   5
ENDBRANCH   3   4
ENDBRANCH   1   3
BRANCH   2  13
ATOM     13  C   UNL     1       9.092 -12.552  -6.090  1.00  0.00     0.027 C 
BRANCH  13  14
ATOM     14  C   UNL     1       9.074 -13.662  -5.028  1.00  0.00     0.004 C 
BRANCH  14  15
ATOM     15  C   UNL     1       9.213 -13.140  -3.587  1.00  0.00     0.000 C 
BRANCH  15  16
ATOM     16  C   UNL     1       9.014 -11.616  -3.495  1.00  0.00     0.000 C 
BRANCH  16  17
ATOM     17  C   UNL     1       7.585 -11.230  -3.079  1.00  0.00    -0.000 C 
BRANCH  17  18
ATOM     18  C   UNL     1       7.416 -11.140  -1.553  1.00  0.00    -0.000 C 
BRANCH  18  19
ATOM     19  C   UNL     1       6.389 -12.149  -1.015  1.00  0.00    -0.003 C 
ATOM     20  C   UNL     1       5.507 -11.564   0.090  1.00  0.00     0.004 C 
ENDBRANCH  18  19
ENDBRANCH  17  18
ENDBRANCH  16  17
ENDBRANCH  15  16
ENDBRANCH  14  15
ENDBRANCH  13  14
ENDBRANCH   2  13
TORSDOF 15
ENDMDL
MODEL 7
REMARK VINA RESULT:    -5.754      1.449      3.043
REMARK INTER + INTRA:         -13.326
REMARK INTER:                 -11.240
REMARK INTRA:                  -2.086
REMARK UNBOUND:                -2.526
REMARK SMILES CCCCCCCCC=CCCCCCCCC(=O)[O-]
REMARK SMILES IDX 10 1 9 2 11 3 12 4 13 5 14 6 15 7 16 8 17 9 18 10 19 11
REMARK SMILES IDX 20 12 8 13 7 14 6 15 5 16 4 17 3 18 2 19 1 20
REMARK H PARENT
REMARK Flexibility Score: inf
ROOT
ATOM      1  C   UNL     1       8.433 -12.012  -5.899  1.00  0.00    -0.031 C 
ATOM      2  C   UNL     1       8.570 -12.410  -4.620  1.00  0.00    -0.031 C 
ENDROOT
BRANCH   1   3
ATOM      3  C   UNL     1       8.985 -12.747  -7.096  1.00  0.00     0.027 C 
BRANCH   3   4
ATOM      4  C   UNL     1      10.201 -12.032  -7.707  1.00  0.00     0.004 C 
BRANCH   4   5
ATOM      5  C   UNL     1      11.512 -12.432  -7.010  1.00  0.00     0.000 C 
BRANCH   5   6
ATOM      6  C   UNL     1      11.983 -11.392  -5.977  1.00  0.00     0.000 C 
BRANCH   6   7
ATOM      7  C   UNL     1      13.130 -11.853  -5.059  1.00  0.00     0.000 C 
BRANCH   7   8
ATOM      8  C   UNL     1      12.694 -12.506  -3.733  1.00  0.00     0.006 C 
BRANCH   8   9
ATOM      9  C   UNL     1      12.936 -14.026  -3.676  1.00  0.00     0.053 C 
BRANCH   9  10
ATOM     10  C   UNL     1      13.562 -14.458  -2.385  1.00  0.00     0.041 C 
ATOM     11  O   UNL     1      14.339 -13.685  -1.766  1.00  0.00    -0.550 OA
ATOM     12  O   UNL     1      13.259 -15.702  -1.845  1.00  0.00    -0.550 OA
ENDBRANCH   9  10
ENDBRANCH   8   9
ENDBRANCH   7   8
ENDBRANCH   6   7
ENDBRANCH   5   6
ENDBRANCH   4   5
ENDBRANCH   3   4
ENDBRANCH   1   3
BRANCH   2  13
ATOM     13  C   UNL     1       9.253 -13.680  -4.170  1.00  0.00     0.027 C 
BRANCH  13  14
ATOM     14  C   UNL     1       9.318 -13.770  -2.638  1.00  0.00     0.004 C 
BRANCH  14  15
ATOM     15  C   UNL     1       8.418 -14.869  -2.045  1.00  0.00     0.000 C 
BRANCH  15  16
ATOM     16  C   UNL     1       7.772 -14.442  -0.714  1.00  0.00     0.000 C 
BRANCH  16  17
ATOM     17  C   UNL     1       7.647 -12.916  -0.580  1.00  0.00    -0.000 C 
BRANCH  17  18
ATOM     18  C   UNL     1       6.340 -12.373  -1.183  1.00  0.00    -0.000 C 
BRANCH  18  19
ATOM     19  C   UNL     1       6.282 -10.837  -1.173  1.00  0.00    -0.003 C 
ATOM     20  C   UNL     1       7.247 -10.201  -2.175  1.00  0.00     0.004 C 
ENDBRANCH  18  19
ENDBRANCH  17  18
ENDBRANCH  16  17
ENDBRANCH  15  16
ENDBRANCH  14  15
ENDBRANCH  13  14
ENDBRANCH   2  13
TORSDOF 15
ENDMDL
MODEL 8
REMARK VINA RESULT:    -5.700      1.540      4.834
REMARK INTER + INTRA:         -13.224
REMARK INTER:                 -10.844
REMARK INTRA:                  -2.381
REMARK UNBOUND:                -2.526
REMARK SMILES CCCCCCCCC=CCCCCCCCC(=O)[O-]
REMARK SMILES IDX 10 1 9 2 11 3 12 4 13 5 14 6 15 7 16 8 17 9 18 10 19 11
REMARK SMILES IDX 20 12 8 13 7 14 6 15 5 16 4 17 3 18 2 19 1 20
REMARK H PARENT
REMARK Flexibility Score: inf
ROOT
ATOM      1  C   UNL     1       6.371 -12.026  -0.489  1.00  0.00    -0.031 C 
ATOM      2  C   UNL     1       6.500 -10.941  -1.276  1.00  0.00    -0.031 C 
ENDROOT
BRANCH   1   3
ATOM      3  C   UNL     1       7.414 -13.105  -0.327  1.00  0.00     0.027 C 
BRANCH   3   4
ATOM      4  C   UNL     1       7.262 -14.220  -1.374  1.00  0.00     0.004 C 
BRANCH   4   5
ATOM      5  C   UNL     1       8.316 -15.325  -1.194  1.00  0.00     0.000 C 
BRANCH   5   6
ATOM      6  C   UNL     1       9.528 -15.155  -2.128  1.00  0.00     0.000 C 
BRANCH   6   7
ATOM      7  C   UNL     1      10.892 -15.044  -1.421  1.00  0.00     0.000 C 
BRANCH   7   8
ATOM      8  C   UNL     1      11.085 -13.785  -0.552  1.00  0.00     0.006 C 
BRANCH   8   9
ATOM      9  C   UNL     1      11.407 -12.513  -1.358  1.00  0.00     0.053 C 
BRANCH   9  10
ATOM     10  C   UNL     1      12.881 -12.265  -1.471  1.00  0.00     0.041 C 
ATOM     11  O   UNL     1      13.465 -11.526  -0.637  1.00  0.00    -0.550 OA
ATOM     12  O   UNL     1      13.616 -12.879  -2.478  1.00  0.00    -0.550 OA
ENDBRANCH   9  10
ENDBRANCH   8   9
ENDBRANCH   7   8
ENDBRANCH   6   7
ENDBRANCH   5   6
ENDBRANCH   4   5
ENDBRANCH   3   4
ENDBRANCH   1   3
BRANCH   2  13
ATOM     13  C   UNL     1       7.726 -10.595  -2.089  1.00  0.00     0.027 C 
BRANCH  13  14
ATOM     14  C   UNL     1       7.640 -11.174  -3.509  1.00  0.00     0.004 C 
BRANCH  14  15
ATOM     15  C   UNL     1       8.889 -11.972  -3.927  1.00  0.00     0.000 C 
BRANCH  15  16
ATOM     16  C   UNL     1       8.861 -12.365  -5.415  1.00  0.00     0.000 C 
BRANCH  16  17
ATOM     17  C   UNL     1       9.607 -13.680  -5.694  1.00  0.00    -0.000 C 
BRANCH  17  18
ATOM     18  C   UNL     1      11.132 -13.536  -5.558  1.00  0.00    -0.000 C 
BRANCH  18  19
ATOM     19  C   UNL     1      11.683 -12.344  -6.359  1.00  0.00    -0.003 C 
ATOM     20  C   UNL     1      12.467 -11.359  -5.491  1.00  0.00     0.004 C 
ENDBRANCH  18  19
ENDBRANCH  17  18
ENDBRANCH  16  17
ENDBRANCH  15  16
ENDBRANCH  14  15
ENDBRANCH  13  14
ENDBRANCH   2  13
TORSDOF 15
ENDMDL
MODEL 9
REMARK VINA RESULT:    -5.690      2.341      5.835
REMARK INTER + INTRA:         -13.205
REMARK INTER:                 -10.826
REMARK INTRA:                  -2.379
REMARK UNBOUND:                -2.526
REMARK SMILES CCCCCCCCC=CCCCCCCCC(=O)[O-]
REMARK SMILES IDX 10 1 9 2 11 3 12 4 13 5 14 6 15 7 16 8 17 9 18 10 19 11
REMARK SMILES IDX 20 12 8 13 7 14 6 15 5 16 4 17 3 18 2 19 1 20
REMARK H PARENT
REMARK Flexibility Score: inf
ROOT
ATOM      1  C   UNL     1       8.775 -11.569  -2.375  1.00  0.00    -0.031 C 
ATOM      2  C   UNL     1       9.290 -11.965  -3.555  1.00  0.00    -0.031 C 
ENDROOT
BRANCH   1   3
ATOM      3  C   UNL     1       7.328 -11.210  -2.141  1.00  0.00     0.027 C 
BRANCH   3   4
ATOM      4  C   UNL     1       6.526 -12.383  -1.555  1.00  0.00     0.004 C 
BRANCH   4   5
ATOM      5  C   UNL     1       7.387 -13.264  -0.635  1.00  0.00     0.000 C 
BRANCH   5   6
ATOM      6  C   UNL     1       7.500 -14.717  -1.130  1.00  0.00     0.000 C 
BRANCH   6   7
ATOM      7  C   UNL     1       8.931 -15.284  -1.181  1.00  0.00     0.000 C 
BRANCH   7   8
ATOM      8  C   UNL     1       9.475 -15.578  -2.593  1.00  0.00     0.006 C 
BRANCH   8   9
ATOM      9  C   UNL     1       8.733 -16.712  -3.325  1.00  0.00     0.053 C 
BRANCH   9  10
ATOM     10  C   UNL     1       9.572 -17.945  -3.470  1.00  0.00     0.041 C 
ATOM     11  O   UNL     1      10.504 -18.178  -2.657  1.00  0.00    -0.550 OA
ATOM     12  O   UNL     1       9.302 -18.856  -4.484  1.00  0.00    -0.550 OA
ENDBRANCH   9  10
ENDBRANCH   8   9
ENDBRANCH   7   8
ENDBRANCH   6   7
ENDBRANCH   5   6
ENDBRANCH   4   5
ENDBRANCH   3   4
ENDBRANCH   1   3
BRANCH   2  13
ATOM     13  C   UNL     1       8.500 -12.166  -4.828  1.00  0.00     0.027 C 
BRANCH  13  14
ATOM     14  C   UNL     1       9.217 -13.128  -5.786  1.00  0.00     0.004 C 
BRANCH  14  15
ATOM     15  C   UNL     1       9.943 -12.420  -6.945  1.00  0.00     0.000 C 
BRANCH  15  16
ATOM     16  C   UNL     1      11.473 -12.543  -6.839  1.00  0.00     0.000 C 
BRANCH  16  17
ATOM     17  C   UNL     1      12.119 -11.328  -6.154  1.00  0.00    -0.000 C 
BRANCH  17  18
ATOM     18  C   UNL     1      12.913 -11.712  -4.894  1.00  0.00    -0.000 C 
BRANCH  18  19
ATOM     19  C   UNL     1      12.590 -13.133  -4.405  1.00  0.00    -0.003 C 
ATOM     20  C   UNL     1      12.870 -13.325  -2.914  1.00  0.00     0.004 C 
ENDBRANCH  18  19
ENDBRANCH  17  18
ENDBRANCH  16  17
ENDBRANCH  15  16
ENDBRANCH  14  15
ENDBRANCH  13  14
ENDBRANCH   2  13
TORSDOF 15
ENDMDL
