MODEL 1
REMARK VINA RESULT:    -2.538      0.000      0.000
REMARK INTER + INTRA:          -3.481
REMARK INTER:                  -3.132
REMARK INTRA:                  -0.350
REMARK UNBOUND:                -0.350
REMARK SMILES Oc1cc(O)c2cc(O)c(-c3cc(O)c(O)c(O)c3)[o+]c2c1.[Cl-]
REMARK SMILES IDX 10 1 20 2 21 3 22 4 2 5 3 6 4 7 6 8 7 9 8 10 11 11 12 12
REMARK SMILES IDX 13 13 19 14 15 15 17 16 14 17 16 19 18 21 9 23 1 25 5 27
REMARK H PARENT 14 18 16 20 18 22 9 24 1 26 5 28
REMARK Flexibility Score: inf
ROOT
ATOM      1  C   UNL     1      23.906  24.987  14.234  1.00  0.00     0.402 A 
ATOM      2  O   UNL     1      24.298  25.477  15.408  1.00  0.00    -0.202 OA
ATOM      3  C   UNL     1      24.371  26.777  15.669  1.00  0.00     0.368 A 
ATOM      4  C   UNL     1      24.791  27.195  16.935  1.00  0.00     0.162 A 
ATOM      5  C   UNL     1      24.874  28.553  17.237  1.00  0.00     0.128 A 
ATOM      6  C   UNL     1      24.535  29.506  16.269  1.00  0.00     0.093 A 
ATOM      7  C   UNL     1      24.112  29.113  14.993  1.00  0.00     0.136 A 
ATOM      8  C   UNL     1      24.028  27.731  14.681  1.00  0.00     0.125 A 
ATOM      9  C   UNL     1      23.626  27.246  13.425  1.00  0.00     0.078 A 
ATOM     10  C   UNL     1      23.573  25.870  13.190  1.00  0.00     0.223 A 
ENDROOT
BRANCH   1  11
ATOM     11  C   UNL     1      23.857  23.516  14.070  1.00  0.00     0.091 A 
ATOM     12  C   UNL     1      25.017  22.771  13.799  1.00  0.00     0.068 A 
ATOM     13  C   UNL     1      24.948  21.383  13.624  1.00  0.00     0.162 A 
ATOM     14  C   UNL     1      22.621  22.856  14.131  1.00  0.00     0.068 A 
ATOM     15  C   UNL     1      23.708  20.726  13.710  1.00  0.00     0.200 A 
ATOM     16  C   UNL     1      22.542  21.470  13.961  1.00  0.00     0.162 A 
BRANCH  13  17
ATOM     17  O   UNL     1      26.107  20.653  13.363  1.00  0.00    -0.504 OA
ATOM     18  H   UNL     1      26.102  19.855  12.737  1.00  0.00     0.293 HD
ENDBRANCH  13  17
BRANCH  15  19
ATOM     19  O   UNL     1      23.622  19.344  13.543  1.00  0.00    -0.502 OA
ATOM     20  H   UNL     1      24.440  18.765  13.395  1.00  0.00     0.293 HD
ENDBRANCH  15  19
BRANCH  16  21
ATOM     21  O   UNL     1      21.296  20.849  14.042  1.00  0.00    -0.504 OA
ATOM     22  H   UNL     1      20.842  20.664  14.928  1.00  0.00     0.293 HD
ENDBRANCH  16  21
ENDBRANCH   1  11
BRANCH  10  23
ATOM     23  O   UNL     1      23.222  25.388  11.928  1.00  0.00    -0.500 OA
ATOM     24  H   UNL     1      23.917  25.032  11.283  1.00  0.00     0.294 HD
ENDBRANCH  10  23
BRANCH   5  25
ATOM     25  O   UNL     1      25.296  28.950  18.505  1.00  0.00    -0.507 OA
ATOM     26  H   UNL     1      24.652  29.355  19.176  1.00  0.00     0.293 HD
ENDBRANCH   5  25
BRANCH   7  27
ATOM     27  O   UNL     1      23.787  30.123  14.084  1.00  0.00    -0.507 OA
ATOM     28  H   UNL     1      24.291  30.993  13.993  1.00  0.00     0.293 HD
ENDBRANCH   7  27
TORSDOF 7
ENDMDL
MODEL 2
REMARK VINA RESULT:    -2.510      0.144      1.795
REMARK INTER + INTRA:          -3.447
REMARK INTER:                  -3.064
REMARK INTRA:                  -0.383
REMARK UNBOUND:                -0.350
REMARK SMILES Oc1cc(O)c2cc(O)c(-c3cc(O)c(O)c(O)c3)[o+]c2c1.[Cl-]
REMARK SMILES IDX 10 1 20 2 21 3 22 4 2 5 3 6 4 7 6 8 7 9 8 10 11 11 12 12
REMARK SMILES IDX 13 13 19 14 15 15 17 16 14 17 16 19 18 21 9 23 1 25 5 27
REMARK H PARENT 14 18 16 20 18 22 9 24 1 26 5 28
REMARK Flexibility Score: inf
ROOT
ATOM      1  C   UNL     1      23.819  24.987  14.254  1.00  0.00     0.402 A 
ATOM      2  O   UNL     1      24.239  25.460  15.425  1.00  0.00    -0.202 OA
ATOM      3  C   UNL     1      24.355  26.756  15.690  1.00  0.00     0.368 A 
ATOM      4  C   UNL     1      24.801  27.156  16.953  1.00  0.00     0.162 A 
ATOM      5  C   UNL     1      24.929  28.510  17.259  1.00  0.00     0.128 A 
ATOM      6  C   UNL     1      24.608  29.476  16.298  1.00  0.00     0.093 A 
ATOM      7  C   UNL     1      24.159  29.102  15.026  1.00  0.00     0.136 A 
ATOM      8  C   UNL     1      24.030  27.724  14.709  1.00  0.00     0.125 A 
ATOM      9  C   UNL     1      23.599  27.257  13.457  1.00  0.00     0.078 A 
ATOM     10  C   UNL     1      23.501  25.884  13.217  1.00  0.00     0.223 A 
ENDROOT
BRANCH   1  11
ATOM     11  C   UNL     1      23.724  23.519  14.085  1.00  0.00     0.091 A 
ATOM     12  C   UNL     1      22.521  22.832  14.321  1.00  0.00     0.068 A 
ATOM     13  C   UNL     1      22.455  21.440  14.178  1.00  0.00     0.162 A 
ATOM     14  C   UNL     1      24.869  22.788  13.736  1.00  0.00     0.068 A 
ATOM     15  C   UNL     1      23.602  20.718  13.806  1.00  0.00     0.200 A 
ATOM     16  C   UNL     1      24.813  21.399  13.589  1.00  0.00     0.162 A 
BRANCH  13  17
ATOM     17  O   UNL     1      21.254  20.770  14.409  1.00  0.00    -0.504 OA
ATOM     18  H   UNL     1      20.551  20.675  13.684  1.00  0.00     0.293 HD
ENDBRANCH  13  17
BRANCH  15  19
ATOM     19  O   UNL     1      23.553  19.332  13.655  1.00  0.00    -0.502 OA
ATOM     20  H   UNL     1      22.710  18.850  13.369  1.00  0.00     0.293 HD
ENDBRANCH  15  19
BRANCH  16  21
ATOM     21  O   UNL     1      25.971  20.710  13.227  1.00  0.00    -0.504 OA
ATOM     22  H   UNL     1      25.953  19.924  12.589  1.00  0.00     0.293 HD
ENDBRANCH  16  21
ENDBRANCH   1  11
BRANCH  10  23
ATOM     23  O   UNL     1      23.122  25.418  11.958  1.00  0.00    -0.500 OA
ATOM     24  H   UNL     1      22.255  25.708  11.522  1.00  0.00     0.294 HD
ENDBRANCH  10  23
BRANCH   5  25
ATOM     25  O   UNL     1      25.377  28.888  18.523  1.00  0.00    -0.507 OA
ATOM     26  H   UNL     1      26.366  28.953  18.739  1.00  0.00     0.293 HD
ENDBRANCH   5  25
BRANCH   7  27
ATOM     27  O   UNL     1      23.855  30.125  14.124  1.00  0.00    -0.507 OA
ATOM     28  H   UNL     1      23.838  31.106  14.358  1.00  0.00     0.293 HD
ENDBRANCH   7  27
TORSDOF 7
ENDMDL
MODEL 3
REMARK VINA RESULT:    -2.444      2.209      6.814
REMARK INTER + INTRA:          -3.365
REMARK INTER:                  -3.003
REMARK INTRA:                  -0.362
REMARK UNBOUND:                -0.350
REMARK SMILES Oc1cc(O)c2cc(O)c(-c3cc(O)c(O)c(O)c3)[o+]c2c1.[Cl-]
REMARK SMILES IDX 10 1 20 2 21 3 22 4 2 5 3 6 4 7 6 8 7 9 8 10 11 11 12 12
REMARK SMILES IDX 13 13 19 14 15 15 17 16 14 17 16 19 18 21 9 23 1 25 5 27
REMARK H PARENT 14 18 16 20 18 22 9 24 1 26 5 28
REMARK Flexibility Score: inf
ROOT
ATOM      1  C   UNL     1      23.845  24.651  14.651  1.00  0.00     0.402 A 
ATOM      2  O   UNL     1      24.280  24.027  15.743  1.00  0.00    -0.202 OA
ATOM      3  C   UNL     1      24.753  22.786  15.735  1.00  0.00     0.368 A 
ATOM      4  C   UNL     1      25.190  22.217  16.935  1.00  0.00     0.162 A 
ATOM      5  C   UNL     1      25.695  20.917  16.955  1.00  0.00     0.128 A 
ATOM      6  C   UNL     1      25.767  20.178  15.768  1.00  0.00     0.093 A 
ATOM      7  C   UNL     1      25.335  20.725  14.554  1.00  0.00     0.136 A 
ATOM      8  C   UNL     1      24.818  22.047  14.529  1.00  0.00     0.125 A 
ATOM      9  C   UNL     1      24.352  22.672  13.361  1.00  0.00     0.078 A 
ATOM     10  C   UNL     1      23.852  23.976  13.416  1.00  0.00     0.223 A 
ENDROOT
BRANCH   1  11
ATOM     11  C   UNL     1      23.349  26.040  14.789  1.00  0.00     0.091 A 
ATOM     12  C   UNL     1      22.035  26.309  15.208  1.00  0.00     0.068 A 
ATOM     13  C   UNL     1      21.576  27.628  15.310  1.00  0.00     0.162 A 
ATOM     14  C   UNL     1      24.187  27.110  14.442  1.00  0.00     0.068 A 
ATOM     15  C   UNL     1      22.430  28.696  14.983  1.00  0.00     0.200 A 
ATOM     16  C   UNL     1      23.738  28.430  14.543  1.00  0.00     0.162 A 
BRANCH  13  17
ATOM     17  O   UNL     1      20.272  27.884  15.733  1.00  0.00    -0.504 OA
ATOM     18  H   UNL     1      20.032  28.733  16.234  1.00  0.00     0.293 HD
ENDBRANCH  13  17
BRANCH  15  19
ATOM     19  O   UNL     1      21.990  30.016  15.084  1.00  0.00    -0.502 OA
ATOM     20  H   UNL     1      21.113  30.325  14.684  1.00  0.00     0.293 HD
ENDBRANCH  15  19
BRANCH  16  21
ATOM     21  O   UNL     1      24.607  29.467  14.202  1.00  0.00    -0.504 OA
ATOM     22  H   UNL     1      25.053  29.520  13.295  1.00  0.00     0.293 HD
ENDBRANCH  16  21
ENDBRANCH   1  11
BRANCH  10  23
ATOM     23  O   UNL     1      23.341  24.580  12.266  1.00  0.00    -0.500 OA
ATOM     24  H   UNL     1      23.450  24.158  11.351  1.00  0.00     0.294 HD
ENDBRANCH  10  23
BRANCH   5  25
ATOM     25  O   UNL     1      26.125  20.366  18.160  1.00  0.00    -0.507 OA
ATOM     26  H   UNL     1      26.253  20.937  18.989  1.00  0.00     0.293 HD
ENDBRANCH   5  25
BRANCH   7  27
ATOM     27  O   UNL     1      25.442  19.925  13.413  1.00  0.00    -0.507 OA
ATOM     28  H   UNL     1      25.405  20.273  12.466  1.00  0.00     0.293 HD
ENDBRANCH   7  27
TORSDOF 7
ENDMDL
MODEL 4
REMARK VINA RESULT:    -2.386      2.710      6.530
REMARK INTER + INTRA:          -3.293
REMARK INTER:                  -2.932
REMARK INTRA:                  -0.361
REMARK UNBOUND:                -0.350
REMARK SMILES Oc1cc(O)c2cc(O)c(-c3cc(O)c(O)c(O)c3)[o+]c2c1.[Cl-]
REMARK SMILES IDX 10 1 20 2 21 3 22 4 2 5 3 6 4 7 6 8 7 9 8 10 11 11 12 12
REMARK SMILES IDX 13 13 19 14 15 15 17 16 14 17 16 19 18 21 9 23 1 25 5 27
REMARK H PARENT 14 18 16 20 18 22 9 24 1 26 5 28
REMARK Flexibility Score: inf
ROOT
ATOM      1  C   UNL     1      24.001  24.937  15.303  1.00  0.00     0.402 A 
ATOM      2  O   UNL     1      24.343  24.461  16.497  1.00  0.00    -0.202 OA
ATOM      3  C   UNL     1      24.895  23.266  16.676  1.00  0.00     0.368 A 
ATOM      4  C   UNL     1      25.223  22.855  17.972  1.00  0.00     0.162 A 
ATOM      5  C   UNL     1      25.806  21.607  18.188  1.00  0.00     0.128 A 
ATOM      6  C   UNL     1      26.067  20.761  17.104  1.00  0.00     0.093 A 
ATOM      7  C   UNL     1      25.747  21.149  15.797  1.00  0.00     0.136 A 
ATOM      8  C   UNL     1      25.151  22.417  15.572  1.00  0.00     0.125 A 
ATOM      9  C   UNL     1      24.787  22.884  14.299  1.00  0.00     0.078 A 
ATOM     10  C   UNL     1      24.199  24.144  14.157  1.00  0.00     0.223 A 
ENDROOT
BRANCH   1  11
ATOM     11  C   UNL     1      23.402  26.289  15.233  1.00  0.00     0.091 A 
ATOM     12  C   UNL     1      24.156  27.404  14.830  1.00  0.00     0.068 A 
ATOM     13  C   UNL     1      23.578  28.679  14.792  1.00  0.00     0.162 A 
ATOM     14  C   UNL     1      22.069  26.475  15.630  1.00  0.00     0.068 A 
ATOM     15  C   UNL     1      22.235  28.853  15.169  1.00  0.00     0.200 A 
ATOM     16  C   UNL     1      21.483  27.744  15.593  1.00  0.00     0.162 A 
BRANCH  13  17
ATOM     17  O   UNL     1      24.335  29.778  14.384  1.00  0.00    -0.504 OA
ATOM     18  H   UNL     1      25.213  29.664  13.889  1.00  0.00     0.293 HD
ENDBRANCH  13  17
BRANCH  15  19
ATOM     19  O   UNL     1      21.643  30.115  15.133  1.00  0.00    -0.502 OA
ATOM     20  H   UNL     1      21.418  30.581  14.263  1.00  0.00     0.293 HD
ENDBRANCH  15  19
BRANCH  16  21
ATOM     21  O   UNL     1      20.151  27.885  15.983  1.00  0.00    -0.504 OA
ATOM     22  H   UNL     1      19.810  28.717  16.447  1.00  0.00     0.293 HD
ENDBRANCH  16  21
ENDBRANCH   1  11
BRANCH  10  23
ATOM     23  O   UNL     1      23.790  24.588  12.899  1.00  0.00    -0.500 OA
ATOM     24  H   UNL     1      22.832  24.490  12.585  1.00  0.00     0.294 HD
ENDBRANCH  10  23
BRANCH   5  25
ATOM     25  O   UNL     1      26.125  21.215  19.487  1.00  0.00    -0.507 OA
ATOM     26  H   UNL     1      25.431  20.806  20.103  1.00  0.00     0.293 HD
ENDBRANCH   5  25
BRANCH   7  27
ATOM     27  O   UNL     1      26.041  20.250  14.769  1.00  0.00    -0.507 OA
ATOM     28  H   UNL     1      25.366  19.902  14.104  1.00  0.00     0.293 HD
ENDBRANCH   7  27
TORSDOF 7
ENDMDL
MODEL 5
REMARK VINA RESULT:    -2.369      1.324      2.753
REMARK INTER + INTRA:          -3.273
REMARK INTER:                  -2.922
REMARK INTRA:                  -0.350
REMARK UNBOUND:                -0.350
REMARK SMILES Oc1cc(O)c2cc(O)c(-c3cc(O)c(O)c(O)c3)[o+]c2c1.[Cl-]
REMARK SMILES IDX 10 1 20 2 21 3 22 4 2 5 3 6 4 7 6 8 7 9 8 10 11 11 12 12
REMARK SMILES IDX 13 13 19 14 15 15 17 16 14 17 16 19 18 21 9 23 1 25 5 27
REMARK H PARENT 14 18 16 20 18 22 9 24 1 26 5 28
REMARK Flexibility Score: inf
ROOT
ATOM      1  C   UNL     1      24.868  24.418  15.523  1.00  0.00     0.402 A 
ATOM      2  O   UNL     1      24.305  25.468  14.930  1.00  0.00    -0.202 OA
ATOM      3  C   UNL     1      24.385  26.706  15.407  1.00  0.00     0.368 A 
ATOM      4  C   UNL     1      23.761  27.745  14.709  1.00  0.00     0.162 A 
ATOM      5  C   UNL     1      23.833  29.054  15.184  1.00  0.00     0.128 A 
ATOM      6  C   UNL     1      24.532  29.331  16.365  1.00  0.00     0.093 A 
ATOM      7  C   UNL     1      25.165  28.308  17.081  1.00  0.00     0.136 A 
ATOM      8  C   UNL     1      25.093  26.974  16.603  1.00  0.00     0.125 A 
ATOM      9  C   UNL     1      25.686  25.884  17.261  1.00  0.00     0.078 A 
ATOM     10  C   UNL     1      25.568  24.596  16.731  1.00  0.00     0.223 A 
ENDROOT
BRANCH   1  11
ATOM     11  C   UNL     1      24.715  23.090  14.888  1.00  0.00     0.091 A 
ATOM     12  C   UNL     1      25.505  22.709  13.790  1.00  0.00     0.068 A 
ATOM     13  C   UNL     1      25.330  21.456  13.187  1.00  0.00     0.162 A 
ATOM     14  C   UNL     1      23.725  22.212  15.353  1.00  0.00     0.068 A 
ATOM     15  C   UNL     1      24.351  20.573  13.675  1.00  0.00     0.200 A 
ATOM     16  C   UNL     1      23.545  20.959  14.760  1.00  0.00     0.162 A 
BRANCH  13  17
ATOM     17  O   UNL     1      26.124  21.085  12.102  1.00  0.00    -0.504 OA
ATOM     18  H   UNL     1      26.994  21.562  11.893  1.00  0.00     0.293 HD
ENDBRANCH  13  17
BRANCH  15  19
ATOM     19  O   UNL     1      24.167  19.320  13.090  1.00  0.00    -0.502 OA
ATOM     20  H   UNL     1      24.815  18.941  12.411  1.00  0.00     0.293 HD
ENDBRANCH  15  19
BRANCH  16  21
ATOM     21  O   UNL     1      22.558  20.109  15.261  1.00  0.00    -0.504 OA
ATOM     22  H   UNL     1      22.772  19.350  15.895  1.00  0.00     0.293 HD
ENDBRANCH  16  21
ENDBRANCH   1  11
BRANCH  10  23
ATOM     23  O   UNL     1      26.114  23.506  17.410  1.00  0.00    -0.500 OA
ATOM     24  H   UNL     1      27.079  23.226  17.279  1.00  0.00     0.294 HD
ENDBRANCH  10  23
BRANCH   5  25
ATOM     25  O   UNL     1      23.204  30.076  14.476  1.00  0.00    -0.507 OA
ATOM     26  H   UNL     1      22.194  30.122  14.396  1.00  0.00     0.293 HD
ENDBRANCH   5  25
BRANCH   7  27
ATOM     27  O   UNL     1      25.846  28.665  18.248  1.00  0.00    -0.507 OA
ATOM     28  H   UNL     1      25.404  28.831  19.140  1.00  0.00     0.293 HD
ENDBRANCH   7  27
TORSDOF 7
ENDMDL
MODEL 6
REMARK VINA RESULT:    -2.322     20.807     23.802
REMARK INTER + INTRA:          -3.214
REMARK INTER:                  -2.830
REMARK INTRA:                  -0.384
REMARK UNBOUND:                -0.350
REMARK SMILES Oc1cc(O)c2cc(O)c(-c3cc(O)c(O)c(O)c3)[o+]c2c1.[Cl-]
REMARK SMILES IDX 10 1 20 2 21 3 22 4 2 5 3 6 4 7 6 8 7 9 8 10 11 11 12 12
REMARK SMILES IDX 13 13 19 14 15 15 17 16 14 17 16 19 18 21 9 23 1 25 5 27
REMARK H PARENT 14 18 16 20 18 22 9 24 1 26 5 28
REMARK Flexibility Score: inf
ROOT
ATOM      1  C   UNL     1       8.181  14.868  27.646  1.00  0.00     0.402 A 
ATOM      2  O   UNL     1       9.219  14.138  28.048  1.00  0.00    -0.202 OA
ATOM      3  C   UNL     1       9.220  12.809  28.047  1.00  0.00     0.368 A 
ATOM      4  C   UNL     1      10.361  12.130  28.485  1.00  0.00     0.162 A 
ATOM      5  C   UNL     1      10.391  10.736  28.491  1.00  0.00     0.128 A 
ATOM      6  C   UNL     1       9.276  10.011  28.055  1.00  0.00     0.093 A 
ATOM      7  C   UNL     1       8.122  10.668  27.611  1.00  0.00     0.136 A 
ATOM      8  C   UNL     1       8.085  12.087  27.606  1.00  0.00     0.125 A 
ATOM      9  C   UNL     1       6.968  12.829  27.190  1.00  0.00     0.078 A 
ATOM     10  C   UNL     1       7.005  14.226  27.218  1.00  0.00     0.223 A 
ENDROOT
BRANCH   1  11
ATOM     11  C   UNL     1       8.306  16.343  27.686  1.00  0.00     0.091 A 
ATOM     12  C   UNL     1       8.785  17.067  26.581  1.00  0.00     0.068 A 
ATOM     13  C   UNL     1       8.918  18.460  26.646  1.00  0.00     0.162 A 
ATOM     14  C   UNL     1       7.993  17.030  28.868  1.00  0.00     0.068 A 
ATOM     15  C   UNL     1       8.580  19.143  27.827  1.00  0.00     0.200 A 
ATOM     16  C   UNL     1       8.120  18.421  28.941  1.00  0.00     0.162 A 
BRANCH  13  17
ATOM     17  O   UNL     1       9.388  19.170  25.541  1.00  0.00    -0.504 OA
ATOM     18  H   UNL     1       9.437  20.182  25.541  1.00  0.00     0.293 HD
ENDBRANCH  13  17
BRANCH  15  19
ATOM     19  O   UNL     1       8.702  20.531  27.907  1.00  0.00    -0.502 OA
ATOM     20  H   UNL     1       8.841  21.109  27.087  1.00  0.00     0.293 HD
ENDBRANCH  15  19
BRANCH  16  21
ATOM     21  O   UNL     1       7.785  19.069  30.131  1.00  0.00    -0.504 OA
ATOM     22  H   UNL     1       7.284  19.949  30.143  1.00  0.00     0.293 HD
ENDBRANCH  16  21
ENDBRANCH   1  11
BRANCH  10  23
ATOM     23  O   UNL     1       5.878  14.964  26.852  1.00  0.00    -0.500 OA
ATOM     24  H   UNL     1       5.167  15.218  27.528  1.00  0.00     0.294 HD
ENDBRANCH  10  23
BRANCH   5  25
ATOM     25  O   UNL     1      11.537  10.077  28.933  1.00  0.00    -0.507 OA
ATOM     26  H   UNL     1      12.163  10.497  29.611  1.00  0.00     0.293 HD
ENDBRANCH   5  25
BRANCH   7  27
ATOM     27  O   UNL     1       7.052   9.875  27.189  1.00  0.00    -0.507 OA
ATOM     28  H   UNL     1       6.121  10.221  27.009  1.00  0.00     0.293 HD
ENDBRANCH   7  27
TORSDOF 7
ENDMDL
MODEL 7
REMARK VINA RESULT:    -2.300      1.407      2.562
REMARK INTER + INTRA:          -3.188
REMARK INTER:                  -2.885
REMARK INTRA:                  -0.302
REMARK UNBOUND:                -0.350
REMARK SMILES Oc1cc(O)c2cc(O)c(-c3cc(O)c(O)c(O)c3)[o+]c2c1.[Cl-]
REMARK SMILES IDX 10 1 20 2 21 3 22 4 2 5 3 6 4 7 6 8 7 9 8 10 11 11 12 12
REMARK SMILES IDX 13 13 19 14 15 15 17 16 14 17 16 19 18 21 9 23 1 25 5 27
REMARK H PARENT 14 18 16 20 18 22 9 24 1 26 5 28
REMARK Flexibility Score: inf
ROOT
ATOM      1  C   UNL     1      23.479  24.897  14.614  1.00  0.00     0.402 A 
ATOM      2  O   UNL     1      23.845  25.769  13.678  1.00  0.00    -0.202 OA
ATOM      3  C   UNL     1      23.810  27.086  13.854  1.00  0.00     0.368 A 
ATOM      4  C   UNL     1      24.219  27.922  12.811  1.00  0.00     0.162 A 
ATOM      5  C   UNL     1      24.195  29.308  12.968  1.00  0.00     0.128 A 
ATOM      6  C   UNL     1      23.761  29.865  14.177  1.00  0.00     0.093 A 
ATOM      7  C   UNL     1      23.346  29.049  15.236  1.00  0.00     0.136 A 
ATOM      8  C   UNL     1      23.366  27.638  15.079  1.00  0.00     0.125 A 
ATOM      9  C   UNL     1      22.957  26.744  16.082  1.00  0.00     0.078 A 
ATOM     10  C   UNL     1      23.001  25.366  15.851  1.00  0.00     0.223 A 
ENDROOT
BRANCH   1  11
ATOM     11  C   UNL     1      23.573  23.453  14.300  1.00  0.00     0.091 A 
ATOM     12  C   UNL     1      24.816  22.801  14.220  1.00  0.00     0.068 A 
ATOM     13  C   UNL     1      24.886  21.439  13.899  1.00  0.00     0.162 A 
ATOM     14  C   UNL     1      22.404  22.729  14.022  1.00  0.00     0.068 A 
ATOM     15  C   UNL     1      23.708  20.716  13.645  1.00  0.00     0.200 A 
ATOM     16  C   UNL     1      22.465  21.369  13.704  1.00  0.00     0.162 A 
BRANCH  13  17
ATOM     17  O   UNL     1      26.125  20.801  13.829  1.00  0.00    -0.504 OA
ATOM     18  H   UNL     1      26.538  20.540  12.940  1.00  0.00     0.293 HD
ENDBRANCH  13  17
BRANCH  15  19
ATOM     19  O   UNL     1      23.761  19.358  13.328  1.00  0.00    -0.502 OA
ATOM     20  H   UNL     1      22.997  18.882  12.865  1.00  0.00     0.293 HD
ENDBRANCH  15  19
BRANCH  16  21
ATOM     21  O   UNL     1      21.279  20.681  13.447  1.00  0.00    -0.504 OA
ATOM     22  H   UNL     1      21.130  19.728  13.757  1.00  0.00     0.293 HD
ENDBRANCH  16  21
ENDBRANCH   1  11
BRANCH  10  23
ATOM     23  O   UNL     1      22.547  24.478  16.828  1.00  0.00    -0.500 OA
ATOM     24  H   UNL     1      21.992  23.665  16.590  1.00  0.00     0.294 HD
ENDBRANCH  10  23
BRANCH   5  25
ATOM     25  O   UNL     1      24.606  30.125  11.917  1.00  0.00    -0.507 OA
ATOM     26  H   UNL     1      25.076  29.746  11.103  1.00  0.00     0.293 HD
ENDBRANCH   5  25
BRANCH   7  27
ATOM     27  O   UNL     1      22.930  29.681  16.411  1.00  0.00    -0.507 OA
ATOM     28  H   UNL     1      22.468  30.578  16.444  1.00  0.00     0.293 HD
ENDBRANCH   7  27
TORSDOF 7
ENDMDL
MODEL 8
REMARK VINA RESULT:    -2.287      1.574      3.183
REMARK INTER + INTRA:          -3.171
REMARK INTER:                  -2.793
REMARK INTRA:                  -0.378
REMARK UNBOUND:                -0.350
REMARK SMILES Oc1cc(O)c2cc(O)c(-c3cc(O)c(O)c(O)c3)[o+]c2c1.[Cl-]
REMARK SMILES IDX 10 1 20 2 21 3 22 4 2 5 3 6 4 7 6 8 7 9 8 10 11 11 12 12
REMARK SMILES IDX 13 13 19 14 15 15 17 16 14 17 16 19 18 21 9 23 1 25 5 27
REMARK H PARENT 14 18 16 20 18 22 9 24 1 26 5 28
REMARK Flexibility Score: inf
ROOT
ATOM      1  C   UNL     1      23.543  25.109  15.142  1.00  0.00     0.402 A 
ATOM      2  O   UNL     1      23.892  25.892  14.124  1.00  0.00    -0.202 OA
ATOM      3  C   UNL     1      23.863  27.219  14.180  1.00  0.00     0.368 A 
ATOM      4  C   UNL     1      24.252  27.956  13.058  1.00  0.00     0.162 A 
ATOM      5  C   UNL     1      24.235  29.350  13.090  1.00  0.00     0.128 A 
ATOM      6  C   UNL     1      23.827  30.016  14.252  1.00  0.00     0.093 A 
ATOM      7  C   UNL     1      23.432  29.301  15.389  1.00  0.00     0.136 A 
ATOM      8  C   UNL     1      23.446  27.882  15.360  1.00  0.00     0.125 A 
ATOM      9  C   UNL     1      23.056  27.083  16.447  1.00  0.00     0.078 A 
ATOM     10  C   UNL     1      23.092  25.690  16.342  1.00  0.00     0.223 A 
ENDROOT
BRANCH   1  11
ATOM     11  C   UNL     1      23.628  23.642  14.958  1.00  0.00     0.091 A 
ATOM     12  C   UNL     1      22.522  22.895  14.517  1.00  0.00     0.068 A 
ATOM     13  C   UNL     1      22.615  21.505  14.372  1.00  0.00     0.162 A 
ATOM     14  C   UNL     1      24.818  22.974  15.283  1.00  0.00     0.068 A 
ATOM     15  C   UNL     1      23.819  20.846  14.677  1.00  0.00     0.200 A 
ATOM     16  C   UNL     1      24.920  21.587  15.138  1.00  0.00     0.162 A 
BRANCH  13  17
ATOM     17  O   UNL     1      21.513  20.774  13.927  1.00  0.00    -0.504 OA
ATOM     18  H   UNL     1      20.587  20.923  14.311  1.00  0.00     0.293 HD
ENDBRANCH  13  17
BRANCH  15  19
ATOM     19  O   UNL     1      23.929  19.462  14.532  1.00  0.00    -0.502 OA
ATOM     20  H   UNL     1      24.146  19.028  13.644  1.00  0.00     0.293 HD
ENDBRANCH  15  19
BRANCH  16  21
ATOM     21  O   UNL     1      26.125  20.961  15.458  1.00  0.00    -0.504 OA
ATOM     22  H   UNL     1      26.364  20.706  16.408  1.00  0.00     0.293 HD
ENDBRANCH  16  21
ENDBRANCH   1  11
BRANCH  10  23
ATOM     23  O   UNL     1      22.657  24.896  17.404  1.00  0.00    -0.500 OA
ATOM     24  H   UNL     1      22.539  23.895  17.305  1.00  0.00     0.294 HD
ENDBRANCH  10  23
BRANCH   5  25
ATOM     25  O   UNL     1      24.625  30.067  11.961  1.00  0.00    -0.507 OA
ATOM     26  H   UNL     1      25.256  29.671  11.273  1.00  0.00     0.293 HD
ENDBRANCH   5  25
BRANCH   7  27
ATOM     27  O   UNL     1      23.041  30.038  16.510  1.00  0.00    -0.507 OA
ATOM     28  H   UNL     1      23.679  30.517  17.129  1.00  0.00     0.293 HD
ENDBRANCH   7  27
TORSDOF 7
ENDMDL
MODEL 9
REMARK VINA RESULT:    -0.288      6.515      8.644
REMARK INTER + INTRA:          -0.705
REMARK INTER:                  -0.321
REMARK INTRA:                  -0.385
REMARK UNBOUND:                -0.350
REMARK SMILES Oc1cc(O)c2cc(O)c(-c3cc(O)c(O)c(O)c3)[o+]c2c1.[Cl-]
REMARK SMILES IDX 10 1 20 2 21 3 22 4 2 5 3 6 4 7 6 8 7 9 8 10 11 11 12 12
REMARK SMILES IDX 13 13 19 14 15 15 17 16 14 17 16 19 18 21 9 23 1 25 5 27
REMARK H PARENT 14 18 16 20 18 22 9 24 1 26 5 28
REMARK Flexibility Score: inf
ROOT
ATOM      1  C   UNL     1      22.520  20.608  19.535  1.00  0.00     0.402 A 
ATOM      2  O   UNL     1      23.120  20.008  18.510  1.00  0.00    -0.202 OA
ATOM      3  C   UNL     1      22.891  20.327  17.241  1.00  0.00     0.368 A 
ATOM      4  C   UNL     1      23.574  19.641  16.233  1.00  0.00     0.162 A 
ATOM      5  C   UNL     1      23.356  19.958  14.892  1.00  0.00     0.128 A 
ATOM      6  C   UNL     1      22.450  20.970  14.553  1.00  0.00     0.093 A 
ATOM      7  C   UNL     1      21.753  21.672  15.545  1.00  0.00     0.136 A 
ATOM      8  C   UNL     1      21.970  21.350  16.910  1.00  0.00     0.125 A 
ATOM      9  C   UNL     1      21.308  21.992  17.969  1.00  0.00     0.078 A 
ATOM     10  C   UNL     1      21.571  21.617  19.290  1.00  0.00     0.223 A 
ENDROOT
BRANCH   1  11
ATOM     11  C   UNL     1      22.867  20.167  20.905  1.00  0.00     0.091 A 
ATOM     12  C   UNL     1      23.903  20.780  21.631  1.00  0.00     0.068 A 
ATOM     13  C   UNL     1      24.232  20.334  22.917  1.00  0.00     0.162 A 
ATOM     14  C   UNL     1      22.188  19.079  21.474  1.00  0.00     0.068 A 
ATOM     15  C   UNL     1      23.530  19.259  23.488  1.00  0.00     0.200 A 
ATOM     16  C   UNL     1      22.508  18.629  22.758  1.00  0.00     0.162 A 
BRANCH  13  17
ATOM     17  O   UNL     1      25.258  20.955  23.630  1.00  0.00    -0.504 OA
ATOM     18  H   UNL     1      26.225  20.893  23.332  1.00  0.00     0.293 HD
ENDBRANCH  13  17
BRANCH  15  19
ATOM     19  O   UNL     1      23.843  18.806  24.770  1.00  0.00    -0.502 OA
ATOM     20  H   UNL     1      24.763  18.460  25.012  1.00  0.00     0.293 HD
ENDBRANCH  15  19
BRANCH  16  21
ATOM     21  O   UNL     1      21.799  17.554  23.294  1.00  0.00    -0.504 OA
ATOM     22  H   UNL     1      21.456  17.554  24.246  1.00  0.00     0.293 HD
ENDBRANCH  16  21
ENDBRANCH   1  11
BRANCH  10  23
ATOM     23  O   UNL     1      20.876  22.219  20.340  1.00  0.00    -0.500 OA
ATOM     24  H   UNL     1      21.266  22.998  20.858  1.00  0.00     0.294 HD
ENDBRANCH  10  23
BRANCH   5  25
ATOM     25  O   UNL     1      24.046  19.262  13.902  1.00  0.00    -0.507 OA
ATOM     26  H   UNL     1      23.917  18.265  13.766  1.00  0.00     0.293 HD
ENDBRANCH   5  25
BRANCH   7  27
ATOM     27  O   UNL     1      20.869  22.669  15.126  1.00  0.00    -0.507 OA
ATOM     28  H   UNL     1      20.922  23.143  14.237  1.00  0.00     0.293 HD
ENDBRANCH   7  27
TORSDOF 7
ENDMDL
