MODEL 1
REMARK VINA RESULT:    -3.630      0.000      0.000
REMARK INTER + INTRA:          -7.122
REMARK INTER:                  -6.177
REMARK INTRA:                  -0.945
REMARK UNBOUND:                -0.945
REMARK SMILES CCCCCCCCCCCCCC(=O)[O-]
REMARK SMILES IDX 8 1 9 2 10 3 11 4 12 5 13 6 14 7 15 8 16 9 7 10 6 11 5 12
REMARK SMILES IDX 4 13 3 14 2 15 1 16
REMARK H PARENT
REMARK Flexibility Score: inf
ROOT
ATOM      1  C   UNL     1      58.138  29.761  50.515  1.00  0.00     0.000 C 
ENDROOT
BRANCH   1   2
ATOM      2  C   UNL     1      58.947  29.655  49.216  1.00  0.00     0.000 C 
BRANCH   2   3
ATOM      3  C   UNL     1      59.460  28.226  49.002  1.00  0.00     0.000 C 
BRANCH   3   4
ATOM      4  C   UNL     1      60.892  28.070  49.532  1.00  0.00     0.000 C 
BRANCH   4   5
ATOM      5  C   UNL     1      61.060  26.862  50.471  1.00  0.00     0.006 C 
BRANCH   5   6
ATOM      6  C   UNL     1      60.386  25.576  49.961  1.00  0.00     0.053 C 
BRANCH   6   7
ATOM      7  C   UNL     1      59.386  25.026  50.932  1.00  0.00     0.041 C 
ATOM      8  O   UNL     1      59.763  24.285  51.877  1.00  0.00    -0.550 OA
ATOM      9  O   UNL     1      58.042  25.361  50.816  1.00  0.00    -0.550 OA
ENDBRANCH   6   7
ENDBRANCH   5   6
ENDBRANCH   4   5
ENDBRANCH   3   4
ENDBRANCH   2   3
ENDBRANCH   1   2
BRANCH   1  10
ATOM     10  C   UNL     1      57.016  28.712  50.550  1.00  0.00     0.000 C 
BRANCH  10  11
ATOM     11  C   UNL     1      55.617  29.344  50.633  1.00  0.00    -0.000 C 
BRANCH  11  12
ATOM     12  C   UNL     1      54.503  28.375  50.211  1.00  0.00    -0.000 C 
BRANCH  12  13
ATOM     13  C   UNL     1      54.948  26.916  50.390  1.00  0.00    -0.000 C 
BRANCH  13  14
ATOM     14  C   UNL     1      54.508  26.014  49.227  1.00  0.00    -0.000 C 
BRANCH  14  15
ATOM     15  C   UNL     1      53.285  25.152  49.576  1.00  0.00    -0.003 C 
ATOM     16  C   UNL     1      53.239  24.845  51.071  1.00  0.00     0.004 C 
ENDBRANCH  14  15
ENDBRANCH  13  14
ENDBRANCH  12  13
ENDBRANCH  11  12
ENDBRANCH  10  11
ENDBRANCH   1  10
TORSDOF 12
ENDMDL
MODEL 2
REMARK VINA RESULT:    -3.608      2.918      3.692
REMARK INTER + INTRA:          -7.084
REMARK INTER:                  -6.229
REMARK INTRA:                  -0.855
REMARK UNBOUND:                -0.945
REMARK SMILES CCCCCCCCCCCCCC(=O)[O-]
REMARK SMILES IDX 8 1 9 2 10 3 11 4 12 5 13 6 14 7 15 8 16 9 7 10 6 11 5 12
REMARK SMILES IDX 4 13 3 14 2 15 1 16
REMARK H PARENT
REMARK Flexibility Score: inf
ROOT
ATOM      1  C   UNL     1      59.380  28.487  49.125  1.00  0.00     0.000 C 
ENDROOT
BRANCH   1   2
ATOM      2  C   UNL     1      58.947  27.070  49.520  1.00  0.00     0.000 C 
BRANCH   2   3
ATOM      3  C   UNL     1      60.164  26.176  49.784  1.00  0.00     0.000 C 
BRANCH   3   4
ATOM      4  C   UNL     1      61.164  26.871  50.719  1.00  0.00     0.000 C 
BRANCH   4   5
ATOM      5  C   UNL     1      62.532  27.124  50.058  1.00  0.00     0.006 C 
BRANCH   5   6
ATOM      6  C   UNL     1      63.060  28.557  50.245  1.00  0.00     0.053 C 
BRANCH   6   7
ATOM      7  C   UNL     1      63.597  29.142  48.974  1.00  0.00     0.041 C 
ATOM      8  O   UNL     1      63.817  30.379  48.889  1.00  0.00    -0.550 OA
ATOM      9  O   UNL     1      63.889  28.318  47.893  1.00  0.00    -0.550 OA
ENDBRANCH   6   7
ENDBRANCH   5   6
ENDBRANCH   4   5
ENDBRANCH   3   4
ENDBRANCH   2   3
ENDBRANCH   1   2
BRANCH   1  10
ATOM     10  C   UNL     1      58.425  29.538  49.712  1.00  0.00     0.000 C 
BRANCH  10  11
ATOM     11  C   UNL     1      57.648  29.018  50.931  1.00  0.00    -0.000 C 
BRANCH  11  12
ATOM     12  C   UNL     1      56.133  29.237  50.806  1.00  0.00    -0.000 C 
BRANCH  12  13
ATOM     13  C   UNL     1      55.439  27.975  50.270  1.00  0.00    -0.000 C 
BRANCH  13  14
ATOM     14  C   UNL     1      53.956  28.207  49.944  1.00  0.00    -0.000 C 
BRANCH  14  15
ATOM     15  C   UNL     1      53.200  26.898  49.666  1.00  0.00    -0.003 C 
ATOM     16  C   UNL     1      54.145  25.819  49.144  1.00  0.00     0.004 C 
ENDBRANCH  14  15
ENDBRANCH  13  14
ENDBRANCH  12  13
ENDBRANCH  11  12
ENDBRANCH  10  11
ENDBRANCH   1  10
TORSDOF 12
ENDMDL
MODEL 3
REMARK VINA RESULT:    -3.559      2.228      5.236
REMARK INTER + INTRA:          -7.001
REMARK INTER:                  -5.730
REMARK INTRA:                  -1.271
REMARK UNBOUND:                -0.945
REMARK SMILES CCCCCCCCCCCCCC(=O)[O-]
REMARK SMILES IDX 8 1 9 2 10 3 11 4 12 5 13 6 14 7 15 8 16 9 7 10 6 11 5 12
REMARK SMILES IDX 4 13 3 14 2 15 1 16
REMARK H PARENT
REMARK Flexibility Score: inf
ROOT
ATOM      1  C   UNL     1      58.671  29.821  50.969  1.00  0.00     0.000 C 
ENDROOT
BRANCH   1   2
ATOM      2  C   UNL     1      57.336  29.636  51.702  1.00  0.00     0.000 C 
BRANCH   2   3
ATOM      3  C   UNL     1      56.436  28.639  50.961  1.00  0.00     0.000 C 
BRANCH   3   4
ATOM      4  C   UNL     1      55.027  29.216  50.758  1.00  0.00     0.000 C 
BRANCH   4   5
ATOM      5  C   UNL     1      54.101  28.281  49.961  1.00  0.00     0.006 C 
BRANCH   5   6
ATOM      6  C   UNL     1      54.663  26.862  49.766  1.00  0.00     0.053 C 
BRANCH   6   7
ATOM      7  C   UNL     1      53.735  25.801  50.274  1.00  0.00     0.041 C 
ATOM      8  O   UNL     1      53.526  24.763  49.592  1.00  0.00    -0.550 OA
ATOM      9  O   UNL     1      53.128  25.939  51.517  1.00  0.00    -0.550 OA
ENDBRANCH   6   7
ENDBRANCH   5   6
ENDBRANCH   4   5
ENDBRANCH   3   4
ENDBRANCH   2   3
ENDBRANCH   1   2
BRANCH   1  10
ATOM     10  C   UNL     1      58.537  29.457  49.483  1.00  0.00     0.000 C 
BRANCH  10  11
ATOM     11  C   UNL     1      59.723  28.627  48.967  1.00  0.00    -0.000 C 
BRANCH  11  12
ATOM     12  C   UNL     1      59.949  27.344  49.781  1.00  0.00    -0.000 C 
BRANCH  12  13
ATOM     13  C   UNL     1      58.805  26.344  49.555  1.00  0.00    -0.000 C 
BRANCH  13  14
ATOM     14  C   UNL     1      58.621  25.377  50.735  1.00  0.00    -0.000 C 
BRANCH  14  15
ATOM     15  C   UNL     1      59.947  24.762  51.208  1.00  0.00    -0.003 C 
ATOM     16  C   UNL     1      60.431  23.687  50.238  1.00  0.00     0.004 C 
ENDBRANCH  14  15
ENDBRANCH  13  14
ENDBRANCH  12  13
ENDBRANCH  11  12
ENDBRANCH  10  11
ENDBRANCH   1  10
TORSDOF 12
ENDMDL
MODEL 4
REMARK VINA RESULT:    -3.552      1.863      2.898
REMARK INTER + INTRA:          -6.988
REMARK INTER:                  -6.131
REMARK INTRA:                  -0.858
REMARK UNBOUND:                -0.945
REMARK SMILES CCCCCCCCCCCCCC(=O)[O-]
REMARK SMILES IDX 8 1 9 2 10 3 11 4 12 5 13 6 14 7 15 8 16 9 7 10 6 11 5 12
REMARK SMILES IDX 4 13 3 14 2 15 1 16
REMARK H PARENT
REMARK Flexibility Score: inf
ROOT
ATOM      1  C   UNL     1      60.031  27.906  49.529  1.00  0.00     0.000 C 
ENDROOT
BRANCH   1   2
ATOM      2  C   UNL     1      61.542  28.127  49.390  1.00  0.00     0.000 C 
BRANCH   2   3
ATOM      3  C   UNL     1      62.328  26.976  50.031  1.00  0.00     0.000 C 
BRANCH   3   4
ATOM      4  C   UNL     1      61.397  26.051  50.828  1.00  0.00     0.000 C 
BRANCH   4   5
ATOM      5  C   UNL     1      61.640  24.558  50.544  1.00  0.00     0.006 C 
BRANCH   5   6
ATOM      6  C   UNL     1      60.425  23.830  49.943  1.00  0.00     0.053 C 
BRANCH   6   7
ATOM      7  C   UNL     1      60.717  22.397  49.618  1.00  0.00     0.041 C 
ATOM      8  O   UNL     1      60.911  22.046  48.424  1.00  0.00    -0.550 OA
ATOM      9  O   UNL     1      60.811  21.454  50.634  1.00  0.00    -0.550 OA
ENDBRANCH   6   7
ENDBRANCH   5   6
ENDBRANCH   4   5
ENDBRANCH   3   4
ENDBRANCH   2   3
ENDBRANCH   1   2
BRANCH   1  10
ATOM     10  C   UNL     1      59.271  29.238  49.444  1.00  0.00     0.000 C 
BRANCH  10  11
ATOM     11  C   UNL     1      57.840  29.140  49.995  1.00  0.00    -0.000 C 
BRANCH  11  12
ATOM     12  C   UNL     1      57.613  27.874  50.835  1.00  0.00    -0.000 C 
BRANCH  12  13
ATOM     13  C   UNL     1      56.377  27.105  50.346  1.00  0.00    -0.000 C 
BRANCH  13  14
ATOM     14  C   UNL     1      55.122  27.988  50.268  1.00  0.00    -0.000 C 
BRANCH  14  15
ATOM     15  C   UNL     1      53.866  27.196  49.871  1.00  0.00    -0.003 C 
ATOM     16  C   UNL     1      54.238  25.894  49.166  1.00  0.00     0.004 C 
ENDBRANCH  14  15
ENDBRANCH  13  14
ENDBRANCH  12  13
ENDBRANCH  11  12
ENDBRANCH  10  11
ENDBRANCH   1  10
TORSDOF 12
ENDMDL
MODEL 5
REMARK VINA RESULT:    -3.530      1.618      2.544
REMARK INTER + INTRA:          -6.951
REMARK INTER:                  -4.786
REMARK INTRA:                  -2.165
REMARK UNBOUND:                -0.945
REMARK SMILES CCCCCCCCCCCCCC(=O)[O-]
REMARK SMILES IDX 8 1 9 2 10 3 11 4 12 5 13 6 14 7 15 8 16 9 7 10 6 11 5 12
REMARK SMILES IDX 4 13 3 14 2 15 1 16
REMARK H PARENT
REMARK Flexibility Score: inf
ROOT
ATOM      1  C   UNL     1      57.698  30.040  52.062  1.00  0.00     0.000 C 
ENDROOT
BRANCH   1   2
ATOM      2  C   UNL     1      58.902  29.632  51.205  1.00  0.00     0.000 C 
BRANCH   2   3
ATOM      3  C   UNL     1      58.616  29.851  49.714  1.00  0.00     0.000 C 
BRANCH   3   4
ATOM      4  C   UNL     1      59.026  28.623  48.889  1.00  0.00     0.000 C 
BRANCH   4   5
ATOM      5  C   UNL     1      60.036  27.717  49.616  1.00  0.00     0.006 C 
BRANCH   5   6
ATOM      6  C   UNL     1      59.637  26.231  49.642  1.00  0.00     0.053 C 
BRANCH   6   7
ATOM      7  C   UNL     1      60.528  25.412  50.525  1.00  0.00     0.041 C 
ATOM      8  O   UNL     1      60.030  24.606  51.355  1.00  0.00    -0.550 OA
ATOM      9  O   UNL     1      61.910  25.508  50.408  1.00  0.00    -0.550 OA
ENDBRANCH   6   7
ENDBRANCH   5   6
ENDBRANCH   4   5
ENDBRANCH   3   4
ENDBRANCH   2   3
ENDBRANCH   1   2
BRANCH   1  10
ATOM     10  C   UNL     1      57.364  28.951  53.094  1.00  0.00     0.000 C 
BRANCH  10  11
ATOM     11  C   UNL     1      57.739  27.542  52.612  1.00  0.00    -0.000 C 
BRANCH  11  12
ATOM     12  C   UNL     1      56.522  26.610  52.497  1.00  0.00    -0.000 C 
BRANCH  12  13
ATOM     13  C   UNL     1      56.338  26.125  51.052  1.00  0.00    -0.000 C 
BRANCH  13  14
ATOM     14  C   UNL     1      55.923  27.253  50.095  1.00  0.00    -0.000 C 
BRANCH  14  15
ATOM     15  C   UNL     1      54.490  27.747  50.349  1.00  0.00    -0.003 C 
ATOM     16  C   UNL     1      54.456  29.262  50.530  1.00  0.00     0.004 C 
ENDBRANCH  14  15
ENDBRANCH  13  14
ENDBRANCH  12  13
ENDBRANCH  11  12
ENDBRANCH  10  11
ENDBRANCH   1  10
TORSDOF 12
ENDMDL
MODEL 6
REMARK VINA RESULT:    -3.526      2.028      3.718
REMARK INTER + INTRA:          -6.944
REMARK INTER:                  -4.932
REMARK INTRA:                  -2.012
REMARK UNBOUND:                -0.945
REMARK SMILES CCCCCCCCCCCCCC(=O)[O-]
REMARK SMILES IDX 8 1 9 2 10 3 11 4 12 5 13 6 14 7 15 8 16 9 7 10 6 11 5 12
REMARK SMILES IDX 4 13 3 14 2 15 1 16
REMARK H PARENT
REMARK Flexibility Score: inf
ROOT
ATOM      1  C   UNL     1      57.034  26.825  51.538  1.00  0.00     0.000 C 
ENDROOT
BRANCH   1   2
ATOM      2  C   UNL     1      57.197  27.948  52.569  1.00  0.00     0.000 C 
BRANCH   2   3
ATOM      3  C   UNL     1      57.425  29.299  51.880  1.00  0.00     0.000 C 
BRANCH   3   4
ATOM      4  C   UNL     1      57.376  29.153  50.353  1.00  0.00     0.000 C 
BRANCH   4   5
ATOM      5  C   UNL     1      58.676  29.600  49.661  1.00  0.00     0.006 C 
BRANCH   5   6
ATOM      6  C   UNL     1      59.435  28.460  48.960  1.00  0.00     0.053 C 
BRANCH   6   7
ATOM      7  C   UNL     1      60.602  27.969  49.761  1.00  0.00     0.041 C 
ATOM      8  O   UNL     1      60.417  27.422  50.879  1.00  0.00    -0.550 OA
ATOM      9  O   UNL     1      61.893  28.081  49.257  1.00  0.00    -0.550 OA
ENDBRANCH   6   7
ENDBRANCH   5   6
ENDBRANCH   4   5
ENDBRANCH   3   4
ENDBRANCH   2   3
ENDBRANCH   1   2
BRANCH   1  10
ATOM     10  C   UNL     1      56.017  25.779  52.020  1.00  0.00     0.000 C 
BRANCH  10  11
ATOM     11  C   UNL     1      54.714  25.800  51.207  1.00  0.00    -0.000 C 
BRANCH  11  12
ATOM     12  C   UNL     1      54.871  26.507  49.852  1.00  0.00    -0.000 C 
BRANCH  12  13
ATOM     13  C   UNL     1      53.944  27.728  49.760  1.00  0.00    -0.000 C 
BRANCH  13  14
ATOM     14  C   UNL     1      53.192  28.003  51.071  1.00  0.00    -0.000 C 
BRANCH  14  15
ATOM     15  C   UNL     1      53.648  29.301  51.754  1.00  0.00    -0.003 C 
ATOM     16  C   UNL     1      53.943  30.388  50.725  1.00  0.00     0.004 C 
ENDBRANCH  14  15
ENDBRANCH  13  14
ENDBRANCH  12  13
ENDBRANCH  11  12
ENDBRANCH  10  11
ENDBRANCH   1  10
TORSDOF 12
ENDMDL
MODEL 7
REMARK VINA RESULT:    -3.509      1.377      2.155
REMARK INTER + INTRA:          -6.916
REMARK INTER:                  -5.408
REMARK INTRA:                  -1.508
REMARK UNBOUND:                -0.945
REMARK SMILES CCCCCCCCCCCCCC(=O)[O-]
REMARK SMILES IDX 8 1 9 2 10 3 11 4 12 5 13 6 14 7 15 8 16 9 7 10 6 11 5 12
REMARK SMILES IDX 4 13 3 14 2 15 1 16
REMARK H PARENT
REMARK Flexibility Score: inf
ROOT
ATOM      1  C   UNL     1      57.677  29.267  52.389  1.00  0.00     0.000 C 
ENDROOT
BRANCH   1   2
ATOM      2  C   UNL     1      58.483  30.023  51.325  1.00  0.00     0.000 C 
BRANCH   2   3
ATOM      3  C   UNL     1      58.204  29.465  49.924  1.00  0.00     0.000 C 
BRANCH   3   4
ATOM      4  C   UNL     1      58.137  27.931  49.946  1.00  0.00     0.000 C 
BRANCH   4   5
ATOM      5  C   UNL     1      59.337  27.264  49.250  1.00  0.00     0.006 C 
BRANCH   5   6
ATOM      6  C   UNL     1      60.478  26.876  50.207  1.00  0.00     0.053 C 
BRANCH   6   7
ATOM      7  C   UNL     1      60.647  25.392  50.327  1.00  0.00     0.041 C 
ATOM      8  O   UNL     1      59.637  24.640  50.352  1.00  0.00    -0.550 OA
ATOM      9  O   UNL     1      61.919  24.835  50.375  1.00  0.00    -0.550 OA
ENDBRANCH   6   7
ENDBRANCH   5   6
ENDBRANCH   4   5
ENDBRANCH   3   4
ENDBRANCH   2   3
ENDBRANCH   1   2
BRANCH   1  10
ATOM     10  C   UNL     1      56.384  30.020  52.737  1.00  0.00     0.000 C 
BRANCH  10  11
ATOM     11  C   UNL     1      55.120  29.239  52.346  1.00  0.00    -0.000 C 
BRANCH  11  12
ATOM     12  C   UNL     1      54.566  29.655  50.975  1.00  0.00    -0.000 C 
BRANCH  12  13
ATOM     13  C   UNL     1      54.298  28.424  50.096  1.00  0.00    -0.000 C 
BRANCH  13  14
ATOM     14  C   UNL     1      54.775  27.116  50.745  1.00  0.00    -0.000 C 
BRANCH  14  15
ATOM     15  C   UNL     1      54.860  25.955  49.742  1.00  0.00    -0.003 C 
ATOM     16  C   UNL     1      53.562  25.816  48.952  1.00  0.00     0.004 C 
ENDBRANCH  14  15
ENDBRANCH  13  14
ENDBRANCH  12  13
ENDBRANCH  11  12
ENDBRANCH  10  11
ENDBRANCH   1  10
TORSDOF 12
ENDMDL
MODEL 8
REMARK VINA RESULT:    -3.497      5.536      8.576
REMARK INTER + INTRA:          -6.895
REMARK INTER:                  -5.958
REMARK INTRA:                  -0.937
REMARK UNBOUND:                -0.945
REMARK SMILES CCCCCCCCCCCCCC(=O)[O-]
REMARK SMILES IDX 8 1 9 2 10 3 11 4 12 5 13 6 14 7 15 8 16 9 7 10 6 11 5 12
REMARK SMILES IDX 4 13 3 14 2 15 1 16
REMARK H PARENT
REMARK Flexibility Score: inf
ROOT
ATOM      1  C   UNL     1      60.340  20.132  48.525  1.00  0.00     0.000 C 
ENDROOT
BRANCH   1   2
ATOM      2  C   UNL     1      61.052  19.262  49.568  1.00  0.00     0.000 C 
BRANCH   2   3
ATOM      3  C   UNL     1      60.445  17.854  49.616  1.00  0.00     0.000 C 
BRANCH   3   4
ATOM      4  C   UNL     1      59.301  17.713  48.601  1.00  0.00     0.000 C 
BRANCH   4   5
ATOM      5  C   UNL     1      58.122  16.878  49.132  1.00  0.00     0.006 C 
BRANCH   5   6
ATOM      6  C   UNL     1      57.727  17.206  50.583  1.00  0.00     0.053 C 
BRANCH   6   7
ATOM      7  C   UNL     1      56.994  18.508  50.698  1.00  0.00     0.041 C 
ATOM      8  O   UNL     1      55.759  18.561  50.459  1.00  0.00    -0.550 OA
ATOM      9  O   UNL     1      57.664  19.655  51.105  1.00  0.00    -0.550 OA
ENDBRANCH   6   7
ENDBRANCH   5   6
ENDBRANCH   4   5
ENDBRANCH   3   4
ENDBRANCH   2   3
ENDBRANCH   1   2
BRANCH   1  10
ATOM     10  C   UNL     1      60.794  21.597  48.628  1.00  0.00     0.000 C 
BRANCH  10  11
ATOM     11  C   UNL     1      61.770  21.833  49.792  1.00  0.00    -0.000 C 
BRANCH  11  12
ATOM     12  C   UNL     1      61.295  22.938  50.749  1.00  0.00    -0.000 C 
BRANCH  12  13
ATOM     13  C   UNL     1      60.769  24.151  49.968  1.00  0.00    -0.000 C 
BRANCH  13  14
ATOM     14  C   UNL     1      61.453  25.464  50.380  1.00  0.00    -0.000 C 
BRANCH  14  15
ATOM     15  C   UNL     1      60.519  26.678  50.268  1.00  0.00    -0.003 C 
ATOM     16  C   UNL     1      59.081  26.241  50.002  1.00  0.00     0.004 C 
ENDBRANCH  14  15
ENDBRANCH  13  14
ENDBRANCH  12  13
ENDBRANCH  11  12
ENDBRANCH  10  11
ENDBRANCH   1  10
TORSDOF 12
ENDMDL
MODEL 9
REMARK VINA RESULT:    -3.408      3.148      6.192
REMARK INTER + INTRA:          -6.745
REMARK INTER:                  -4.844
REMARK INTRA:                  -1.900
REMARK UNBOUND:                -0.945
REMARK SMILES CCCCCCCCCCCCCC(=O)[O-]
REMARK SMILES IDX 8 1 9 2 10 3 11 4 12 5 13 6 14 7 15 8 16 9 7 10 6 11 5 12
REMARK SMILES IDX 4 13 3 14 2 15 1 16
REMARK H PARENT
REMARK Flexibility Score: inf
ROOT
ATOM      1  C   UNL     1      57.751  26.122  51.398  1.00  0.00     0.000 C 
ENDROOT
BRANCH   1   2
ATOM      2  C   UNL     1      56.313  26.654  51.451  1.00  0.00     0.000 C 
BRANCH   2   3
ATOM      3  C   UNL     1      55.613  26.479  50.098  1.00  0.00     0.000 C 
BRANCH   3   4
ATOM      4  C   UNL     1      54.490  27.512  49.922  1.00  0.00     0.000 C 
BRANCH   4   5
ATOM      5  C   UNL     1      54.878  28.915  50.422  1.00  0.00     0.006 C 
BRANCH   5   6
ATOM      6  C   UNL     1      53.694  29.895  50.511  1.00  0.00     0.053 C 
BRANCH   6   7
ATOM      7  C   UNL     1      53.521  30.463  51.887  1.00  0.00     0.041 C 
ATOM      8  O   UNL     1      53.615  31.705  52.075  1.00  0.00    -0.550 OA
ATOM      9  O   UNL     1      53.218  29.628  52.955  1.00  0.00    -0.550 OA
ENDBRANCH   6   7
ENDBRANCH   5   6
ENDBRANCH   4   5
ENDBRANCH   3   4
ENDBRANCH   2   3
ENDBRANCH   1   2
BRANCH   1  10
ATOM     10  C   UNL     1      58.256  26.043  49.949  1.00  0.00     0.000 C 
BRANCH  10  11
ATOM     11  C   UNL     1      59.401  27.027  49.666  1.00  0.00    -0.000 C 
BRANCH  11  12
ATOM     12  C   UNL     1      58.900  28.438  49.323  1.00  0.00    -0.000 C 
BRANCH  12  13
ATOM     13  C   UNL     1      59.381  29.459  50.365  1.00  0.00    -0.000 C 
BRANCH  13  14
ATOM     14  C   UNL     1      58.232  30.036  51.206  1.00  0.00    -0.000 C 
BRANCH  14  15
ATOM     15  C   UNL     1      58.283  29.577  52.671  1.00  0.00    -0.003 C 
ATOM     16  C   UNL     1      56.951  29.829  53.372  1.00  0.00     0.004 C 
ENDBRANCH  14  15
ENDBRANCH  13  14
ENDBRANCH  12  13
ENDBRANCH  11  12
ENDBRANCH  10  11
ENDBRANCH   1  10
TORSDOF 12
ENDMDL
