MODEL 1
REMARK VINA RESULT:    -3.380      0.000      0.000
REMARK INTER + INTRA:          -8.102
REMARK INTER:                  -6.345
REMARK INTRA:                  -1.757
REMARK UNBOUND:                -1.757
REMARK SMILES CCCCCCCCC=CCCCCCCCC(=O)[O-]
REMARK SMILES IDX 10 1 9 2 11 3 12 4 13 5 14 6 15 7 16 8 17 9 18 10 19 11
REMARK SMILES IDX 20 12 8 13 7 14 6 15 5 16 4 17 3 18 2 19 1 20
REMARK H PARENT
REMARK Flexibility Score: inf
ROOT
ATOM      1  C   UNL     1      16.806  21.282   4.807  1.00  0.00    -0.031 C 
ATOM      2  C   UNL     1      16.754  21.570   6.116  1.00  0.00    -0.031 C 
ENDROOT
BRANCH   1   3
ATOM      3  C   UNL     1      17.555  22.153   3.833  1.00  0.00     0.027 C 
BRANCH   3   4
ATOM      4  C   UNL     1      16.617  22.883   2.859  1.00  0.00     0.004 C 
BRANCH   4   5
ATOM      5  C   UNL     1      17.162  24.263   2.453  1.00  0.00     0.000 C 
BRANCH   5   6
ATOM      6  C   UNL     1      16.584  24.758   1.118  1.00  0.00     0.000 C 
BRANCH   6   7
ATOM      7  C   UNL     1      15.664  23.722   0.453  1.00  0.00     0.000 C 
BRANCH   7   8
ATOM      8  C   UNL     1      16.065  23.488  -1.008  1.00  0.00     0.006 C 
BRANCH   8   9
ATOM      9  C   UNL     1      16.801  24.705  -1.576  1.00  0.00     0.053 C 
BRANCH   9  10
ATOM     10  C   UNL     1      17.069  24.523  -3.037  1.00  0.00     0.041 C 
ATOM     11  O   UNL     1      18.225  24.713  -3.499  1.00  0.00    -0.550 OA
ATOM     12  O   UNL     1      16.031  24.183  -3.897  1.00  0.00    -0.550 OA
ENDBRANCH   9  10
ENDBRANCH   8   9
ENDBRANCH   7   8
ENDBRANCH   6   7
ENDBRANCH   5   6
ENDBRANCH   4   5
ENDBRANCH   3   4
ENDBRANCH   1   3
BRANCH   2  13
ATOM     13  C   UNL     1      15.995  20.704   7.085  1.00  0.00     0.027 C 
BRANCH  13  14
ATOM     14  C   UNL     1      16.084  21.228   8.526  1.00  0.00     0.004 C 
BRANCH  14  15
ATOM     15  C   UNL     1      17.470  21.801   8.850  1.00  0.00     0.000 C 
BRANCH  15  16
ATOM     16  C   UNL     1      17.356  23.097   9.663  1.00  0.00     0.000 C 
BRANCH  16  17
ATOM     17  C   UNL     1      17.448  24.328   8.748  1.00  0.00    -0.000 C 
BRANCH  17  18
ATOM     18  C   UNL     1      16.070  24.829   8.289  1.00  0.00    -0.000 C 
BRANCH  18  19
ATOM     19  C   UNL     1      16.020  25.123   6.782  1.00  0.00    -0.003 C 
ATOM     20  C   UNL     1      17.417  25.089   6.169  1.00  0.00     0.004 C 
ENDBRANCH  18  19
ENDBRANCH  17  18
ENDBRANCH  16  17
ENDBRANCH  15  16
ENDBRANCH  14  15
ENDBRANCH  13  14
ENDBRANCH   2  13
TORSDOF 15
ENDMDL
MODEL 2
REMARK VINA RESULT:    -3.329      1.481      2.300
REMARK INTER + INTRA:          -8.006
REMARK INTER:                  -6.284
REMARK INTRA:                  -1.722
REMARK UNBOUND:                -1.757
REMARK SMILES CCCCCCCCC=CCCCCCCCC(=O)[O-]
REMARK SMILES IDX 10 1 9 2 11 3 12 4 13 5 14 6 15 7 16 8 17 9 18 10 19 11
REMARK SMILES IDX 20 12 8 13 7 14 6 15 5 16 4 17 3 18 2 19 1 20
REMARK H PARENT
REMARK Flexibility Score: inf
ROOT
ATOM      1  C   UNL     1      16.315  20.334   5.961  1.00  0.00    -0.031 C 
ATOM      2  C   UNL     1      15.921  19.835   7.143  1.00  0.00    -0.031 C 
ENDROOT
BRANCH   1   3
ATOM      3  C   UNL     1      16.338  19.491   4.714  1.00  0.00     0.027 C 
BRANCH   3   4
ATOM      4  C   UNL     1      16.595  20.324   3.448  1.00  0.00     0.004 C 
BRANCH   4   5
ATOM      5  C   UNL     1      15.622  19.967   2.311  1.00  0.00     0.000 C 
BRANCH   5   6
ATOM      6  C   UNL     1      15.191  21.195   1.494  1.00  0.00     0.000 C 
BRANCH   6   7
ATOM      7  C   UNL     1      15.978  22.460   1.869  1.00  0.00     0.000 C 
BRANCH   7   8
ATOM      8  C   UNL     1      15.854  23.529   0.777  1.00  0.00     0.006 C 
BRANCH   8   9
ATOM      9  C   UNL     1      15.310  22.925  -0.521  1.00  0.00     0.053 C 
BRANCH   9  10
ATOM     10  C   UNL     1      16.067  23.446  -1.701  1.00  0.00     0.041 C 
ATOM     11  O   UNL     1      15.536  23.453  -2.843  1.00  0.00    -0.550 OA
ATOM     12  O   UNL     1      17.376  23.887  -1.548  1.00  0.00    -0.550 OA
ENDBRANCH   9  10
ENDBRANCH   8   9
ENDBRANCH   7   8
ENDBRANCH   6   7
ENDBRANCH   5   6
ENDBRANCH   4   5
ENDBRANCH   3   4
ENDBRANCH   1   3
BRANCH   2  13
ATOM     13  C   UNL     1      15.911  20.676   8.391  1.00  0.00     0.027 C 
BRANCH  13  14
ATOM     14  C   UNL     1      17.328  21.026   8.868  1.00  0.00     0.004 C 
BRANCH  14  15
ATOM     15  C   UNL     1      17.416  22.456   9.421  1.00  0.00     0.000 C 
BRANCH  15  16
ATOM     16  C   UNL     1      16.143  23.250   9.103  1.00  0.00     0.000 C 
BRANCH  16  17
ATOM     17  C   UNL     1      16.468  24.732   8.858  1.00  0.00    -0.000 C 
BRANCH  17  18
ATOM     18  C   UNL     1      16.600  25.070   7.365  1.00  0.00    -0.000 C 
BRANCH  18  19
ATOM     19  C   UNL     1      15.997  23.986   6.458  1.00  0.00    -0.003 C 
ATOM     20  C   UNL     1      16.835  23.797   5.197  1.00  0.00     0.004 C 
ENDBRANCH  18  19
ENDBRANCH  17  18
ENDBRANCH  16  17
ENDBRANCH  15  16
ENDBRANCH  14  15
ENDBRANCH  13  14
ENDBRANCH   2  13
TORSDOF 15
ENDMDL
MODEL 3
REMARK VINA RESULT:    -3.149      0.904      2.590
REMARK INTER + INTRA:          -7.667
REMARK INTER:                  -6.348
REMARK INTRA:                  -1.319
REMARK UNBOUND:                -1.757
REMARK SMILES CCCCCCCCC=CCCCCCCCC(=O)[O-]
REMARK SMILES IDX 10 1 9 2 11 3 12 4 13 5 14 6 15 7 16 8 17 9 18 10 19 11
REMARK SMILES IDX 20 12 8 13 7 14 6 15 5 16 4 17 3 18 2 19 1 20
REMARK H PARENT
REMARK Flexibility Score: inf
ROOT
ATOM      1  C   UNL     1      16.896  23.156   4.737  1.00  0.00    -0.031 C 
ATOM      2  C   UNL     1      17.464  24.348   4.980  1.00  0.00    -0.031 C 
ENDROOT
BRANCH   1   3
ATOM      3  C   UNL     1      17.173  22.391   3.470  1.00  0.00     0.027 C 
BRANCH   3   4
ATOM      4  C   UNL     1      16.269  22.834   2.308  1.00  0.00     0.004 C 
BRANCH   4   5
ATOM      5  C   UNL     1      16.804  24.094   1.605  1.00  0.00     0.000 C 
BRANCH   5   6
ATOM      6  C   UNL     1      15.979  24.474   0.366  1.00  0.00     0.000 C 
BRANCH   6   7
ATOM      7  C   UNL     1      15.796  23.298  -0.606  1.00  0.00     0.000 C 
BRANCH   7   8
ATOM      8  C   UNL     1      15.980  23.753  -2.059  1.00  0.00     0.006 C 
BRANCH   8   9
ATOM      9  C   UNL     1      17.385  24.319  -2.282  1.00  0.00     0.053 C 
BRANCH   9  10
ATOM     10  C   UNL     1      17.573  24.709  -3.714  1.00  0.00     0.041 C 
ATOM     11  O   UNL     1      18.714  25.028  -4.141  1.00  0.00    -0.550 OA
ATOM     12  O   UNL     1      16.479  24.762  -4.570  1.00  0.00    -0.550 OA
ENDBRANCH   9  10
ENDBRANCH   8   9
ENDBRANCH   7   8
ENDBRANCH   6   7
ENDBRANCH   5   6
ENDBRANCH   4   5
ENDBRANCH   3   4
ENDBRANCH   1   3
BRANCH   2  13
ATOM     13  C   UNL     1      17.177  25.116   6.242  1.00  0.00     0.027 C 
BRANCH  13  14
ATOM     14  C   UNL     1      15.782  24.810   6.805  1.00  0.00     0.004 C 
BRANCH  14  15
ATOM     15  C   UNL     1      15.719  24.989   8.328  1.00  0.00     0.000 C 
BRANCH  15  16
ATOM     16  C   UNL     1      17.005  24.487   8.996  1.00  0.00     0.000 C 
BRANCH  16  17
ATOM     17  C   UNL     1      16.765  23.150   9.714  1.00  0.00    -0.000 C 
BRANCH  17  18
ATOM     18  C   UNL     1      17.471  21.973   9.025  1.00  0.00    -0.000 C 
BRANCH  18  19
ATOM     19  C   UNL     1      16.654  21.394   7.860  1.00  0.00    -0.003 C 
ATOM     20  C   UNL     1      15.624  20.385   8.359  1.00  0.00     0.004 C 
ENDBRANCH  18  19
ENDBRANCH  17  18
ENDBRANCH  16  17
ENDBRANCH  15  16
ENDBRANCH  14  15
ENDBRANCH  13  14
ENDBRANCH   2  13
TORSDOF 15
ENDMDL
MODEL 4
REMARK VINA RESULT:    -3.112      3.000      3.937
REMARK INTER + INTRA:          -7.598
REMARK INTER:                  -5.861
REMARK INTRA:                  -1.737
REMARK UNBOUND:                -1.757
REMARK SMILES CCCCCCCCC=CCCCCCCCC(=O)[O-]
REMARK SMILES IDX 10 1 9 2 11 3 12 4 13 5 14 6 15 7 16 8 17 9 18 10 19 11
REMARK SMILES IDX 20 12 8 13 7 14 6 15 5 16 4 17 3 18 2 19 1 20
REMARK H PARENT
REMARK Flexibility Score: inf
ROOT
ATOM      1  C   UNL     1      17.146  24.103   5.603  1.00  0.00    -0.031 C 
ATOM      2  C   UNL     1      16.525  22.924   5.764  1.00  0.00    -0.031 C 
ENDROOT
BRANCH   1   3
ATOM      3  C   UNL     1      16.823  25.018   4.451  1.00  0.00     0.027 C 
BRANCH   3   4
ATOM      4  C   UNL     1      17.981  25.125   3.446  1.00  0.00     0.004 C 
BRANCH   4   5
ATOM      5  C   UNL     1      17.547  24.750   2.019  1.00  0.00     0.000 C 
BRANCH   5   6
ATOM      6  C   UNL     1      16.068  24.339   1.940  1.00  0.00     0.000 C 
BRANCH   6   7
ATOM      7  C   UNL     1      15.755  23.497   0.692  1.00  0.00     0.000 C 
BRANCH   7   8
ATOM      8  C   UNL     1      15.352  22.070   1.080  1.00  0.00     0.006 C 
BRANCH   8   9
ATOM      9  C   UNL     1      16.081  21.619   2.349  1.00  0.00     0.053 C 
BRANCH   9  10
ATOM     10  C   UNL     1      15.781  20.184   2.646  1.00  0.00     0.041 C 
ATOM     11  O   UNL     1      14.975  19.541   1.922  1.00  0.00    -0.550 OA
ATOM     12  O   UNL     1      16.359  19.567   3.749  1.00  0.00    -0.550 OA
ENDBRANCH   9  10
ENDBRANCH   8   9
ENDBRANCH   7   8
ENDBRANCH   6   7
ENDBRANCH   5   6
ENDBRANCH   4   5
ENDBRANCH   3   4
ENDBRANCH   1   3
BRANCH   2  13
ATOM     13  C   UNL     1      16.857  22.007   6.909  1.00  0.00     0.027 C 
BRANCH  13  14
ATOM     14  C   UNL     1      15.679  21.099   7.289  1.00  0.00     0.004 C 
BRANCH  14  15
ATOM     15  C   UNL     1      14.987  21.556   8.580  1.00  0.00     0.000 C 
BRANCH  15  16
ATOM     16  C   UNL     1      14.915  23.086   8.656  1.00  0.00     0.000 C 
BRANCH  16  17
ATOM     17  C   UNL     1      15.336  23.587  10.046  1.00  0.00    -0.000 C 
BRANCH  17  18
ATOM     18  C   UNL     1      16.433  24.660   9.982  1.00  0.00    -0.000 C 
BRANCH  18  19
ATOM     19  C   UNL     1      17.826  24.067   9.720  1.00  0.00    -0.003 C 
ATOM     20  C   UNL     1      18.697  25.039   8.930  1.00  0.00     0.004 C 
ENDBRANCH  18  19
ENDBRANCH  17  18
ENDBRANCH  16  17
ENDBRANCH  15  16
ENDBRANCH  14  15
ENDBRANCH  13  14
ENDBRANCH   2  13
TORSDOF 15
ENDMDL
MODEL 5
REMARK VINA RESULT:    -2.959      3.314      8.063
REMARK INTER + INTRA:          -7.311
REMARK INTER:                  -5.884
REMARK INTRA:                  -1.427
REMARK UNBOUND:                -1.757
REMARK SMILES CCCCCCCCC=CCCCCCCCC(=O)[O-]
REMARK SMILES IDX 10 1 9 2 11 3 12 4 13 5 14 6 15 7 16 8 17 9 18 10 19 11
REMARK SMILES IDX 20 12 8 13 7 14 6 15 5 16 4 17 3 18 2 19 1 20
REMARK H PARENT
REMARK Flexibility Score: inf
ROOT
ATOM      1  C   UNL     1      16.822  21.588   5.494  1.00  0.00    -0.031 C 
ATOM      2  C   UNL     1      17.323  21.783   4.265  1.00  0.00    -0.031 C 
ENDROOT
BRANCH   1   3
ATOM      3  C   UNL     1      16.372  20.229   5.960  1.00  0.00     0.027 C 
BRANCH   3   4
ATOM      4  C   UNL     1      16.125  20.181   7.477  1.00  0.00     0.004 C 
BRANCH   4   5
ATOM      5  C   UNL     1      15.096  21.230   7.930  1.00  0.00     0.000 C 
BRANCH   5   6
ATOM      6  C   UNL     1      15.645  22.165   9.019  1.00  0.00     0.000 C 
BRANCH   6   7
ATOM      7  C   UNL     1      17.174  22.081   9.154  1.00  0.00     0.000 C 
BRANCH   7   8
ATOM      8  C   UNL     1      17.820  23.456   8.953  1.00  0.00     0.006 C 
BRANCH   8   9
ATOM      9  C   UNL     1      16.768  24.509   8.592  1.00  0.00     0.053 C 
BRANCH   9  10
ATOM     10  C   UNL     1      16.796  24.798   7.124  1.00  0.00     0.041 C 
ATOM     11  O   UNL     1      17.875  25.125   6.562  1.00  0.00    -0.550 OA
ATOM     12  O   UNL     1      15.621  24.747   6.383  1.00  0.00    -0.550 OA
ENDBRANCH   9  10
ENDBRANCH   8   9
ENDBRANCH   7   8
ENDBRANCH   6   7
ENDBRANCH   5   6
ENDBRANCH   4   5
ENDBRANCH   3   4
ENDBRANCH   1   3
BRANCH   2  13
ATOM     13  C   UNL     1      17.760  23.144   3.796  1.00  0.00     0.027 C 
BRANCH  13  14
ATOM     14  C   UNL     1      16.625  23.915   3.106  1.00  0.00     0.004 C 
BRANCH  14  15
ATOM     15  C   UNL     1      16.781  23.932   1.579  1.00  0.00     0.000 C 
BRANCH  15  16
ATOM     16  C   UNL     1      15.587  23.254   0.895  1.00  0.00     0.000 C 
BRANCH  16  17
ATOM     17  C   UNL     1      15.717  23.329  -0.634  1.00  0.00    -0.000 C 
BRANCH  17  18
ATOM     18  C   UNL     1      16.504  24.563  -1.102  1.00  0.00    -0.000 C 
BRANCH  18  19
ATOM     19  C   UNL     1      17.737  24.195  -1.941  1.00  0.00    -0.003 C 
ATOM     20  C   UNL     1      17.606  24.718  -3.368  1.00  0.00     0.004 C 
ENDBRANCH  18  19
ENDBRANCH  17  18
ENDBRANCH  16  17
ENDBRANCH  15  16
ENDBRANCH  14  15
ENDBRANCH  13  14
ENDBRANCH   2  13
TORSDOF 15
ENDMDL
MODEL 6
REMARK VINA RESULT:    -2.874      3.689      8.445
REMARK INTER + INTRA:          -7.152
REMARK INTER:                  -5.855
REMARK INTRA:                  -1.297
REMARK UNBOUND:                -1.757
REMARK SMILES CCCCCCCCC=CCCCCCCCC(=O)[O-]
REMARK SMILES IDX 10 1 9 2 11 3 12 4 13 5 14 6 15 7 16 8 17 9 18 10 19 11
REMARK SMILES IDX 20 12 8 13 7 14 6 15 5 16 4 17 3 18 2 19 1 20
REMARK H PARENT
REMARK Flexibility Score: inf
ROOT
ATOM      1  C   UNL     1      16.673  24.244   4.976  1.00  0.00    -0.031 C 
ATOM      2  C   UNL     1      16.860  25.124   3.980  1.00  0.00    -0.031 C 
ENDROOT
BRANCH   1   3
ATOM      3  C   UNL     1      16.884  24.623   6.417  1.00  0.00     0.027 C 
BRANCH   3   4
ATOM      4  C   UNL     1      15.800  24.046   7.341  1.00  0.00     0.004 C 
BRANCH   4   5
ATOM      5  C   UNL     1      16.027  24.430   8.813  1.00  0.00     0.000 C 
BRANCH   5   6
ATOM      6  C   UNL     1      16.560  23.260   9.654  1.00  0.00     0.000 C 
BRANCH   6   7
ATOM      7  C   UNL     1      17.571  22.393   8.886  1.00  0.00     0.000 C 
BRANCH   7   8
ATOM      8  C   UNL     1      17.241  20.903   9.033  1.00  0.00     0.006 C 
BRANCH   8   9
ATOM      9  C   UNL     1      15.882  20.578   8.404  1.00  0.00     0.053 C 
BRANCH   9  10
ATOM     10  C   UNL     1      16.061  20.000   7.036  1.00  0.00     0.041 C 
ATOM     11  O   UNL     1      16.007  18.754   6.862  1.00  0.00    -0.550 OA
ATOM     12  O   UNL     1      16.328  20.835   5.958  1.00  0.00    -0.550 OA
ENDBRANCH   9  10
ENDBRANCH   8   9
ENDBRANCH   7   8
ENDBRANCH   6   7
ENDBRANCH   5   6
ENDBRANCH   4   5
ENDBRANCH   3   4
ENDBRANCH   1   3
BRANCH   2  13
ATOM     13  C   UNL     1      16.659  24.740   2.539  1.00  0.00     0.027 C 
BRANCH  13  14
ATOM     14  C   UNL     1      16.782  23.225   2.318  1.00  0.00     0.004 C 
BRANCH  14  15
ATOM     15  C   UNL     1      15.561  22.645   1.591  1.00  0.00     0.000 C 
BRANCH  15  16
ATOM     16  C   UNL     1      15.131  23.547   0.427  1.00  0.00     0.000 C 
BRANCH  16  17
ATOM     17  C   UNL     1      15.309  22.828  -0.919  1.00  0.00    -0.000 C 
BRANCH  17  18
ATOM     18  C   UNL     1      15.604  23.798  -2.073  1.00  0.00    -0.000 C 
BRANCH  18  19
ATOM     19  C   UNL     1      16.503  24.969  -1.647  1.00  0.00    -0.003 C 
ATOM     20  C   UNL     1      17.936  24.503  -1.410  1.00  0.00     0.004 C 
ENDBRANCH  18  19
ENDBRANCH  17  18
ENDBRANCH  16  17
ENDBRANCH  15  16
ENDBRANCH  14  15
ENDBRANCH  13  14
ENDBRANCH   2  13
TORSDOF 15
ENDMDL
MODEL 7
REMARK VINA RESULT:    -2.825      4.327      8.048
REMARK INTER + INTRA:          -7.059
REMARK INTER:                  -5.455
REMARK INTRA:                  -1.605
REMARK UNBOUND:                -1.757
REMARK SMILES CCCCCCCCC=CCCCCCCCC(=O)[O-]
REMARK SMILES IDX 10 1 9 2 11 3 12 4 13 5 14 6 15 7 16 8 17 9 18 10 19 11
REMARK SMILES IDX 20 12 8 13 7 14 6 15 5 16 4 17 3 18 2 19 1 20
REMARK H PARENT
REMARK Flexibility Score: inf
ROOT
ATOM      1  C   UNL     1      16.385  19.925   5.126  1.00  0.00    -0.031 C 
ATOM      2  C   UNL     1      16.445  20.009   3.788  1.00  0.00    -0.031 C 
ENDROOT
BRANCH   1   3
ATOM      3  C   UNL     1      16.139  18.615   5.827  1.00  0.00     0.027 C 
BRANCH   3   4
ATOM      4  C   UNL     1      15.997  18.782   7.349  1.00  0.00     0.004 C 
BRANCH   4   5
ATOM      5  C   UNL     1      14.891  19.784   7.722  1.00  0.00     0.000 C 
BRANCH   5   6
ATOM      6  C   UNL     1      15.401  20.919   8.623  1.00  0.00     0.000 C 
BRANCH   6   7
ATOM      7  C   UNL     1      15.389  22.284   7.918  1.00  0.00     0.000 C 
BRANCH   7   8
ATOM      8  C   UNL     1      16.816  22.790   7.674  1.00  0.00     0.006 C 
BRANCH   8   9
ATOM      9  C   UNL     1      17.601  22.869   8.986  1.00  0.00     0.053 C 
BRANCH   9  10
ATOM     10  C   UNL     1      17.941  24.289   9.310  1.00  0.00     0.041 C 
ATOM     11  O   UNL     1      19.086  24.744   9.049  1.00  0.00    -0.550 OA
ATOM     12  O   UNL     1      17.005  25.101   9.940  1.00  0.00    -0.550 OA
ENDBRANCH   9  10
ENDBRANCH   8   9
ENDBRANCH   7   8
ENDBRANCH   6   7
ENDBRANCH   5   6
ENDBRANCH   4   5
ENDBRANCH   3   4
ENDBRANCH   1   3
BRANCH   2  13
ATOM     13  C   UNL     1      16.678  21.321   3.089  1.00  0.00     0.027 C 
BRANCH  13  14
ATOM     14  C   UNL     1      17.653  22.225   3.857  1.00  0.00     0.004 C 
BRANCH  14  15
ATOM     15  C   UNL     1      17.090  23.637   4.069  1.00  0.00     0.000 C 
BRANCH  15  16
ATOM     16  C   UNL     1      16.085  24.001   2.969  1.00  0.00     0.000 C 
BRANCH  16  17
ATOM     17  C   UNL     1      16.766  24.796   1.845  1.00  0.00    -0.000 C 
BRANCH  17  18
ATOM     18  C   UNL     1      16.573  24.151   0.464  1.00  0.00    -0.000 C 
BRANCH  18  19
ATOM     19  C   UNL     1      17.468  24.783  -0.614  1.00  0.00    -0.003 C 
ATOM     20  C   UNL     1      17.386  24.003  -1.923  1.00  0.00     0.004 C 
ENDBRANCH  18  19
ENDBRANCH  17  18
ENDBRANCH  16  17
ENDBRANCH  15  16
ENDBRANCH  14  15
ENDBRANCH  13  14
ENDBRANCH   2  13
TORSDOF 15
ENDMDL
MODEL 8
REMARK VINA RESULT:    -2.749      3.171      7.310
REMARK INTER + INTRA:          -6.918
REMARK INTER:                  -5.548
REMARK INTRA:                  -1.369
REMARK UNBOUND:                -1.757
REMARK SMILES CCCCCCCCC=CCCCCCCCC(=O)[O-]
REMARK SMILES IDX 10 1 9 2 11 3 12 4 13 5 14 6 15 7 16 8 17 9 18 10 19 11
REMARK SMILES IDX 20 12 8 13 7 14 6 15 5 16 4 17 3 18 2 19 1 20
REMARK H PARENT
REMARK Flexibility Score: inf
ROOT
ATOM      1  C   UNL     1      16.062  19.208   5.708  1.00  0.00    -0.031 C 
ATOM      2  C   UNL     1      16.445  20.124   4.806  1.00  0.00    -0.031 C 
ENDROOT
BRANCH   1   3
ATOM      3  C   UNL     1      16.062  19.502   7.185  1.00  0.00     0.027 C 
BRANCH   3   4
ATOM      4  C   UNL     1      16.156  21.007   7.483  1.00  0.00     0.004 C 
BRANCH   4   5
ATOM      5  C   UNL     1      17.139  21.312   8.626  1.00  0.00     0.000 C 
BRANCH   5   6
ATOM      6  C   UNL     1      16.821  22.634   9.342  1.00  0.00     0.000 C 
BRANCH   6   7
ATOM      7  C   UNL     1      17.952  23.665   9.209  1.00  0.00     0.000 C 
BRANCH   7   8
ATOM      8  C   UNL     1      17.457  24.938   8.513  1.00  0.00     0.006 C 
BRANCH   8   9
ATOM      9  C   UNL     1      16.121  24.691   7.806  1.00  0.00     0.053 C 
BRANCH   9  10
ATOM     10  C   UNL     1      16.299  24.724   6.321  1.00  0.00     0.041 C 
ATOM     11  O   UNL     1      15.308  24.565   5.559  1.00  0.00    -0.550 OA
ATOM     12  O   UNL     1      17.567  24.887   5.776  1.00  0.00    -0.550 OA
ENDBRANCH   9  10
ENDBRANCH   8   9
ENDBRANCH   7   8
ENDBRANCH   6   7
ENDBRANCH   5   6
ENDBRANCH   4   5
ENDBRANCH   3   4
ENDBRANCH   1   3
BRANCH   2  13
ATOM     13  C   UNL     1      16.456  19.824   3.331  1.00  0.00     0.027 C 
BRANCH  13  14
ATOM     14  C   UNL     1      16.072  21.047   2.485  1.00  0.00     0.004 C 
BRANCH  14  15
ATOM     15  C   UNL     1      16.730  22.336   2.998  1.00  0.00     0.000 C 
BRANCH  15  16
ATOM     16  C   UNL     1      16.223  23.559   2.224  1.00  0.00     0.000 C 
BRANCH  16  17
ATOM     17  C   UNL     1      17.246  24.705   2.279  1.00  0.00    -0.000 C 
BRANCH  17  18
ATOM     18  C   UNL     1      17.825  25.048   0.898  1.00  0.00    -0.000 C 
BRANCH  18  19
ATOM     19  C   UNL     1      16.962  24.512  -0.255  1.00  0.00    -0.003 C 
ATOM     20  C   UNL     1      17.746  24.491  -1.564  1.00  0.00     0.004 C 
ENDBRANCH  18  19
ENDBRANCH  17  18
ENDBRANCH  16  17
ENDBRANCH  15  16
ENDBRANCH  14  15
ENDBRANCH  13  14
ENDBRANCH   2  13
TORSDOF 15
ENDMDL
MODEL 9
REMARK VINA RESULT:    -2.674      4.073      9.306
REMARK INTER + INTRA:          -6.777
REMARK INTER:                  -5.705
REMARK INTRA:                  -1.072
REMARK UNBOUND:                -1.757
REMARK SMILES CCCCCCCCC=CCCCCCCCC(=O)[O-]
REMARK SMILES IDX 10 1 9 2 11 3 12 4 13 5 14 6 15 7 16 8 17 9 18 10 19 11
REMARK SMILES IDX 20 12 8 13 7 14 6 15 5 16 4 17 3 18 2 19 1 20
REMARK H PARENT
REMARK Flexibility Score: inf
ROOT
ATOM      1  C   UNL     1      16.672  23.445   3.466  1.00  0.00    -0.031 C 
ATOM      2  C   UNL     1      15.647  24.287   3.257  1.00  0.00    -0.031 C 
ENDROOT
BRANCH   1   3
ATOM      3  C   UNL     1      17.139  23.095   4.854  1.00  0.00     0.027 C 
BRANCH   3   4
ATOM      4  C   UNL     1      16.969  24.261   5.841  1.00  0.00     0.004 C 
BRANCH   4   5
ATOM      5  C   UNL     1      15.900  23.967   6.907  1.00  0.00     0.000 C 
BRANCH   5   6
ATOM      6  C   UNL     1      16.342  24.385   8.318  1.00  0.00     0.000 C 
BRANCH   6   7
ATOM      7  C   UNL     1      16.438  23.194   9.285  1.00  0.00     0.000 C 
BRANCH   7   8
ATOM      8  C   UNL     1      17.545  22.224   8.854  1.00  0.00     0.006 C 
BRANCH   8   9
ATOM      9  C   UNL     1      17.108  20.770   9.055  1.00  0.00     0.053 C 
BRANCH   9  10
ATOM     10  C   UNL     1      16.030  20.406   8.085  1.00  0.00     0.041 C 
ATOM     11  O   UNL     1      14.935  19.940   8.499  1.00  0.00    -0.550 OA
ATOM     12  O   UNL     1      16.248  20.542   6.719  1.00  0.00    -0.550 OA
ENDBRANCH   9  10
ENDBRANCH   8   9
ENDBRANCH   7   8
ENDBRANCH   6   7
ENDBRANCH   5   6
ENDBRANCH   4   5
ENDBRANCH   3   4
ENDBRANCH   1   3
BRANCH   2  13
ATOM     13  C   UNL     1      15.189  24.645   1.869  1.00  0.00     0.027 C 
BRANCH  13  14
ATOM     14  C   UNL     1      15.720  23.666   0.811  1.00  0.00     0.004 C 
BRANCH  14  15
ATOM     15  C   UNL     1      15.468  24.166  -0.618  1.00  0.00     0.000 C 
BRANCH  15  16
ATOM     16  C   UNL     1      16.782  24.560  -1.305  1.00  0.00     0.000 C 
BRANCH  16  17
ATOM     17  C   UNL     1      16.710  24.299  -2.817  1.00  0.00    -0.000 C 
BRANCH  17  18
ATOM     18  C   UNL     1      15.358  23.715  -3.254  1.00  0.00    -0.000 C 
BRANCH  18  19
ATOM     19  C   UNL     1      15.038  24.001  -4.729  1.00  0.00    -0.003 C 
ATOM     20  C   UNL     1      15.916  25.125  -5.273  1.00  0.00     0.004 C 
ENDBRANCH  18  19
ENDBRANCH  17  18
ENDBRANCH  16  17
ENDBRANCH  15  16
ENDBRANCH  14  15
ENDBRANCH  13  14
ENDBRANCH   2  13
TORSDOF 15
ENDMDL
