MODEL 1
REMARK VINA RESULT:    48.964      0.000      0.000
REMARK INTER + INTRA:          59.210
REMARK INTER:                  58.983
REMARK INTRA:                   0.227
REMARK UNBOUND:                 0.227
REMARK SMILES O=c1c(O)c(-c2ccc(O)c(O)c2)oc2cc(O)cc(O)c12
REMARK SMILES IDX 5 1 3 2 2 3 1 4 22 5 20 6 19 7 17 8 16 9 15 10 14 11 6 12
REMARK SMILES IDX 7 13 8 14 9 15 13 16 11 17 10 18 12 20 4 22 21 24 18 26
REMARK H PARENT 10 19 12 21 4 23 21 25 18 27
REMARK Flexibility Score: inf
ROOT
ATOM      1  C   UNL     1      18.102  21.750  11.553  1.00  0.00     0.180 A 
ATOM      2  C   UNL     1      17.864  21.503  10.186  1.00  0.00     0.208 A 
ATOM      3  C   UNL     1      18.921  21.045   9.385  1.00  0.00     0.238 A 
ATOM      4  O   UNL     1      18.717  20.810   8.163  1.00  0.00    -0.285 OA
ATOM      5  C   UNL     1      20.198  20.862   9.954  1.00  0.00     0.111 A 
ATOM      6  C   UNL     1      21.317  20.407   9.215  1.00  0.00     0.134 A 
ATOM      7  C   UNL     1      22.558  20.258   9.852  1.00  0.00     0.093 A 
ATOM      8  C   UNL     1      22.701  20.556  11.212  1.00  0.00     0.123 A 
ATOM      9  C   UNL     1      21.600  21.004  11.945  1.00  0.00     0.094 A 
ATOM     10  C   UNL     1      20.355  21.158  11.328  1.00  0.00     0.146 A 
ATOM     11  O   UNL     1      19.323  21.580  12.051  1.00  0.00    -0.452 OA
ENDROOT
BRANCH   1  12
ATOM     12  C   UNL     1      17.035  22.217  12.466  1.00  0.00     0.025 A 
ATOM     13  C   UNL     1      17.374  23.000  13.581  1.00  0.00     0.016 A 
ATOM     14  C   UNL     1      16.385  23.434  14.468  1.00  0.00     0.051 A 
ATOM     15  C   UNL     1      15.047  23.081  14.264  1.00  0.00     0.157 A 
ATOM     16  C   UNL     1      15.692  21.845  12.274  1.00  0.00     0.062 A 
ATOM     17  C   UNL     1      14.699  22.278  13.165  1.00  0.00     0.158 A 
BRANCH  15  18
ATOM     18  O   UNL     1      14.083  23.530  15.165  1.00  0.00    -0.504 OA
ATOM     19  H   UNL     1      13.955  23.101  16.075  1.00  0.00     0.293 HD
ENDBRANCH  15  18
BRANCH  17  20
ATOM     20  O   UNL     1      13.370  21.909  12.964  1.00  0.00    -0.504 OA
ATOM     21  H   UNL     1      12.632  22.601  12.894  1.00  0.00     0.293 HD
ENDBRANCH  17  20
ENDBRANCH   1  12
BRANCH   2  22
ATOM     22  O   UNL     1      16.601  21.741   9.637  1.00  0.00    -0.502 OA
ATOM     23  H   UNL     1      16.477  22.074   8.688  1.00  0.00     0.293 HD
ENDBRANCH   2  22
BRANCH   6  24
ATOM     24  O   UNL     1      21.206  20.103   7.858  1.00  0.00    -0.507 OA
ATOM     25  H   UNL     1      22.004  20.144   7.235  1.00  0.00     0.293 HD
ENDBRANCH   6  24
BRANCH   8  26
ATOM     26  O   UNL     1      23.933  20.410  11.846  1.00  0.00    -0.508 OA
ATOM     27  H   UNL     1      24.733  20.975  11.584  1.00  0.00     0.293 HD
ENDBRANCH   8  26
TORSDOF 6
ENDMDL
