MODEL 1
REMARK VINA RESULT:     8.997      0.000      0.000
REMARK INTER + INTRA:          16.219
REMARK INTER:                  17.412
REMARK INTRA:                  -1.193
REMARK UNBOUND:                -1.193
REMARK SMILES CCCCCCCCCCCCCCCCCC(=O)[O-]
REMARK SMILES IDX 10 1 11 2 12 3 13 4 14 5 15 6 16 7 17 8 18 9 19 10 20 11
REMARK SMILES IDX 9 12 8 13 7 14 6 15 5 16 4 17 3 18 2 19 1 20
REMARK H PARENT
REMARK Flexibility Score: inf
ROOT
ATOM      1  C   UNL     1      36.484  15.110  43.871  1.00  0.00     0.000 C 
ENDROOT
BRANCH   1   2
ATOM      2  C   UNL     1      35.111  15.813  43.860  1.00  0.00     0.000 C 
BRANCH   2   3
ATOM      3  C   UNL     1      35.204  17.257  43.339  1.00  0.00     0.000 C 
BRANCH   3   4
ATOM      4  C   UNL     1      34.015  17.642  42.444  1.00  0.00     0.000 C 
BRANCH   4   5
ATOM      5  C   UNL     1      34.047  16.928  41.082  1.00  0.00     0.000 C 
BRANCH   5   6
ATOM      6  C   UNL     1      34.442  17.864  39.927  1.00  0.00     0.000 C 
BRANCH   6   7
ATOM      7  C   UNL     1      33.471  17.813  38.729  1.00  0.00     0.006 C 
BRANCH   7   8
ATOM      8  C   UNL     1      32.209  18.652  38.968  1.00  0.00     0.053 C 
BRANCH   8   9
ATOM      9  C   UNL     1      31.335  18.639  37.754  1.00  0.00     0.041 C 
ATOM     10  O   UNL     1      30.770  19.698  37.369  1.00  0.00    -0.550 OA
ATOM     11  O   UNL     1      31.104  17.449  37.075  1.00  0.00    -0.550 OA
ENDBRANCH   8   9
ENDBRANCH   7   8
ENDBRANCH   6   7
ENDBRANCH   5   6
ENDBRANCH   4   5
ENDBRANCH   3   4
ENDBRANCH   2   3
ENDBRANCH   1   2
BRANCH   1  12
ATOM     12  C   UNL     1      36.508  13.791  43.079  1.00  0.00     0.000 C 
BRANCH  12  13
ATOM     13  C   UNL     1      35.115  13.348  42.613  1.00  0.00    -0.000 C 
BRANCH  13  14
ATOM     14  C   UNL     1      35.194  12.579  41.288  1.00  0.00    -0.000 C 
BRANCH  14  15
ATOM     15  C   UNL     1      34.241  13.183  40.246  1.00  0.00    -0.000 C 
BRANCH  15  16
ATOM     16  C   UNL     1      33.034  12.278  39.953  1.00  0.00    -0.000 C 
BRANCH  16  17
ATOM     17  C   UNL     1      33.054  10.979  40.778  1.00  0.00    -0.000 C 
BRANCH  17  18
ATOM     18  C   UNL     1      32.743   9.736  39.931  1.00  0.00    -0.000 C 
BRANCH  18  19
ATOM     19  C   UNL     1      33.944   8.787  39.812  1.00  0.00    -0.003 C 
ATOM     20  C   UNL     1      35.260   9.559  39.849  1.00  0.00     0.004 C 
ENDBRANCH  18  19
ENDBRANCH  17  18
ENDBRANCH  16  17
ENDBRANCH  15  16
ENDBRANCH  14  15
ENDBRANCH  13  14
ENDBRANCH  12  13
ENDBRANCH   1  12
TORSDOF 16
ENDMDL
MODEL 2
REMARK VINA RESULT:     9.167      3.364      7.091
REMARK INTER + INTRA:          16.549
REMARK INTER:                  17.809
REMARK INTRA:                  -1.260
REMARK UNBOUND:                -1.193
REMARK SMILES CCCCCCCCCCCCCCCCCC(=O)[O-]
REMARK SMILES IDX 10 1 11 2 12 3 13 4 14 5 15 6 16 7 17 8 18 9 19 10 20 11
REMARK SMILES IDX 9 12 8 13 7 14 6 15 5 16 4 17 3 18 2 19 1 20
REMARK H PARENT
REMARK Flexibility Score: inf
ROOT
ATOM      1  C   UNL     1      34.987  15.309  43.541  1.00  0.00     0.000 C 
ENDROOT
BRANCH   1   2
ATOM      2  C   UNL     1      36.298  14.502  43.445  1.00  0.00     0.000 C 
BRANCH   2   3
ATOM      3  C   UNL     1      36.141  13.246  42.570  1.00  0.00     0.000 C 
BRANCH   3   4
ATOM      4  C   UNL     1      34.704  13.057  42.058  1.00  0.00     0.000 C 
BRANCH   4   5
ATOM      5  C   UNL     1      34.607  13.145  40.526  1.00  0.00     0.000 C 
BRANCH   5   6
ATOM      6  C   UNL     1      33.422  12.348  39.956  1.00  0.00     0.000 C 
BRANCH   6   7
ATOM      7  C   UNL     1      32.875  11.277  40.922  1.00  0.00     0.006 C 
BRANCH   7   8
ATOM      8  C   UNL     1      32.666   9.923  40.231  1.00  0.00     0.053 C 
BRANCH   8   9
ATOM      9  C   UNL     1      33.971   9.377  39.742  1.00  0.00     0.041 C 
ATOM     10  O   UNL     1      35.009   9.493  40.446  1.00  0.00    -0.550 OA
ATOM     11  O   UNL     1      34.052   8.785  38.488  1.00  0.00    -0.550 OA
ENDBRANCH   8   9
ENDBRANCH   7   8
ENDBRANCH   6   7
ENDBRANCH   5   6
ENDBRANCH   4   5
ENDBRANCH   3   4
ENDBRANCH   2   3
ENDBRANCH   1   2
BRANCH   1  12
ATOM     12  C   UNL     1      35.202  16.799  43.859  1.00  0.00     0.000 C 
BRANCH  12  13
ATOM     13  C   UNL     1      35.033  17.703  42.631  1.00  0.00    -0.000 C 
BRANCH  13  14
ATOM     14  C   UNL     1      33.793  17.306  41.819  1.00  0.00    -0.000 C 
BRANCH  14  15
ATOM     15  C   UNL     1      34.192  16.775  40.434  1.00  0.00    -0.000 C 
BRANCH  15  16
ATOM     16  C   UNL     1      34.102  17.850  39.340  1.00  0.00    -0.000 C 
BRANCH  16  17
ATOM     17  C   UNL     1      32.653  18.282  39.052  1.00  0.00    -0.000 C 
BRANCH  17  18
ATOM     18  C   UNL     1      32.196  17.906  37.634  1.00  0.00    -0.000 C 
BRANCH  18  19
ATOM     19  C   UNL     1      30.941  18.676  37.196  1.00  0.00    -0.003 C 
ATOM     20  C   UNL     1      30.769  19.954  38.010  1.00  0.00     0.004 C 
ENDBRANCH  18  19
ENDBRANCH  17  18
ENDBRANCH  16  17
ENDBRANCH  15  16
ENDBRANCH  14  15
ENDBRANCH  13  14
ENDBRANCH  12  13
ENDBRANCH   1  12
TORSDOF 16
ENDMDL
MODEL 3
REMARK VINA RESULT:     9.800      4.701      9.682
REMARK INTER + INTRA:          17.773
REMARK INTER:                  18.642
REMARK INTRA:                  -0.869
REMARK UNBOUND:                -1.193
REMARK SMILES CCCCCCCCCCCCCCCCCC(=O)[O-]
REMARK SMILES IDX 10 1 11 2 12 3 13 4 14 5 15 6 16 7 17 8 18 9 19 10 20 11
REMARK SMILES IDX 9 12 8 13 7 14 6 15 5 16 4 17 3 18 2 19 1 20
REMARK H PARENT
REMARK Flexibility Score: inf
ROOT
ATOM      1  C   UNL     1      32.613   9.900  40.231  1.00  0.00     0.000 C 
ENDROOT
BRANCH   1   2
ATOM      2  C   UNL     1      33.733   9.083  39.555  1.00  0.00     0.000 C 
BRANCH   2   3
ATOM      3  C   UNL     1      34.315   8.011  40.494  1.00  0.00     0.000 C 
BRANCH   3   4
ATOM      4  C   UNL     1      33.880   6.588  40.108  1.00  0.00     0.000 C 
BRANCH   4   5
ATOM      5  C   UNL     1      33.456   5.751  41.327  1.00  0.00     0.000 C 
BRANCH   5   6
ATOM      6  C   UNL     1      32.579   4.546  40.947  1.00  0.00     0.000 C 
BRANCH   6   7
ATOM      7  C   UNL     1      31.074   4.878  40.864  1.00  0.00     0.006 C 
BRANCH   7   8
ATOM      8  C   UNL     1      30.516   5.380  42.203  1.00  0.00     0.053 C 
BRANCH   8   9
ATOM      9  C   UNL     1      29.168   6.000  42.009  1.00  0.00     0.041 C 
ATOM     10  O   UNL     1      29.071   7.185  41.589  1.00  0.00    -0.550 OA
ATOM     11  O   UNL     1      28.021   5.289  42.336  1.00  0.00    -0.550 OA
ENDBRANCH   8   9
ENDBRANCH   7   8
ENDBRANCH   6   7
ENDBRANCH   5   6
ENDBRANCH   4   5
ENDBRANCH   3   4
ENDBRANCH   2   3
ENDBRANCH   1   2
BRANCH   1  12
ATOM     12  C   UNL     1      33.135  11.044  41.118  1.00  0.00     0.000 C 
BRANCH  12  13
ATOM     13  C   UNL     1      33.676  12.230  40.308  1.00  0.00    -0.000 C 
BRANCH  13  14
ATOM     14  C   UNL     1      35.004  12.735  40.886  1.00  0.00    -0.000 C 
BRANCH  14  15
ATOM     15  C   UNL     1      34.806  13.300  42.300  1.00  0.00    -0.000 C 
BRANCH  15  16
ATOM     16  C   UNL     1      36.133  13.508  43.045  1.00  0.00    -0.000 C 
BRANCH  16  17
ATOM     17  C   UNL     1      36.301  14.947  43.565  1.00  0.00    -0.000 C 
BRANCH  17  18
ATOM     18  C   UNL     1      34.956  15.647  43.809  1.00  0.00    -0.000 C 
BRANCH  18  19
ATOM     19  C   UNL     1      34.833  16.971  43.040  1.00  0.00    -0.003 C 
ATOM     20  C   UNL     1      35.554  18.100  43.770  1.00  0.00     0.004 C 
ENDBRANCH  18  19
ENDBRANCH  17  18
ENDBRANCH  16  17
ENDBRANCH  15  16
ENDBRANCH  14  15
ENDBRANCH  13  14
ENDBRANCH  12  13
ENDBRANCH   1  12
TORSDOF 16
ENDMDL
MODEL 4
REMARK VINA RESULT:    10.355      3.730      6.624
REMARK INTER + INTRA:          18.848
REMARK INTER:                  19.819
REMARK INTRA:                  -0.970
REMARK UNBOUND:                -1.193
REMARK SMILES CCCCCCCCCCCCCCCCCC(=O)[O-]
REMARK SMILES IDX 10 1 11 2 12 3 13 4 14 5 15 6 16 7 17 8 18 9 19 10 20 11
REMARK SMILES IDX 9 12 8 13 7 14 6 15 5 16 4 17 3 18 2 19 1 20
REMARK H PARENT
REMARK Flexibility Score: inf
ROOT
ATOM      1  C   UNL     1      32.874   9.785  39.994  1.00  0.00     0.000 C 
ENDROOT
BRANCH   1   2
ATOM      2  C   UNL     1      32.911  11.044  40.887  1.00  0.00     0.000 C 
BRANCH   2   3
ATOM      3  C   UNL     1      33.186  12.321  40.074  1.00  0.00     0.000 C 
BRANCH   3   4
ATOM      4  C   UNL     1      34.576  12.914  40.356  1.00  0.00     0.000 C 
BRANCH   4   5
ATOM      5  C   UNL     1      35.054  12.638  41.792  1.00  0.00     0.000 C 
BRANCH   5   6
ATOM      6  C   UNL     1      36.297  13.458  42.175  1.00  0.00     0.000 C 
BRANCH   6   7
ATOM      7  C   UNL     1      36.274  13.974  43.629  1.00  0.00     0.006 C 
BRANCH   7   8
ATOM      8  C   UNL     1      36.660  15.456  43.726  1.00  0.00     0.053 C 
BRANCH   8   9
ATOM      9  C   UNL     1      35.436  16.315  43.751  1.00  0.00     0.041 C 
ATOM     10  O   UNL     1      34.292  15.788  43.799  1.00  0.00    -0.550 OA
ATOM     11  O   UNL     1      35.554  17.697  43.672  1.00  0.00    -0.550 OA
ENDBRANCH   8   9
ENDBRANCH   7   8
ENDBRANCH   6   7
ENDBRANCH   5   6
ENDBRANCH   4   5
ENDBRANCH   3   4
ENDBRANCH   2   3
ENDBRANCH   1   2
BRANCH   1  12
ATOM     12  C   UNL     1      34.257   9.150  39.768  1.00  0.00     0.000 C 
BRANCH  12  13
ATOM     13  C   UNL     1      34.491   7.904  40.634  1.00  0.00    -0.000 C 
BRANCH  13  14
ATOM     14  C   UNL     1      33.756   6.686  40.060  1.00  0.00    -0.000 C 
BRANCH  14  15
ATOM     15  C   UNL     1      33.801   5.506  41.041  1.00  0.00    -0.000 C 
BRANCH  15  16
ATOM     16  C   UNL     1      32.448   4.787  41.165  1.00  0.00    -0.000 C 
BRANCH  16  17
ATOM     17  C   UNL     1      31.300   5.745  41.527  1.00  0.00    -0.000 C 
BRANCH  17  18
ATOM     18  C   UNL     1      30.135   5.032  42.230  1.00  0.00    -0.000 C 
BRANCH  18  19
ATOM     19  C   UNL     1      28.796   5.759  42.037  1.00  0.00    -0.003 C 
ATOM     20  C   UNL     1      29.007   7.157  41.464  1.00  0.00     0.004 C 
ENDBRANCH  18  19
ENDBRANCH  17  18
ENDBRANCH  16  17
ENDBRANCH  15  16
ENDBRANCH  14  15
ENDBRANCH  13  14
ENDBRANCH  12  13
ENDBRANCH   1  12
TORSDOF 16
ENDMDL
MODEL 5
REMARK VINA RESULT:    10.517      5.135      9.141
REMARK INTER + INTRA:          19.162
REMARK INTER:                  19.592
REMARK INTRA:                  -0.430
REMARK UNBOUND:                -1.193
REMARK SMILES CCCCCCCCCCCCCCCCCC(=O)[O-]
REMARK SMILES IDX 10 1 11 2 12 3 13 4 14 5 15 6 16 7 17 8 18 9 19 10 20 11
REMARK SMILES IDX 9 12 8 13 7 14 6 15 5 16 4 17 3 18 2 19 1 20
REMARK H PARENT
REMARK Flexibility Score: inf
ROOT
ATOM      1  C   UNL     1      33.057  11.961  40.702  1.00  0.00     0.000 C 
ENDROOT
BRANCH   1   2
ATOM      2  C   UNL     1      33.750  10.701  41.262  1.00  0.00     0.000 C 
BRANCH   2   3
ATOM      3  C   UNL     1      34.010   9.650  40.168  1.00  0.00     0.000 C 
BRANCH   3   4
ATOM      4  C   UNL     1      32.714   9.022  39.630  1.00  0.00     0.000 C 
BRANCH   4   5
ATOM      5  C   UNL     1      31.569   9.067  40.656  1.00  0.00     0.000 C 
BRANCH   5   6
ATOM      6  C   UNL     1      30.258   8.472  40.113  1.00  0.00     0.000 C 
BRANCH   6   7
ATOM      7  C   UNL     1      29.317   7.940  41.214  1.00  0.00     0.006 C 
BRANCH   7   8
ATOM      8  C   UNL     1      28.937   6.470  40.993  1.00  0.00     0.053 C 
BRANCH   8   9
ATOM      9  C   UNL     1      29.607   5.597  42.007  1.00  0.00     0.041 C 
ATOM     10  O   UNL     1      30.730   5.084  41.757  1.00  0.00    -0.550 OA
ATOM     11  O   UNL     1      28.971   5.312  43.209  1.00  0.00    -0.550 OA
ENDBRANCH   8   9
ENDBRANCH   7   8
ENDBRANCH   6   7
ENDBRANCH   5   6
ENDBRANCH   4   5
ENDBRANCH   3   4
ENDBRANCH   2   3
ENDBRANCH   1   2
BRANCH   1  12
ATOM     12  C   UNL     1      34.031  12.972  40.073  1.00  0.00     0.000 C 
BRANCH  12  13
ATOM     13  C   UNL     1      35.368  13.060  40.822  1.00  0.00    -0.000 C 
BRANCH  13  14
ATOM     14  C   UNL     1      35.146  13.303  42.320  1.00  0.00    -0.000 C 
BRANCH  14  15
ATOM     15  C   UNL     1      36.470  13.638  43.023  1.00  0.00    -0.000 C 
BRANCH  15  16
ATOM     16  C   UNL     1      36.391  14.930  43.850  1.00  0.00    -0.000 C 
BRANCH  16  17
ATOM     17  C   UNL     1      34.977  15.535  43.870  1.00  0.00    -0.000 C 
BRANCH  17  18
ATOM     18  C   UNL     1      34.907  16.897  43.162  1.00  0.00    -0.000 C 
BRANCH  18  19
ATOM     19  C   UNL     1      35.678  17.991  43.913  1.00  0.00    -0.003 C 
ATOM     20  C   UNL     1      35.447  19.360  43.280  1.00  0.00     0.004 C 
ENDBRANCH  18  19
ENDBRANCH  17  18
ENDBRANCH  16  17
ENDBRANCH  15  16
ENDBRANCH  14  15
ENDBRANCH  13  14
ENDBRANCH  12  13
ENDBRANCH   1  12
TORSDOF 16
ENDMDL
MODEL 6
REMARK VINA RESULT:    10.540      3.552      5.636
REMARK INTER + INTRA:          19.206
REMARK INTER:                  19.926
REMARK INTRA:                  -0.720
REMARK UNBOUND:                -1.193
REMARK SMILES CCCCCCCCCCCCCCCCCC(=O)[O-]
REMARK SMILES IDX 10 1 11 2 12 3 13 4 14 5 15 6 16 7 17 8 18 9 19 10 20 11
REMARK SMILES IDX 9 12 8 13 7 14 6 15 5 16 4 17 3 18 2 19 1 20
REMARK H PARENT
REMARK Flexibility Score: inf
ROOT
ATOM      1  C   UNL     1      33.102  12.306  40.132  1.00  0.00     0.000 C 
ENDROOT
BRANCH   1   2
ATOM      2  C   UNL     1      34.340  13.223  40.218  1.00  0.00     0.000 C 
BRANCH   2   3
ATOM      3  C   UNL     1      35.334  12.752  41.294  1.00  0.00     0.000 C 
BRANCH   3   4
ATOM      4  C   UNL     1      35.225  13.564  42.595  1.00  0.00     0.000 C 
BRANCH   4   5
ATOM      5  C   UNL     1      36.601  13.923  43.182  1.00  0.00     0.000 C 
BRANCH   5   6
ATOM      6  C   UNL     1      36.562  15.180  44.067  1.00  0.00     0.000 C 
BRANCH   6   7
ATOM      7  C   UNL     1      35.188  15.882  44.085  1.00  0.00     0.006 C 
BRANCH   7   8
ATOM      8  C   UNL     1      35.042  16.902  42.948  1.00  0.00     0.053 C 
BRANCH   8   9
ATOM      9  C   UNL     1      35.418  18.271  43.421  1.00  0.00     0.041 C 
ATOM     10  O   UNL     1      35.732  19.165  42.590  1.00  0.00    -0.550 OA
ATOM     11  O   UNL     1      35.469  18.547  44.781  1.00  0.00    -0.550 OA
ENDBRANCH   8   9
ENDBRANCH   7   8
ENDBRANCH   6   7
ENDBRANCH   5   6
ENDBRANCH   4   5
ENDBRANCH   3   4
ENDBRANCH   2   3
ENDBRANCH   1   2
BRANCH   1  12
ATOM     12  C   UNL     1      33.239  11.007  40.943  1.00  0.00     0.000 C 
BRANCH  12  13
ATOM     13  C   UNL     1      33.753   9.829  40.104  1.00  0.00    -0.000 C 
BRANCH  13  14
ATOM     14  C   UNL     1      32.618   8.852  39.770  1.00  0.00    -0.000 C 
BRANCH  14  15
ATOM     15  C   UNL     1      31.399   9.100  40.670  1.00  0.00    -0.000 C 
BRANCH  15  16
ATOM     16  C   UNL     1      30.217   8.178  40.333  1.00  0.00    -0.000 C 
BRANCH  16  17
ATOM     17  C   UNL     1      29.362   7.835  41.566  1.00  0.00    -0.000 C 
BRANCH  17  18
ATOM     18  C   UNL     1      28.861   6.383  41.551  1.00  0.00    -0.000 C 
BRANCH  18  19
ATOM     19  C   UNL     1      29.776   5.436  42.342  1.00  0.00    -0.003 C 
ATOM     20  C   UNL     1      30.927   4.934  41.475  1.00  0.00     0.004 C 
ENDBRANCH  18  19
ENDBRANCH  17  18
ENDBRANCH  16  17
ENDBRANCH  15  16
ENDBRANCH  14  15
ENDBRANCH  13  14
ENDBRANCH  12  13
ENDBRANCH   1  12
TORSDOF 16
ENDMDL
