MODEL 1
REMARK VINA RESULT:    -4.726      0.000      0.000
REMARK INTER + INTRA:         -15.226
REMARK INTER:                 -11.908
REMARK INTRA:                  -3.317
REMARK UNBOUND:                -3.317
REMARK SMILES CCCCCCCCCCCCCCCCCCCCCCCCCCCC(=O)[O-]
REMARK SMILES IDX 15 1 16 2 17 3 18 4 19 5 20 6 21 7 22 8 23 9 24 10 25 11
REMARK SMILES IDX 26 12 27 13 28 14 29 15 30 16 14 17 13 18 12 19 11 20 10 21
REMARK SMILES IDX 9 22 8 23 7 24 6 25 5 26 4 27 3 28 2 29 1 30
REMARK H PARENT
REMARK Flexibility Score: inf
ROOT
ATOM      1  C   UNL     1       7.582 -13.381  36.981  1.00  0.00     0.000 C 
ENDROOT
BRANCH   1   2
ATOM      2  C   UNL     1       8.502 -12.905  38.122  1.00  0.00     0.000 C 
BRANCH   2   3
ATOM      3  C   UNL     1       9.771 -13.762  38.267  1.00  0.00     0.000 C 
BRANCH   3   4
ATOM      4  C   UNL     1       9.905 -14.805  37.144  1.00  0.00     0.000 C 
BRANCH   4   5
ATOM      5  C   UNL     1      11.281 -14.761  36.457  1.00  0.00     0.000 C 
BRANCH   5   6
ATOM      6  C   UNL     1      12.407 -14.304  37.404  1.00  0.00     0.000 C 
BRANCH   6   7
ATOM      7  C   UNL     1      13.562 -13.547  36.722  1.00  0.00     0.000 C 
BRANCH   7   8
ATOM      8  C   UNL     1      13.351 -13.226  35.229  1.00  0.00     0.000 C 
BRANCH   8   9
ATOM      9  C   UNL     1      13.988 -11.895  34.775  1.00  0.00     0.000 C 
BRANCH   9  10
ATOM     10  C   UNL     1      12.987 -10.726  34.772  1.00  0.00     0.000 C 
BRANCH  10  11
ATOM     11  C   UNL     1      11.557 -11.160  35.140  1.00  0.00     0.000 C 
BRANCH  11  12
ATOM     12  C   UNL     1      11.105 -10.765  36.559  1.00  0.00     0.006 C 
BRANCH  12  13
ATOM     13  C   UNL     1      12.145  -9.915  37.305  1.00  0.00     0.053 C 
BRANCH  13  14
ATOM     14  C   UNL     1      12.154 -10.243  38.766  1.00  0.00     0.041 C 
ATOM     15  O   UNL     1      13.212 -10.120  39.438  1.00  0.00    -0.550 OA
ATOM     16  O   UNL     1      10.986 -10.664  39.391  1.00  0.00    -0.550 OA
ENDBRANCH  13  14
ENDBRANCH  12  13
ENDBRANCH  11  12
ENDBRANCH  10  11
ENDBRANCH   9  10
ENDBRANCH   8   9
ENDBRANCH   7   8
ENDBRANCH   6   7
ENDBRANCH   5   6
ENDBRANCH   4   5
ENDBRANCH   3   4
ENDBRANCH   2   3
ENDBRANCH   1   2
BRANCH   1  17
ATOM     17  C   UNL     1       7.191 -12.300  35.957  1.00  0.00     0.000 C 
BRANCH  17  18
ATOM     18  C   UNL     1       7.038 -10.907  36.584  1.00  0.00     0.000 C 
BRANCH  18  19
ATOM     19  C   UNL     1       5.748 -10.224  36.107  1.00  0.00     0.000 C 
BRANCH  19  20
ATOM     20  C   UNL     1       5.301  -9.072  37.028  1.00  0.00     0.000 C 
BRANCH  20  21
ATOM     21  C   UNL     1       3.954  -8.425  36.658  1.00  0.00     0.000 C 
BRANCH  21  22
ATOM     22  C   UNL     1       4.117  -7.090  35.913  1.00  0.00    -0.000 C 
BRANCH  22  23
ATOM     23  C   UNL     1       2.817  -6.264  35.880  1.00  0.00    -0.000 C 
BRANCH  23  24
ATOM     24  C   UNL     1       2.985  -4.796  35.440  1.00  0.00    -0.000 C 
BRANCH  24  25
ATOM     25  C   UNL     1       4.179  -4.530  34.503  1.00  0.00    -0.000 C 
BRANCH  25  26
ATOM     26  C   UNL     1       4.847  -3.150  34.669  1.00  0.00    -0.000 C 
BRANCH  26  27
ATOM     27  C   UNL     1       6.320  -3.183  35.115  1.00  0.00    -0.000 C 
BRANCH  27  28
ATOM     28  C   UNL     1       6.576  -4.183  36.256  1.00  0.00    -0.000 C 
BRANCH  28  29
ATOM     29  C   UNL     1       6.285  -3.578  37.638  1.00  0.00    -0.003 C 
ATOM     30  C   UNL     1       5.156  -4.300  38.375  1.00  0.00     0.004 C 
ENDBRANCH  28  29
ENDBRANCH  27  28
ENDBRANCH  26  27
ENDBRANCH  25  26
ENDBRANCH  24  25
ENDBRANCH  23  24
ENDBRANCH  22  23
ENDBRANCH  21  22
ENDBRANCH  20  21
ENDBRANCH  19  20
ENDBRANCH  18  19
ENDBRANCH  17  18
ENDBRANCH   1  17
TORSDOF 26
ENDMDL
MODEL 2
REMARK VINA RESULT:    -4.711      2.489      9.484
REMARK INTER + INTRA:         -15.189
REMARK INTER:                 -12.157
REMARK INTRA:                  -3.032
REMARK UNBOUND:                -3.317
REMARK SMILES CCCCCCCCCCCCCCCCCCCCCCCCCCCC(=O)[O-]
REMARK SMILES IDX 15 1 16 2 17 3 18 4 19 5 20 6 21 7 22 8 23 9 24 10 25 11
REMARK SMILES IDX 26 12 27 13 28 14 29 15 30 16 14 17 13 18 12 19 11 20 10 21
REMARK SMILES IDX 9 22 8 23 7 24 6 25 5 26 4 27 3 28 2 29 1 30
REMARK H PARENT
REMARK Flexibility Score: inf
ROOT
ATOM      1  C   UNL     1       7.519 -12.183  35.725  1.00  0.00     0.000 C 
ENDROOT
BRANCH   1   2
ATOM      2  C   UNL     1       7.152 -10.896  36.487  1.00  0.00     0.000 C 
BRANCH   2   3
ATOM      3  C   UNL     1       5.789 -10.317  36.066  1.00  0.00     0.000 C 
BRANCH   3   4
ATOM      4  C   UNL     1       5.283  -9.242  37.043  1.00  0.00     0.000 C 
BRANCH   4   5
ATOM      5  C   UNL     1       4.005  -8.546  36.546  1.00  0.00     0.000 C 
BRANCH   5   6
ATOM      6  C   UNL     1       4.236  -7.070  36.173  1.00  0.00     0.000 C 
BRANCH   6   7
ATOM      7  C   UNL     1       3.128  -6.436  35.311  1.00  0.00     0.000 C 
BRANCH   7   8
ATOM      8  C   UNL     1       1.945  -5.833  36.095  1.00  0.00     0.000 C 
BRANCH   8   9
ATOM      9  C   UNL     1       2.139  -4.352  36.486  1.00  0.00     0.000 C 
BRANCH   9  10
ATOM     10  C   UNL     1       2.607  -4.178  37.942  1.00  0.00     0.000 C 
BRANCH  10  11
ATOM     11  C   UNL     1       3.852  -3.284  38.070  1.00  0.00     0.000 C 
BRANCH  11  12
ATOM     12  C   UNL     1       5.150  -4.029  38.432  1.00  0.00     0.006 C 
BRANCH  12  13
ATOM     13  C   UNL     1       6.398  -3.137  38.347  1.00  0.00     0.053 C 
BRANCH  13  14
ATOM     14  C   UNL     1       7.067  -3.278  37.015  1.00  0.00     0.041 C 
ATOM     15  O   UNL     1       6.776  -4.242  36.257  1.00  0.00    -0.550 OA
ATOM     16  O   UNL     1       7.996  -2.331  36.600  1.00  0.00    -0.550 OA
ENDBRANCH  13  14
ENDBRANCH  12  13
ENDBRANCH  11  12
ENDBRANCH  10  11
ENDBRANCH   9  10
ENDBRANCH   8   9
ENDBRANCH   7   8
ENDBRANCH   6   7
ENDBRANCH   5   6
ENDBRANCH   4   5
ENDBRANCH   3   4
ENDBRANCH   2   3
ENDBRANCH   1   2
BRANCH   1  17
ATOM     17  C   UNL     1       7.537 -13.467  36.574  1.00  0.00     0.000 C 
BRANCH  17  18
ATOM     18  C   UNL     1       8.017 -13.229  38.012  1.00  0.00     0.000 C 
BRANCH  18  19
ATOM     19  C   UNL     1       9.549 -13.281  38.102  1.00  0.00     0.000 C 
BRANCH  19  20
ATOM     20  C   UNL     1      10.189 -14.127  36.984  1.00  0.00     0.000 C 
BRANCH  20  21
ATOM     21  C   UNL     1      11.601 -14.658  37.294  1.00  0.00     0.000 C 
BRANCH  21  22
ATOM     22  C   UNL     1      12.708 -13.649  36.949  1.00  0.00    -0.000 C 
BRANCH  22  23
ATOM     23  C   UNL     1      12.804 -13.363  35.440  1.00  0.00    -0.000 C 
BRANCH  23  24
ATOM     24  C   UNL     1      13.668 -12.143  35.057  1.00  0.00    -0.000 C 
BRANCH  24  25
ATOM     25  C   UNL     1      12.874 -10.885  34.657  1.00  0.00    -0.000 C 
BRANCH  25  26
ATOM     26  C   UNL     1      11.373 -10.919  35.009  1.00  0.00    -0.000 C 
BRANCH  26  27
ATOM     27  C   UNL     1      10.989 -10.206  36.318  1.00  0.00    -0.000 C 
BRANCH  27  28
ATOM     28  C   UNL     1      12.164  -9.436  36.946  1.00  0.00    -0.000 C 
BRANCH  28  29
ATOM     29  C   UNL     1      12.704 -10.125  38.208  1.00  0.00    -0.003 C 
ATOM     30  C   UNL     1      11.601 -10.504  39.196  1.00  0.00     0.004 C 
ENDBRANCH  28  29
ENDBRANCH  27  28
ENDBRANCH  26  27
ENDBRANCH  25  26
ENDBRANCH  24  25
ENDBRANCH  23  24
ENDBRANCH  22  23
ENDBRANCH  21  22
ENDBRANCH  20  21
ENDBRANCH  19  20
ENDBRANCH  18  19
ENDBRANCH  17  18
ENDBRANCH   1  17
TORSDOF 26
ENDMDL
MODEL 3
REMARK VINA RESULT:    -4.620      2.777      5.511
REMARK INTER + INTRA:         -14.960
REMARK INTER:                 -11.675
REMARK INTRA:                  -3.285
REMARK UNBOUND:                -3.317
REMARK SMILES CCCCCCCCCCCCCCCCCCCCCCCCCCCC(=O)[O-]
REMARK SMILES IDX 15 1 16 2 17 3 18 4 19 5 20 6 21 7 22 8 23 9 24 10 25 11
REMARK SMILES IDX 26 12 27 13 28 14 29 15 30 16 14 17 13 18 12 19 11 20 10 21
REMARK SMILES IDX 9 22 8 23 7 24 6 25 5 26 4 27 3 28 2 29 1 30
REMARK H PARENT
REMARK Flexibility Score: inf
ROOT
ATOM      1  C   UNL     1      13.171 -11.312  36.516  1.00  0.00     0.000 C 
ENDROOT
BRANCH   1   2
ATOM      2  C   UNL     1      12.907 -12.693  37.146  1.00  0.00     0.000 C 
BRANCH   2   3
ATOM      3  C   UNL     1      12.058 -13.610  36.247  1.00  0.00     0.000 C 
BRANCH   3   4
ATOM      4  C   UNL     1      11.857 -15.006  36.861  1.00  0.00     0.000 C 
BRANCH   4   5
ATOM      5  C   UNL     1      10.373 -15.358  37.058  1.00  0.00     0.000 C 
BRANCH   5   6
ATOM      6  C   UNL     1       9.869 -15.047  38.480  1.00  0.00     0.000 C 
BRANCH   6   7
ATOM      7  C   UNL     1       8.418 -14.538  38.559  1.00  0.00     0.000 C 
BRANCH   7   8
ATOM      8  C   UNL     1       8.257 -13.059  38.965  1.00  0.00     0.000 C 
BRANCH   8   9
ATOM      9  C   UNL     1       9.372 -12.135  38.429  1.00  0.00     0.000 C 
BRANCH   9  10
ATOM     10  C   UNL     1       9.081 -11.614  37.010  1.00  0.00     0.000 C 
BRANCH  10  11
ATOM     11  C   UNL     1       7.622 -11.162  36.824  1.00  0.00     0.000 C 
BRANCH  11  12
ATOM     12  C   UNL     1       6.853 -11.896  35.709  1.00  0.00     0.006 C 
BRANCH  12  13
ATOM     13  C   UNL     1       7.538 -13.197  35.264  1.00  0.00     0.053 C 
BRANCH  13  14
ATOM     14  C   UNL     1       7.990 -13.104  33.841  1.00  0.00     0.041 C 
ATOM     15  O   UNL     1       7.556 -13.918  32.981  1.00  0.00    -0.550 OA
ATOM     16  O   UNL     1       8.874 -12.103  33.456  1.00  0.00    -0.550 OA
ENDBRANCH  13  14
ENDBRANCH  12  13
ENDBRANCH  11  12
ENDBRANCH  10  11
ENDBRANCH   9  10
ENDBRANCH   8   9
ENDBRANCH   7   8
ENDBRANCH   6   7
ENDBRANCH   5   6
ENDBRANCH   4   5
ENDBRANCH   3   4
ENDBRANCH   2   3
ENDBRANCH   1   2
BRANCH   1  17
ATOM     17  C   UNL     1      12.443 -11.047  35.185  1.00  0.00     0.000 C 
BRANCH  17  18
ATOM     18  C   UNL     1      11.610  -9.759  35.202  1.00  0.00     0.000 C 
BRANCH  18  19
ATOM     19  C   UNL     1      11.585  -9.132  36.604  1.00  0.00     0.000 C 
BRANCH  19  20
ATOM     20  C   UNL     1      11.807  -7.607  36.585  1.00  0.00     0.000 C 
BRANCH  20  21
ATOM     21  C   UNL     1      10.983  -6.840  35.535  1.00  0.00     0.000 C 
BRANCH  21  22
ATOM     22  C   UNL     1      11.279  -5.332  35.529  1.00  0.00    -0.000 C 
BRANCH  22  23
ATOM     23  C   UNL     1      10.001  -4.474  35.491  1.00  0.00    -0.000 C 
BRANCH  23  24
ATOM     24  C   UNL     1      10.202  -2.982  35.828  1.00  0.00    -0.000 C 
BRANCH  24  25
ATOM     25  C   UNL     1       8.928  -2.239  36.272  1.00  0.00    -0.000 C 
BRANCH  25  26
ATOM     26  C   UNL     1       7.622  -3.051  36.155  1.00  0.00    -0.000 C 
BRANCH  26  27
ATOM     27  C   UNL     1       6.622  -2.537  35.103  1.00  0.00    -0.000 C 
BRANCH  27  28
ATOM     28  C   UNL     1       7.165  -2.633  33.666  1.00  0.00    -0.000 C 
BRANCH  28  29
ATOM     29  C   UNL     1       6.615  -3.855  32.915  1.00  0.00    -0.003 C 
ATOM     30  C   UNL     1       5.167  -4.177  33.286  1.00  0.00     0.004 C 
ENDBRANCH  28  29
ENDBRANCH  27  28
ENDBRANCH  26  27
ENDBRANCH  25  26
ENDBRANCH  24  25
ENDBRANCH  23  24
ENDBRANCH  22  23
ENDBRANCH  21  22
ENDBRANCH  20  21
ENDBRANCH  19  20
ENDBRANCH  18  19
ENDBRANCH  17  18
ENDBRANCH   1  17
TORSDOF 26
ENDMDL
MODEL 4
REMARK VINA RESULT:    -4.563      1.148      2.662
REMARK INTER + INTRA:         -14.816
REMARK INTER:                 -11.811
REMARK INTRA:                  -3.005
REMARK UNBOUND:                -3.317
REMARK SMILES CCCCCCCCCCCCCCCCCCCCCCCCCCCC(=O)[O-]
REMARK SMILES IDX 15 1 16 2 17 3 18 4 19 5 20 6 21 7 22 8 23 9 24 10 25 11
REMARK SMILES IDX 26 12 27 13 28 14 29 15 30 16 14 17 13 18 12 19 11 20 10 21
REMARK SMILES IDX 9 22 8 23 7 24 6 25 5 26 4 27 3 28 2 29 1 30
REMARK H PARENT
REMARK Flexibility Score: inf
ROOT
ATOM      1  C   UNL     1       7.283 -10.974  36.187  1.00  0.00     0.000 C 
ENDROOT
BRANCH   1   2
ATOM      2  C   UNL     1       7.555 -12.380  35.618  1.00  0.00     0.000 C 
BRANCH   2   3
ATOM      3  C   UNL     1       7.185 -13.506  36.600  1.00  0.00     0.000 C 
BRANCH   3   4
ATOM      4  C   UNL     1       7.795 -13.290  37.995  1.00  0.00     0.000 C 
BRANCH   4   5
ATOM      5  C   UNL     1       7.735 -14.554  38.869  1.00  0.00     0.000 C 
BRANCH   5   6
ATOM      6  C   UNL     1       9.065 -15.332  38.885  1.00  0.00     0.000 C 
BRANCH   6   7
ATOM      7  C   UNL     1      10.272 -14.567  38.312  1.00  0.00     0.000 C 
BRANCH   7   8
ATOM      8  C   UNL     1      10.898 -15.177  37.041  1.00  0.00     0.000 C 
BRANCH   8   9
ATOM      9  C   UNL     1      11.648 -14.156  36.158  1.00  0.00     0.000 C 
BRANCH   9  10
ATOM     10  C   UNL     1      10.976 -12.772  36.146  1.00  0.00     0.000 C 
BRANCH  10  11
ATOM     11  C   UNL     1      11.679 -11.771  35.212  1.00  0.00     0.000 C 
BRANCH  11  12
ATOM     12  C   UNL     1      13.218 -11.816  35.256  1.00  0.00     0.006 C 
BRANCH  12  13
ATOM     13  C   UNL     1      13.841 -10.528  35.816  1.00  0.00     0.053 C 
BRANCH  13  14
ATOM     14  C   UNL     1      13.041 -10.003  36.966  1.00  0.00     0.041 C 
ATOM     15  O   UNL     1      13.166 -10.512  38.113  1.00  0.00    -0.550 OA
ATOM     16  O   UNL     1      12.171  -8.935  36.778  1.00  0.00    -0.550 OA
ENDBRANCH  13  14
ENDBRANCH  12  13
ENDBRANCH  11  12
ENDBRANCH  10  11
ENDBRANCH   9  10
ENDBRANCH   8   9
ENDBRANCH   7   8
ENDBRANCH   6   7
ENDBRANCH   5   6
ENDBRANCH   4   5
ENDBRANCH   3   4
ENDBRANCH   2   3
ENDBRANCH   1   2
BRANCH   1  17
ATOM     17  C   UNL     1       5.856 -10.442  35.965  1.00  0.00     0.000 C 
BRANCH  17  18
ATOM     18  C   UNL     1       5.447  -9.373  36.988  1.00  0.00     0.000 C 
BRANCH  18  19
ATOM     19  C   UNL     1       4.153  -8.664  36.565  1.00  0.00     0.000 C 
BRANCH  19  20
ATOM     20  C   UNL     1       4.326  -7.142  36.402  1.00  0.00     0.000 C 
BRANCH  20  21
ATOM     21  C   UNL     1       3.105  -6.403  35.823  1.00  0.00     0.000 C 
BRANCH  21  22
ATOM     22  C   UNL     1       3.464  -5.496  34.635  1.00  0.00    -0.000 C 
BRANCH  22  23
ATOM     23  C   UNL     1       3.385  -3.998  34.985  1.00  0.00    -0.000 C 
BRANCH  23  24
ATOM     24  C   UNL     1       4.705  -3.217  34.822  1.00  0.00    -0.000 C 
BRANCH  24  25
ATOM     25  C   UNL     1       5.980  -4.082  34.853  1.00  0.00    -0.000 C 
BRANCH  25  26
ATOM     26  C   UNL     1       6.727  -4.098  36.203  1.00  0.00    -0.000 C 
BRANCH  26  27
ATOM     27  C   UNL     1       6.699  -2.772  36.984  1.00  0.00    -0.000 C 
BRANCH  27  28
ATOM     28  C   UNL     1       6.000  -2.897  38.349  1.00  0.00    -0.000 C 
BRANCH  28  29
ATOM     29  C   UNL     1       5.075  -4.121  38.420  1.00  0.00    -0.003 C 
ATOM     30  C   UNL     1       3.638  -3.758  38.793  1.00  0.00     0.004 C 
ENDBRANCH  28  29
ENDBRANCH  27  28
ENDBRANCH  26  27
ENDBRANCH  25  26
ENDBRANCH  24  25
ENDBRANCH  23  24
ENDBRANCH  22  23
ENDBRANCH  21  22
ENDBRANCH  20  21
ENDBRANCH  19  20
ENDBRANCH  18  19
ENDBRANCH  17  18
ENDBRANCH   1  17
TORSDOF 26
ENDMDL
MODEL 5
REMARK VINA RESULT:    -4.553      2.495      9.179
REMARK INTER + INTRA:         -14.791
REMARK INTER:                 -11.658
REMARK INTRA:                  -3.133
REMARK UNBOUND:                -3.317
REMARK SMILES CCCCCCCCCCCCCCCCCCCCCCCCCCCC(=O)[O-]
REMARK SMILES IDX 15 1 16 2 17 3 18 4 19 5 20 6 21 7 22 8 23 9 24 10 25 11
REMARK SMILES IDX 26 12 27 13 28 14 29 15 30 16 14 17 13 18 12 19 11 20 10 21
REMARK SMILES IDX 9 22 8 23 7 24 6 25 5 26 4 27 3 28 2 29 1 30
REMARK H PARENT
REMARK Flexibility Score: inf
ROOT
ATOM      1  C   UNL     1       7.277 -12.264  35.797  1.00  0.00     0.000 C 
ENDROOT
BRANCH   1   2
ATOM      2  C   UNL     1       7.048 -10.940  36.551  1.00  0.00     0.000 C 
BRANCH   2   3
ATOM      3  C   UNL     1       5.813 -10.170  36.049  1.00  0.00     0.000 C 
BRANCH   3   4
ATOM      4  C   UNL     1       5.213  -9.257  37.132  1.00  0.00     0.000 C 
BRANCH   4   5
ATOM      5  C   UNL     1       3.975  -8.490  36.640  1.00  0.00     0.000 C 
BRANCH   5   6
ATOM      6  C   UNL     1       4.333  -7.166  35.939  1.00  0.00     0.000 C 
BRANCH   6   7
ATOM      7  C   UNL     1       3.128  -6.362  35.414  1.00  0.00     0.000 C 
BRANCH   7   8
ATOM      8  C   UNL     1       2.997  -4.930  35.972  1.00  0.00     0.000 C 
BRANCH   8   9
ATOM      9  C   UNL     1       3.390  -3.825  34.967  1.00  0.00     0.000 C 
BRANCH   9  10
ATOM     10  C   UNL     1       4.320  -4.338  33.853  1.00  0.00     0.000 C 
BRANCH  10  11
ATOM     11  C   UNL     1       5.787  -3.920  34.056  1.00  0.00     0.000 C 
BRANCH  11  12
ATOM     12  C   UNL     1       6.070  -3.167  35.369  1.00  0.00     0.006 C 
BRANCH  12  13
ATOM     13  C   UNL     1       6.738  -4.049  36.435  1.00  0.00     0.053 C 
BRANCH  13  14
ATOM     14  C   UNL     1       6.276  -3.671  37.807  1.00  0.00     0.041 C 
ATOM     15  O   UNL     1       6.734  -2.641  38.371  1.00  0.00    -0.550 OA
ATOM     16  O   UNL     1       5.320  -4.444  38.457  1.00  0.00    -0.550 OA
ENDBRANCH  13  14
ENDBRANCH  12  13
ENDBRANCH  11  12
ENDBRANCH  10  11
ENDBRANCH   9  10
ENDBRANCH   8   9
ENDBRANCH   7   8
ENDBRANCH   6   7
ENDBRANCH   5   6
ENDBRANCH   4   5
ENDBRANCH   3   4
ENDBRANCH   2   3
ENDBRANCH   1   2
BRANCH   1  17
ATOM     17  C   UNL     1       7.317 -13.524  36.680  1.00  0.00     0.000 C 
BRANCH  17  18
ATOM     18  C   UNL     1       7.968 -13.279  38.049  1.00  0.00     0.000 C 
BRANCH  18  19
ATOM     19  C   UNL     1       9.189 -14.186  38.253  1.00  0.00     0.000 C 
BRANCH  19  20
ATOM     20  C   UNL     1       9.811 -14.667  36.928  1.00  0.00     0.000 C 
BRANCH  20  21
ATOM     21  C   UNL     1      11.350 -14.718  36.909  1.00  0.00     0.000 C 
BRANCH  21  22
ATOM     22  C   UNL     1      11.979 -13.499  36.215  1.00  0.00    -0.000 C 
BRANCH  22  23
ATOM     23  C   UNL     1      10.936 -12.602  35.524  1.00  0.00    -0.000 C 
BRANCH  23  24
ATOM     24  C   UNL     1      11.487 -11.287  34.938  1.00  0.00    -0.000 C 
BRANCH  24  25
ATOM     25  C   UNL     1      13.024 -11.194  34.882  1.00  0.00    -0.000 C 
BRANCH  25  26
ATOM     26  C   UNL     1      13.662 -10.264  35.935  1.00  0.00    -0.000 C 
BRANCH  26  27
ATOM     27  C   UNL     1      12.717  -9.797  37.056  1.00  0.00    -0.000 C 
BRANCH  27  28
ATOM     28  C   UNL     1      13.236 -10.151  38.461  1.00  0.00    -0.000 C 
BRANCH  28  29
ATOM     29  C   UNL     1      12.117 -10.652  39.387  1.00  0.00    -0.003 C 
ATOM     30  C   UNL     1      10.796 -10.881  38.652  1.00  0.00     0.004 C 
ENDBRANCH  28  29
ENDBRANCH  27  28
ENDBRANCH  26  27
ENDBRANCH  25  26
ENDBRANCH  24  25
ENDBRANCH  23  24
ENDBRANCH  22  23
ENDBRANCH  21  22
ENDBRANCH  20  21
ENDBRANCH  19  20
ENDBRANCH  18  19
ENDBRANCH  17  18
ENDBRANCH   1  17
TORSDOF 26
ENDMDL
MODEL 6
REMARK VINA RESULT:    -4.538      2.581      5.177
REMARK INTER + INTRA:         -14.753
REMARK INTER:                 -11.873
REMARK INTRA:                  -2.880
REMARK UNBOUND:                -3.317
REMARK SMILES CCCCCCCCCCCCCCCCCCCCCCCCCCCC(=O)[O-]
REMARK SMILES IDX 15 1 16 2 17 3 18 4 19 5 20 6 21 7 22 8 23 9 24 10 25 11
REMARK SMILES IDX 26 12 27 13 28 14 29 15 30 16 14 17 13 18 12 19 11 20 10 21
REMARK SMILES IDX 9 22 8 23 7 24 6 25 5 26 4 27 3 28 2 29 1 30
REMARK H PARENT
REMARK Flexibility Score: inf
ROOT
ATOM      1  C   UNL     1      12.161  -9.743  37.734  1.00  0.00     0.000 C 
ENDROOT
BRANCH   1   2
ATOM      2  C   UNL     1      13.302 -10.700  37.338  1.00  0.00     0.000 C 
BRANCH   2   3
ATOM      3  C   UNL     1      13.896 -10.385  35.953  1.00  0.00     0.000 C 
BRANCH   3   4
ATOM      4  C   UNL     1      13.750 -11.561  34.973  1.00  0.00     0.000 C 
BRANCH   4   5
ATOM      5  C   UNL     1      12.559 -12.472  35.314  1.00  0.00     0.000 C 
BRANCH   5   6
ATOM      6  C   UNL     1      12.994 -13.840  35.874  1.00  0.00     0.000 C 
BRANCH   6   7
ATOM      7  C   UNL     1      12.258 -14.283  37.152  1.00  0.00     0.000 C 
BRANCH   7   8
ATOM      8  C   UNL     1      10.931 -15.034  36.923  1.00  0.00     0.000 C 
BRANCH   8   9
ATOM      9  C   UNL     1       9.730 -14.437  37.688  1.00  0.00     0.000 C 
BRANCH   9  10
ATOM     10  C   UNL     1       9.953 -12.968  38.092  1.00  0.00     0.000 C 
BRANCH  10  11
ATOM     11  C   UNL     1       8.995 -11.998  37.380  1.00  0.00     0.000 C 
BRANCH  11  12
ATOM     12  C   UNL     1       7.738 -12.653  36.778  1.00  0.00     0.006 C 
BRANCH  12  13
ATOM     13  C   UNL     1       7.299 -12.009  35.454  1.00  0.00     0.053 C 
BRANCH  13  14
ATOM     14  C   UNL     1       8.035 -12.609  34.298  1.00  0.00     0.041 C 
ATOM     15  O   UNL     1       7.623 -13.675  33.767  1.00  0.00    -0.550 OA
ATOM     16  O   UNL     1       9.164 -11.978  33.789  1.00  0.00    -0.550 OA
ENDBRANCH  13  14
ENDBRANCH  12  13
ENDBRANCH  11  12
ENDBRANCH  10  11
ENDBRANCH   9  10
ENDBRANCH   8   9
ENDBRANCH   7   8
ENDBRANCH   6   7
ENDBRANCH   5   6
ENDBRANCH   4   5
ENDBRANCH   3   4
ENDBRANCH   2   3
ENDBRANCH   1   2
BRANCH   1  17
ATOM     17  C   UNL     1      11.490  -9.001  36.563  1.00  0.00     0.000 C 
BRANCH  17  18
ATOM     18  C   UNL     1      11.730  -7.485  36.598  1.00  0.00     0.000 C 
BRANCH  18  19
ATOM     19  C   UNL     1      10.960  -6.776  35.474  1.00  0.00     0.000 C 
BRANCH  19  20
ATOM     20  C   UNL     1      11.201  -5.255  35.446  1.00  0.00     0.000 C 
BRANCH  20  21
ATOM     21  C   UNL     1       9.938  -4.390  35.609  1.00  0.00     0.000 C 
BRANCH  21  22
ATOM     22  C   UNL     1      10.256  -2.903  35.834  1.00  0.00    -0.000 C 
BRANCH  22  23
ATOM     23  C   UNL     1       9.011  -2.003  35.724  1.00  0.00    -0.000 C 
BRANCH  23  24
ATOM     24  C   UNL     1       8.304  -2.028  34.354  1.00  0.00    -0.000 C 
BRANCH  24  25
ATOM     25  C   UNL     1       6.783  -2.271  34.412  1.00  0.00    -0.000 C 
BRANCH  25  26
ATOM     26  C   UNL     1       6.341  -3.721  34.127  1.00  0.00    -0.000 C 
BRANCH  26  27
ATOM     27  C   UNL     1       5.644  -4.437  35.298  1.00  0.00    -0.000 C 
BRANCH  27  28
ATOM     28  C   UNL     1       5.400  -3.513  36.503  1.00  0.00    -0.000 C 
BRANCH  28  29
ATOM     29  C   UNL     1       6.470  -3.678  37.593  1.00  0.00    -0.003 C 
ATOM     30  C   UNL     1       6.283  -2.708  38.760  1.00  0.00     0.004 C 
ENDBRANCH  28  29
ENDBRANCH  27  28
ENDBRANCH  26  27
ENDBRANCH  25  26
ENDBRANCH  24  25
ENDBRANCH  23  24
ENDBRANCH  22  23
ENDBRANCH  21  22
ENDBRANCH  20  21
ENDBRANCH  19  20
ENDBRANCH  18  19
ENDBRANCH  17  18
ENDBRANCH   1  17
TORSDOF 26
ENDMDL
MODEL 7
REMARK VINA RESULT:    -4.528      3.054      9.504
REMARK INTER + INTRA:         -14.729
REMARK INTER:                 -11.529
REMARK INTRA:                  -3.200
REMARK UNBOUND:                -3.317
REMARK SMILES CCCCCCCCCCCCCCCCCCCCCCCCCCCC(=O)[O-]
REMARK SMILES IDX 15 1 16 2 17 3 18 4 19 5 20 6 21 7 22 8 23 9 24 10 25 11
REMARK SMILES IDX 26 12 27 13 28 14 29 15 30 16 14 17 13 18 12 19 11 20 10 21
REMARK SMILES IDX 9 22 8 23 7 24 6 25 5 26 4 27 3 28 2 29 1 30
REMARK H PARENT
REMARK Flexibility Score: inf
ROOT
ATOM      1  C   UNL     1       6.007 -10.416  35.941  1.00  0.00     0.000 C 
ENDROOT
BRANCH   1   2
ATOM      2  C   UNL     1       5.525  -9.403  36.996  1.00  0.00     0.000 C 
BRANCH   2   3
ATOM      3  C   UNL     1       4.165  -8.773  36.645  1.00  0.00     0.000 C 
BRANCH   3   4
ATOM      4  C   UNL     1       4.290  -7.291  36.253  1.00  0.00     0.000 C 
BRANCH   4   5
ATOM      5  C   UNL     1       2.952  -6.683  35.799  1.00  0.00     0.000 C 
BRANCH   5   6
ATOM      6  C   UNL     1       3.103  -5.256  35.240  1.00  0.00     0.000 C 
BRANCH   6   7
ATOM      7  C   UNL     1       4.524  -4.889  34.771  1.00  0.00     0.000 C 
BRANCH   7   8
ATOM      8  C   UNL     1       4.746  -3.399  34.441  1.00  0.00     0.000 C 
BRANCH   8   9
ATOM      9  C   UNL     1       5.992  -2.785  35.115  1.00  0.00     0.000 C 
BRANCH   9  10
ATOM     10  C   UNL     1       6.752  -3.794  35.994  1.00  0.00     0.000 C 
BRANCH  10  11
ATOM     11  C   UNL     1       7.280  -3.174  37.300  1.00  0.00     0.000 C 
BRANCH  11  12
ATOM     12  C   UNL     1       6.227  -3.010  38.412  1.00  0.00     0.006 C 
BRANCH  12  13
ATOM     13  C   UNL     1       5.166  -4.121  38.403  1.00  0.00     0.053 C 
BRANCH  13  14
ATOM     14  C   UNL     1       3.789  -3.546  38.509  1.00  0.00     0.041 C 
ATOM     15  O   UNL     1       3.353  -2.771  37.616  1.00  0.00    -0.550 OA
ATOM     16  O   UNL     1       2.975  -3.884  39.585  1.00  0.00    -0.550 OA
ENDBRANCH  13  14
ENDBRANCH  12  13
ENDBRANCH  11  12
ENDBRANCH  10  11
ENDBRANCH   9  10
ENDBRANCH   8   9
ENDBRANCH   7   8
ENDBRANCH   6   7
ENDBRANCH   5   6
ENDBRANCH   4   5
ENDBRANCH   3   4
ENDBRANCH   2   3
ENDBRANCH   1   2
BRANCH   1  17
ATOM     17  C   UNL     1       7.355 -11.095  36.250  1.00  0.00     0.000 C 
BRANCH  17  18
ATOM     18  C   UNL     1       7.539 -12.429  35.513  1.00  0.00     0.000 C 
BRANCH  18  19
ATOM     19  C   UNL     1       7.247 -13.619  36.438  1.00  0.00     0.000 C 
BRANCH  19  20
ATOM     20  C   UNL     1       7.773 -13.411  37.872  1.00  0.00     0.000 C 
BRANCH  20  21
ATOM     21  C   UNL     1       8.962 -14.305  38.268  1.00  0.00     0.000 C 
BRANCH  21  22
ATOM     22  C   UNL     1      10.321 -13.615  38.070  1.00  0.00    -0.000 C 
BRANCH  22  23
ATOM     23  C   UNL     1      11.173 -14.280  36.973  1.00  0.00    -0.000 C 
BRANCH  23  24
ATOM     24  C   UNL     1      11.966 -13.307  36.078  1.00  0.00    -0.000 C 
BRANCH  24  25
ATOM     25  C   UNL     1      11.104 -12.319  35.268  1.00  0.00    -0.000 C 
BRANCH  25  26
ATOM     26  C   UNL     1      11.669 -10.888  35.168  1.00  0.00    -0.000 C 
BRANCH  26  27
ATOM     27  C   UNL     1      11.083  -9.879  36.173  1.00  0.00    -0.000 C 
BRANCH  27  28
ATOM     28  C   UNL     1      12.153  -9.254  37.085  1.00  0.00    -0.000 C 
BRANCH  28  29
ATOM     29  C   UNL     1      13.105 -10.307  37.674  1.00  0.00    -0.003 C 
ATOM     30  C   UNL     1      12.956 -10.460  39.188  1.00  0.00     0.004 C 
ENDBRANCH  28  29
ENDBRANCH  27  28
ENDBRANCH  26  27
ENDBRANCH  25  26
ENDBRANCH  24  25
ENDBRANCH  23  24
ENDBRANCH  22  23
ENDBRANCH  21  22
ENDBRANCH  20  21
ENDBRANCH  19  20
ENDBRANCH  18  19
ENDBRANCH  17  18
ENDBRANCH   1  17
TORSDOF 26
ENDMDL
MODEL 8
REMARK VINA RESULT:    -4.505      1.167      3.747
REMARK INTER + INTRA:         -14.668
REMARK INTER:                 -11.635
REMARK INTRA:                  -3.034
REMARK UNBOUND:                -3.317
REMARK SMILES CCCCCCCCCCCCCCCCCCCCCCCCCCCC(=O)[O-]
REMARK SMILES IDX 15 1 16 2 17 3 18 4 19 5 20 6 21 7 22 8 23 9 24 10 25 11
REMARK SMILES IDX 26 12 27 13 28 14 29 15 30 16 14 17 13 18 12 19 11 20 10 21
REMARK SMILES IDX 9 22 8 23 7 24 6 25 5 26 4 27 3 28 2 29 1 30
REMARK H PARENT
REMARK Flexibility Score: inf
ROOT
ATOM      1  C   UNL     1       5.409  -9.377  36.991  1.00  0.00     0.000 C 
ENDROOT
BRANCH   1   2
ATOM      2  C   UNL     1       5.927 -10.397  35.960  1.00  0.00     0.000 C 
BRANCH   2   3
ATOM      3  C   UNL     1       7.235 -11.082  36.400  1.00  0.00     0.000 C 
BRANCH   3   4
ATOM      4  C   UNL     1       7.548 -12.335  35.565  1.00  0.00     0.000 C 
BRANCH   4   5
ATOM      5  C   UNL     1       7.493 -13.628  36.396  1.00  0.00     0.000 C 
BRANCH   5   6
ATOM      6  C   UNL     1       7.916 -13.414  37.862  1.00  0.00     0.000 C 
BRANCH   6   7
ATOM      7  C   UNL     1       9.426 -13.553  38.129  1.00  0.00     0.000 C 
BRANCH   7   8
ATOM      8  C   UNL     1       9.975 -14.994  38.084  1.00  0.00     0.000 C 
BRANCH   8   9
ATOM      9  C   UNL     1      11.031 -15.231  36.982  1.00  0.00     0.000 C 
BRANCH   9  10
ATOM     10  C   UNL     1      11.473 -13.928  36.292  1.00  0.00     0.000 C 
BRANCH  10  11
ATOM     11  C   UNL     1      12.874 -13.464  36.726  1.00  0.00     0.000 C 
BRANCH  11  12
ATOM     12  C   UNL     1      12.906 -12.131  37.496  1.00  0.00     0.006 C 
BRANCH  12  13
ATOM     13  C   UNL     1      12.775 -10.904  36.581  1.00  0.00     0.053 C 
BRANCH  13  14
ATOM     14  C   UNL     1      12.260  -9.723  37.340  1.00  0.00     0.041 C 
ATOM     15  O   UNL     1      11.869  -8.693  36.727  1.00  0.00    -0.550 OA
ATOM     16  O   UNL     1      12.189  -9.766  38.728  1.00  0.00    -0.550 OA
ENDBRANCH  13  14
ENDBRANCH  12  13
ENDBRANCH  11  12
ENDBRANCH  10  11
ENDBRANCH   9  10
ENDBRANCH   8   9
ENDBRANCH   7   8
ENDBRANCH   6   7
ENDBRANCH   5   6
ENDBRANCH   4   5
ENDBRANCH   3   4
ENDBRANCH   2   3
ENDBRANCH   1   2
BRANCH   1  17
ATOM     17  C   UNL     1       4.082  -8.688  36.622  1.00  0.00     0.000 C 
BRANCH  17  18
ATOM     18  C   UNL     1       4.258  -7.214  36.232  1.00  0.00     0.000 C 
BRANCH  18  19
ATOM     19  C   UNL     1       2.906  -6.557  35.918  1.00  0.00     0.000 C 
BRANCH  19  20
ATOM     20  C   UNL     1       2.964  -5.610  34.704  1.00  0.00     0.000 C 
BRANCH  20  21
ATOM     21  C   UNL     1       2.921  -4.109  35.045  1.00  0.00     0.000 C 
BRANCH  21  22
ATOM     22  C   UNL     1       3.845  -3.267  34.150  1.00  0.00    -0.000 C 
BRANCH  22  23
ATOM     23  C   UNL     1       4.801  -4.127  33.304  1.00  0.00    -0.000 C 
BRANCH  23  24
ATOM     24  C   UNL     1       6.294  -4.000  33.670  1.00  0.00    -0.000 C 
BRANCH  24  25
ATOM     25  C   UNL     1       6.580  -3.237  34.978  1.00  0.00    -0.000 C 
BRANCH  25  26
ATOM     26  C   UNL     1       6.673  -4.117  36.241  1.00  0.00    -0.000 C 
BRANCH  26  27
ATOM     27  C   UNL     1       6.142  -3.470  37.533  1.00  0.00    -0.000 C 
BRANCH  27  28
ATOM     28  C   UNL     1       4.960  -4.241  38.145  1.00  0.00    -0.000 C 
BRANCH  28  29
ATOM     29  C   UNL     1       3.935  -3.308  38.809  1.00  0.00    -0.003 C 
ATOM     30  C   UNL     1       2.508  -3.853  38.745  1.00  0.00     0.004 C 
ENDBRANCH  28  29
ENDBRANCH  27  28
ENDBRANCH  26  27
ENDBRANCH  25  26
ENDBRANCH  24  25
ENDBRANCH  23  24
ENDBRANCH  22  23
ENDBRANCH  21  22
ENDBRANCH  20  21
ENDBRANCH  19  20
ENDBRANCH  18  19
ENDBRANCH  17  18
ENDBRANCH   1  17
TORSDOF 26
ENDMDL
MODEL 9
REMARK VINA RESULT:    -4.476      1.393      3.969
REMARK INTER + INTRA:         -14.597
REMARK INTER:                 -11.403
REMARK INTRA:                  -3.194
REMARK UNBOUND:                -3.317
REMARK SMILES CCCCCCCCCCCCCCCCCCCCCCCCCCCC(=O)[O-]
REMARK SMILES IDX 15 1 16 2 17 3 18 4 19 5 20 6 21 7 22 8 23 9 24 10 25 11
REMARK SMILES IDX 26 12 27 13 28 14 29 15 30 16 14 17 13 18 12 19 11 20 10 21
REMARK SMILES IDX 9 22 8 23 7 24 6 25 5 26 4 27 3 28 2 29 1 30
REMARK H PARENT
REMARK Flexibility Score: inf
ROOT
ATOM      1  C   UNL     1       5.182  -9.104  36.961  1.00  0.00     0.000 C 
ENDROOT
BRANCH   1   2
ATOM      2  C   UNL     1       5.767 -10.193  36.042  1.00  0.00     0.000 C 
BRANCH   2   3
ATOM      3  C   UNL     1       6.986 -10.905  36.656  1.00  0.00     0.000 C 
BRANCH   3   4
ATOM      4  C   UNL     1       7.539 -12.011  35.742  1.00  0.00     0.000 C 
BRANCH   4   5
ATOM      5  C   UNL     1       7.276 -13.422  36.293  1.00  0.00     0.000 C 
BRANCH   5   6
ATOM      6  C   UNL     1       7.604 -13.548  37.793  1.00  0.00     0.000 C 
BRANCH   6   7
ATOM      7  C   UNL     1       9.093 -13.383  38.149  1.00  0.00     0.000 C 
BRANCH   7   8
ATOM      8  C   UNL     1       9.911 -14.689  38.189  1.00  0.00     0.000 C 
BRANCH   8   9
ATOM      9  C   UNL     1      10.908 -14.843  37.020  1.00  0.00     0.000 C 
BRANCH   9  10
ATOM     10  C   UNL     1      11.049 -13.558  36.185  1.00  0.00     0.000 C 
BRANCH  10  11
ATOM     11  C   UNL     1      12.472 -12.971  36.222  1.00  0.00     0.000 C 
BRANCH  11  12
ATOM     12  C   UNL     1      12.782 -12.103  37.455  1.00  0.00     0.006 C 
BRANCH  12  13
ATOM     13  C   UNL     1      11.834 -10.902  37.599  1.00  0.00     0.053 C 
BRANCH  13  14
ATOM     14  C   UNL     1      12.378  -9.703  36.889  1.00  0.00     0.041 C 
ATOM     15  O   UNL     1      11.670  -8.670  36.751  1.00  0.00    -0.550 OA
ATOM     16  O   UNL     1      13.679  -9.717  36.397  1.00  0.00    -0.550 OA
ENDBRANCH  13  14
ENDBRANCH  12  13
ENDBRANCH  11  12
ENDBRANCH  10  11
ENDBRANCH   9  10
ENDBRANCH   8   9
ENDBRANCH   7   8
ENDBRANCH   6   7
ENDBRANCH   5   6
ENDBRANCH   4   5
ENDBRANCH   3   4
ENDBRANCH   2   3
ENDBRANCH   1   2
BRANCH   1  17
ATOM     17  C   UNL     1       3.893  -8.435  36.448  1.00  0.00     0.000 C 
BRANCH  17  18
ATOM     18  C   UNL     1       4.051  -6.926  36.216  1.00  0.00     0.000 C 
BRANCH  18  19
ATOM     19  C   UNL     1       3.117  -6.435  35.102  1.00  0.00     0.000 C 
BRANCH  19  20
ATOM     20  C   UNL     1       2.357  -5.148  35.475  1.00  0.00     0.000 C 
BRANCH  20  21
ATOM     21  C   UNL     1       1.493  -5.244  36.747  1.00  0.00     0.000 C 
BRANCH  21  22
ATOM     22  C   UNL     1       1.601  -3.997  37.638  1.00  0.00    -0.000 C 
BRANCH  22  23
ATOM     23  C   UNL     1       2.998  -3.352  37.595  1.00  0.00    -0.000 C 
BRANCH  23  24
ATOM     24  C   UNL     1       3.913  -3.688  38.790  1.00  0.00    -0.000 C 
BRANCH  24  25
ATOM     25  C   UNL     1       5.302  -4.238  38.412  1.00  0.00    -0.000 C 
BRANCH  25  26
ATOM     26  C   UNL     1       6.395  -3.169  38.208  1.00  0.00    -0.000 C 
BRANCH  26  27
ATOM     27  C   UNL     1       7.176  -3.273  36.886  1.00  0.00    -0.000 C 
BRANCH  27  28
ATOM     28  C   UNL     1       6.455  -4.130  35.832  1.00  0.00    -0.000 C 
BRANCH  28  29
ATOM     29  C   UNL     1       5.762  -3.276  34.759  1.00  0.00    -0.003 C 
ATOM     30  C   UNL     1       5.374  -4.082  33.519  1.00  0.00     0.004 C 
ENDBRANCH  28  29
ENDBRANCH  27  28
ENDBRANCH  26  27
ENDBRANCH  25  26
ENDBRANCH  24  25
ENDBRANCH  23  24
ENDBRANCH  22  23
ENDBRANCH  21  22
ENDBRANCH  20  21
ENDBRANCH  19  20
ENDBRANCH  18  19
ENDBRANCH  17  18
ENDBRANCH   1  17
TORSDOF 26
ENDMDL
