MODEL 1
REMARK VINA RESULT:     0.687      0.000      0.000
REMARK INTER + INTRA:          -0.089
REMARK INTER:                   1.128
REMARK INTRA:                  -1.217
REMARK UNBOUND:                -1.217
REMARK SMILES C[C@@H]1O[C@@H](OC[C@@H]2O[C@H](Oc3c(-c4ccc(O)c(O)c4)oc4cc(O)cc(O)c4c3=O)[C@@H](O)[C@@H](O)[C@@H]2O)[C@@H](O)[C@@H](O)[C@@H]1O
REMARK SMILES IDX 7 1 36 2 34 3 32 4 9 5 8 6 6 7 5 8 4 9 1 10 2 11 42 12 3 13
REMARK SMILES IDX 40 14 38 15 43 16 41 18 39 20 37 22 35 24 10 26 11 27 12 28
REMARK SMILES IDX 30 29 21 30 29 31 31 32 22 33 27 34 23 35 26 36 24 37 13 38
REMARK SMILES IDX 20 39 14 40 18 41 15 42 16 43 19 44 17 46 28 48 25 50 33 52
REMARK H PARENT 43 17 41 19 39 21 37 23 35 25 19 45 17 47 28 49 25 51 33 53
REMARK Flexibility Score: inf
ROOT
ATOM      1  C   UNL     1      -8.957  64.284  44.482  1.00  0.00     0.180 C 
ATOM      2  C   UNL     1      -9.162  62.787  44.779  1.00  0.00     0.177 C 
ATOM      3  C   UNL     1     -10.499  62.318  44.037  1.00  0.00     0.180 C 
ATOM      4  C   UNL     1     -10.064  62.364  42.508  1.00  0.00     0.214 C 
ATOM      5  C   UNL     1      -9.870  63.918  42.178  1.00  0.00     0.339 C 
ATOM      6  O   UNL     1      -9.812  64.741  43.421  1.00  0.00    -0.332 OA
ENDROOT
BRANCH   1   7
ATOM      7  C   UNL     1      -9.017  65.210  45.839  1.00  0.00     0.198 C 
BRANCH   7   8
ATOM      8  O   UNL     1      -8.324  64.569  46.910  1.00  0.00    -0.347 OA
BRANCH   8   9
ATOM      9  C   UNL     1      -8.791  64.867  48.236  1.00  0.00     0.281 C 
ATOM     10  C   UNL     1      -5.346  65.715  49.420  1.00  0.00     0.041 C 
ATOM     11  C   UNL     1      -6.673  64.820  49.158  1.00  0.00     0.150 C 
ATOM     12  C   UNL     1      -6.987  63.583  50.137  1.00  0.00     0.174 C 
ATOM     13  O   UNL     1      -7.772  65.632  48.965  1.00  0.00    -0.344 OA
ATOM     14  C   UNL     1      -8.200  62.708  49.603  1.00  0.00     0.179 C 
ATOM     15  C   UNL     1      -9.368  63.729  49.218  1.00  0.00     0.202 C 
BRANCH  12  16
ATOM     16  O   UNL     1      -7.162  64.196  51.388  1.00  0.00    -0.388 OA
ATOM     17  H   UNL     1      -7.595  63.579  52.085  1.00  0.00     0.211 HD
ENDBRANCH  12  16
BRANCH  14  18
ATOM     18  O   UNL     1      -7.620  61.994  48.496  1.00  0.00    -0.387 OA
ATOM     19  H   UNL     1      -6.629  62.011  48.770  1.00  0.00     0.211 HD
ENDBRANCH  14  18
BRANCH  15  20
ATOM     20  O   UNL     1     -10.429  62.988  48.795  1.00  0.00    -0.385 OA
ATOM     21  H   UNL     1     -10.093  62.385  48.045  1.00  0.00     0.211 HD
ENDBRANCH  15  20
ENDBRANCH   8   9
ENDBRANCH   7   8
ENDBRANCH   1   7
BRANCH   2  22
ATOM     22  O   UNL     1      -9.264  62.487  46.153  1.00  0.00    -0.387 OA
ATOM     23  H   UNL     1     -10.194  62.094  46.251  1.00  0.00     0.211 HD
ENDBRANCH   2  22
BRANCH   3  24
ATOM     24  O   UNL     1     -11.023  61.041  44.287  1.00  0.00    -0.387 OA
ATOM     25  H   UNL     1     -11.587  60.626  43.566  1.00  0.00     0.211 HD
ENDBRANCH   3  24
BRANCH   5  26
ATOM     26  O   UNL     1     -11.057  64.227  41.493  1.00  0.00    -0.454 OA
BRANCH  26  27
ATOM     27  C   UNL     1     -11.222  64.158  40.031  1.00  0.00     0.214 A 
ATOM     28  C   UNL     1     -10.098  63.626  39.328  1.00  0.00     0.180 A 
ATOM     29  C   UNL     1     -12.400  63.532  39.578  1.00  0.00     0.239 A 
ATOM     30  O   UNL     1     -10.100  62.333  38.946  1.00  0.00    -0.452 OA
ATOM     31  C   UNL     1     -12.403  62.197  39.605  1.00  0.00     0.111 A 
ATOM     32  O   UNL     1     -13.317  64.181  38.891  1.00  0.00    -0.285 OA
ATOM     33  C   UNL     1     -11.179  61.569  39.167  1.00  0.00     0.146 A 
ATOM     34  C   UNL     1     -13.474  61.378  40.019  1.00  0.00     0.134 A 
ATOM     35  C   UNL     1     -11.084  60.165  39.040  1.00  0.00     0.094 A 
ATOM     36  C   UNL     1     -13.294  60.016  40.058  1.00  0.00     0.093 A 
ATOM     37  C   UNL     1     -12.145  59.403  39.579  1.00  0.00     0.123 A 
BRANCH  28  38
ATOM     38  C   UNL     1      -8.872  64.461  39.069  1.00  0.00     0.025 A 
ATOM     39  C   UNL     1      -7.705  64.231  39.791  1.00  0.00     0.062 A 
ATOM     40  C   UNL     1      -8.840  65.449  38.054  1.00  0.00     0.016 A 
ATOM     41  C   UNL     1      -6.474  64.929  39.511  1.00  0.00     0.158 A 
ATOM     42  C   UNL     1      -7.658  66.245  37.875  1.00  0.00     0.051 A 
ATOM     43  C   UNL     1      -6.471  65.896  38.537  1.00  0.00     0.157 A 
BRANCH  41  44
ATOM     44  O   UNL     1      -5.293  64.547  40.186  1.00  0.00    -0.504 OA
ATOM     45  H   UNL     1      -5.237  63.648  40.643  1.00  0.00     0.293 HD
ENDBRANCH  41  44
BRANCH  43  46
ATOM     46  O   UNL     1      -5.333  66.631  38.247  1.00  0.00    -0.504 OA
ATOM     47  H   UNL     1      -5.197  67.529  38.695  1.00  0.00     0.293 HD
ENDBRANCH  43  46
ENDBRANCH  28  38
BRANCH  34  48
ATOM     48  O   UNL     1     -14.690  61.959  40.503  1.00  0.00    -0.507 OA
ATOM     49  H   UNL     1     -15.230  61.436  41.245  1.00  0.00     0.293 HD
ENDBRANCH  34  48
BRANCH  37  50
ATOM     50  O   UNL     1     -12.127  57.984  39.421  1.00  0.00    -0.508 OA
ATOM     51  H   UNL     1     -11.253  57.524  39.268  1.00  0.00     0.293 HD
ENDBRANCH  37  50
ENDBRANCH  26  27
ENDBRANCH   5  26
BRANCH   4  52
ATOM     52  O   UNL     1      -9.641  61.159  41.728  1.00  0.00    -0.384 OA
ATOM     53  H   UNL     1      -9.941  61.150  40.708  1.00  0.00     0.211 HD
ENDBRANCH   4  52
TORSDOF 16
ENDMDL
MODEL 2
REMARK VINA RESULT:     2.395      2.609      9.299
REMARK INTER + INTRA:           2.718
REMARK INTER:                   4.196
REMARK INTRA:                  -1.478
REMARK UNBOUND:                -1.217
REMARK SMILES C[C@@H]1O[C@@H](OC[C@@H]2O[C@H](Oc3c(-c4ccc(O)c(O)c4)oc4cc(O)cc(O)c4c3=O)[C@@H](O)[C@@H](O)[C@@H]2O)[C@@H](O)[C@@H](O)[C@@H]1O
REMARK SMILES IDX 7 1 36 2 34 3 32 4 9 5 8 6 6 7 5 8 4 9 1 10 2 11 42 12 3 13
REMARK SMILES IDX 40 14 38 15 43 16 41 18 39 20 37 22 35 24 10 26 11 27 12 28
REMARK SMILES IDX 30 29 21 30 29 31 31 32 22 33 27 34 23 35 26 36 24 37 13 38
REMARK SMILES IDX 20 39 14 40 18 41 15 42 16 43 19 44 17 46 28 48 25 50 33 52
REMARK H PARENT 43 17 41 19 39 21 37 23 35 25 19 45 17 47 28 49 25 51 33 53
REMARK Flexibility Score: inf
ROOT
ATOM      1  C   UNL     1     -12.940  62.108  40.111  1.00  0.00     0.180 C 
ATOM      2  C   UNL     1     -12.393  60.687  40.338  1.00  0.00     0.177 C 
ATOM      3  C   UNL     1     -10.797  60.778  40.392  1.00  0.00     0.180 C 
ATOM      4  C   UNL     1     -10.553  61.525  41.774  1.00  0.00     0.214 C 
ATOM      5  C   UNL     1     -11.096  63.013  41.543  1.00  0.00     0.339 C 
ATOM      6  O   UNL     1     -11.929  63.109  40.310  1.00  0.00    -0.332 OA
ENDROOT
BRANCH   1   7
ATOM      7  C   UNL     1     -13.754  62.249  38.689  1.00  0.00     0.198 C 
BRANCH   7   8
ATOM      8  O   UNL     1     -15.097  62.672  38.923  1.00  0.00    -0.347 OA
BRANCH   8   9
ATOM      9  C   UNL     1     -16.078  62.226  37.973  1.00  0.00     0.281 C 
ATOM     10  C   UNL     1     -18.634  64.637  39.253  1.00  0.00     0.041 C 
ATOM     11  C   UNL     1     -17.836  63.236  39.081  1.00  0.00     0.150 C 
ATOM     12  C   UNL     1     -18.603  61.856  39.387  1.00  0.00     0.174 C 
ATOM     13  O   UNL     1     -17.163  63.209  37.875  1.00  0.00    -0.344 OA
ATOM     14  C   UNL     1     -17.609  60.617  39.368  1.00  0.00     0.179 C 
ATOM     15  C   UNL     1     -16.730  60.756  38.039  1.00  0.00     0.202 C 
BRANCH  12  16
ATOM     16  O   UNL     1     -19.638  61.843  38.439  1.00  0.00    -0.388 OA
ATOM     17  H   UNL     1     -20.048  60.912  38.299  1.00  0.00     0.211 HD
ENDBRANCH  12  16
BRANCH  14  18
ATOM     18  O   UNL     1     -16.884  60.766  40.601  1.00  0.00    -0.387 OA
ATOM     19  H   UNL     1     -17.612  61.190  41.190  1.00  0.00     0.211 HD
ENDBRANCH  14  18
BRANCH  15  20
ATOM     20  O   UNL     1     -15.901  59.677  37.990  1.00  0.00    -0.385 OA
ATOM     21  H   UNL     1     -14.995  60.011  37.664  1.00  0.00     0.211 HD
ENDBRANCH  15  20
ENDBRANCH   8   9
ENDBRANCH   7   8
ENDBRANCH   1   7
BRANCH   2  22
ATOM     22  O   UNL     1     -12.772  59.762  39.344  1.00  0.00    -0.387 OA
ATOM     23  H   UNL     1     -13.421  59.143  39.817  1.00  0.00     0.211 HD
ENDBRANCH   2  22
BRANCH   3  24
ATOM     24  O   UNL     1     -10.033  59.601  40.409  1.00  0.00    -0.387 OA
ATOM     25  H   UNL     1     -10.528  58.730  40.326  1.00  0.00     0.211 HD
ENDBRANCH   3  24
BRANCH   5  26
ATOM     26  O   UNL     1      -9.908  63.735  41.338  1.00  0.00    -0.454 OA
BRANCH  26  27
ATOM     27  C   UNL     1      -9.638  65.076  41.882  1.00  0.00     0.214 A 
ATOM     28  C   UNL     1      -8.577  65.130  42.838  1.00  0.00     0.180 A 
ATOM     29  C   UNL     1      -9.466  66.099  40.929  1.00  0.00     0.239 A 
ATOM     30  O   UNL     1      -7.348  65.524  42.449  1.00  0.00    -0.452 OA
ATOM     31  C   UNL     1      -8.275  66.144  40.325  1.00  0.00     0.111 A 
ATOM     32  O   UNL     1     -10.287  67.125  40.848  1.00  0.00    -0.285 OA
ATOM     33  C   UNL     1      -7.138  65.925  41.187  1.00  0.00     0.146 A 
ATOM     34  C   UNL     1      -8.050  66.379  38.953  1.00  0.00     0.134 A 
ATOM     35  C   UNL     1      -5.818  66.056  40.701  1.00  0.00     0.094 A 
ATOM     36  C   UNL     1      -6.764  66.322  38.470  1.00  0.00     0.093 A 
ATOM     37  C   UNL     1      -5.664  66.175  39.301  1.00  0.00     0.123 A 
BRANCH  28  38
ATOM     38  C   UNL     1      -8.784  64.683  44.260  1.00  0.00     0.025 A 
ATOM     39  C   UNL     1      -9.152  63.370  44.533  1.00  0.00     0.062 A 
ATOM     40  C   UNL     1      -8.551  65.548  45.359  1.00  0.00     0.016 A 
ATOM     41  C   UNL     1      -9.261  62.862  45.879  1.00  0.00     0.158 A 
ATOM     42  C   UNL     1      -8.803  65.083  46.694  1.00  0.00     0.051 A 
ATOM     43  C   UNL     1      -9.051  63.722  46.927  1.00  0.00     0.157 A 
BRANCH  41  44
ATOM     44  O   UNL     1      -9.501  61.484  46.081  1.00  0.00    -0.504 OA
ATOM     45  H   UNL     1      -9.561  60.857  45.292  1.00  0.00     0.293 HD
ENDBRANCH  41  44
BRANCH  43  46
ATOM     46  O   UNL     1      -9.180  63.308  48.243  1.00  0.00    -0.504 OA
ATOM     47  H   UNL     1      -9.422  62.345  48.437  1.00  0.00     0.293 HD
ENDBRANCH  43  46
ENDBRANCH  28  38
BRANCH  34  48
ATOM     48  O   UNL     1      -9.151  66.556  38.054  1.00  0.00    -0.507 OA
ATOM     49  H   UNL     1      -9.924  65.837  38.066  1.00  0.00     0.293 HD
ENDBRANCH  34  48
BRANCH  37  50
ATOM     50  O   UNL     1      -4.355  66.373  38.765  1.00  0.00    -0.508 OA
ATOM     51  H   UNL     1      -4.258  66.760  37.850  1.00  0.00     0.293 HD
ENDBRANCH  37  50
ENDBRANCH  26  27
ENDBRANCH   5  26
BRANCH   4  52
ATOM     52  O   UNL     1     -10.192  60.823  43.045  1.00  0.00    -0.384 OA
ATOM     53  H   UNL     1     -10.179  59.761  42.989  1.00  0.00     0.211 HD
ENDBRANCH   4  52
TORSDOF 16
ENDMDL
MODEL 3
REMARK VINA RESULT:     2.837      1.184      1.535
REMARK INTER + INTRA:           3.443
REMARK INTER:                   1.352
REMARK INTRA:                   2.091
REMARK UNBOUND:                -1.217
REMARK SMILES C[C@@H]1O[C@@H](OC[C@@H]2O[C@H](Oc3c(-c4ccc(O)c(O)c4)oc4cc(O)cc(O)c4c3=O)[C@@H](O)[C@@H](O)[C@@H]2O)[C@@H](O)[C@@H](O)[C@@H]1O
REMARK SMILES IDX 7 1 36 2 34 3 32 4 9 5 8 6 6 7 5 8 4 9 1 10 2 11 42 12 3 13
REMARK SMILES IDX 40 14 38 15 43 16 41 18 39 20 37 22 35 24 10 26 11 27 12 28
REMARK SMILES IDX 30 29 21 30 29 31 31 32 22 33 27 34 23 35 26 36 24 37 13 38
REMARK SMILES IDX 20 39 14 40 18 41 15 42 16 43 19 44 17 46 28 48 25 50 33 52
REMARK H PARENT 43 17 41 19 39 21 37 23 35 25 19 45 17 47 28 49 25 51 33 53
REMARK Flexibility Score: inf
ROOT
ATOM      1  C   UNL     1      -9.165  62.677  44.206  1.00  0.00     0.180 C 
ATOM      2  C   UNL     1      -9.812  61.280  44.220  1.00  0.00     0.177 C 
ATOM      3  C   UNL     1     -11.233  61.389  43.495  1.00  0.00     0.180 C 
ATOM      4  C   UNL     1     -10.816  61.618  41.978  1.00  0.00     0.214 C 
ATOM      5  C   UNL     1     -10.164  63.080  41.945  1.00  0.00     0.339 C 
ATOM      6  O   UNL     1      -9.851  63.574  43.317  1.00  0.00    -0.332 OA
ENDROOT
BRANCH   1   7
ATOM      7  C   UNL     1      -8.933  63.278  45.718  1.00  0.00     0.198 C 
BRANCH   7   8
ATOM      8  O   UNL     1      -8.936  62.224  46.680  1.00  0.00    -0.347 OA
BRANCH   8   9
ATOM      9  C   UNL     1      -9.738  62.435  47.853  1.00  0.00     0.281 C 
ATOM     10  C   UNL     1      -9.341  66.148  47.640  1.00  0.00     0.041 C 
ATOM     11  C   UNL     1      -9.051  64.625  48.117  1.00  0.00     0.150 C 
ATOM     12  C   UNL     1      -8.365  64.372  49.550  1.00  0.00     0.174 C 
ATOM     13  O   UNL     1     -10.167  63.837  47.920  1.00  0.00    -0.344 OA
ATOM     14  C   UNL     1      -7.972  62.846  49.749  1.00  0.00     0.179 C 
ATOM     15  C   UNL     1      -9.249  61.984  49.319  1.00  0.00     0.202 C 
BRANCH  12  16
ATOM     16  O   UNL     1      -9.299  64.901  50.454  1.00  0.00    -0.388 OA
ATOM     17  H   UNL     1     -10.080  65.384  49.994  1.00  0.00     0.211 HD
ENDBRANCH  12  16
BRANCH  14  18
ATOM     18  O   UNL     1      -6.819  62.697  48.902  1.00  0.00    -0.387 OA
ATOM     19  H   UNL     1      -6.951  63.499  48.273  1.00  0.00     0.211 HD
ENDBRANCH  14  18
BRANCH  15  20
ATOM     20  O   UNL     1      -8.938  60.674  49.523  1.00  0.00    -0.385 OA
ATOM     21  H   UNL     1      -8.909  60.228  48.607  1.00  0.00     0.211 HD
ENDBRANCH  15  20
ENDBRANCH   8   9
ENDBRANCH   7   8
ENDBRANCH   1   7
BRANCH   2  22
ATOM     22  O   UNL     1      -9.989  60.745  45.513  1.00  0.00    -0.387 OA
ATOM     23  H   UNL     1      -9.381  61.307  46.098  1.00  0.00     0.211 HD
ENDBRANCH   2  22
BRANCH   3  24
ATOM     24  O   UNL     1     -12.116  60.298  43.528  1.00  0.00    -0.387 OA
ATOM     25  H   UNL     1     -12.463  59.962  42.646  1.00  0.00     0.211 HD
ENDBRANCH   3  24
BRANCH   5  26
ATOM     26  O   UNL     1     -11.207  63.859  41.416  1.00  0.00    -0.454 OA
BRANCH  26  27
ATOM     27  C   UNL     1     -11.436  64.090  39.980  1.00  0.00     0.214 A 
ATOM     28  C   UNL     1     -10.370  63.660  39.130  1.00  0.00     0.180 A 
ATOM     29  C   UNL     1     -12.662  63.618  39.473  1.00  0.00     0.239 A 
ATOM     30  O   UNL     1     -10.456  62.471  38.501  1.00  0.00    -0.452 OA
ATOM     31  C   UNL     1     -12.734  62.305  39.237  1.00  0.00     0.111 A 
ATOM     32  O   UNL     1     -13.571  64.429  38.974  1.00  0.00    -0.285 OA
ATOM     33  C   UNL     1     -11.563  61.725  38.622  1.00  0.00     0.146 A 
ATOM     34  C   UNL     1     -13.828  61.467  39.534  1.00  0.00     0.134 A 
ATOM     35  C   UNL     1     -11.547  60.372  38.216  1.00  0.00     0.094 A 
ATOM     36  C   UNL     1     -13.718  60.118  39.295  1.00  0.00     0.093 A 
ATOM     37  C   UNL     1     -12.624  59.564  38.648  1.00  0.00     0.123 A 
BRANCH  28  38
ATOM     38  C   UNL     1      -9.114  64.476  38.979  1.00  0.00     0.025 A 
ATOM     39  C   UNL     1      -8.030  64.252  39.821  1.00  0.00     0.062 A 
ATOM     40  C   UNL     1      -8.967  65.440  37.950  1.00  0.00     0.016 A 
ATOM     41  C   UNL     1      -6.768  64.931  39.653  1.00  0.00     0.158 A 
ATOM     42  C   UNL     1      -7.763  66.220  37.875  1.00  0.00     0.051 A 
ATOM     43  C   UNL     1      -6.654  65.874  38.663  1.00  0.00     0.157 A 
BRANCH  41  44
ATOM     44  O   UNL     1      -5.667  64.553  40.453  1.00  0.00    -0.504 OA
ATOM     45  H   UNL     1      -5.807  63.982  41.274  1.00  0.00     0.293 HD
ENDBRANCH  41  44
BRANCH  43  46
ATOM     46  O   UNL     1      -5.484  66.591  38.474  1.00  0.00    -0.504 OA
ATOM     47  H   UNL     1      -4.605  66.093  38.407  1.00  0.00     0.293 HD
ENDBRANCH  43  46
ENDBRANCH  28  38
BRANCH  34  48
ATOM     48  O   UNL     1     -14.991  61.991  40.185  1.00  0.00    -0.507 OA
ATOM     49  H   UNL     1     -14.962  62.114  41.233  1.00  0.00     0.293 HD
ENDBRANCH  34  48
BRANCH  37  50
ATOM     50  O   UNL     1     -12.685  58.205  38.213  1.00  0.00    -0.508 OA
ATOM     51  H   UNL     1     -12.649  57.475  38.893  1.00  0.00     0.293 HD
ENDBRANCH  37  50
ENDBRANCH  26  27
ENDBRANCH   5  26
BRANCH   4  52
ATOM     52  O   UNL     1     -10.783  60.531  40.951  1.00  0.00    -0.384 OA
ATOM     53  H   UNL     1      -9.819  60.133  40.742  1.00  0.00     0.211 HD
ENDBRANCH   4  52
TORSDOF 16
ENDMDL
MODEL 4
REMARK VINA RESULT:     2.874      1.471      5.208
REMARK INTER + INTRA:           3.504
REMARK INTER:                   5.518
REMARK INTRA:                  -2.014
REMARK UNBOUND:                -1.217
REMARK SMILES C[C@@H]1O[C@@H](OC[C@@H]2O[C@H](Oc3c(-c4ccc(O)c(O)c4)oc4cc(O)cc(O)c4c3=O)[C@@H](O)[C@@H](O)[C@@H]2O)[C@@H](O)[C@@H](O)[C@@H]1O
REMARK SMILES IDX 7 1 36 2 34 3 32 4 9 5 8 6 6 7 5 8 4 9 1 10 2 11 42 12 3 13
REMARK SMILES IDX 40 14 38 15 43 16 41 18 39 20 37 22 35 24 10 26 11 27 12 28
REMARK SMILES IDX 30 29 21 30 29 31 31 32 22 33 27 34 23 35 26 36 24 37 13 38
REMARK SMILES IDX 20 39 14 40 18 41 15 42 16 43 19 44 17 46 28 48 25 50 33 52
REMARK H PARENT 43 17 41 19 39 21 37 23 35 25 19 45 17 47 28 49 25 51 33 53
REMARK Flexibility Score: inf
ROOT
ATOM      1  C   UNL     1      -9.072  63.248  44.898  1.00  0.00     0.180 C 
ATOM      2  C   UNL     1      -9.340  61.904  45.601  1.00  0.00     0.177 C 
ATOM      3  C   UNL     1     -10.543  61.181  44.834  1.00  0.00     0.180 C 
ATOM      4  C   UNL     1      -9.864  60.779  43.454  1.00  0.00     0.214 C 
ATOM      5  C   UNL     1      -9.601  62.168  42.702  1.00  0.00     0.339 C 
ATOM      6  O   UNL     1      -9.737  63.330  43.627  1.00  0.00    -0.332 OA
ENDROOT
BRANCH   1   7
ATOM      7  C   UNL     1      -9.342  64.537  45.882  1.00  0.00     0.198 C 
BRANCH   7   8
ATOM      8  O   UNL     1      -8.335  64.615  46.890  1.00  0.00    -0.347 OA
BRANCH   8   9
ATOM      9  C   UNL     1      -8.748  65.143  48.161  1.00  0.00     0.281 C 
ATOM     10  C   UNL     1      -5.225  65.909  49.157  1.00  0.00     0.041 C 
ATOM     11  C   UNL     1      -6.617  65.084  49.052  1.00  0.00     0.150 C 
ATOM     12  C   UNL     1      -6.993  64.036  50.213  1.00  0.00     0.174 C 
ATOM     13  O   UNL     1      -7.661  65.934  48.751  1.00  0.00    -0.344 OA
ATOM     14  C   UNL     1      -8.276  63.179  49.834  1.00  0.00     0.179 C 
ATOM     15  C   UNL     1      -9.379  64.212  49.313  1.00  0.00     0.202 C 
BRANCH  12  16
ATOM     16  O   UNL     1      -7.095  64.842  51.357  1.00  0.00    -0.388 OA
ATOM     17  H   UNL     1      -8.065  65.031  51.634  1.00  0.00     0.211 HD
ENDBRANCH  12  16
BRANCH  14  18
ATOM     18  O   UNL     1      -7.774  62.266  48.842  1.00  0.00    -0.387 OA
ATOM     19  H   UNL     1      -8.611  62.156  48.256  1.00  0.00     0.211 HD
ENDBRANCH  14  18
BRANCH  15  20
ATOM     20  O   UNL     1     -10.499  63.494  49.022  1.00  0.00    -0.385 OA
ATOM     21  H   UNL     1     -10.454  63.257  48.032  1.00  0.00     0.211 HD
ENDBRANCH  15  20
ENDBRANCH   8   9
ENDBRANCH   7   8
ENDBRANCH   1   7
BRANCH   2  22
ATOM     22  O   UNL     1      -9.668  62.029  46.967  1.00  0.00    -0.387 OA
ATOM     23  H   UNL     1      -9.204  61.241  47.404  1.00  0.00     0.211 HD
ENDBRANCH   2  22
BRANCH   3  24
ATOM     24  O   UNL     1     -11.115  60.019  45.375  1.00  0.00    -0.387 OA
ATOM     25  H   UNL     1     -10.824  59.139  44.985  1.00  0.00     0.211 HD
ENDBRANCH   3  24
BRANCH   5  26
ATOM     26  O   UNL     1     -10.657  62.209  41.775  1.00  0.00    -0.454 OA
BRANCH  26  27
ATOM     27  C   UNL     1     -10.553  61.785  40.368  1.00  0.00     0.214 A 
ATOM     28  C   UNL     1     -11.573  62.306  39.513  1.00  0.00     0.180 A 
ATOM     29  C   UNL     1      -9.294  61.971  39.766  1.00  0.00     0.239 A 
ATOM     30  O   UNL     1     -11.315  63.384  38.746  1.00  0.00    -0.452 OA
ATOM     31  C   UNL     1      -9.006  63.216  39.375  1.00  0.00     0.111 A 
ATOM     32  O   UNL     1      -8.570  60.960  39.334  1.00  0.00    -0.285 OA
ATOM     33  C   UNL     1     -10.090  63.927  38.739  1.00  0.00     0.146 A 
ATOM     34  C   UNL     1      -7.767  63.870  39.534  1.00  0.00     0.134 A 
ATOM     35  C   UNL     1      -9.892  65.208  38.179  1.00  0.00     0.094 A 
ATOM     36  C   UNL     1      -7.653  65.182  39.143  1.00  0.00     0.093 A 
ATOM     37  C   UNL     1      -8.668  65.851  38.475  1.00  0.00     0.123 A 
BRANCH  28  38
ATOM     38  C   UNL     1     -12.959  61.717  39.502  1.00  0.00     0.025 A 
ATOM     39  C   UNL     1     -14.060  62.529  39.250  1.00  0.00     0.062 A 
ATOM     40  C   UNL     1     -13.185  60.330  39.680  1.00  0.00     0.016 A 
ATOM     41  C   UNL     1     -15.396  62.001  39.124  1.00  0.00     0.158 A 
ATOM     42  C   UNL     1     -14.530  59.826  39.702  1.00  0.00     0.051 A 
ATOM     43  C   UNL     1     -15.595  60.657  39.320  1.00  0.00     0.157 A 
BRANCH  41  44
ATOM     44  O   UNL     1     -16.446  62.860  38.728  1.00  0.00    -0.504 OA
ATOM     45  H   UNL     1     -16.557  63.112  37.756  1.00  0.00     0.293 HD
ENDBRANCH  41  44
BRANCH  43  46
ATOM     46  O   UNL     1     -16.858  60.092  39.254  1.00  0.00    -0.504 OA
ATOM     47  H   UNL     1     -17.300  59.974  38.351  1.00  0.00     0.293 HD
ENDBRANCH  43  46
ENDBRANCH  28  38
BRANCH  34  48
ATOM     48  O   UNL     1      -6.680  63.218  40.199  1.00  0.00    -0.507 OA
ATOM     49  H   UNL     1      -6.319  63.642  41.097  1.00  0.00     0.293 HD
ENDBRANCH  34  48
BRANCH  37  50
ATOM     50  O   UNL     1      -8.393  67.120  37.881  1.00  0.00    -0.508 OA
ATOM     51  H   UNL     1      -7.482  67.297  37.512  1.00  0.00     0.293 HD
ENDBRANCH  37  50
ENDBRANCH  26  27
ENDBRANCH   5  26
BRANCH   4  52
ATOM     52  O   UNL     1      -9.333  59.413  43.155  1.00  0.00    -0.384 OA
ATOM     53  H   UNL     1      -9.950  58.812  42.532  1.00  0.00     0.211 HD
ENDBRANCH   4  52
TORSDOF 16
ENDMDL
MODEL 5
REMARK VINA RESULT:     3.145      2.150      5.538
REMARK INTER + INTRA:           3.951
REMARK INTER:                   4.087
REMARK INTRA:                  -0.136
REMARK UNBOUND:                -1.217
REMARK SMILES C[C@@H]1O[C@@H](OC[C@@H]2O[C@H](Oc3c(-c4ccc(O)c(O)c4)oc4cc(O)cc(O)c4c3=O)[C@@H](O)[C@@H](O)[C@@H]2O)[C@@H](O)[C@@H](O)[C@@H]1O
REMARK SMILES IDX 7 1 36 2 34 3 32 4 9 5 8 6 6 7 5 8 4 9 1 10 2 11 42 12 3 13
REMARK SMILES IDX 40 14 38 15 43 16 41 18 39 20 37 22 35 24 10 26 11 27 12 28
REMARK SMILES IDX 30 29 21 30 29 31 31 32 22 33 27 34 23 35 26 36 24 37 13 38
REMARK SMILES IDX 20 39 14 40 18 41 15 42 16 43 19 44 17 46 28 48 25 50 33 52
REMARK H PARENT 43 17 41 19 39 21 37 23 35 25 19 45 17 47 28 49 25 51 33 53
REMARK Flexibility Score: inf
ROOT
ATOM      1  C   UNL     1     -10.051  61.212  44.480  1.00  0.00     0.180 C 
ATOM      2  C   UNL     1     -11.144  60.450  45.252  1.00  0.00     0.177 C 
ATOM      3  C   UNL     1     -12.546  60.748  44.542  1.00  0.00     0.180 C 
ATOM      4  C   UNL     1     -12.400  59.954  43.172  1.00  0.00     0.214 C 
ATOM      5  C   UNL     1     -11.282  60.750  42.348  1.00  0.00     0.339 C 
ATOM      6  O   UNL     1     -10.531  61.702  43.217  1.00  0.00    -0.332 OA
ENDROOT
BRANCH   1   7
ATOM      7  C   UNL     1      -9.306  62.350  45.402  1.00  0.00     0.198 C 
BRANCH   7   8
ATOM      8  O   UNL     1      -8.937  61.802  46.668  1.00  0.00    -0.347 OA
BRANCH   8   9
ATOM      9  C   UNL     1      -9.719  62.226  47.796  1.00  0.00     0.281 C 
ATOM     10  C   UNL     1      -9.021  65.837  47.118  1.00  0.00     0.041 C 
ATOM     11  C   UNL     1      -8.856  64.369  47.788  1.00  0.00     0.150 C 
ATOM     12  C   UNL     1      -8.194  64.246  49.248  1.00  0.00     0.174 C 
ATOM     13  O   UNL     1     -10.033  63.655  47.680  1.00  0.00    -0.344 OA
ATOM     14  C   UNL     1      -7.927  62.730  49.643  1.00  0.00     0.179 C 
ATOM     15  C   UNL     1      -9.270  61.927  49.313  1.00  0.00     0.202 C 
BRANCH  12  16
ATOM     16  O   UNL     1      -9.082  64.959  50.068  1.00  0.00    -0.388 OA
ATOM     17  H   UNL     1     -10.066  64.840  49.798  1.00  0.00     0.211 HD
ENDBRANCH  12  16
BRANCH  14  18
ATOM     18  O   UNL     1      -6.789  62.381  48.835  1.00  0.00    -0.387 OA
ATOM     19  H   UNL     1      -6.043  62.436  49.539  1.00  0.00     0.211 HD
ENDBRANCH  14  18
BRANCH  15  20
ATOM     20  O   UNL     1      -9.067  60.633  49.684  1.00  0.00    -0.385 OA
ATOM     21  H   UNL     1      -8.718  60.138  48.865  1.00  0.00     0.211 HD
ENDBRANCH  15  20
ENDBRANCH   8   9
ENDBRANCH   7   8
ENDBRANCH   1   7
BRANCH   2  22
ATOM     22  O   UNL     1     -11.231  60.801  46.615  1.00  0.00    -0.387 OA
ATOM     23  H   UNL     1     -11.341  61.809  46.603  1.00  0.00     0.211 HD
ENDBRANCH   2  22
BRANCH   3  24
ATOM     24  O   UNL     1     -13.738  60.324  45.148  1.00  0.00    -0.387 OA
ATOM     25  H   UNL     1     -13.777  60.352  46.153  1.00  0.00     0.211 HD
ENDBRANCH   3  24
BRANCH   5  26
ATOM     26  O   UNL     1     -12.055  61.491  41.438  1.00  0.00    -0.454 OA
BRANCH  26  27
ATOM     27  C   UNL     1     -11.733  61.661  40.011  1.00  0.00     0.214 A 
ATOM     28  C   UNL     1     -12.526  62.639  39.333  1.00  0.00     0.180 A 
ATOM     29  C   UNL     1     -10.373  61.869  39.712  1.00  0.00     0.239 A 
ATOM     30  O   UNL     1     -12.034  63.878  39.138  1.00  0.00    -0.452 OA
ATOM     31  C   UNL     1      -9.906  63.103  39.928  1.00  0.00     0.111 A 
ATOM     32  O   UNL     1      -9.677  61.018  38.988  1.00  0.00    -0.285 OA
ATOM     33  C   UNL     1     -10.784  64.174  39.520  1.00  0.00     0.146 A 
ATOM     34  C   UNL     1      -8.662  63.429  40.507  1.00  0.00     0.134 A 
ATOM     35  C   UNL     1     -10.369  65.523  39.587  1.00  0.00     0.094 A 
ATOM     36  C   UNL     1      -8.358  64.751  40.729  1.00  0.00     0.093 A 
ATOM     37  C   UNL     1      -9.167  65.786  40.283  1.00  0.00     0.123 A 
BRANCH  28  38
ATOM     38  C   UNL     1     -13.934  62.335  38.896  1.00  0.00     0.025 A 
ATOM     39  C   UNL     1     -14.411  61.028  38.935  1.00  0.00     0.062 A 
ATOM     40  C   UNL     1     -14.832  63.356  38.497  1.00  0.00     0.016 A 
ATOM     41  C   UNL     1     -15.780  60.696  38.629  1.00  0.00     0.158 A 
ATOM     42  C   UNL     1     -16.152  63.007  38.051  1.00  0.00     0.051 A 
ATOM     43  C   UNL     1     -16.628  61.698  38.226  1.00  0.00     0.157 A 
BRANCH  41  44
ATOM     44  O   UNL     1     -16.232  59.372  38.826  1.00  0.00    -0.504 OA
ATOM     45  H   UNL     1     -16.147  58.935  39.732  1.00  0.00     0.293 HD
ENDBRANCH  41  44
BRANCH  43  46
ATOM     46  O   UNL     1     -17.943  61.441  37.878  1.00  0.00    -0.504 OA
ATOM     47  H   UNL     1     -18.186  60.535  37.498  1.00  0.00     0.293 HD
ENDBRANCH  43  46
ENDBRANCH  28  38
BRANCH  34  48
ATOM     48  O   UNL     1      -7.780  62.399  40.967  1.00  0.00    -0.507 OA
ATOM     49  H   UNL     1      -6.773  62.655  41.158  1.00  0.00     0.293 HD
ENDBRANCH  34  48
BRANCH  37  50
ATOM     50  O   UNL     1      -8.673  67.125  40.326  1.00  0.00    -0.508 OA
ATOM     51  H   UNL     1      -9.276  67.855  40.643  1.00  0.00     0.293 HD
ENDBRANCH  37  50
ENDBRANCH  26  27
ENDBRANCH   5  26
BRANCH   4  52
ATOM     52  O   UNL     1     -12.980  58.596  42.933  1.00  0.00    -0.384 OA
ATOM     53  H   UNL     1     -12.950  58.260  41.925  1.00  0.00     0.211 HD
ENDBRANCH   4  52
TORSDOF 16
ENDMDL
