MODEL 1
REMARK VINA RESULT:    -3.957      0.000      0.000
REMARK INTER + INTRA:          -7.017
REMARK INTER:                  -6.270
REMARK INTRA:                  -0.747
REMARK UNBOUND:                -0.747
REMARK SMILES CCCCCCCCCCCC(=O)[O-]
REMARK SMILES IDX 7 1 8 2 9 3 10 4 11 5 12 6 13 7 14 8 6 9 5 10 4 11 3 12 2 13
REMARK SMILES IDX 1 14
REMARK H PARENT
REMARK Flexibility Score: inf
ROOT
ATOM      1  C   UNL     1      -7.537  -9.552   0.250  1.00  0.00     0.000 C 
ENDROOT
BRANCH   1   2
ATOM      2  C   UNL     1      -7.803  -8.124  -0.253  1.00  0.00     0.000 C 
BRANCH   2   3
ATOM      3  C   UNL     1      -6.559  -7.226  -0.165  1.00  0.00     0.000 C 
BRANCH   3   4
ATOM      4  C   UNL     1      -6.344  -6.648   1.244  1.00  0.00     0.006 C 
BRANCH   4   5
ATOM      5  C   UNL     1      -7.144  -5.359   1.470  1.00  0.00     0.053 C 
BRANCH   5   6
ATOM      6  C   UNL     1      -8.377  -5.604   2.284  1.00  0.00     0.041 C 
ATOM      7  O   UNL     1      -8.404  -6.541   3.125  1.00  0.00    -0.550 OA
ATOM      8  O   UNL     1      -9.508  -4.823   2.088  1.00  0.00    -0.550 OA
ENDBRANCH   5   6
ENDBRANCH   4   5
ENDBRANCH   3   4
ENDBRANCH   2   3
ENDBRANCH   1   2
BRANCH   1   9
ATOM      9  C   UNL     1      -6.493 -10.256  -0.626  1.00  0.00     0.000 C 
BRANCH   9  10
ATOM     10  C   UNL     1      -5.521 -11.078   0.229  1.00  0.00    -0.000 C 
BRANCH  10  11
ATOM     11  C   UNL     1      -6.124 -11.383   1.608  1.00  0.00    -0.000 C 
BRANCH  11  12
ATOM     12  C   UNL     1      -6.179 -12.889   1.910  1.00  0.00    -0.000 C 
BRANCH  12  13
ATOM     13  C   UNL     1      -6.050 -13.752   0.646  1.00  0.00    -0.003 C 
ATOM     14  C   UNL     1      -6.680 -15.126   0.853  1.00  0.00     0.004 C 
ENDBRANCH  12  13
ENDBRANCH  11  12
ENDBRANCH  10  11
ENDBRANCH   9  10
ENDBRANCH   1   9
TORSDOF 10
ENDMDL
MODEL 2
REMARK VINA RESULT:    -3.945      3.169      6.933
REMARK INTER + INTRA:          -6.998
REMARK INTER:                  -6.394
REMARK INTRA:                  -0.604
REMARK UNBOUND:                -0.747
REMARK SMILES CCCCCCCCCCCC(=O)[O-]
REMARK SMILES IDX 7 1 8 2 9 3 10 4 11 5 12 6 13 7 14 8 6 9 5 10 4 11 3 12 2 13
REMARK SMILES IDX 1 14
REMARK H PARENT
REMARK Flexibility Score: inf
ROOT
ATOM      1  C   UNL     1      -7.628  -8.236  -0.385  1.00  0.00     0.000 C 
ENDROOT
BRANCH   1   2
ATOM      2  C   UNL     1      -7.262  -9.555   0.313  1.00  0.00     0.000 C 
BRANCH   2   3
ATOM      3  C   UNL     1      -6.426 -10.484  -0.581  1.00  0.00     0.000 C 
BRANCH   3   4
ATOM      4  C   UNL     1      -5.325 -11.223   0.199  1.00  0.00     0.006 C 
BRANCH   4   5
ATOM      5  C   UNL     1      -5.284 -12.720  -0.136  1.00  0.00     0.053 C 
BRANCH   5   6
ATOM      6  C   UNL     1      -6.107 -13.527   0.820  1.00  0.00     0.041 C 
ATOM      7  O   UNL     1      -6.498 -14.681   0.503  1.00  0.00    -0.550 OA
ATOM      8  O   UNL     1      -6.475 -12.990   2.048  1.00  0.00    -0.550 OA
ENDBRANCH   5   6
ENDBRANCH   4   5
ENDBRANCH   3   4
ENDBRANCH   2   3
ENDBRANCH   1   2
BRANCH   1   9
ATOM      9  C   UNL     1      -7.151  -7.030   0.433  1.00  0.00     0.000 C 
BRANCH   9  10
ATOM     10  C   UNL     1      -7.033  -7.385   1.921  1.00  0.00    -0.000 C 
BRANCH  10  11
ATOM     11  C   UNL     1      -7.990  -6.533   2.767  1.00  0.00    -0.000 C 
BRANCH  11  12
ATOM     12  C   UNL     1      -8.581  -5.351   1.982  1.00  0.00    -0.000 C 
BRANCH  12  13
ATOM     13  C   UNL     1      -9.820  -4.749   2.662  1.00  0.00    -0.003 C 
ATOM     14  C   UNL     1     -10.963  -4.580   1.666  1.00  0.00     0.004 C 
ENDBRANCH  12  13
ENDBRANCH  11  12
ENDBRANCH  10  11
ENDBRANCH   9  10
ENDBRANCH   1   9
TORSDOF 10
ENDMDL
MODEL 3
REMARK VINA RESULT:    -3.904      1.225      1.946
REMARK INTER + INTRA:          -6.934
REMARK INTER:                  -6.280
REMARK INTRA:                  -0.654
REMARK UNBOUND:                -0.747
REMARK SMILES CCCCCCCCCCCC(=O)[O-]
REMARK SMILES IDX 7 1 8 2 9 3 10 4 11 5 12 6 13 7 14 8 6 9 5 10 4 11 3 12 2 13
REMARK SMILES IDX 1 14
REMARK H PARENT
REMARK Flexibility Score: inf
ROOT
ATOM      1  C   UNL     1      -7.640  -7.819  -0.312  1.00  0.00     0.000 C 
ENDROOT
BRANCH   1   2
ATOM      2  C   UNL     1      -6.443  -6.884  -0.075  1.00  0.00     0.000 C 
BRANCH   2   3
ATOM      3  C   UNL     1      -6.601  -6.032   1.194  1.00  0.00     0.000 C 
BRANCH   3   4
ATOM      4  C   UNL     1      -8.072  -5.849   1.605  1.00  0.00     0.006 C 
BRANCH   4   5
ATOM      5  C   UNL     1      -8.289  -4.571   2.426  1.00  0.00     0.053 C 
BRANCH   5   6
ATOM      6  C   UNL     1      -9.709  -4.102   2.358  1.00  0.00     0.041 C 
ATOM      7  O   UNL     1     -10.612  -4.873   1.940  1.00  0.00    -0.550 OA
ATOM      8  O   UNL     1     -10.031  -2.800   2.722  1.00  0.00    -0.550 OA
ENDBRANCH   5   6
ENDBRANCH   4   5
ENDBRANCH   3   4
ENDBRANCH   2   3
ENDBRANCH   1   2
BRANCH   1   9
ATOM      9  C   UNL     1      -7.196  -9.287  -0.320  1.00  0.00     0.000 C 
BRANCH   9  10
ATOM     10  C   UNL     1      -6.870  -9.771   1.099  1.00  0.00    -0.000 C 
BRANCH  10  11
ATOM     11  C   UNL     1      -5.744 -10.815   1.077  1.00  0.00    -0.000 C 
BRANCH  11  12
ATOM     12  C   UNL     1      -5.569 -11.469  -0.303  1.00  0.00    -0.000 C 
BRANCH  12  13
ATOM     13  C   UNL     1      -5.051 -12.912  -0.213  1.00  0.00    -0.003 C 
ATOM     14  C   UNL     1      -6.085 -13.827   0.436  1.00  0.00     0.004 C 
ENDBRANCH  12  13
ENDBRANCH  11  12
ENDBRANCH  10  11
ENDBRANCH   9  10
ENDBRANCH   1   9
TORSDOF 10
ENDMDL
MODEL 4
REMARK VINA RESULT:    -3.875      1.966      3.352
REMARK INTER + INTRA:          -6.887
REMARK INTER:                  -6.035
REMARK INTRA:                  -0.852
REMARK UNBOUND:                -0.747
REMARK SMILES CCCCCCCCCCCC(=O)[O-]
REMARK SMILES IDX 7 1 8 2 9 3 10 4 11 5 12 6 13 7 14 8 6 9 5 10 4 11 3 12 2 13
REMARK SMILES IDX 1 14
REMARK H PARENT
REMARK Flexibility Score: inf
ROOT
ATOM      1  C   UNL     1      -6.123  -7.282   1.612  1.00  0.00     0.000 C 
ENDROOT
BRANCH   1   2
ATOM      2  C   UNL     1      -6.552  -6.183   2.597  1.00  0.00     0.000 C 
BRANCH   2   3
ATOM      3  C   UNL     1      -7.262  -5.011   1.901  1.00  0.00     0.000 C 
BRANCH   3   4
ATOM      4  C   UNL     1      -8.476  -4.499   2.694  1.00  0.00     0.006 C 
BRANCH   4   5
ATOM      5  C   UNL     1      -9.805  -4.898   2.040  1.00  0.00     0.053 C 
BRANCH   5   6
ATOM      6  C   UNL     1     -10.854  -3.845   2.227  1.00  0.00     0.041 C 
ATOM      7  O   UNL     1     -12.074  -4.158   2.219  1.00  0.00    -0.550 OA
ATOM      8  O   UNL     1     -10.487  -2.514   2.372  1.00  0.00    -0.550 OA
ENDBRANCH   5   6
ENDBRANCH   4   5
ENDBRANCH   3   4
ENDBRANCH   2   3
ENDBRANCH   1   2
BRANCH   1   9
ATOM      9  C   UNL     1      -6.535  -6.926   0.178  1.00  0.00     0.000 C 
BRANCH   9  10
ATOM     10  C   UNL     1      -7.607  -7.891  -0.343  1.00  0.00    -0.000 C 
BRANCH  10  11
ATOM     11  C   UNL     1      -7.459  -9.277   0.301  1.00  0.00    -0.000 C 
BRANCH  11  12
ATOM     12  C   UNL     1      -6.637 -10.247  -0.564  1.00  0.00    -0.000 C 
BRANCH  12  13
ATOM     13  C   UNL     1      -5.896 -11.301   0.270  1.00  0.00    -0.003 C 
ATOM     14  C   UNL     1      -6.228 -11.160   1.753  1.00  0.00     0.004 C 
ENDBRANCH  12  13
ENDBRANCH  11  12
ENDBRANCH  10  11
ENDBRANCH   9  10
ENDBRANCH   1   9
TORSDOF 10
ENDMDL
MODEL 5
REMARK VINA RESULT:    -3.875      3.570      7.235
REMARK INTER + INTRA:          -6.886
REMARK INTER:                  -6.323
REMARK INTRA:                  -0.563
REMARK UNBOUND:                -0.747
REMARK SMILES CCCCCCCCCCCC(=O)[O-]
REMARK SMILES IDX 7 1 8 2 9 3 10 4 11 5 12 6 13 7 14 8 6 9 5 10 4 11 3 12 2 13
REMARK SMILES IDX 1 14
REMARK H PARENT
REMARK Flexibility Score: inf
ROOT
ATOM      1  C   UNL     1      -7.674  -8.181  -0.252  1.00  0.00     0.000 C 
ENDROOT
BRANCH   1   2
ATOM      2  C   UNL     1      -7.263  -9.662  -0.229  1.00  0.00     0.000 C 
BRANCH   2   3
ATOM      3  C   UNL     1      -6.477 -10.037   1.037  1.00  0.00     0.000 C 
BRANCH   3   4
ATOM      4  C   UNL     1      -5.202 -10.839   0.725  1.00  0.00     0.006 C 
BRANCH   4   5
ATOM      5  C   UNL     1      -5.504 -12.128  -0.051  1.00  0.00     0.053 C 
BRANCH   5   6
ATOM      6  C   UNL     1      -5.874 -13.255   0.864  1.00  0.00     0.041 C 
ATOM      7  O   UNL     1      -5.525 -13.228   2.074  1.00  0.00    -0.550 OA
ATOM      8  O   UNL     1      -6.571 -14.351   0.373  1.00  0.00    -0.550 OA
ENDBRANCH   5   6
ENDBRANCH   4   5
ENDBRANCH   3   4
ENDBRANCH   2   3
ENDBRANCH   1   2
BRANCH   1   9
ATOM      9  C   UNL     1      -6.441  -7.269  -0.263  1.00  0.00     0.000 C 
BRANCH   9  10
ATOM     10  C   UNL     1      -6.682  -6.003   0.569  1.00  0.00    -0.000 C 
BRANCH  10  11
ATOM     11  C   UNL     1      -5.596  -4.952   0.298  1.00  0.00    -0.000 C 
BRANCH  11  12
ATOM     12  C   UNL     1      -5.053  -5.018  -1.138  1.00  0.00    -0.000 C 
BRANCH  12  13
ATOM     13  C   UNL     1      -4.959  -3.635  -1.800  1.00  0.00    -0.003 C 
ATOM     14  C   UNL     1      -5.177  -2.523  -0.778  1.00  0.00     0.004 C 
ENDBRANCH  12  13
ENDBRANCH  11  12
ENDBRANCH  10  11
ENDBRANCH   9  10
ENDBRANCH   1   9
TORSDOF 10
ENDMDL
MODEL 6
REMARK VINA RESULT:    -3.870     20.052     21.575
REMARK INTER + INTRA:          -6.880
REMARK INTER:                  -5.744
REMARK INTRA:                  -1.136
REMARK UNBOUND:                -0.747
REMARK SMILES CCCCCCCCCCCC(=O)[O-]
REMARK SMILES IDX 7 1 8 2 9 3 10 4 11 5 12 6 13 7 14 8 6 9 5 10 4 11 3 12 2 13
REMARK SMILES IDX 1 14
REMARK H PARENT
REMARK Flexibility Score: inf
ROOT
ATOM      1  C   UNL     1     -23.231  -6.530 -16.460  1.00  0.00     0.000 C 
ENDROOT
BRANCH   1   2
ATOM      2  C   UNL     1     -23.238  -5.099 -15.898  1.00  0.00     0.000 C 
BRANCH   2   3
ATOM      3  C   UNL     1     -24.476  -4.810 -15.035  1.00  0.00     0.000 C 
BRANCH   3   4
ATOM      4  C   UNL     1     -24.153  -3.935 -13.811  1.00  0.00     0.006 C 
BRANCH   4   5
ATOM      5  C   UNL     1     -23.035  -4.536 -12.950  1.00  0.00     0.053 C 
BRANCH   5   6
ATOM      6  C   UNL     1     -21.934  -3.551 -12.701  1.00  0.00     0.041 C 
ATOM      7  O   UNL     1     -21.918  -2.874 -11.640  1.00  0.00    -0.550 OA
ATOM      8  O   UNL     1     -20.947  -3.354 -13.658  1.00  0.00    -0.550 OA
ENDBRANCH   5   6
ENDBRANCH   4   5
ENDBRANCH   3   4
ENDBRANCH   2   3
ENDBRANCH   1   2
BRANCH   1   9
ATOM      9  C   UNL     1     -22.083  -7.349 -15.858  1.00  0.00     0.000 C 
BRANCH   9  10
ATOM     10  C   UNL     1     -20.968  -6.436 -15.333  1.00  0.00    -0.000 C 
BRANCH  10  11
ATOM     11  C   UNL     1     -20.047  -7.192 -14.365  1.00  0.00    -0.000 C 
BRANCH  11  12
ATOM     12  C   UNL     1     -20.480  -7.043 -12.897  1.00  0.00    -0.000 C 
BRANCH  12  13
ATOM     13  C   UNL     1     -20.599  -8.393 -12.175  1.00  0.00    -0.003 C 
ATOM     14  C   UNL     1     -20.160  -9.540 -13.080  1.00  0.00     0.004 C 
ENDBRANCH  12  13
ENDBRANCH  11  12
ENDBRANCH  10  11
ENDBRANCH   9  10
ENDBRANCH   1   9
TORSDOF 10
ENDMDL
MODEL 7
REMARK VINA RESULT:    -3.693      2.274      2.624
REMARK INTER + INTRA:          -6.598
REMARK INTER:                  -5.940
REMARK INTRA:                  -0.658
REMARK UNBOUND:                -0.747
REMARK SMILES CCCCCCCCCCCC(=O)[O-]
REMARK SMILES IDX 7 1 8 2 9 3 10 4 11 5 12 6 13 7 14 8 6 9 5 10 4 11 3 12 2 13
REMARK SMILES IDX 1 14
REMARK H PARENT
REMARK Flexibility Score: inf
ROOT
ATOM      1  C   UNL     1      -7.407  -9.187  -0.196  1.00  0.00     0.000 C 
ENDROOT
BRANCH   1   2
ATOM      2  C   UNL     1      -6.973  -7.719  -0.335  1.00  0.00     0.000 C 
BRANCH   2   3
ATOM      3  C   UNL     1      -7.837  -6.765   0.505  1.00  0.00     0.000 C 
BRANCH   3   4
ATOM      4  C   UNL     1      -7.005  -5.684   1.215  1.00  0.00     0.006 C 
BRANCH   4   5
ATOM      5  C   UNL     1      -5.555  -5.648   0.714  1.00  0.00     0.053 C 
BRANCH   5   6
ATOM      6  C   UNL     1      -5.317  -4.501  -0.219  1.00  0.00     0.041 C 
ATOM      7  O   UNL     1      -5.015  -4.715  -1.422  1.00  0.00    -0.550 OA
ATOM      8  O   UNL     1      -5.392  -3.195   0.249  1.00  0.00    -0.550 OA
ENDBRANCH   5   6
ENDBRANCH   4   5
ENDBRANCH   3   4
ENDBRANCH   2   3
ENDBRANCH   1   2
BRANCH   1   9
ATOM      9  C   UNL     1      -6.847  -9.805   1.091  1.00  0.00     0.000 C 
BRANCH   9  10
ATOM     10  C   UNL     1      -5.488 -10.468   0.839  1.00  0.00    -0.000 C 
BRANCH  10  11
ATOM     11  C   UNL     1      -5.567 -11.453  -0.337  1.00  0.00    -0.000 C 
BRANCH  11  12
ATOM     12  C   UNL     1      -5.161 -12.881   0.058  1.00  0.00    -0.000 C 
BRANCH  12  13
ATOM     13  C   UNL     1      -6.046 -13.461   1.172  1.00  0.00    -0.003 C 
ATOM     14  C   UNL     1      -6.565 -14.845   0.795  1.00  0.00     0.004 C 
ENDBRANCH  12  13
ENDBRANCH  11  12
ENDBRANCH  10  11
ENDBRANCH   9  10
ENDBRANCH   1   9
TORSDOF 10
ENDMDL
MODEL 8
REMARK VINA RESULT:    -3.681     20.114     21.670
REMARK INTER + INTRA:          -6.580
REMARK INTER:                  -5.268
REMARK INTRA:                  -1.311
REMARK UNBOUND:                -0.747
REMARK SMILES CCCCCCCCCCCC(=O)[O-]
REMARK SMILES IDX 7 1 8 2 9 3 10 4 11 5 12 6 13 7 14 8 6 9 5 10 4 11 3 12 2 13
REMARK SMILES IDX 1 14
REMARK H PARENT
REMARK Flexibility Score: inf
ROOT
ATOM      1  C   UNL     1     -23.709  -5.464 -15.542  1.00  0.00     0.000 C 
ENDROOT
BRANCH   1   2
ATOM      2  C   UNL     1     -23.851  -4.287 -14.564  1.00  0.00     0.000 C 
BRANCH   2   3
ATOM      3  C   UNL     1     -23.288  -4.606 -13.170  1.00  0.00     0.000 C 
BRANCH   3   4
ATOM      4  C   UNL     1     -22.188  -3.623 -12.737  1.00  0.00     0.006 C 
BRANCH   4   5
ATOM      5  C   UNL     1     -20.786  -4.121 -13.112  1.00  0.00     0.053 C 
BRANCH   5   6
ATOM      6  C   UNL     1     -20.286  -3.480 -14.370  1.00  0.00     0.041 C 
ATOM      7  O   UNL     1     -19.434  -4.069 -15.086  1.00  0.00    -0.550 OA
ATOM      8  O   UNL     1     -20.735  -2.216 -14.734  1.00  0.00    -0.550 OA
ENDBRANCH   5   6
ENDBRANCH   4   5
ENDBRANCH   3   4
ENDBRANCH   2   3
ENDBRANCH   1   2
BRANCH   1   9
ATOM      9  C   UNL     1     -22.520  -5.252 -16.487  1.00  0.00     0.000 C 
BRANCH   9  10
ATOM     10  C   UNL     1     -21.555  -6.443 -16.436  1.00  0.00    -0.000 C 
BRANCH  10  11
ATOM     11  C   UNL     1     -21.699  -7.211 -15.114  1.00  0.00    -0.000 C 
BRANCH  11  12
ATOM     12  C   UNL     1     -20.359  -7.393 -14.385  1.00  0.00    -0.000 C 
BRANCH  12  13
ATOM     13  C   UNL     1     -20.524  -8.002 -12.985  1.00  0.00    -0.003 C 
ATOM     14  C   UNL     1     -20.133  -9.477 -12.980  1.00  0.00     0.004 C 
ENDBRANCH  12  13
ENDBRANCH  11  12
ENDBRANCH  10  11
ENDBRANCH   9  10
ENDBRANCH   1   9
TORSDOF 10
ENDMDL
MODEL 9
REMARK VINA RESULT:    -3.645      4.431      7.676
REMARK INTER + INTRA:          -6.523
REMARK INTER:                  -5.963
REMARK INTRA:                  -0.560
REMARK UNBOUND:                -0.747
REMARK SMILES CCCCCCCCCCCC(=O)[O-]
REMARK SMILES IDX 7 1 8 2 9 3 10 4 11 5 12 6 13 7 14 8 6 9 5 10 4 11 3 12 2 13
REMARK SMILES IDX 1 14
REMARK H PARENT
REMARK Flexibility Score: inf
ROOT
ATOM      1  C   UNL     1      -6.426 -11.138   0.529  1.00  0.00     0.000 C 
ENDROOT
BRANCH   1   2
ATOM      2  C   UNL     1      -5.304 -11.783  -0.299  1.00  0.00     0.000 C 
BRANCH   2   3
ATOM      3  C   UNL     1      -5.112 -13.273   0.026  1.00  0.00     0.000 C 
BRANCH   3   4
ATOM      4  C   UNL     1      -6.053 -13.762   1.140  1.00  0.00     0.006 C 
BRANCH   4   5
ATOM      5  C   UNL     1      -6.727 -15.094   0.785  1.00  0.00     0.053 C 
BRANCH   5   6
ATOM      6  C   UNL     1      -5.938 -16.266   1.282  1.00  0.00     0.041 C 
ATOM      7  O   UNL     1      -5.271 -16.968   0.477  1.00  0.00    -0.550 OA
ATOM      8  O   UNL     1      -5.969 -16.606   2.628  1.00  0.00    -0.550 OA
ENDBRANCH   5   6
ENDBRANCH   4   5
ENDBRANCH   3   4
ENDBRANCH   2   3
ENDBRANCH   1   2
BRANCH   1   9
ATOM      9  C   UNL     1      -6.315  -9.609   0.507  1.00  0.00     0.000 C 
BRANCH   9  10
ATOM     10  C   UNL     1      -7.310  -8.998  -0.488  1.00  0.00    -0.000 C 
BRANCH  10  11
ATOM     11  C   UNL     1      -7.668  -7.558  -0.094  1.00  0.00    -0.000 C 
BRANCH  11  12
ATOM     12  C   UNL     1      -6.960  -7.103   1.192  1.00  0.00    -0.000 C 
BRANCH  12  13
ATOM     13  C   UNL     1      -6.086  -5.858   0.979  1.00  0.00    -0.003 C 
ATOM     14  C   UNL     1      -5.737  -5.679  -0.496  1.00  0.00     0.004 C 
ENDBRANCH  12  13
ENDBRANCH  11  12
ENDBRANCH  10  11
ENDBRANCH   9  10
ENDBRANCH   1   9
TORSDOF 10
ENDMDL
