MODEL 1
REMARK VINA RESULT:    -4.406      0.000      0.000
REMARK INTER + INTRA:         -12.680
REMARK INTER:                  -9.558
REMARK INTRA:                  -3.121
REMARK UNBOUND:                -3.121
REMARK SMILES CCCCCCCCCCCCCCCCCCCCCC(=O)[O-]
REMARK SMILES IDX 12 1 11 2 10 3 9 4 8 5 7 6 6 7 5 8 4 9 3 10 2 11 1 12 13 13
REMARK SMILES IDX 14 14 15 15 16 16 17 17 18 18 19 19 20 20 21 21 22 22 23 23
REMARK SMILES IDX 24 24
REMARK H PARENT
REMARK Flexibility Score: inf
ROOT
ATOM      1  C   UNL     1      50.239  -7.284 -54.242  1.00  0.00     0.000 C 
ENDROOT
BRANCH   1   2
ATOM      2  C   UNL     1      50.841  -6.143 -55.073  1.00  0.00     0.000 C 
BRANCH   2   3
ATOM      3  C   UNL     1      50.343  -4.756 -54.633  1.00  0.00     0.000 C 
BRANCH   3   4
ATOM      4  C   UNL     1      49.060  -4.300 -55.359  1.00  0.00    -0.000 C 
BRANCH   4   5
ATOM      5  C   UNL     1      49.283  -4.100 -56.869  1.00  0.00    -0.000 C 
BRANCH   5   6
ATOM      6  C   UNL     1      48.673  -5.243 -57.706  1.00  0.00    -0.000 C 
BRANCH   6   7
ATOM      7  C   UNL     1      49.504  -5.617 -58.948  1.00  0.00    -0.000 C 
BRANCH   7   8
ATOM      8  C   UNL     1      50.388  -6.851 -58.725  1.00  0.00    -0.000 C 
BRANCH   8   9
ATOM      9  C   UNL     1      51.875  -6.465 -58.699  1.00  0.00    -0.000 C 
BRANCH   9  10
ATOM     10  C   UNL     1      52.117  -4.990 -59.066  1.00  0.00    -0.000 C 
BRANCH  10  11
ATOM     11  C   UNL     1      52.865  -4.172 -57.998  1.00  0.00    -0.003 C 
ATOM     12  C   UNL     1      54.381  -4.179 -58.192  1.00  0.00     0.004 C 
ENDBRANCH  10  11
ENDBRANCH   9  10
ENDBRANCH   8   9
ENDBRANCH   7   8
ENDBRANCH   6   7
ENDBRANCH   5   6
ENDBRANCH   4   5
ENDBRANCH   3   4
ENDBRANCH   2   3
ENDBRANCH   1   2
BRANCH   1  13
ATOM     13  C   UNL     1      49.159  -8.029 -55.034  1.00  0.00     0.000 C 
BRANCH  13  14
ATOM     14  C   UNL     1      47.757  -7.716 -54.488  1.00  0.00     0.000 C 
BRANCH  14  15
ATOM     15  C   UNL     1      46.772  -7.318 -55.606  1.00  0.00     0.000 C 
BRANCH  15  16
ATOM     16  C   UNL     1      46.289  -8.502 -56.460  1.00  0.00     0.000 C 
BRANCH  16  17
ATOM     17  C   UNL     1      46.993  -8.582 -57.824  1.00  0.00     0.000 C 
BRANCH  17  18
ATOM     18  C   UNL     1      47.668  -9.943 -58.068  1.00  0.00     0.000 C 
BRANCH  18  19
ATOM     19  C   UNL     1      47.831 -10.824 -56.814  1.00  0.00     0.000 C 
BRANCH  19  20
ATOM     20  C   UNL     1      47.487 -12.309 -57.048  1.00  0.00     0.006 C 
BRANCH  20  21
ATOM     21  C   UNL     1      48.252 -13.241 -56.098  1.00  0.00     0.053 C 
BRANCH  21  22
ATOM     22  C   UNL     1      47.610 -14.591 -56.061  1.00  0.00     0.041 C 
ATOM     23  O   UNL     1      48.161 -15.537 -55.437  1.00  0.00    -0.550 OA
ATOM     24  O   UNL     1      46.432 -14.822 -56.760  1.00  0.00    -0.550 OA
ENDBRANCH  21  22
ENDBRANCH  20  21
ENDBRANCH  19  20
ENDBRANCH  18  19
ENDBRANCH  17  18
ENDBRANCH  16  17
ENDBRANCH  15  16
ENDBRANCH  14  15
ENDBRANCH  13  14
ENDBRANCH   1  13
TORSDOF 20
ENDMDL
MODEL 2
REMARK VINA RESULT:    -4.314      1.605      3.802
REMARK INTER + INTRA:         -12.480
REMARK INTER:                 -10.275
REMARK INTRA:                  -2.206
REMARK UNBOUND:                -3.121
REMARK SMILES CCCCCCCCCCCCCCCCCCCCCC(=O)[O-]
REMARK SMILES IDX 12 1 11 2 10 3 9 4 8 5 7 6 6 7 5 8 4 9 3 10 2 11 1 12 13 13
REMARK SMILES IDX 14 14 15 15 16 16 17 17 18 18 19 19 20 20 21 21 22 22 23 23
REMARK SMILES IDX 24 24
REMARK H PARENT
REMARK Flexibility Score: inf
ROOT
ATOM      1  C   UNL     1      48.000  -8.154 -57.119  1.00  0.00     0.000 C 
ENDROOT
BRANCH   1   2
ATOM      2  C   UNL     1      48.189  -8.666 -55.684  1.00  0.00     0.000 C 
BRANCH   2   3
ATOM      3  C   UNL     1      47.687  -7.671 -54.624  1.00  0.00     0.000 C 
BRANCH   3   4
ATOM      4  C   UNL     1      48.819  -7.023 -53.798  1.00  0.00    -0.000 C 
BRANCH   4   5
ATOM      5  C   UNL     1      50.210  -7.534 -54.214  1.00  0.00    -0.000 C 
BRANCH   5   6
ATOM      6  C   UNL     1      51.064  -6.432 -54.874  1.00  0.00    -0.000 C 
BRANCH   6   7
ATOM      7  C   UNL     1      50.510  -5.010 -54.668  1.00  0.00    -0.000 C 
BRANCH   7   8
ATOM      8  C   UNL     1      49.933  -4.402 -55.954  1.00  0.00    -0.000 C 
BRANCH   8   9
ATOM      9  C   UNL     1      50.835  -4.707 -57.160  1.00  0.00    -0.000 C 
BRANCH   9  10
ATOM     10  C   UNL     1      50.107  -5.484 -58.272  1.00  0.00    -0.000 C 
BRANCH  10  11
ATOM     11  C   UNL     1      50.885  -6.685 -58.838  1.00  0.00    -0.003 C 
ATOM     12  C   UNL     1      52.401  -6.516 -58.740  1.00  0.00     0.004 C 
ENDBRANCH  10  11
ENDBRANCH   9  10
ENDBRANCH   8   9
ENDBRANCH   7   8
ENDBRANCH   6   7
ENDBRANCH   5   6
ENDBRANCH   4   5
ENDBRANCH   3   4
ENDBRANCH   2   3
ENDBRANCH   1   2
BRANCH   1  13
ATOM     13  C   UNL     1      47.162  -9.135 -57.946  1.00  0.00     0.000 C 
BRANCH  13  14
ATOM     14  C   UNL     1      48.049  -9.964 -58.888  1.00  0.00     0.000 C 
BRANCH  14  15
ATOM     15  C   UNL     1      47.842 -11.480 -58.699  1.00  0.00     0.000 C 
BRANCH  15  16
ATOM     16  C   UNL     1      47.260 -11.863 -57.327  1.00  0.00     0.000 C 
BRANCH  16  17
ATOM     17  C   UNL     1      48.341 -12.074 -56.256  1.00  0.00     0.000 C 
BRANCH  17  18
ATOM     18  C   UNL     1      48.748 -13.550 -56.103  1.00  0.00     0.000 C 
BRANCH  18  19
ATOM     19  C   UNL     1      47.626 -14.488 -55.618  1.00  0.00     0.000 C 
BRANCH  19  20
ATOM     20  C   UNL     1      47.479 -15.771 -56.462  1.00  0.00     0.006 C 
BRANCH  20  21
ATOM     21  C   UNL     1      46.036 -16.000 -56.928  1.00  0.00     0.053 C 
BRANCH  21  22
ATOM     22  C   UNL     1      45.929 -17.283 -57.689  1.00  0.00     0.041 C 
ATOM     23  O   UNL     1      46.902 -18.083 -57.721  1.00  0.00    -0.550 OA
ATOM     24  O   UNL     1      44.777 -17.572 -58.409  1.00  0.00    -0.550 OA
ENDBRANCH  21  22
ENDBRANCH  20  21
ENDBRANCH  19  20
ENDBRANCH  18  19
ENDBRANCH  17  18
ENDBRANCH  16  17
ENDBRANCH  15  16
ENDBRANCH  14  15
ENDBRANCH  13  14
ENDBRANCH   1  13
TORSDOF 20
ENDMDL
MODEL 3
REMARK VINA RESULT:    -4.261      3.653      7.140
REMARK INTER + INTRA:         -12.364
REMARK INTER:                  -9.189
REMARK INTRA:                  -3.175
REMARK UNBOUND:                -3.121
REMARK SMILES CCCCCCCCCCCCCCCCCCCCCC(=O)[O-]
REMARK SMILES IDX 12 1 11 2 10 3 9 4 8 5 7 6 6 7 5 8 4 9 3 10 2 11 1 12 13 13
REMARK SMILES IDX 14 14 15 15 16 16 17 17 18 18 19 19 20 20 21 21 22 22 23 23
REMARK SMILES IDX 24 24
REMARK H PARENT
REMARK Flexibility Score: inf
ROOT
ATOM      1  C   UNL     1      48.718  -7.328 -54.007  1.00  0.00     0.000 C 
ENDROOT
BRANCH   1   2
ATOM      2  C   UNL     1      47.927  -8.073 -55.092  1.00  0.00     0.000 C 
BRANCH   2   3
ATOM      3  C   UNL     1      46.906  -7.174 -55.810  1.00  0.00     0.000 C 
BRANCH   3   4
ATOM      4  C   UNL     1      47.151  -7.051 -57.329  1.00  0.00    -0.000 C 
BRANCH   4   5
ATOM      5  C   UNL     1      48.616  -7.332 -57.708  1.00  0.00    -0.000 C 
BRANCH   5   6
ATOM      6  C   UNL     1      48.738  -8.409 -58.807  1.00  0.00    -0.000 C 
BRANCH   6   7
ATOM      7  C   UNL     1      47.489  -9.298 -58.947  1.00  0.00    -0.000 C 
BRANCH   7   8
ATOM      8  C   UNL     1      47.757 -10.766 -58.586  1.00  0.00    -0.000 C 
BRANCH   8   9
ATOM      9  C   UNL     1      47.231 -11.091 -57.180  1.00  0.00    -0.000 C 
BRANCH   9  10
ATOM     10  C   UNL     1      48.349 -11.494 -56.200  1.00  0.00    -0.000 C 
BRANCH  10  11
ATOM     11  C   UNL     1      48.618 -13.007 -56.114  1.00  0.00    -0.003 C 
ATOM     12  C   UNL     1      47.365 -13.852 -56.345  1.00  0.00     0.004 C 
ENDBRANCH  10  11
ENDBRANCH   9  10
ENDBRANCH   8   9
ENDBRANCH   7   8
ENDBRANCH   6   7
ENDBRANCH   5   6
ENDBRANCH   4   5
ENDBRANCH   3   4
ENDBRANCH   2   3
ENDBRANCH   1   2
BRANCH   1  13
ATOM     13  C   UNL     1      50.213  -7.653 -54.098  1.00  0.00     0.000 C 
BRANCH  13  14
ATOM     14  C   UNL     1      50.969  -6.565 -54.875  1.00  0.00     0.000 C 
BRANCH  14  15
ATOM     15  C   UNL     1      50.420  -5.154 -54.584  1.00  0.00     0.000 C 
BRANCH  15  16
ATOM     16  C   UNL     1      49.975  -4.388 -55.842  1.00  0.00     0.000 C 
BRANCH  16  17
ATOM     17  C   UNL     1      48.530  -3.871 -55.747  1.00  0.00     0.000 C 
BRANCH  17  18
ATOM     18  C   UNL     1      48.087  -3.602 -54.298  1.00  0.00     0.000 C 
BRANCH  18  19
ATOM     19  C   UNL     1      46.567  -3.430 -54.103  1.00  0.00     0.000 C 
BRANCH  19  20
ATOM     20  C   UNL     1      46.079  -3.783 -52.683  1.00  0.00     0.006 C 
BRANCH  20  21
ATOM     21  C   UNL     1      44.779  -4.597 -52.700  1.00  0.00     0.053 C 
BRANCH  21  22
ATOM     22  C   UNL     1      44.754  -5.567 -51.563  1.00  0.00     0.041 C 
ATOM     23  O   UNL     1      43.831  -6.420 -51.478  1.00  0.00    -0.550 OA
ATOM     24  O   UNL     1      45.718  -5.495 -50.565  1.00  0.00    -0.550 OA
ENDBRANCH  21  22
ENDBRANCH  20  21
ENDBRANCH  19  20
ENDBRANCH  18  19
ENDBRANCH  17  18
ENDBRANCH  16  17
ENDBRANCH  15  16
ENDBRANCH  14  15
ENDBRANCH  13  14
ENDBRANCH   1  13
TORSDOF 20
ENDMDL
MODEL 4
REMARK VINA RESULT:    -4.249      2.005      3.963
REMARK INTER + INTRA:         -12.339
REMARK INTER:                  -9.599
REMARK INTRA:                  -2.740
REMARK UNBOUND:                -3.121
REMARK SMILES CCCCCCCCCCCCCCCCCCCCCC(=O)[O-]
REMARK SMILES IDX 12 1 11 2 10 3 9 4 8 5 7 6 6 7 5 8 4 9 3 10 2 11 1 12 13 13
REMARK SMILES IDX 14 14 15 15 16 16 17 17 18 18 19 19 20 20 21 21 22 22 23 23
REMARK SMILES IDX 24 24
REMARK H PARENT
REMARK Flexibility Score: inf
ROOT
ATOM      1  C   UNL     1      47.445  -7.654 -54.926  1.00  0.00     0.000 C 
ENDROOT
BRANCH   1   2
ATOM      2  C   UNL     1      48.467  -7.259 -53.850  1.00  0.00     0.000 C 
BRANCH   2   3
ATOM      3  C   UNL     1      49.890  -7.746 -54.171  1.00  0.00     0.000 C 
BRANCH   3   4
ATOM      4  C   UNL     1      50.809  -6.642 -54.737  1.00  0.00    -0.000 C 
BRANCH   4   5
ATOM      5  C   UNL     1      50.267  -5.230 -54.452  1.00  0.00    -0.000 C 
BRANCH   5   6
ATOM      6  C   UNL     1      50.150  -4.379 -55.734  1.00  0.00    -0.000 C 
BRANCH   6   7
ATOM      7  C   UNL     1      49.484  -5.116 -56.910  1.00  0.00    -0.000 C 
BRANCH   7   8
ATOM      8  C   UNL     1      48.011  -4.728 -57.101  1.00  0.00    -0.000 C 
BRANCH   8   9
ATOM      9  C   UNL     1      47.774  -3.262 -56.710  1.00  0.00    -0.000 C 
BRANCH   9  10
ATOM     10  C   UNL     1      46.581  -3.082 -55.753  1.00  0.00    -0.000 C 
BRANCH  10  11
ATOM     11  C   UNL     1      46.946  -3.075 -54.258  1.00  0.00    -0.003 C 
ATOM     12  C   UNL     1      46.440  -4.310 -53.513  1.00  0.00     0.004 C 
ENDBRANCH  10  11
ENDBRANCH   9  10
ENDBRANCH   8   9
ENDBRANCH   7   8
ENDBRANCH   6   7
ENDBRANCH   5   6
ENDBRANCH   4   5
ENDBRANCH   3   4
ENDBRANCH   2   3
ENDBRANCH   1   2
BRANCH   1  13
ATOM     13  C   UNL     1      47.986  -8.787 -55.806  1.00  0.00     0.000 C 
BRANCH  13  14
ATOM     14  C   UNL     1      47.873  -8.432 -57.297  1.00  0.00     0.000 C 
BRANCH  14  15
ATOM     15  C   UNL     1      47.412  -9.632 -58.148  1.00  0.00     0.000 C 
BRANCH  15  16
ATOM     16  C   UNL     1      46.763 -10.762 -57.330  1.00  0.00     0.000 C 
BRANCH  16  17
ATOM     17  C   UNL     1      47.520 -12.095 -57.446  1.00  0.00     0.000 C 
BRANCH  17  18
ATOM     18  C   UNL     1      48.513 -12.319 -56.293  1.00  0.00     0.000 C 
BRANCH  18  19
ATOM     19  C   UNL     1      48.952 -13.782 -56.086  1.00  0.00     0.000 C 
BRANCH  19  20
ATOM     20  C   UNL     1      47.777 -14.756 -55.856  1.00  0.00     0.006 C 
BRANCH  20  21
ATOM     21  C   UNL     1      48.126 -16.195 -56.260  1.00  0.00     0.053 C 
BRANCH  21  22
ATOM     22  C   UNL     1      47.198 -16.678 -57.328  1.00  0.00     0.041 C 
ATOM     23  O   UNL     1      47.254 -17.873 -57.722  1.00  0.00    -0.550 OA
ATOM     24  O   UNL     1      46.310 -15.796 -57.930  1.00  0.00    -0.550 OA
ENDBRANCH  21  22
ENDBRANCH  20  21
ENDBRANCH  19  20
ENDBRANCH  18  19
ENDBRANCH  17  18
ENDBRANCH  16  17
ENDBRANCH  15  16
ENDBRANCH  14  15
ENDBRANCH  13  14
ENDBRANCH   1  13
TORSDOF 20
ENDMDL
MODEL 5
REMARK VINA RESULT:    -4.238      2.094      4.436
REMARK INTER + INTRA:         -12.313
REMARK INTER:                  -9.352
REMARK INTRA:                  -2.961
REMARK UNBOUND:                -3.121
REMARK SMILES CCCCCCCCCCCCCCCCCCCCCC(=O)[O-]
REMARK SMILES IDX 12 1 11 2 10 3 9 4 8 5 7 6 6 7 5 8 4 9 3 10 2 11 1 12 13 13
REMARK SMILES IDX 14 14 15 15 16 16 17 17 18 18 19 19 20 20 21 21 22 22 23 23
REMARK SMILES IDX 24 24
REMARK H PARENT
REMARK Flexibility Score: inf
ROOT
ATOM      1  C   UNL     1      49.118  -8.117 -54.764  1.00  0.00     0.000 C 
ENDROOT
BRANCH   1   2
ATOM      2  C   UNL     1      50.243  -7.104 -54.509  1.00  0.00     0.000 C 
BRANCH   2   3
ATOM      3  C   UNL     1      50.671  -6.353 -55.782  1.00  0.00     0.000 C 
BRANCH   3   4
ATOM      4  C   UNL     1      50.426  -4.831 -55.714  1.00  0.00    -0.000 C 
BRANCH   4   5
ATOM      5  C   UNL     1      49.970  -4.375 -54.317  1.00  0.00    -0.000 C 
BRANCH   5   6
ATOM      6  C   UNL     1      48.567  -3.733 -54.342  1.00  0.00    -0.000 C 
BRANCH   6   7
ATOM      7  C   UNL     1      47.801  -3.965 -55.657  1.00  0.00    -0.000 C 
BRANCH   7   8
ATOM      8  C   UNL     1      46.639  -4.956 -55.505  1.00  0.00    -0.000 C 
BRANCH   8   9
ATOM      9  C   UNL     1      46.565  -5.500 -54.071  1.00  0.00    -0.000 C 
BRANCH   9  10
ATOM     10  C   UNL     1      45.168  -6.035 -53.704  1.00  0.00    -0.000 C 
BRANCH  10  11
ATOM     11  C   UNL     1      44.418  -5.212 -52.642  1.00  0.00    -0.003 C 
ATOM     12  C   UNL     1      45.333  -4.694 -51.532  1.00  0.00     0.004 C 
ENDBRANCH  10  11
ENDBRANCH   9  10
ENDBRANCH   8   9
ENDBRANCH   7   8
ENDBRANCH   6   7
ENDBRANCH   5   6
ENDBRANCH   4   5
ENDBRANCH   3   4
ENDBRANCH   2   3
ENDBRANCH   1   2
BRANCH   1  13
ATOM     13  C   UNL     1      48.515  -7.926 -56.160  1.00  0.00     0.000 C 
BRANCH  13  14
ATOM     14  C   UNL     1      47.126  -8.577 -56.257  1.00  0.00     0.000 C 
BRANCH  14  15
ATOM     15  C   UNL     1      46.666  -8.753 -57.717  1.00  0.00     0.000 C 
BRANCH  15  16
ATOM     16  C   UNL     1      47.814  -9.034 -58.702  1.00  0.00     0.000 C 
BRANCH  16  17
ATOM     17  C   UNL     1      48.104 -10.534 -58.870  1.00  0.00     0.000 C 
BRANCH  17  18
ATOM     18  C   UNL     1      46.851 -11.408 -58.686  1.00  0.00     0.000 C 
BRANCH  18  19
ATOM     19  C   UNL     1      46.932 -12.428 -57.533  1.00  0.00     0.000 C 
BRANCH  19  20
ATOM     20  C   UNL     1      48.039 -12.117 -56.505  1.00  0.00     0.006 C 
BRANCH  20  21
ATOM     21  C   UNL     1      48.882 -13.354 -56.165  1.00  0.00     0.053 C 
BRANCH  21  22
ATOM     22  C   UNL     1      48.000 -14.494 -55.768  1.00  0.00     0.041 C 
ATOM     23  O   UNL     1      47.250 -14.394 -54.761  1.00  0.00    -0.550 OA
ATOM     24  O   UNL     1      48.046 -15.689 -56.475  1.00  0.00    -0.550 OA
ENDBRANCH  21  22
ENDBRANCH  20  21
ENDBRANCH  19  20
ENDBRANCH  18  19
ENDBRANCH  17  18
ENDBRANCH  16  17
ENDBRANCH  15  16
ENDBRANCH  14  15
ENDBRANCH  13  14
ENDBRANCH   1  13
TORSDOF 20
ENDMDL
MODEL 6
REMARK VINA RESULT:    -4.206      3.500      7.507
REMARK INTER + INTRA:         -12.245
REMARK INTER:                  -9.309
REMARK INTRA:                  -2.936
REMARK UNBOUND:                -3.121
REMARK SMILES CCCCCCCCCCCCCCCCCCCCCC(=O)[O-]
REMARK SMILES IDX 12 1 11 2 10 3 9 4 8 5 7 6 6 7 5 8 4 9 3 10 2 11 1 12 13 13
REMARK SMILES IDX 14 14 15 15 16 16 17 17 18 18 19 19 20 20 21 21 22 22 23 23
REMARK SMILES IDX 24 24
REMARK H PARENT
REMARK Flexibility Score: inf
ROOT
ATOM      1  C   UNL     1      48.595  -7.363 -53.761  1.00  0.00     0.000 C 
ENDROOT
BRANCH   1   2
ATOM      2  C   UNL     1      47.433  -7.507 -54.754  1.00  0.00     0.000 C 
BRANCH   2   3
ATOM      3  C   UNL     1      47.764  -8.443 -55.930  1.00  0.00     0.000 C 
BRANCH   3   4
ATOM      4  C   UNL     1      47.536  -7.800 -57.315  1.00  0.00    -0.000 C 
BRANCH   4   5
ATOM      5  C   UNL     1      47.032  -8.817 -58.354  1.00  0.00    -0.000 C 
BRANCH   5   6
ATOM      6  C   UNL     1      48.018  -9.987 -58.552  1.00  0.00    -0.000 C 
BRANCH   6   7
ATOM      7  C   UNL     1      47.337 -11.366 -58.635  1.00  0.00    -0.000 C 
BRANCH   7   8
ATOM      8  C   UNL     1      47.093 -11.996 -57.257  1.00  0.00    -0.000 C 
BRANCH   8   9
ATOM      9  C   UNL     1      48.380 -11.997 -56.418  1.00  0.00    -0.000 C 
BRANCH   9  10
ATOM     10  C   UNL     1      48.896 -13.415 -56.113  1.00  0.00    -0.000 C 
BRANCH  10  11
ATOM     11  C   UNL     1      47.805 -14.434 -55.738  1.00  0.00    -0.003 C 
ATOM     12  C   UNL     1      48.170 -15.869 -56.118  1.00  0.00     0.004 C 
ENDBRANCH  10  11
ENDBRANCH   9  10
ENDBRANCH   8   9
ENDBRANCH   7   8
ENDBRANCH   6   7
ENDBRANCH   5   6
ENDBRANCH   4   5
ENDBRANCH   3   4
ENDBRANCH   2   3
ENDBRANCH   1   2
BRANCH   1  13
ATOM     13  C   UNL     1      49.919  -7.798 -54.400  1.00  0.00     0.000 C 
BRANCH  13  14
ATOM     14  C   UNL     1      50.848  -6.595 -54.621  1.00  0.00     0.000 C 
BRANCH  14  15
ATOM     15  C   UNL     1      50.959  -6.210 -56.110  1.00  0.00     0.000 C 
BRANCH  15  16
ATOM     16  C   UNL     1      50.579  -4.749 -56.405  1.00  0.00     0.000 C 
BRANCH  16  17
ATOM     17  C   UNL     1      49.191  -4.612 -57.051  1.00  0.00     0.000 C 
BRANCH  17  18
ATOM     18  C   UNL     1      48.234  -3.733 -56.227  1.00  0.00     0.000 C 
BRANCH  18  19
ATOM     19  C   UNL     1      48.493  -3.736 -54.707  1.00  0.00     0.000 C 
BRANCH  19  20
ATOM     20  C   UNL     1      47.232  -3.468 -53.861  1.00  0.00     0.006 C 
BRANCH  20  21
ATOM     21  C   UNL     1      46.000  -4.208 -54.400  1.00  0.00     0.053 C 
BRANCH  21  22
ATOM     22  C   UNL     1      45.189  -4.763 -53.273  1.00  0.00     0.041 C 
ATOM     23  O   UNL     1      45.738  -5.466 -52.384  1.00  0.00    -0.550 OA
ATOM     24  O   UNL     1      43.817  -4.552 -53.233  1.00  0.00    -0.550 OA
ENDBRANCH  21  22
ENDBRANCH  20  21
ENDBRANCH  19  20
ENDBRANCH  18  19
ENDBRANCH  17  18
ENDBRANCH  16  17
ENDBRANCH  15  16
ENDBRANCH  14  15
ENDBRANCH  13  14
ENDBRANCH   1  13
TORSDOF 20
ENDMDL
MODEL 7
REMARK VINA RESULT:    -4.154      3.301      7.354
REMARK INTER + INTRA:         -12.133
REMARK INTER:                  -9.030
REMARK INTRA:                  -3.103
REMARK UNBOUND:                -3.121
REMARK SMILES CCCCCCCCCCCCCCCCCCCCCC(=O)[O-]
REMARK SMILES IDX 12 1 11 2 10 3 9 4 8 5 7 6 6 7 5 8 4 9 3 10 2 11 1 12 13 13
REMARK SMILES IDX 14 14 15 15 16 16 17 17 18 18 19 19 20 20 21 21 22 22 23 23
REMARK SMILES IDX 24 24
REMARK H PARENT
REMARK Flexibility Score: inf
ROOT
ATOM      1  C   UNL     1      49.607  -7.771 -54.271  1.00  0.00     0.000 C 
ENDROOT
BRANCH   1   2
ATOM      2  C   UNL     1      48.772  -8.832 -55.002  1.00  0.00     0.000 C 
BRANCH   2   3
ATOM      3  C   UNL     1      48.046  -8.273 -56.238  1.00  0.00     0.000 C 
BRANCH   3   4
ATOM      4  C   UNL     1      46.528  -8.087 -56.032  1.00  0.00    -0.000 C 
BRANCH   4   5
ATOM      5  C   UNL     1      45.698  -8.875 -57.061  1.00  0.00    -0.000 C 
BRANCH   5   6
ATOM      6  C   UNL     1      46.562  -9.859 -57.877  1.00  0.00    -0.000 C 
BRANCH   6   7
ATOM      7  C   UNL     1      45.865 -11.200 -58.172  1.00  0.00    -0.000 C 
BRANCH   7   8
ATOM      8  C   UNL     1      46.693 -12.414 -57.726  1.00  0.00    -0.000 C 
BRANCH   8   9
ATOM      9  C   UNL     1      47.742 -12.010 -56.680  1.00  0.00    -0.000 C 
BRANCH   9  10
ATOM     10  C   UNL     1      48.591 -13.198 -56.192  1.00  0.00    -0.000 C 
BRANCH  10  11
ATOM     11  C   UNL     1      47.794 -14.330 -55.520  1.00  0.00    -0.003 C 
ATOM     12  C   UNL     1      48.106 -15.709 -56.101  1.00  0.00     0.004 C 
ENDBRANCH  10  11
ENDBRANCH   9  10
ENDBRANCH   8   9
ENDBRANCH   7   8
ENDBRANCH   6   7
ENDBRANCH   5   6
ENDBRANCH   4   5
ENDBRANCH   3   4
ENDBRANCH   2   3
ENDBRANCH   1   2
BRANCH   1  13
ATOM     13  C   UNL     1      50.335  -6.864 -55.268  1.00  0.00     0.000 C 
BRANCH  13  14
ATOM     14  C   UNL     1      50.929  -5.633 -54.565  1.00  0.00     0.000 C 
BRANCH  14  15
ATOM     15  C   UNL     1      50.235  -4.325 -54.996  1.00  0.00     0.000 C 
BRANCH  15  16
ATOM     16  C   UNL     1      48.764  -4.226 -54.557  1.00  0.00     0.000 C 
BRANCH  16  17
ATOM     17  C   UNL     1      47.786  -4.223 -55.742  1.00  0.00     0.000 C 
BRANCH  17  18
ATOM     18  C   UNL     1      48.489  -4.016 -57.096  1.00  0.00     0.000 C 
BRANCH  18  19
ATOM     19  C   UNL     1      48.244  -5.129 -58.134  1.00  0.00     0.000 C 
BRANCH  19  20
ATOM     20  C   UNL     1      49.536  -5.808 -58.633  1.00  0.00     0.006 C 
BRANCH  20  21
ATOM     21  C   UNL     1      50.744  -4.863 -58.591  1.00  0.00     0.053 C 
BRANCH  21  22
ATOM     22  C   UNL     1      52.005  -5.636 -58.374  1.00  0.00     0.041 C 
ATOM     23  O   UNL     1      52.147  -6.776 -58.892  1.00  0.00    -0.550 OA
ATOM     24  O   UNL     1      53.004  -5.124 -57.555  1.00  0.00    -0.550 OA
ENDBRANCH  21  22
ENDBRANCH  20  21
ENDBRANCH  19  20
ENDBRANCH  18  19
ENDBRANCH  17  18
ENDBRANCH  16  17
ENDBRANCH  15  16
ENDBRANCH  14  15
ENDBRANCH  13  14
ENDBRANCH   1  13
TORSDOF 20
ENDMDL
MODEL 8
REMARK VINA RESULT:    -4.066      3.787      7.831
REMARK INTER + INTRA:         -11.942
REMARK INTER:                  -8.989
REMARK INTRA:                  -2.953
REMARK UNBOUND:                -3.121
REMARK SMILES CCCCCCCCCCCCCCCCCCCCCC(=O)[O-]
REMARK SMILES IDX 12 1 11 2 10 3 9 4 8 5 7 6 6 7 5 8 4 9 3 10 2 11 1 12 13 13
REMARK SMILES IDX 14 14 15 15 16 16 17 17 18 18 19 19 20 20 21 21 22 22 23 23
REMARK SMILES IDX 24 24
REMARK H PARENT
REMARK Flexibility Score: inf
ROOT
ATOM      1  C   UNL     1      47.536  -7.579 -55.355  1.00  0.00     0.000 C 
ENDROOT
BRANCH   1   2
ATOM      2  C   UNL     1      47.300  -7.335 -56.852  1.00  0.00     0.000 C 
BRANCH   2   3
ATOM      3  C   UNL     1      48.447  -7.865 -57.731  1.00  0.00     0.000 C 
BRANCH   3   4
ATOM      4  C   UNL     1      48.048  -9.070 -58.608  1.00  0.00    -0.000 C 
BRANCH   4   5
ATOM      5  C   UNL     1      46.579  -9.481 -58.402  1.00  0.00    -0.000 C 
BRANCH   5   6
ATOM      6  C   UNL     1      46.448 -10.849 -57.701  1.00  0.00    -0.000 C 
BRANCH   6   7
ATOM      7  C   UNL     1      47.769 -11.638 -57.626  1.00  0.00    -0.000 C 
BRANCH   7   8
ATOM      8  C   UNL     1      48.203 -11.940 -56.185  1.00  0.00    -0.000 C 
BRANCH   8   9
ATOM      9  C   UNL     1      49.264 -13.049 -56.152  1.00  0.00    -0.000 C 
BRANCH   9  10
ATOM     10  C   UNL     1      48.653 -14.462 -56.110  1.00  0.00    -0.000 C 
BRANCH  10  11
ATOM     11  C   UNL     1      47.315 -14.566 -55.356  1.00  0.00    -0.003 C 
ATOM     12  C   UNL     1      46.249 -15.338 -56.134  1.00  0.00     0.004 C 
ENDBRANCH  10  11
ENDBRANCH   9  10
ENDBRANCH   8   9
ENDBRANCH   7   8
ENDBRANCH   6   7
ENDBRANCH   5   6
ENDBRANCH   4   5
ENDBRANCH   3   4
ENDBRANCH   2   3
ENDBRANCH   1   2
BRANCH   1  13
ATOM     13  C   UNL     1      48.788  -8.434 -55.129  1.00  0.00     0.000 C 
BRANCH  13  14
ATOM     14  C   UNL     1      49.770  -7.736 -54.175  1.00  0.00     0.000 C 
BRANCH  14  15
ATOM     15  C   UNL     1      50.655  -6.704 -54.903  1.00  0.00     0.000 C 
BRANCH  15  16
ATOM     16  C   UNL     1      50.302  -5.242 -54.578  1.00  0.00     0.000 C 
BRANCH  16  17
ATOM     17  C   UNL     1      49.874  -4.441 -55.817  1.00  0.00     0.000 C 
BRANCH  17  18
ATOM     18  C   UNL     1      48.441  -3.892 -55.706  1.00  0.00     0.000 C 
BRANCH  18  19
ATOM     19  C   UNL     1      47.950  -3.639 -54.267  1.00  0.00     0.000 C 
BRANCH  19  20
ATOM     20  C   UNL     1      46.438  -3.880 -54.075  1.00  0.00     0.006 C 
BRANCH  20  21
ATOM     21  C   UNL     1      46.151  -5.103 -53.194  1.00  0.00     0.053 C 
BRANCH  21  22
ATOM     22  C   UNL     1      44.875  -4.914 -52.438  1.00  0.00     0.041 C 
ATOM     23  O   UNL     1      44.089  -3.978 -52.745  1.00  0.00    -0.550 OA
ATOM     24  O   UNL     1      44.577  -5.735 -51.357  1.00  0.00    -0.550 OA
ENDBRANCH  21  22
ENDBRANCH  20  21
ENDBRANCH  19  20
ENDBRANCH  18  19
ENDBRANCH  17  18
ENDBRANCH  16  17
ENDBRANCH  15  16
ENDBRANCH  14  15
ENDBRANCH  13  14
ENDBRANCH   1  13
TORSDOF 20
ENDMDL
MODEL 9
REMARK VINA RESULT:    -4.042      2.293      5.276
REMARK INTER + INTRA:         -11.890
REMARK INTER:                  -8.273
REMARK INTRA:                  -3.617
REMARK UNBOUND:                -3.121
REMARK SMILES CCCCCCCCCCCCCCCCCCCCCC(=O)[O-]
REMARK SMILES IDX 12 1 11 2 10 3 9 4 8 5 7 6 6 7 5 8 4 9 3 10 2 11 1 12 13 13
REMARK SMILES IDX 14 14 15 15 16 16 17 17 18 18 19 19 20 20 21 21 22 22 23 23
REMARK SMILES IDX 24 24
REMARK H PARENT
REMARK Flexibility Score: inf
ROOT
ATOM      1  C   UNL     1      51.328  -6.158 -54.988  1.00  0.00     0.000 C 
ENDROOT
BRANCH   1   2
ATOM      2  C   UNL     1      50.344  -7.107 -54.289  1.00  0.00     0.000 C 
BRANCH   2   3
ATOM      3  C   UNL     1      49.022  -7.270 -55.059  1.00  0.00     0.000 C 
BRANCH   3   4
ATOM      4  C   UNL     1      47.770  -7.191 -54.160  1.00  0.00    -0.000 C 
BRANCH   4   5
ATOM      5  C   UNL     1      46.619  -6.418 -54.829  1.00  0.00    -0.000 C 
BRANCH   5   6
ATOM      6  C   UNL     1      47.097  -5.596 -56.044  1.00  0.00    -0.000 C 
BRANCH   6   7
ATOM      7  C   UNL     1      46.991  -4.073 -55.843  1.00  0.00    -0.000 C 
BRANCH   7   8
ATOM      8  C   UNL     1      47.302  -3.637 -54.404  1.00  0.00    -0.000 C 
BRANCH   8   9
ATOM      9  C   UNL     1      46.113  -2.885 -53.788  1.00  0.00    -0.000 C 
BRANCH   9  10
ATOM     10  C   UNL     1      45.773  -3.364 -52.365  1.00  0.00    -0.000 C 
BRANCH  10  11
ATOM     11  C   UNL     1      44.636  -4.398 -52.284  1.00  0.00    -0.003 C 
ATOM     12  C   UNL     1      44.999  -5.621 -51.442  1.00  0.00     0.004 C 
ENDBRANCH  10  11
ENDBRANCH   9  10
ENDBRANCH   8   9
ENDBRANCH   7   8
ENDBRANCH   6   7
ENDBRANCH   5   6
ENDBRANCH   4   5
ENDBRANCH   3   4
ENDBRANCH   2   3
ENDBRANCH   1   2
BRANCH   1  13
ATOM     13  C   UNL     1      50.598  -4.937 -55.561  1.00  0.00     0.000 C 
BRANCH  13  14
ATOM     14  C   UNL     1      50.723  -4.886 -57.091  1.00  0.00     0.000 C 
BRANCH  14  15
ATOM     15  C   UNL     1      51.601  -6.027 -57.643  1.00  0.00     0.000 C 
BRANCH  15  16
ATOM     16  C   UNL     1      50.926  -6.850 -58.753  1.00  0.00     0.000 C 
BRANCH  16  17
ATOM     17  C   UNL     1      49.392  -6.777 -58.703  1.00  0.00     0.000 C 
BRANCH  17  18
ATOM     18  C   UNL     1      48.732  -8.165 -58.626  1.00  0.00     0.000 C 
BRANCH  18  19
ATOM     19  C   UNL     1      47.194  -8.149 -58.514  1.00  0.00     0.000 C 
BRANCH  19  20
ATOM     20  C   UNL     1      46.615  -9.351 -57.740  1.00  0.00     0.006 C 
BRANCH  20  21
ATOM     21  C   UNL     1      47.656 -10.012 -56.828  1.00  0.00     0.053 C 
BRANCH  21  22
ATOM     22  C   UNL     1      47.548 -11.501 -56.905  1.00  0.00     0.041 C 
ATOM     23  O   UNL     1      48.367 -12.229 -56.282  1.00  0.00    -0.550 OA
ATOM     24  O   UNL     1      46.580 -12.089 -57.709  1.00  0.00    -0.550 OA
ENDBRANCH  21  22
ENDBRANCH  20  21
ENDBRANCH  19  20
ENDBRANCH  18  19
ENDBRANCH  17  18
ENDBRANCH  16  17
ENDBRANCH  15  16
ENDBRANCH  14  15
ENDBRANCH  13  14
ENDBRANCH   1  13
TORSDOF 20
ENDMDL
