MODEL 1
REMARK VINA RESULT:    -3.844      0.000      0.000
REMARK INTER + INTRA:          -9.574
REMARK INTER:                  -7.440
REMARK INTRA:                  -2.134
REMARK UNBOUND:                -2.134
REMARK SMILES CCCCCCCCCCCCCCCCCC(=O)[O-]
REMARK SMILES IDX 10 1 11 2 12 3 13 4 14 5 15 6 16 7 17 8 18 9 19 10 20 11
REMARK SMILES IDX 9 12 8 13 7 14 6 15 5 16 4 17 3 18 2 19 1 20
REMARK H PARENT
REMARK Flexibility Score: inf
ROOT
ATOM      1  C   UNL     1     126.345 120.314 117.834  1.00  0.00     0.000 C 
ENDROOT
BRANCH   1   2
ATOM      2  C   UNL     1     127.324 119.482 118.681  1.00  0.00     0.000 C 
BRANCH   2   3
ATOM      3  C   UNL     1     128.789 119.677 118.257  1.00  0.00     0.000 C 
BRANCH   3   4
ATOM      4  C   UNL     1     129.318 121.085 118.583  1.00  0.00     0.000 C 
BRANCH   4   5
ATOM      5  C   UNL     1     128.944 121.542 120.004  1.00  0.00     0.000 C 
BRANCH   5   6
ATOM      6  C   UNL     1     130.089 122.298 120.700  1.00  0.00     0.000 C 
BRANCH   6   7
ATOM      7  C   UNL     1     131.440 122.104 119.992  1.00  0.00     0.006 C 
BRANCH   7   8
ATOM      8  C   UNL     1     132.445 121.312 120.839  1.00  0.00     0.053 C 
BRANCH   8   9
ATOM      9  C   UNL     1     132.353 119.852 120.525  1.00  0.00     0.041 C 
ATOM     10  O   UNL     1     131.549 119.117 121.156  1.00  0.00    -0.550 OA
ATOM     11  O   UNL     1     133.193 119.292 119.570  1.00  0.00    -0.550 OA
ENDBRANCH   8   9
ENDBRANCH   7   8
ENDBRANCH   6   7
ENDBRANCH   5   6
ENDBRANCH   4   5
ENDBRANCH   3   4
ENDBRANCH   2   3
ENDBRANCH   1   2
BRANCH   1  12
ATOM     12  C   UNL     1     125.041 119.560 117.531  1.00  0.00     0.000 C 
BRANCH  12  13
ATOM     13  C   UNL     1     123.926 120.487 117.011  1.00  0.00    -0.000 C 
BRANCH  13  14
ATOM     14  C   UNL     1     124.373 121.956 116.928  1.00  0.00    -0.000 C 
BRANCH  14  15
ATOM     15  C   UNL     1     123.467 122.895 117.742  1.00  0.00    -0.000 C 
BRANCH  15  16
ATOM     16  C   UNL     1     122.678 122.148 118.839  1.00  0.00    -0.000 C 
BRANCH  16  17
ATOM     17  C   UNL     1     123.238 122.361 120.259  1.00  0.00    -0.000 C 
BRANCH  17  18
ATOM     18  C   UNL     1     124.000 121.159 120.847  1.00  0.00    -0.000 C 
BRANCH  18  19
ATOM     19  C   UNL     1     125.482 121.427 121.165  1.00  0.00    -0.003 C 
ATOM     20  C   UNL     1     126.019 120.542 122.290  1.00  0.00     0.004 C 
ENDBRANCH  18  19
ENDBRANCH  17  18
ENDBRANCH  16  17
ENDBRANCH  15  16
ENDBRANCH  14  15
ENDBRANCH  13  14
ENDBRANCH  12  13
ENDBRANCH   1  12
TORSDOF 16
ENDMDL
MODEL 2
REMARK VINA RESULT:    -3.810      9.674     11.859
REMARK INTER + INTRA:          -9.507
REMARK INTER:                  -6.552
REMARK INTRA:                  -2.955
REMARK UNBOUND:                -2.134
REMARK SMILES CCCCCCCCCCCCCCCCCC(=O)[O-]
REMARK SMILES IDX 10 1 11 2 12 3 13 4 14 5 15 6 16 7 17 8 18 9 19 10 20 11
REMARK SMILES IDX 9 12 8 13 7 14 6 15 5 16 4 17 3 18 2 19 1 20
REMARK H PARENT
REMARK Flexibility Score: inf
ROOT
ATOM      1  C   UNL     1     123.483 128.228 130.122  1.00  0.00     0.000 C 
ENDROOT
BRANCH   1   2
ATOM      2  C   UNL     1     124.382 129.290 129.463  1.00  0.00     0.000 C 
BRANCH   2   3
ATOM      3  C   UNL     1     123.579 130.365 128.714  1.00  0.00     0.000 C 
BRANCH   3   4
ATOM      4  C   UNL     1     124.273 130.829 127.420  1.00  0.00     0.000 C 
BRANCH   4   5
ATOM      5  C   UNL     1     125.581 130.067 127.147  1.00  0.00     0.000 C 
BRANCH   5   6
ATOM      6  C   UNL     1     126.149 130.355 125.746  1.00  0.00     0.000 C 
BRANCH   6   7
ATOM      7  C   UNL     1     127.236 129.350 125.333  1.00  0.00     0.006 C 
BRANCH   7   8
ATOM      8  C   UNL     1     128.210 129.027 126.474  1.00  0.00     0.053 C 
BRANCH   8   9
ATOM      9  C   UNL     1     129.207 130.132 126.636  1.00  0.00     0.041 C 
ATOM     10  O   UNL     1     129.332 130.714 127.745  1.00  0.00    -0.550 OA
ATOM     11  O   UNL     1     129.962 130.552 125.548  1.00  0.00    -0.550 OA
ENDBRANCH   8   9
ENDBRANCH   7   8
ENDBRANCH   6   7
ENDBRANCH   5   6
ENDBRANCH   4   5
ENDBRANCH   3   4
ENDBRANCH   2   3
ENDBRANCH   1   2
BRANCH   1  12
ATOM     12  C   UNL     1     123.684 126.830 129.517  1.00  0.00     0.000 C 
BRANCH  12  13
ATOM     13  C   UNL     1     125.042 126.681 128.805  1.00  0.00    -0.000 C 
BRANCH  13  14
ATOM     14  C   UNL     1     125.430 125.210 128.582  1.00  0.00    -0.000 C 
BRANCH  14  15
ATOM     15  C   UNL     1     125.654 124.878 127.096  1.00  0.00    -0.000 C 
BRANCH  15  16
ATOM     16  C   UNL     1     125.797 126.145 126.225  1.00  0.00    -0.000 C 
BRANCH  16  17
ATOM     17  C   UNL     1     124.792 126.211 125.058  1.00  0.00    -0.000 C 
BRANCH  17  18
ATOM     18  C   UNL     1     124.003 127.529 124.950  1.00  0.00    -0.000 C 
BRANCH  18  19
ATOM     19  C   UNL     1     122.857 127.680 125.966  1.00  0.00    -0.003 C 
ATOM     20  C   UNL     1     121.838 128.745 125.561  1.00  0.00     0.004 C 
ENDBRANCH  18  19
ENDBRANCH  17  18
ENDBRANCH  16  17
ENDBRANCH  15  16
ENDBRANCH  14  15
ENDBRANCH  13  14
ENDBRANCH  12  13
ENDBRANCH   1  12
TORSDOF 16
ENDMDL
MODEL 3
REMARK VINA RESULT:    -3.774      9.444     11.458
REMARK INTER + INTRA:          -9.438
REMARK INTER:                  -6.559
REMARK INTRA:                  -2.880
REMARK UNBOUND:                -2.134
REMARK SMILES CCCCCCCCCCCCCCCCCC(=O)[O-]
REMARK SMILES IDX 10 1 11 2 12 3 13 4 14 5 15 6 16 7 17 8 18 9 19 10 20 11
REMARK SMILES IDX 9 12 8 13 7 14 6 15 5 16 4 17 3 18 2 19 1 20
REMARK H PARENT
REMARK Flexibility Score: inf
ROOT
ATOM      1  C   UNL     1     123.329 127.190 126.004  1.00  0.00     0.000 C 
ENDROOT
BRANCH   1   2
ATOM      2  C   UNL     1     122.533 128.449 125.613  1.00  0.00     0.000 C 
BRANCH   2   3
ATOM      3  C   UNL     1     123.026 129.079 124.301  1.00  0.00     0.000 C 
BRANCH   3   4
ATOM      4  C   UNL     1     123.403 130.563 124.461  1.00  0.00     0.000 C 
BRANCH   4   5
ATOM      5  C   UNL     1     124.427 130.795 125.586  1.00  0.00     0.000 C 
BRANCH   5   6
ATOM      6  C   UNL     1     125.825 130.263 125.228  1.00  0.00     0.000 C 
BRANCH   6   7
ATOM      7  C   UNL     1     126.693 130.006 126.470  1.00  0.00     0.006 C 
BRANCH   7   8
ATOM      8  C   UNL     1     128.009 129.289 126.137  1.00  0.00     0.053 C 
BRANCH   8   9
ATOM      9  C   UNL     1     129.177 130.165 126.464  1.00  0.00     0.041 C 
ATOM     10  O   UNL     1     129.459 130.424 127.662  1.00  0.00    -0.550 OA
ATOM     11  O   UNL     1     129.923 130.737 125.441  1.00  0.00    -0.550 OA
ENDBRANCH   8   9
ENDBRANCH   7   8
ENDBRANCH   6   7
ENDBRANCH   5   6
ENDBRANCH   4   5
ENDBRANCH   3   4
ENDBRANCH   2   3
ENDBRANCH   1   2
BRANCH   1  12
ATOM     12  C   UNL     1     124.358 126.791 124.935  1.00  0.00     0.000 C 
BRANCH  12  13
ATOM     13  C   UNL     1     125.763 126.555 125.522  1.00  0.00    -0.000 C 
BRANCH  13  14
ATOM     14  C   UNL     1     125.729 125.706 126.804  1.00  0.00    -0.000 C 
BRANCH  14  15
ATOM     15  C   UNL     1     126.712 126.214 127.873  1.00  0.00    -0.000 C 
BRANCH  15  16
ATOM     16  C   UNL     1     126.063 126.306 129.272  1.00  0.00    -0.000 C 
BRANCH  16  17
ATOM     17  C   UNL     1     124.608 125.801 129.314  1.00  0.00    -0.000 C 
BRANCH  17  18
ATOM     18  C   UNL     1     123.548 126.887 129.576  1.00  0.00    -0.000 C 
BRANCH  18  19
ATOM     19  C   UNL     1     124.114 128.247 130.023  1.00  0.00    -0.003 C 
ATOM     20  C   UNL     1     123.922 129.345 128.977  1.00  0.00     0.004 C 
ENDBRANCH  18  19
ENDBRANCH  17  18
ENDBRANCH  16  17
ENDBRANCH  15  16
ENDBRANCH  14  15
ENDBRANCH  13  14
ENDBRANCH  12  13
ENDBRANCH   1  12
TORSDOF 16
ENDMDL
MODEL 4
REMARK VINA RESULT:    -3.761      3.630      7.789
REMARK INTER + INTRA:          -9.412
REMARK INTER:                  -7.919
REMARK INTRA:                  -1.494
REMARK UNBOUND:                -2.134
REMARK SMILES CCCCCCCCCCCCCCCCCC(=O)[O-]
REMARK SMILES IDX 10 1 11 2 12 3 13 4 14 5 15 6 16 7 17 8 18 9 19 10 20 11
REMARK SMILES IDX 9 12 8 13 7 14 6 15 5 16 4 17 3 18 2 19 1 20
REMARK H PARENT
REMARK Flexibility Score: inf
ROOT
ATOM      1  C   UNL     1     127.778 120.105 117.878  1.00  0.00     0.000 C 
ENDROOT
BRANCH   1   2
ATOM      2  C   UNL     1     126.416 120.820 117.878  1.00  0.00     0.000 C 
BRANCH   2   3
ATOM      3  C   UNL     1     125.248 119.872 117.563  1.00  0.00     0.000 C 
BRANCH   3   4
ATOM      4  C   UNL     1     123.971 120.623 117.143  1.00  0.00     0.000 C 
BRANCH   4   5
ATOM      5  C   UNL     1     124.135 122.151 117.215  1.00  0.00     0.000 C 
BRANCH   5   6
ATOM      6  C   UNL     1     123.119 122.808 118.166  1.00  0.00     0.000 C 
BRANCH   6   7
ATOM      7  C   UNL     1     122.693 121.874 119.310  1.00  0.00     0.006 C 
BRANCH   7   8
ATOM      8  C   UNL     1     123.102 122.403 120.691  1.00  0.00     0.053 C 
BRANCH   8   9
ATOM      9  C   UNL     1     122.018 122.146 121.690  1.00  0.00     0.041 C 
ATOM     10  O   UNL     1     122.283 122.118 122.920  1.00  0.00    -0.550 OA
ATOM     11  O   UNL     1     120.723 121.888 121.259  1.00  0.00    -0.550 OA
ENDBRANCH   8   9
ENDBRANCH   7   8
ENDBRANCH   6   7
ENDBRANCH   5   6
ENDBRANCH   4   5
ENDBRANCH   3   4
ENDBRANCH   2   3
ENDBRANCH   1   2
BRANCH   1  12
ATOM     12  C   UNL     1     128.861 120.900 118.624  1.00  0.00     0.000 C 
BRANCH  12  13
ATOM     13  C   UNL     1     128.489 121.175 120.094  1.00  0.00    -0.000 C 
BRANCH  13  14
ATOM     14  C   UNL     1     129.467 122.144 120.777  1.00  0.00    -0.000 C 
BRANCH  14  15
ATOM     15  C   UNL     1     130.778 122.311 119.990  1.00  0.00    -0.000 C 
BRANCH  15  16
ATOM     16  C   UNL     1     132.026 122.158 120.887  1.00  0.00    -0.000 C 
BRANCH  16  17
ATOM     17  C   UNL     1     132.858 120.897 120.581  1.00  0.00    -0.000 C 
BRANCH  17  18
ATOM     18  C   UNL     1     132.203 119.906 119.602  1.00  0.00    -0.000 C 
BRANCH  18  19
ATOM     19  C   UNL     1     132.932 119.753 118.255  1.00  0.00    -0.003 C 
ATOM     20  C   UNL     1     131.987 119.419 117.100  1.00  0.00     0.004 C 
ENDBRANCH  18  19
ENDBRANCH  17  18
ENDBRANCH  16  17
ENDBRANCH  15  16
ENDBRANCH  14  15
ENDBRANCH  13  14
ENDBRANCH  12  13
ENDBRANCH   1  12
TORSDOF 16
ENDMDL
MODEL 5
REMARK VINA RESULT:    -3.735      2.318      6.552
REMARK INTER + INTRA:          -9.362
REMARK INTER:                  -7.699
REMARK INTRA:                  -1.663
REMARK UNBOUND:                -2.134
REMARK SMILES CCCCCCCCCCCCCCCCCC(=O)[O-]
REMARK SMILES IDX 10 1 11 2 12 3 13 4 14 5 15 6 16 7 17 8 18 9 19 10 20 11
REMARK SMILES IDX 9 12 8 13 7 14 6 15 5 16 4 17 3 18 2 19 1 20
REMARK H PARENT
REMARK Flexibility Score: inf
ROOT
ATOM      1  C   UNL     1     126.598 120.686 117.844  1.00  0.00     0.000 C 
ENDROOT
BRANCH   1   2
ATOM      2  C   UNL     1     125.118 120.583 117.437  1.00  0.00     0.000 C 
BRANCH   2   3
ATOM      3  C   UNL     1     124.519 121.939 117.031  1.00  0.00     0.000 C 
BRANCH   3   4
ATOM      4  C   UNL     1     123.109 122.160 117.607  1.00  0.00     0.000 C 
BRANCH   4   5
ATOM      5  C   UNL     1     123.127 122.950 118.927  1.00  0.00     0.000 C 
BRANCH   5   6
ATOM      6  C   UNL     1     122.537 122.151 120.101  1.00  0.00     0.000 C 
BRANCH   6   7
ATOM      7  C   UNL     1     123.462 121.014 120.565  1.00  0.00     0.006 C 
BRANCH   7   8
ATOM      8  C   UNL     1     124.805 121.525 121.103  1.00  0.00     0.053 C 
BRANCH   8   9
ATOM      9  C   UNL     1     125.594 120.396 121.689  1.00  0.00     0.041 C 
ATOM     10  O   UNL     1     126.202 120.548 122.780  1.00  0.00    -0.550 OA
ATOM     11  O   UNL     1     125.700 119.193 121.003  1.00  0.00    -0.550 OA
ENDBRANCH   8   9
ENDBRANCH   7   8
ENDBRANCH   6   7
ENDBRANCH   5   6
ENDBRANCH   4   5
ENDBRANCH   3   4
ENDBRANCH   2   3
ENDBRANCH   1   2
BRANCH   1  12
ATOM     12  C   UNL     1     127.336 119.343 117.727  1.00  0.00     0.000 C 
BRANCH  12  13
ATOM     13  C   UNL     1     128.639 119.308 118.547  1.00  0.00    -0.000 C 
BRANCH  13  14
ATOM     14  C   UNL     1     129.471 120.590 118.385  1.00  0.00    -0.000 C 
BRANCH  14  15
ATOM     15  C   UNL     1     130.851 120.323 117.758  1.00  0.00    -0.000 C 
BRANCH  15  16
ATOM     16  C   UNL     1     131.955 120.139 118.822  1.00  0.00    -0.000 C 
BRANCH  16  17
ATOM     17  C   UNL     1     131.568 120.671 120.215  1.00  0.00    -0.000 C 
BRANCH  17  18
ATOM     18  C   UNL     1     132.487 121.776 120.770  1.00  0.00    -0.000 C 
BRANCH  18  19
ATOM     19  C   UNL     1     131.863 123.183 120.793  1.00  0.00    -0.003 C 
ATOM     20  C   UNL     1     130.346 123.160 120.975  1.00  0.00     0.004 C 
ENDBRANCH  18  19
ENDBRANCH  17  18
ENDBRANCH  16  17
ENDBRANCH  15  16
ENDBRANCH  14  15
ENDBRANCH  13  14
ENDBRANCH  12  13
ENDBRANCH   1  12
TORSDOF 16
ENDMDL
MODEL 6
REMARK VINA RESULT:    -3.699      3.088      6.567
REMARK INTER + INTRA:          -9.293
REMARK INTER:                  -6.909
REMARK INTRA:                  -2.383
REMARK UNBOUND:                -2.134
REMARK SMILES CCCCCCCCCCCCCCCCCC(=O)[O-]
REMARK SMILES IDX 10 1 11 2 12 3 13 4 14 5 15 6 16 7 17 8 18 9 19 10 20 11
REMARK SMILES IDX 9 12 8 13 7 14 6 15 5 16 4 17 3 18 2 19 1 20
REMARK H PARENT
REMARK Flexibility Score: inf
ROOT
ATOM      1  C   UNL     1     126.203 120.767 117.786  1.00  0.00     0.000 C 
ENDROOT
BRANCH   1   2
ATOM      2  C   UNL     1     124.951 119.928 117.473  1.00  0.00     0.000 C 
BRANCH   2   3
ATOM      3  C   UNL     1     123.738 120.792 117.093  1.00  0.00     0.000 C 
BRANCH   3   4
ATOM      4  C   UNL     1     124.019 122.300 117.229  1.00  0.00     0.000 C 
BRANCH   4   5
ATOM      5  C   UNL     1     122.978 123.017 118.106  1.00  0.00     0.000 C 
BRANCH   5   6
ATOM      6  C   UNL     1     122.740 122.300 119.446  1.00  0.00     0.000 C 
BRANCH   6   7
ATOM      7  C   UNL     1     123.990 122.295 120.341  1.00  0.00     0.006 C 
BRANCH   7   8
ATOM      8  C   UNL     1     123.936 121.213 121.428  1.00  0.00     0.053 C 
BRANCH   8   9
ATOM      9  C   UNL     1     123.801 121.838 122.780  1.00  0.00     0.041 C 
ATOM     10  O   UNL     1     124.358 121.314 123.779  1.00  0.00    -0.550 OA
ATOM     11  O   UNL     1     123.016 122.973 122.946  1.00  0.00    -0.550 OA
ENDBRANCH   8   9
ENDBRANCH   7   8
ENDBRANCH   6   7
ENDBRANCH   5   6
ENDBRANCH   4   5
ENDBRANCH   3   4
ENDBRANCH   2   3
ENDBRANCH   1   2
BRANCH   1  12
ATOM     12  C   UNL     1     127.477 119.912 117.877  1.00  0.00     0.000 C 
BRANCH  12  13
ATOM     13  C   UNL     1     127.400 118.849 118.989  1.00  0.00    -0.000 C 
BRANCH  13  14
ATOM     14  C   UNL     1     126.991 119.445 120.345  1.00  0.00    -0.000 C 
BRANCH  14  15
ATOM     15  C   UNL     1     128.192 119.991 121.137  1.00  0.00    -0.000 C 
BRANCH  15  16
ATOM     16  C   UNL     1     128.273 121.533 121.094  1.00  0.00    -0.000 C 
BRANCH  16  17
ATOM     17  C   UNL     1     129.555 122.068 120.427  1.00  0.00    -0.000 C 
BRANCH  17  18
ATOM     18  C   UNL     1     130.600 120.995 120.067  1.00  0.00    -0.000 C 
BRANCH  18  19
ATOM     19  C   UNL     1     130.907 120.872 118.564  1.00  0.00    -0.003 C 
ATOM     20  C   UNL     1     131.341 119.464 118.158  1.00  0.00     0.004 C 
ENDBRANCH  18  19
ENDBRANCH  17  18
ENDBRANCH  16  17
ENDBRANCH  15  16
ENDBRANCH  14  15
ENDBRANCH  13  14
ENDBRANCH  12  13
ENDBRANCH   1  12
TORSDOF 16
ENDMDL
MODEL 7
REMARK VINA RESULT:    -3.695      3.349      7.150
REMARK INTER + INTRA:          -9.284
REMARK INTER:                  -6.719
REMARK INTRA:                  -2.566
REMARK UNBOUND:                -2.134
REMARK SMILES CCCCCCCCCCCCCCCCCC(=O)[O-]
REMARK SMILES IDX 10 1 11 2 12 3 13 4 14 5 15 6 16 7 17 8 18 9 19 10 20 11
REMARK SMILES IDX 9 12 8 13 7 14 6 15 5 16 4 17 3 18 2 19 1 20
REMARK H PARENT
REMARK Flexibility Score: inf
ROOT
ATOM      1  C   UNL     1     126.891 121.262 120.594  1.00  0.00     0.000 C 
ENDROOT
BRANCH   1   2
ATOM      2  C   UNL     1     126.387 120.077 119.752  1.00  0.00     0.000 C 
BRANCH   2   3
ATOM      3  C   UNL     1     126.145 120.455 118.282  1.00  0.00     0.000 C 
BRANCH   3   4
ATOM      4  C   UNL     1     124.990 119.658 117.647  1.00  0.00     0.000 C 
BRANCH   4   5
ATOM      5  C   UNL     1     123.965 120.563 116.943  1.00  0.00     0.000 C 
BRANCH   5   6
ATOM      6  C   UNL     1     124.217 122.058 117.208  1.00  0.00     0.000 C 
BRANCH   6   7
ATOM      7  C   UNL     1     123.146 122.684 118.116  1.00  0.00     0.006 C 
BRANCH   7   8
ATOM      8  C   UNL     1     123.534 122.652 119.600  1.00  0.00     0.053 C 
BRANCH   8   9
ATOM      9  C   UNL     1     122.614 121.749 120.360  1.00  0.00     0.041 C 
ATOM     10  O   UNL     1     123.022 120.634 120.775  1.00  0.00    -0.550 OA
ATOM     11  O   UNL     1     121.290 122.119 120.566  1.00  0.00    -0.550 OA
ENDBRANCH   8   9
ENDBRANCH   7   8
ENDBRANCH   6   7
ENDBRANCH   5   6
ENDBRANCH   4   5
ENDBRANCH   3   4
ENDBRANCH   2   3
ENDBRANCH   1   2
BRANCH   1  12
ATOM     12  C   UNL     1     128.312 121.036 121.136  1.00  0.00     0.000 C 
BRANCH  12  13
ATOM     13  C   UNL     1     129.265 122.201 120.806  1.00  0.00    -0.000 C 
BRANCH  13  14
ATOM     14  C   UNL     1     130.468 121.754 119.960  1.00  0.00    -0.000 C 
BRANCH  14  15
ATOM     15  C   UNL     1     130.045 121.091 118.638  1.00  0.00    -0.000 C 
BRANCH  15  16
ATOM     16  C   UNL     1     131.184 120.261 118.005  1.00  0.00    -0.000 C 
BRANCH  16  17
ATOM     17  C   UNL     1     130.743 118.862 117.534  1.00  0.00    -0.000 C 
BRANCH  17  18
ATOM     18  C   UNL     1     129.227 118.600 117.597  1.00  0.00    -0.000 C 
BRANCH  18  19
ATOM     19  C   UNL     1     128.808 117.458 118.539  1.00  0.00    -0.003 C 
ATOM     20  C   UNL     1     129.293 117.660 119.974  1.00  0.00     0.004 C 
ENDBRANCH  18  19
ENDBRANCH  17  18
ENDBRANCH  16  17
ENDBRANCH  15  16
ENDBRANCH  14  15
ENDBRANCH  13  14
ENDBRANCH  12  13
ENDBRANCH   1  12
TORSDOF 16
ENDMDL
MODEL 8
REMARK VINA RESULT:    -3.676      3.702      7.557
REMARK INTER + INTRA:          -9.248
REMARK INTER:                  -6.739
REMARK INTRA:                  -2.509
REMARK UNBOUND:                -2.134
REMARK SMILES CCCCCCCCCCCCCCCCCC(=O)[O-]
REMARK SMILES IDX 10 1 11 2 12 3 13 4 14 5 15 6 16 7 17 8 18 9 19 10 20 11
REMARK SMILES IDX 9 12 8 13 7 14 6 15 5 16 4 17 3 18 2 19 1 20
REMARK H PARENT
REMARK Flexibility Score: inf
ROOT
ATOM      1  C   UNL     1     131.431 121.670 120.367  1.00  0.00     0.000 C 
ENDROOT
BRANCH   1   2
ATOM      2  C   UNL     1     130.079 121.584 119.637  1.00  0.00     0.000 C 
BRANCH   2   3
ATOM      3  C   UNL     1     128.899 121.369 120.599  1.00  0.00     0.000 C 
BRANCH   3   4
ATOM      4  C   UNL     1     127.574 121.106 119.861  1.00  0.00     0.000 C 
BRANCH   4   5
ATOM      5  C   UNL     1     127.785 120.718 118.387  1.00  0.00     0.000 C 
BRANCH   5   6
ATOM      6  C   UNL     1     126.494 120.215 117.719  1.00  0.00     0.000 C 
BRANCH   6   7
ATOM      7  C   UNL     1     125.237 120.911 118.265  1.00  0.00     0.006 C 
BRANCH   7   8
ATOM      8  C   UNL     1     124.531 121.773 117.210  1.00  0.00     0.053 C 
BRANCH   8   9
ATOM      9  C   UNL     1     123.141 122.105 117.654  1.00  0.00     0.041 C 
ATOM     10  O   UNL     1     122.756 123.302 117.690  1.00  0.00    -0.550 OA
ATOM     11  O   UNL     1     122.286 121.093 118.076  1.00  0.00    -0.550 OA
ENDBRANCH   8   9
ENDBRANCH   7   8
ENDBRANCH   6   7
ENDBRANCH   5   6
ENDBRANCH   4   5
ENDBRANCH   3   4
ENDBRANCH   2   3
ENDBRANCH   1   2
BRANCH   1  12
ATOM     12  C   UNL     1     132.094 120.295 120.541  1.00  0.00     0.000 C 
BRANCH  12  13
ATOM     13  C   UNL     1     133.298 120.093 119.601  1.00  0.00    -0.000 C 
BRANCH  13  14
ATOM     14  C   UNL     1     133.004 119.086 118.478  1.00  0.00    -0.000 C 
BRANCH  14  15
ATOM     15  C   UNL     1     132.385 119.751 117.236  1.00  0.00    -0.000 C 
BRANCH  15  16
ATOM     16  C   UNL     1     130.941 119.273 116.971  1.00  0.00    -0.000 C 
BRANCH  16  17
ATOM     17  C   UNL     1     130.673 117.826 117.429  1.00  0.00    -0.000 C 
BRANCH  17  18
ATOM     18  C   UNL     1     129.589 117.675 118.512  1.00  0.00    -0.000 C 
BRANCH  18  19
ATOM     19  C   UNL     1     130.102 117.169 119.872  1.00  0.00    -0.003 C 
ATOM     20  C   UNL     1     129.383 117.812 121.058  1.00  0.00     0.004 C 
ENDBRANCH  18  19
ENDBRANCH  17  18
ENDBRANCH  16  17
ENDBRANCH  15  16
ENDBRANCH  14  15
ENDBRANCH  13  14
ENDBRANCH  12  13
ENDBRANCH   1  12
TORSDOF 16
ENDMDL
MODEL 9
REMARK VINA RESULT:    -3.621      9.352     11.099
REMARK INTER + INTRA:          -9.141
REMARK INTER:                  -6.883
REMARK INTRA:                  -2.258
REMARK UNBOUND:                -2.134
REMARK SMILES CCCCCCCCCCCCCCCCCC(=O)[O-]
REMARK SMILES IDX 10 1 11 2 12 3 13 4 14 5 15 6 16 7 17 8 18 9 19 10 20 11
REMARK SMILES IDX 9 12 8 13 7 14 6 15 5 16 4 17 3 18 2 19 1 20
REMARK H PARENT
REMARK Flexibility Score: inf
ROOT
ATOM      1  C   UNL     1     127.685 129.013 125.963  1.00  0.00     0.000 C 
ENDROOT
BRANCH   1   2
ATOM      2  C   UNL     1     127.039 129.633 124.710  1.00  0.00     0.000 C 
BRANCH   2   3
ATOM      3  C   UNL     1     126.778 131.140 124.862  1.00  0.00     0.000 C 
BRANCH   3   4
ATOM      4  C   UNL     1     126.552 131.841 123.511  1.00  0.00     0.000 C 
BRANCH   4   5
ATOM      5  C   UNL     1     126.504 130.852 122.333  1.00  0.00     0.000 C 
BRANCH   5   6
ATOM      6  C   UNL     1     125.804 131.442 121.096  1.00  0.00     0.000 C 
BRANCH   6   7
ATOM      7  C   UNL     1     126.717 131.469 119.860  1.00  0.00     0.006 C 
BRANCH   7   8
ATOM      8  C   UNL     1     126.853 130.094 119.192  1.00  0.00     0.053 C 
BRANCH   8   9
ATOM      9  C   UNL     1     125.794 129.914 118.150  1.00  0.00     0.041 C 
ATOM     10  O   UNL     1     125.983 130.331 116.978  1.00  0.00    -0.550 OA
ATOM     11  O   UNL     1     124.579 129.331 118.487  1.00  0.00    -0.550 OA
ENDBRANCH   8   9
ENDBRANCH   7   8
ENDBRANCH   6   7
ENDBRANCH   5   6
ENDBRANCH   4   5
ENDBRANCH   3   4
ENDBRANCH   2   3
ENDBRANCH   1   2
BRANCH   1  12
ATOM     12  C   UNL     1     126.983 127.719 126.407  1.00  0.00     0.000 C 
BRANCH  12  13
ATOM     13  C   UNL     1     126.061 127.140 125.318  1.00  0.00    -0.000 C 
BRANCH  13  14
ATOM     14  C   UNL     1     124.872 126.363 125.905  1.00  0.00    -0.000 C 
BRANCH  14  15
ATOM     15  C   UNL     1     123.542 127.123 125.763  1.00  0.00    -0.000 C 
BRANCH  15  16
ATOM     16  C   UNL     1     123.381 128.233 126.825  1.00  0.00    -0.000 C 
BRANCH  16  17
ATOM     17  C   UNL     1     123.628 129.653 126.280  1.00  0.00    -0.000 C 
BRANCH  17  18
ATOM     18  C   UNL     1     122.510 130.209 125.378  1.00  0.00    -0.000 C 
BRANCH  18  19
ATOM     19  C   UNL     1     122.968 130.640 123.973  1.00  0.00    -0.003 C 
ATOM     20  C   UNL     1     123.116 129.465 123.007  1.00  0.00     0.004 C 
ENDBRANCH  18  19
ENDBRANCH  17  18
ENDBRANCH  16  17
ENDBRANCH  15  16
ENDBRANCH  14  15
ENDBRANCH  13  14
ENDBRANCH  12  13
ENDBRANCH   1  12
TORSDOF 16
ENDMDL
