MODEL 1
REMARK VINA RESULT:     9.567      0.000      0.000
REMARK INTER + INTRA:          14.895
REMARK INTER:                  15.160
REMARK INTRA:                  -0.264
REMARK UNBOUND:                -0.264
REMARK SMILES CCCCCCCCCCCC(=O)[O-]
REMARK SMILES IDX 7 1 8 2 9 3 10 4 11 5 12 6 13 7 14 8 6 9 5 10 4 11 3 12 2 13
REMARK SMILES IDX 1 14
REMARK H PARENT
REMARK Flexibility Score: inf
ROOT
ATOM      1  C   UNL     1      14.820   5.698   7.872  1.00  0.00     0.000 C 
ENDROOT
BRANCH   1   2
ATOM      2  C   UNL     1      15.918   5.424   6.831  1.00  0.00     0.000 C 
BRANCH   2   3
ATOM      3  C   UNL     1      17.334   5.611   7.406  1.00  0.00     0.000 C 
BRANCH   3   4
ATOM      4  C   UNL     1      17.334   5.759   8.937  1.00  0.00     0.006 C 
BRANCH   4   5
ATOM      5  C   UNL     1      18.122   6.986   9.413  1.00  0.00     0.053 C 
BRANCH   5   6
ATOM      6  C   UNL     1      17.187   8.084   9.811  1.00  0.00     0.041 C 
ATOM      7  O   UNL     1      16.016   7.813  10.188  1.00  0.00    -0.550 OA
ATOM      8  O   UNL     1      17.592   9.409   9.721  1.00  0.00    -0.550 OA
ENDBRANCH   5   6
ENDBRANCH   4   5
ENDBRANCH   3   4
ENDBRANCH   2   3
ENDBRANCH   1   2
BRANCH   1   9
ATOM      9  C   UNL     1      14.283   7.138   7.794  1.00  0.00     0.000 C 
BRANCH   9  10
ATOM     10  C   UNL     1      12.824   7.208   7.306  1.00  0.00    -0.000 C 
BRANCH  10  11
ATOM     11  C   UNL     1      11.785   6.568   8.247  1.00  0.00    -0.000 C 
BRANCH  11  12
ATOM     12  C   UNL     1      11.283   5.204   7.745  1.00  0.00    -0.000 C 
BRANCH  12  13
ATOM     13  C   UNL     1      10.264   4.564   8.701  1.00  0.00    -0.003 C 
ATOM     14  C   UNL     1      10.624   3.126   9.076  1.00  0.00     0.004 C 
ENDBRANCH  12  13
ENDBRANCH  11  12
ENDBRANCH  10  11
ENDBRANCH   9  10
ENDBRANCH   1   9
TORSDOF 10
ENDMDL
MODEL 2
REMARK VINA RESULT:    10.329      1.218      2.138
REMARK INTER + INTRA:          16.104
REMARK INTER:                  16.902
REMARK INTRA:                  -0.799
REMARK UNBOUND:                -0.264
REMARK SMILES CCCCCCCCCCCC(=O)[O-]
REMARK SMILES IDX 7 1 8 2 9 3 10 4 11 5 12 6 13 7 14 8 6 9 5 10 4 11 3 12 2 13
REMARK SMILES IDX 1 14
REMARK H PARENT
REMARK Flexibility Score: inf
ROOT
ATOM      1  C   UNL     1      12.500   7.428   7.432  1.00  0.00     0.000 C 
ENDROOT
BRANCH   1   2
ATOM      2  C   UNL     1      14.018   7.281   7.226  1.00  0.00     0.000 C 
BRANCH   2   3
ATOM      3  C   UNL     1      14.570   5.976   7.825  1.00  0.00     0.000 C 
BRANCH   3   4
ATOM      4  C   UNL     1      15.867   6.194   8.622  1.00  0.00     0.006 C 
BRANCH   4   5
ATOM      5  C   UNL     1      15.823   7.460   9.489  1.00  0.00     0.053 C 
BRANCH   5   6
ATOM      6  C   UNL     1      17.210   7.940   9.781  1.00  0.00     0.041 C 
ATOM      7  O   UNL     1      18.125   7.115  10.037  1.00  0.00    -0.550 OA
ATOM      8  O   UNL     1      17.480   9.302   9.818  1.00  0.00    -0.550 OA
ENDBRANCH   5   6
ENDBRANCH   4   5
ENDBRANCH   3   4
ENDBRANCH   2   3
ENDBRANCH   1   2
BRANCH   1   9
ATOM      9  C   UNL     1      11.947   6.420   8.455  1.00  0.00     0.000 C 
BRANCH   9  10
ATOM     10  C   UNL     1      10.441   6.151   8.277  1.00  0.00    -0.000 C 
BRANCH  10  11
ATOM     11  C   UNL     1      10.090   4.932   7.403  1.00  0.00    -0.000 C 
BRANCH  11  12
ATOM     12  C   UNL     1      11.146   3.816   7.480  1.00  0.00    -0.000 C 
BRANCH  12  13
ATOM     13  C   UNL     1      10.634   2.573   8.225  1.00  0.00    -0.003 C 
ATOM     14  C   UNL     1      10.477   2.805   9.728  1.00  0.00     0.004 C 
ENDBRANCH  12  13
ENDBRANCH  11  12
ENDBRANCH  10  11
ENDBRANCH   9  10
ENDBRANCH   1   9
TORSDOF 10
ENDMDL
MODEL 3
REMARK VINA RESULT:    10.540      3.188      6.483
REMARK INTER + INTRA:          16.437
REMARK INTER:                  16.244
REMARK INTRA:                   0.193
REMARK UNBOUND:                -0.264
REMARK SMILES CCCCCCCCCCCC(=O)[O-]
REMARK SMILES IDX 7 1 8 2 9 3 10 4 11 5 12 6 13 7 14 8 6 9 5 10 4 11 3 12 2 13
REMARK SMILES IDX 1 14
REMARK H PARENT
REMARK Flexibility Score: inf
ROOT
ATOM      1  C   UNL     1      14.089   5.624   7.618  1.00  0.00     0.000 C 
ENDROOT
BRANCH   1   2
ATOM      2  C   UNL     1      13.555   7.067   7.649  1.00  0.00     0.000 C 
BRANCH   2   3
ATOM      3  C   UNL     1      12.018   7.126   7.599  1.00  0.00     0.000 C 
BRANCH   3   4
ATOM      4  C   UNL     1      11.364   6.541   8.862  1.00  0.00     0.006 C 
BRANCH   4   5
ATOM      5  C   UNL     1      10.173   5.628   8.543  1.00  0.00     0.053 C 
BRANCH   5   6
ATOM      6  C   UNL     1      10.646   4.239   8.249  1.00  0.00     0.041 C 
ATOM      7  O   UNL     1      11.013   3.928   7.086  1.00  0.00    -0.550 OA
ATOM      8  O   UNL     1      10.636   3.275   9.249  1.00  0.00    -0.550 OA
ENDBRANCH   5   6
ENDBRANCH   4   5
ENDBRANCH   3   4
ENDBRANCH   2   3
ENDBRANCH   1   2
BRANCH   1   9
ATOM      9  C   UNL     1      15.580   5.558   7.243  1.00  0.00     0.000 C 
BRANCH   9  10
ATOM     10  C   UNL     1      16.480   6.333   8.223  1.00  0.00    -0.000 C 
BRANCH  10  11
ATOM     11  C   UNL     1      15.736   7.085   9.343  1.00  0.00    -0.000 C 
BRANCH  11  12
ATOM     12  C   UNL     1      16.676   7.592  10.451  1.00  0.00    -0.000 C 
BRANCH  12  13
ATOM     13  C   UNL     1      18.045   8.027   9.907  1.00  0.00    -0.003 C 
ATOM     14  C   UNL     1      18.125   9.529   9.632  1.00  0.00     0.004 C 
ENDBRANCH  12  13
ENDBRANCH  11  12
ENDBRANCH  10  11
ENDBRANCH   9  10
ENDBRANCH   1   9
TORSDOF 10
ENDMDL
MODEL 4
REMARK VINA RESULT:    10.707      3.153      6.458
REMARK INTER + INTRA:          16.703
REMARK INTER:                  15.434
REMARK INTRA:                   1.268
REMARK UNBOUND:                -0.264
REMARK SMILES CCCCCCCCCCCC(=O)[O-]
REMARK SMILES IDX 7 1 8 2 9 3 10 4 11 5 12 6 13 7 14 8 6 9 5 10 4 11 3 12 2 13
REMARK SMILES IDX 1 14
REMARK H PARENT
REMARK Flexibility Score: inf
ROOT
ATOM      1  C   UNL     1      15.268   5.606   7.749  1.00  0.00     0.000 C 
ENDROOT
BRANCH   1   2
ATOM      2  C   UNL     1      14.304   6.777   7.495  1.00  0.00     0.000 C 
BRANCH   2   3
ATOM      3  C   UNL     1      13.101   6.769   8.456  1.00  0.00     0.000 C 
BRANCH   3   4
ATOM      4  C   UNL     1      11.754   6.753   7.715  1.00  0.00     0.006 C 
BRANCH   4   5
ATOM      5  C   UNL     1      10.692   5.910   8.433  1.00  0.00     0.053 C 
BRANCH   5   6
ATOM      6  C   UNL     1      10.531   4.586   7.755  1.00  0.00     0.041 C 
ATOM      7  O   UNL     1      10.961   3.537   8.301  1.00  0.00    -0.550 OA
ATOM      8  O   UNL     1       9.949   4.518   6.495  1.00  0.00    -0.550 OA
ENDBRANCH   5   6
ENDBRANCH   4   5
ENDBRANCH   3   4
ENDBRANCH   2   3
ENDBRANCH   1   2
BRANCH   1   9
ATOM      9  C   UNL     1      16.272   5.412   6.600  1.00  0.00     0.000 C 
BRANCH   9  10
ATOM     10  C   UNL     1      17.688   5.062   7.094  1.00  0.00    -0.000 C 
BRANCH  10  11
ATOM     11  C   UNL     1      18.124   5.769   8.391  1.00  0.00    -0.000 C 
BRANCH  11  12
ATOM     12  C   UNL     1      17.068   6.753   8.922  1.00  0.00    -0.000 C 
BRANCH  12  13
ATOM     13  C   UNL     1      17.588   7.598  10.096  1.00  0.00    -0.003 C 
ATOM     14  C   UNL     1      17.779   9.070   9.728  1.00  0.00     0.004 C 
ENDBRANCH  12  13
ENDBRANCH  11  12
ENDBRANCH  10  11
ENDBRANCH   9  10
ENDBRANCH   1   9
TORSDOF 10
ENDMDL
