MODEL 1
REMARK VINA RESULT:     1.046      0.000      0.000
REMARK INTER + INTRA:           4.132
REMARK INTER:                   2.637
REMARK INTRA:                   1.496
REMARK UNBOUND:                 1.496
REMARK SMILES CCCCCCCCCCCCCCCCCCCCCCCCCCCC(=O)[O-]
REMARK SMILES IDX 15 1 16 2 17 3 18 4 19 5 20 6 21 7 22 8 23 9 24 10 25 11
REMARK SMILES IDX 26 12 27 13 28 14 29 15 30 16 14 17 13 18 12 19 11 20 10 21
REMARK SMILES IDX 9 22 8 23 7 24 6 25 5 26 4 27 3 28 2 29 1 30
REMARK H PARENT
REMARK Flexibility Score: inf
ROOT
ATOM      1  C   UNL     1      13.244  26.023  21.950  1.00  0.00     0.000 C 
ENDROOT
BRANCH   1   2
ATOM      2  C   UNL     1      12.794  27.005  20.851  1.00  0.00     0.000 C 
BRANCH   2   3
ATOM      3  C   UNL     1      13.814  28.107  20.500  1.00  0.00     0.000 C 
BRANCH   3   4
ATOM      4  C   UNL     1      13.331  29.548  20.758  1.00  0.00     0.000 C 
BRANCH   4   5
ATOM      5  C   UNL     1      13.548  30.528  19.591  1.00  0.00     0.000 C 
BRANCH   5   6
ATOM      6  C   UNL     1      14.985  30.481  19.042  1.00  0.00     0.000 C 
BRANCH   6   7
ATOM      7  C   UNL     1      15.122  31.122  17.647  1.00  0.00     0.000 C 
BRANCH   7   8
ATOM      8  C   UNL     1      14.466  30.331  16.497  1.00  0.00     0.000 C 
BRANCH   8   9
ATOM      9  C   UNL     1      14.275  31.125  15.190  1.00  0.00     0.000 C 
BRANCH   9  10
ATOM     10  C   UNL     1      14.928  30.457  13.957  1.00  0.00     0.000 C 
BRANCH  10  11
ATOM     11  C   UNL     1      14.514  31.101  12.621  1.00  0.00     0.000 C 
BRANCH  11  12
ATOM     12  C   UNL     1      13.115  30.650  12.167  1.00  0.00     0.006 C 
BRANCH  12  13
ATOM     13  C   UNL     1      12.872  31.010  10.698  1.00  0.00     0.053 C 
BRANCH  13  14
ATOM     14  C   UNL     1      12.406  29.812   9.932  1.00  0.00     0.041 C 
ATOM     15  O   UNL     1      12.759  28.656  10.286  1.00  0.00    -0.550 OA
ATOM     16  O   UNL     1      11.585  29.969   8.822  1.00  0.00    -0.550 OA
ENDBRANCH  13  14
ENDBRANCH  12  13
ENDBRANCH  11  12
ENDBRANCH  10  11
ENDBRANCH   9  10
ENDBRANCH   8   9
ENDBRANCH   7   8
ENDBRANCH   6   7
ENDBRANCH   5   6
ENDBRANCH   4   5
ENDBRANCH   3   4
ENDBRANCH   2   3
ENDBRANCH   1   2
BRANCH   1  17
ATOM     17  C   UNL     1      14.756  26.097  22.221  1.00  0.00     0.000 C 
BRANCH  17  18
ATOM     18  C   UNL     1      15.104  26.049  23.720  1.00  0.00     0.000 C 
BRANCH  18  19
ATOM     19  C   UNL     1      13.898  26.006  24.675  1.00  0.00     0.000 C 
BRANCH  19  20
ATOM     20  C   UNL     1      13.691  24.628  25.327  1.00  0.00     0.000 C 
BRANCH  20  21
ATOM     21  C   UNL     1      14.707  24.390  26.454  1.00  0.00     0.000 C 
BRANCH  21  22
ATOM     22  C   UNL     1      15.125  25.697  27.160  1.00  0.00    -0.000 C 
BRANCH  22  23
ATOM     23  C   UNL     1      14.649  26.975  26.446  1.00  0.00    -0.000 C 
BRANCH  23  24
ATOM     24  C   UNL     1      15.123  28.261  27.143  1.00  0.00    -0.000 C 
BRANCH  24  25
ATOM     25  C   UNL     1      14.042  28.900  28.034  1.00  0.00    -0.000 C 
BRANCH  25  26
ATOM     26  C   UNL     1      12.624  28.949  27.427  1.00  0.00    -0.000 C 
BRANCH  26  27
ATOM     27  C   UNL     1      12.451  29.922  26.246  1.00  0.00    -0.000 C 
BRANCH  27  28
ATOM     28  C   UNL     1      13.784  30.527  25.774  1.00  0.00    -0.000 C 
BRANCH  28  29
ATOM     29  C   UNL     1      14.237  29.964  24.418  1.00  0.00    -0.003 C 
ATOM     30  C   UNL     1      14.310  31.039  23.333  1.00  0.00     0.004 C 
ENDBRANCH  28  29
ENDBRANCH  27  28
ENDBRANCH  26  27
ENDBRANCH  25  26
ENDBRANCH  24  25
ENDBRANCH  23  24
ENDBRANCH  22  23
ENDBRANCH  21  22
ENDBRANCH  20  21
ENDBRANCH  19  20
ENDBRANCH  18  19
ENDBRANCH  17  18
ENDBRANCH   1  17
TORSDOF 26
ENDMDL
MODEL 2
REMARK VINA RESULT:     2.555      4.341     11.743
REMARK INTER + INTRA:           7.934
REMARK INTER:                   3.968
REMARK INTRA:                   3.966
REMARK UNBOUND:                 1.496
REMARK SMILES CCCCCCCCCCCCCCCCCCCCCCCCCCCC(=O)[O-]
REMARK SMILES IDX 15 1 16 2 17 3 18 4 19 5 20 6 21 7 22 8 23 9 24 10 25 11
REMARK SMILES IDX 26 12 27 13 28 14 29 15 30 16 14 17 13 18 12 19 11 20 10 21
REMARK SMILES IDX 9 22 8 23 7 24 6 25 5 26 4 27 3 28 2 29 1 30
REMARK H PARENT
REMARK Flexibility Score: inf
ROOT
ATOM      1  C   UNL     1      11.462  29.195  21.043  1.00  0.00     0.000 C 
ENDROOT
BRANCH   1   2
ATOM      2  C   UNL     1      11.714  29.898  22.391  1.00  0.00     0.000 C 
BRANCH   2   3
ATOM      3  C   UNL     1      11.789  28.961  23.614  1.00  0.00     0.000 C 
BRANCH   3   4
ATOM      4  C   UNL     1      11.812  29.674  24.981  1.00  0.00     0.000 C 
BRANCH   4   5
ATOM      5  C   UNL     1      12.410  28.851  26.136  1.00  0.00     0.000 C 
BRANCH   5   6
ATOM      6  C   UNL     1      11.962  29.361  27.518  1.00  0.00     0.000 C 
BRANCH   6   7
ATOM      7  C   UNL     1      12.860  30.484  28.070  1.00  0.00     0.000 C 
BRANCH   7   8
ATOM      8  C   UNL     1      14.027  30.899  27.151  1.00  0.00     0.000 C 
BRANCH   8   9
ATOM      9  C   UNL     1      13.829  30.568  25.660  1.00  0.00     0.000 C 
BRANCH   9  10
ATOM     10  C   UNL     1      15.125  30.114  24.947  1.00  0.00     0.000 C 
BRANCH  10  11
ATOM     11  C   UNL     1      14.941  28.850  24.089  1.00  0.00     0.000 C 
BRANCH  11  12
ATOM     12  C   UNL     1      15.060  27.561  24.919  1.00  0.00     0.006 C 
BRANCH  12  13
ATOM     13  C   UNL     1      14.041  26.514  24.457  1.00  0.00     0.053 C 
BRANCH  13  14
ATOM     14  C   UNL     1      14.418  25.155  24.956  1.00  0.00     0.041 C 
ATOM     15  O   UNL     1      15.099  24.379  24.233  1.00  0.00    -0.550 OA
ATOM     16  O   UNL     1      14.015  24.738  26.219  1.00  0.00    -0.550 OA
ENDBRANCH  13  14
ENDBRANCH  12  13
ENDBRANCH  11  12
ENDBRANCH  10  11
ENDBRANCH   9  10
ENDBRANCH   8   9
ENDBRANCH   7   8
ENDBRANCH   6   7
ENDBRANCH   5   6
ENDBRANCH   4   5
ENDBRANCH   3   4
ENDBRANCH   2   3
ENDBRANCH   1   2
BRANCH   1  17
ATOM     17  C   UNL     1      12.224  29.858  19.883  1.00  0.00     0.000 C 
BRANCH  17  18
ATOM     18  C   UNL     1      13.587  30.436  20.307  1.00  0.00     0.000 C 
BRANCH  18  19
ATOM     19  C   UNL     1      14.779  29.470  20.182  1.00  0.00     0.000 C 
BRANCH  19  20
ATOM     20  C   UNL     1      15.085  29.068  18.730  1.00  0.00     0.000 C 
BRANCH  20  21
ATOM     21  C   UNL     1      14.115  29.747  17.752  1.00  0.00     0.000 C 
BRANCH  21  22
ATOM     22  C   UNL     1      14.822  30.752  16.819  1.00  0.00    -0.000 C 
BRANCH  22  23
ATOM     23  C   UNL     1      14.162  30.896  15.436  1.00  0.00    -0.000 C 
BRANCH  23  24
ATOM     24  C   UNL     1      15.067  30.415  14.289  1.00  0.00    -0.000 C 
BRANCH  24  25
ATOM     25  C   UNL     1      14.734  31.077  12.939  1.00  0.00    -0.000 C 
BRANCH  25  26
ATOM     26  C   UNL     1      14.281  30.115  11.820  1.00  0.00    -0.000 C 
BRANCH  26  27
ATOM     27  C   UNL     1      14.766  30.482  10.406  1.00  0.00    -0.000 C 
BRANCH  27  28
ATOM     28  C   UNL     1      15.014  29.248   9.523  1.00  0.00    -0.000 C 
BRANCH  28  29
ATOM     29  C   UNL     1      13.721  28.476   9.214  1.00  0.00    -0.003 C 
ATOM     30  C   UNL     1      12.598  29.390   8.724  1.00  0.00     0.004 C 
ENDBRANCH  28  29
ENDBRANCH  27  28
ENDBRANCH  26  27
ENDBRANCH  25  26
ENDBRANCH  24  25
ENDBRANCH  23  24
ENDBRANCH  22  23
ENDBRANCH  21  22
ENDBRANCH  20  21
ENDBRANCH  19  20
ENDBRANCH  18  19
ENDBRANCH  17  18
ENDBRANCH   1  17
TORSDOF 26
ENDMDL
