MODEL 1
REMARK VINA RESULT:    -3.939      0.000      0.000
REMARK INTER + INTRA:          -6.807
REMARK INTER:                  -6.242
REMARK INTRA:                  -0.566
REMARK UNBOUND:                -0.566
REMARK SMILES CCCCCCCCCCCC(=O)[O-]
REMARK SMILES IDX 7 1 8 2 9 3 10 4 11 5 12 6 13 7 14 8 6 9 5 10 4 11 3 12 2 13
REMARK SMILES IDX 1 14
REMARK H PARENT
REMARK Flexibility Score: inf
ROOT
ATOM      1  C   UNL     1       8.325  -6.306  -6.587  1.00  0.00     0.000 C 
ENDROOT
BRANCH   1   2
ATOM      2  C   UNL     1       9.144  -7.561  -6.945  1.00  0.00     0.000 C 
BRANCH   2   3
ATOM      3  C   UNL     1      10.238  -7.938  -5.928  1.00  0.00     0.000 C 
BRANCH   3   4
ATOM      4  C   UNL     1      11.393  -6.915  -5.848  1.00  0.00     0.006 C 
BRANCH   4   5
ATOM      5  C   UNL     1      11.753  -6.547  -4.403  1.00  0.00     0.053 C 
BRANCH   5   6
ATOM      6  C   UNL     1      11.077  -5.272  -4.005  1.00  0.00     0.041 C 
ATOM      7  O   UNL     1      10.556  -5.161  -2.864  1.00  0.00    -0.550 OA
ATOM      8  O   UNL     1      10.980  -4.225  -4.911  1.00  0.00    -0.550 OA
ENDBRANCH   5   6
ENDBRANCH   4   5
ENDBRANCH   3   4
ENDBRANCH   2   3
ENDBRANCH   1   2
BRANCH   1   9
ATOM      9  C   UNL     1       8.631  -5.064  -7.444  1.00  0.00     0.000 C 
BRANCH   9  10
ATOM     10  C   UNL     1       7.747  -4.966  -8.695  1.00  0.00    -0.000 C 
BRANCH  10  11
ATOM     11  C   UNL     1       6.380  -4.360  -8.356  1.00  0.00    -0.000 C 
BRANCH  11  12
ATOM     12  C   UNL     1       5.797  -3.606  -9.557  1.00  0.00    -0.000 C 
BRANCH  12  13
ATOM     13  C   UNL     1       4.312  -3.293  -9.342  1.00  0.00    -0.003 C 
ATOM     14  C   UNL     1       3.426  -4.347 -10.000  1.00  0.00     0.004 C 
ENDBRANCH  12  13
ENDBRANCH  11  12
ENDBRANCH  10  11
ENDBRANCH   9  10
ENDBRANCH   1   9
TORSDOF 10
ENDMDL
MODEL 2
REMARK VINA RESULT:    -3.528      3.492      7.139
REMARK INTER + INTRA:          -6.156
REMARK INTER:                  -5.610
REMARK INTRA:                  -0.547
REMARK UNBOUND:                -0.566
REMARK SMILES CCCCCCCCCCCC(=O)[O-]
REMARK SMILES IDX 7 1 8 2 9 3 10 4 11 5 12 6 13 7 14 8 6 9 5 10 4 11 3 12 2 13
REMARK SMILES IDX 1 14
REMARK H PARENT
REMARK Flexibility Score: inf
ROOT
ATOM      1  C   UNL     1       8.802  -6.226  -6.753  1.00  0.00     0.000 C 
ENDROOT
BRANCH   1   2
ATOM      2  C   UNL     1       8.099  -5.066  -7.483  1.00  0.00     0.000 C 
BRANCH   2   3
ATOM      3  C   UNL     1       8.044  -5.199  -9.017  1.00  0.00     0.000 C 
BRANCH   3   4
ATOM      4  C   UNL     1       6.924  -4.362  -9.674  1.00  0.00     0.006 C 
BRANCH   4   5
ATOM      5  C   UNL     1       5.780  -4.046  -8.702  1.00  0.00     0.053 C 
BRANCH   5   6
ATOM      6  C   UNL     1       4.691  -3.294  -9.402  1.00  0.00     0.041 C 
ATOM      7  O   UNL     1       3.508  -3.723  -9.377  1.00  0.00    -0.550 OA
ATOM      8  O   UNL     1       4.993  -2.147 -10.124  1.00  0.00    -0.550 OA
ENDBRANCH   5   6
ENDBRANCH   4   5
ENDBRANCH   3   4
ENDBRANCH   2   3
ENDBRANCH   1   2
BRANCH   1   9
ATOM      9  C   UNL     1      10.338  -6.234  -6.872  1.00  0.00     0.000 C 
BRANCH   9  10
ATOM     10  C   UNL     1      11.011  -7.180  -5.868  1.00  0.00    -0.000 C 
BRANCH  10  11
ATOM     11  C   UNL     1      11.932  -6.407  -4.917  1.00  0.00    -0.000 C 
BRANCH  11  12
ATOM     12  C   UNL     1      11.384  -6.421  -3.485  1.00  0.00    -0.000 C 
BRANCH  12  13
ATOM     13  C   UNL     1      11.423  -5.020  -2.867  1.00  0.00    -0.003 C 
ATOM     14  C   UNL     1      11.397  -3.940  -3.945  1.00  0.00     0.004 C 
ENDBRANCH  12  13
ENDBRANCH  11  12
ENDBRANCH  10  11
ENDBRANCH   9  10
ENDBRANCH   1   9
TORSDOF 10
ENDMDL
MODEL 3
REMARK VINA RESULT:    -3.119      1.595      2.296
REMARK INTER + INTRA:          -5.509
REMARK INTER:                  -4.722
REMARK INTRA:                  -0.786
REMARK UNBOUND:                -0.566
REMARK SMILES CCCCCCCCCCCC(=O)[O-]
REMARK SMILES IDX 7 1 8 2 9 3 10 4 11 5 12 6 13 7 14 8 6 9 5 10 4 11 3 12 2 13
REMARK SMILES IDX 1 14
REMARK H PARENT
REMARK Flexibility Score: inf
ROOT
ATOM      1  C   UNL     1       9.031  -7.480  -7.817  1.00  0.00     0.000 C 
ENDROOT
BRANCH   1   2
ATOM      2  C   UNL     1      10.099  -7.154  -6.756  1.00  0.00     0.000 C 
BRANCH   2   3
ATOM      3  C   UNL     1      10.348  -5.652  -6.522  1.00  0.00     0.000 C 
BRANCH   3   4
ATOM      4  C   UNL     1      11.583  -5.356  -5.642  1.00  0.00     0.006 C 
BRANCH   4   5
ATOM      5  C   UNL     1      11.240  -4.494  -4.420  1.00  0.00     0.053 C 
BRANCH   5   6
ATOM      6  C   UNL     1      11.110  -5.348  -3.198  1.00  0.00     0.041 C 
ATOM      7  O   UNL     1      11.028  -4.818  -2.060  1.00  0.00    -0.550 OA
ATOM      8  O   UNL     1      11.127  -6.732  -3.313  1.00  0.00    -0.550 OA
ENDBRANCH   5   6
ENDBRANCH   4   5
ENDBRANCH   3   4
ENDBRANCH   2   3
ENDBRANCH   1   2
BRANCH   1   9
ATOM      9  C   UNL     1       9.544  -7.503  -9.270  1.00  0.00     0.000 C 
BRANCH   9  10
ATOM     10  C   UNL     1       9.679  -6.100  -9.879  1.00  0.00    -0.000 C 
BRANCH  10  11
ATOM     11  C   UNL     1       8.305  -5.446 -10.060  1.00  0.00    -0.000 C 
BRANCH  11  12
ATOM     12  C   UNL     1       8.144  -4.234  -9.134  1.00  0.00    -0.000 C 
BRANCH  12  13
ATOM     13  C   UNL     1       6.953  -4.419  -8.188  1.00  0.00    -0.003 C 
ATOM     14  C   UNL     1       5.639  -4.075  -8.883  1.00  0.00     0.004 C 
ENDBRANCH  12  13
ENDBRANCH  11  12
ENDBRANCH  10  11
ENDBRANCH   9  10
ENDBRANCH   1   9
TORSDOF 10
ENDMDL
MODEL 4
REMARK VINA RESULT:    -3.030     14.206     15.921
REMARK INTER + INTRA:          -5.366
REMARK INTER:                  -4.372
REMARK INTRA:                  -0.994
REMARK UNBOUND:                -0.566
REMARK SMILES CCCCCCCCCCCC(=O)[O-]
REMARK SMILES IDX 7 1 8 2 9 3 10 4 11 5 12 6 13 7 14 8 6 9 5 10 4 11 3 12 2 13
REMARK SMILES IDX 1 14
REMARK H PARENT
REMARK Flexibility Score: inf
ROOT
ATOM      1  C   UNL     1      -8.001  -3.120  -6.427  1.00  0.00     0.000 C 
ENDROOT
BRANCH   1   2
ATOM      2  C   UNL     1      -7.754  -3.762  -5.049  1.00  0.00     0.000 C 
BRANCH   2   3
ATOM      3  C   UNL     1      -8.064  -5.269  -4.966  1.00  0.00     0.000 C 
BRANCH   3   4
ATOM      4  C   UNL     1      -7.696  -6.052  -6.246  1.00  0.00     0.006 C 
BRANCH   4   5
ATOM      5  C   UNL     1      -6.600  -7.097  -6.000  1.00  0.00     0.053 C 
BRANCH   5   6
ATOM      6  C   UNL     1      -5.353  -6.730  -6.742  1.00  0.00     0.041 C 
ATOM      7  O   UNL     1      -5.122  -7.223  -7.876  1.00  0.00    -0.550 OA
ATOM      8  O   UNL     1      -4.423  -5.880  -6.158  1.00  0.00    -0.550 OA
ENDBRANCH   5   6
ENDBRANCH   4   5
ENDBRANCH   3   4
ENDBRANCH   2   3
ENDBRANCH   1   2
BRANCH   1   9
ATOM      9  C   UNL     1      -7.745  -1.603  -6.493  1.00  0.00     0.000 C 
BRANCH   9  10
ATOM     10  C   UNL     1      -8.125  -0.989  -7.848  1.00  0.00    -0.000 C 
BRANCH  10  11
ATOM     11  C   UNL     1      -8.103  -2.049  -8.956  1.00  0.00    -0.000 C 
BRANCH  11  12
ATOM     12  C   UNL     1      -6.866  -1.888  -9.848  1.00  0.00    -0.000 C 
BRANCH  12  13
ATOM     13  C   UNL     1      -5.761  -2.868  -9.440  1.00  0.00    -0.003 C 
ATOM     14  C   UNL     1      -6.258  -4.311  -9.488  1.00  0.00     0.004 C 
ENDBRANCH  12  13
ENDBRANCH  11  12
ENDBRANCH  10  11
ENDBRANCH   9  10
ENDBRANCH   1   9
TORSDOF 10
ENDMDL
MODEL 5
REMARK VINA RESULT:    -2.977     14.459     15.926
REMARK INTER + INTRA:          -5.283
REMARK INTER:                  -4.008
REMARK INTRA:                  -1.275
REMARK UNBOUND:                -0.566
REMARK SMILES CCCCCCCCCCCC(=O)[O-]
REMARK SMILES IDX 7 1 8 2 9 3 10 4 11 5 12 6 13 7 14 8 6 9 5 10 4 11 3 12 2 13
REMARK SMILES IDX 1 14
REMARK H PARENT
REMARK Flexibility Score: inf
ROOT
ATOM      1  C   UNL     1      -4.831  -6.209  -6.332  1.00  0.00     0.000 C 
ENDROOT
BRANCH   1   2
ATOM      2  C   UNL     1      -5.501  -5.429  -5.185  1.00  0.00     0.000 C 
BRANCH   2   3
ATOM      3  C   UNL     1      -7.036  -5.326  -5.276  1.00  0.00     0.000 C 
BRANCH   3   4
ATOM      4  C   UNL     1      -7.551  -3.883  -5.467  1.00  0.00     0.006 C 
BRANCH   4   5
ATOM      5  C   UNL     1      -7.749  -3.521  -6.945  1.00  0.00     0.053 C 
BRANCH   5   6
ATOM      6  C   UNL     1      -7.734  -2.035  -7.126  1.00  0.00     0.041 C 
ATOM      7  O   UNL     1      -7.792  -1.275  -6.124  1.00  0.00    -0.550 OA
ATOM      8  O   UNL     1      -7.706  -1.491  -8.403  1.00  0.00    -0.550 OA
ENDBRANCH   5   6
ENDBRANCH   4   5
ENDBRANCH   3   4
ENDBRANCH   2   3
ENDBRANCH   1   2
BRANCH   1   9
ATOM      9  C   UNL     1      -5.514  -7.540  -6.699  1.00  0.00     0.000 C 
BRANCH   9  10
ATOM     10  C   UNL     1      -5.933  -7.611  -8.174  1.00  0.00    -0.000 C 
BRANCH  10  11
ATOM     11  C   UNL     1      -7.351  -7.062  -8.370  1.00  0.00    -0.000 C 
BRANCH  11  12
ATOM     12  C   UNL     1      -7.438  -6.198  -9.634  1.00  0.00    -0.000 C 
BRANCH  12  13
ATOM     13  C   UNL     1      -6.049  -5.726 -10.076  1.00  0.00    -0.003 C 
ATOM     14  C   UNL     1      -5.953  -4.203 -10.057  1.00  0.00     0.004 C 
ENDBRANCH  12  13
ENDBRANCH  11  12
ENDBRANCH  10  11
ENDBRANCH   9  10
ENDBRANCH   1   9
TORSDOF 10
ENDMDL
MODEL 6
REMARK VINA RESULT:    -2.902     14.202     16.373
REMARK INTER + INTRA:          -5.164
REMARK INTER:                  -4.483
REMARK INTRA:                  -0.681
REMARK UNBOUND:                -0.566
REMARK SMILES CCCCCCCCCCCC(=O)[O-]
REMARK SMILES IDX 7 1 8 2 9 3 10 4 11 5 12 6 13 7 14 8 6 9 5 10 4 11 3 12 2 13
REMARK SMILES IDX 1 14
REMARK H PARENT
REMARK Flexibility Score: inf
ROOT
ATOM      1  C   UNL     1      -8.089  -3.074  -5.145  1.00  0.00     0.000 C 
ENDROOT
BRANCH   1   2
ATOM      2  C   UNL     1      -8.065  -3.062  -6.685  1.00  0.00     0.000 C 
BRANCH   2   3
ATOM      3  C   UNL     1      -6.987  -2.158  -7.314  1.00  0.00     0.000 C 
BRANCH   3   4
ATOM      4  C   UNL     1      -6.946  -2.220  -8.856  1.00  0.00     0.006 C 
BRANCH   4   5
ATOM      5  C   UNL     1      -5.907  -3.222  -9.376  1.00  0.00     0.053 C 
BRANCH   5   6
ATOM      6  C   UNL     1      -6.560  -4.529  -9.702  1.00  0.00     0.041 C 
ATOM      7  O   UNL     1      -5.866  -5.573  -9.813  1.00  0.00    -0.550 OA
ATOM      8  O   UNL     1      -7.929  -4.584  -9.930  1.00  0.00    -0.550 OA
ENDBRANCH   5   6
ENDBRANCH   4   5
ENDBRANCH   3   4
ENDBRANCH   2   3
ENDBRANCH   1   2
BRANCH   1   9
ATOM      9  C   UNL     1      -8.093  -4.476  -4.507  1.00  0.00     0.000 C 
BRANCH   9  10
ATOM     10  C   UNL     1      -7.227  -5.486  -5.273  1.00  0.00    -0.000 C 
BRANCH  10  11
ATOM     11  C   UNL     1      -5.736  -5.176  -5.094  1.00  0.00    -0.000 C 
BRANCH  11  12
ATOM     12  C   UNL     1      -4.866  -6.295  -5.680  1.00  0.00    -0.000 C 
BRANCH  12  13
ATOM     13  C   UNL     1      -5.336  -7.670  -5.194  1.00  0.00    -0.003 C 
ATOM     14  C   UNL     1      -4.541  -8.125  -3.974  1.00  0.00     0.004 C 
ENDBRANCH  12  13
ENDBRANCH  11  12
ENDBRANCH  10  11
ENDBRANCH   9  10
ENDBRANCH   1   9
TORSDOF 10
ENDMDL
MODEL 7
REMARK VINA RESULT:    -2.844     13.983     16.148
REMARK INTER + INTRA:          -5.072
REMARK INTER:                  -3.900
REMARK INTRA:                  -1.172
REMARK UNBOUND:                -0.566
REMARK SMILES CCCCCCCCCCCC(=O)[O-]
REMARK SMILES IDX 7 1 8 2 9 3 10 4 11 5 12 6 13 7 14 8 6 9 5 10 4 11 3 12 2 13
REMARK SMILES IDX 1 14
REMARK H PARENT
REMARK Flexibility Score: inf
ROOT
ATOM      1  C   UNL     1      -5.988  -6.124  -9.845  1.00  0.00     0.000 C 
ENDROOT
BRANCH   1   2
ATOM      2  C   UNL     1      -6.768  -4.961  -9.203  1.00  0.00     0.000 C 
BRANCH   2   3
ATOM      3  C   UNL     1      -5.894  -3.853  -8.585  1.00  0.00     0.000 C 
BRANCH   3   4
ATOM      4  C   UNL     1      -6.517  -2.443  -8.681  1.00  0.00     0.006 C 
BRANCH   4   5
ATOM      5  C   UNL     1      -7.918  -2.376  -8.059  1.00  0.00     0.053 C 
BRANCH   5   6
ATOM      6  C   UNL     1      -7.825  -2.106  -6.589  1.00  0.00     0.041 C 
ATOM      7  O   UNL     1      -7.975  -0.937  -6.149  1.00  0.00    -0.550 OA
ATOM      8  O   UNL     1      -7.523  -3.139  -5.711  1.00  0.00    -0.550 OA
ENDBRANCH   5   6
ENDBRANCH   4   5
ENDBRANCH   3   4
ENDBRANCH   2   3
ENDBRANCH   1   2
BRANCH   1   9
ATOM      9  C   UNL     1      -6.362  -7.524  -9.322  1.00  0.00     0.000 C 
BRANCH   9  10
ATOM     10  C   UNL     1      -7.333  -7.479  -8.133  1.00  0.00    -0.000 C 
BRANCH  10  11
ATOM     11  C   UNL     1      -6.596  -7.730  -6.812  1.00  0.00    -0.000 C 
BRANCH  11  12
ATOM     12  C   UNL     1      -6.800  -6.564  -5.837  1.00  0.00    -0.000 C 
BRANCH  12  13
ATOM     13  C   UNL     1      -5.463  -6.090  -5.258  1.00  0.00    -0.003 C 
ATOM     14  C   UNL     1      -4.348  -6.189  -6.294  1.00  0.00     0.004 C 
ENDBRANCH  12  13
ENDBRANCH  11  12
ENDBRANCH  10  11
ENDBRANCH   9  10
ENDBRANCH   1   9
TORSDOF 10
ENDMDL
MODEL 8
REMARK VINA RESULT:    -2.676     13.892     16.360
REMARK INTER + INTRA:          -4.806
REMARK INTER:                  -3.850
REMARK INTRA:                  -0.956
REMARK UNBOUND:                -0.566
REMARK SMILES CCCCCCCCCCCC(=O)[O-]
REMARK SMILES IDX 7 1 8 2 9 3 10 4 11 5 12 6 13 7 14 8 6 9 5 10 4 11 3 12 2 13
REMARK SMILES IDX 1 14
REMARK H PARENT
REMARK Flexibility Score: inf
ROOT
ATOM      1  C   UNL     1      -8.125  -5.102  -4.871  1.00  0.00     0.000 C 
ENDROOT
BRANCH   1   2
ATOM      2  C   UNL     1      -7.597  -3.664  -4.710  1.00  0.00     0.000 C 
BRANCH   2   3
ATOM      3  C   UNL     1      -8.123  -2.655  -5.749  1.00  0.00     0.000 C 
BRANCH   3   4
ATOM      4  C   UNL     1      -7.088  -2.281  -6.832  1.00  0.00     0.006 C 
BRANCH   4   5
ATOM      5  C   UNL     1      -7.597  -2.563  -8.252  1.00  0.00     0.053 C 
BRANCH   5   6
ATOM      6  C   UNL     1      -6.563  -3.304  -9.040  1.00  0.00     0.041 C 
ATOM      7  O   UNL     1      -5.406  -2.825  -9.175  1.00  0.00    -0.550 OA
ATOM      8  O   UNL     1      -6.891  -4.499  -9.666  1.00  0.00    -0.550 OA
ENDBRANCH   5   6
ENDBRANCH   4   5
ENDBRANCH   3   4
ENDBRANCH   2   3
ENDBRANCH   1   2
BRANCH   1   9
ATOM      9  C   UNL     1      -8.005  -5.682  -6.293  1.00  0.00     0.000 C 
BRANCH   9  10
ATOM     10  C   UNL     1      -7.974  -7.217  -6.313  1.00  0.00    -0.000 C 
BRANCH  10  11
ATOM     11  C   UNL     1      -6.536  -7.738  -6.205  1.00  0.00    -0.000 C 
BRANCH  11  12
ATOM     12  C   UNL     1      -5.629  -7.075  -7.249  1.00  0.00    -0.000 C 
BRANCH  12  13
ATOM     13  C   UNL     1      -4.590  -6.170  -6.579  1.00  0.00    -0.003 C 
ATOM     14  C   UNL     1      -4.606  -6.340  -5.062  1.00  0.00     0.004 C 
ENDBRANCH  12  13
ENDBRANCH  11  12
ENDBRANCH  10  11
ENDBRANCH   9  10
ENDBRANCH   1   9
TORSDOF 10
ENDMDL
