MODEL 1
REMARK VINA RESULT:    -3.353      0.000      0.000
REMARK INTER + INTRA:         -11.726
REMARK INTER:                  -8.842
REMARK INTRA:                  -2.884
REMARK UNBOUND:                -2.884
REMARK SMILES CCCCCCCCCCCCCCCCCCCCCCCCCCCCCC(=O)[O-]
REMARK SMILES IDX 16 1 17 2 18 3 19 4 20 5 21 6 22 7 23 8 24 9 25 10 26 11
REMARK SMILES IDX 27 12 28 13 29 14 30 15 31 16 32 17 15 18 14 19 13 20 12 21
REMARK SMILES IDX 11 22 10 23 9 24 8 25 7 26 6 27 5 28 4 29 3 30 2 31 1 32
REMARK H PARENT
REMARK Flexibility Score: inf
ROOT
ATOM      1  C   UNL     1      31.817  47.153   8.488  1.00  0.00     0.000 C 
ENDROOT
BRANCH   1   2
ATOM      2  C   UNL     1      30.468  46.409   8.527  1.00  0.00     0.000 C 
BRANCH   2   3
ATOM      3  C   UNL     1      30.128  45.591   7.266  1.00  0.00     0.000 C 
BRANCH   3   4
ATOM      4  C   UNL     1      28.861  46.045   6.516  1.00  0.00     0.000 C 
BRANCH   4   5
ATOM      5  C   UNL     1      27.707  45.038   6.623  1.00  0.00     0.000 C 
BRANCH   5   6
ATOM      6  C   UNL     1      27.472  44.635   8.084  1.00  0.00     0.000 C 
BRANCH   6   7
ATOM      7  C   UNL     1      26.454  43.493   8.190  1.00  0.00     0.000 C 
BRANCH   7   8
ATOM      8  C   UNL     1      26.552  42.562   6.972  1.00  0.00     0.000 C 
BRANCH   8   9
ATOM      9  C   UNL     1      25.945  41.175   7.236  1.00  0.00     0.000 C 
BRANCH   9  10
ATOM     10  C   UNL     1      26.844  40.303   8.131  1.00  0.00     0.000 C 
BRANCH  10  11
ATOM     11  C   UNL     1      26.158  38.998   8.572  1.00  0.00     0.000 C 
BRANCH  11  12
ATOM     12  C   UNL     1      25.403  38.249   7.456  1.00  0.00     0.000 C 
BRANCH  12  13
ATOM     13  C   UNL     1      25.139  36.761   7.768  1.00  0.00     0.006 C 
BRANCH  13  14
ATOM     14  C   UNL     1      26.334  35.868   7.408  1.00  0.00     0.053 C 
BRANCH  14  15
ATOM     15  C   UNL     1      27.110  35.511   8.635  1.00  0.00     0.041 C 
ATOM     16  O   UNL     1      26.598  35.664   9.776  1.00  0.00    -0.550 OA
ATOM     17  O   UNL     1      28.415  35.046   8.520  1.00  0.00    -0.550 OA
ENDBRANCH  14  15
ENDBRANCH  13  14
ENDBRANCH  12  13
ENDBRANCH  11  12
ENDBRANCH  10  11
ENDBRANCH   9  10
ENDBRANCH   8   9
ENDBRANCH   7   8
ENDBRANCH   6   7
ENDBRANCH   5   6
ENDBRANCH   4   5
ENDBRANCH   3   4
ENDBRANCH   2   3
ENDBRANCH   1   2
BRANCH   1  18
ATOM     18  C   UNL     1      31.962  48.170   7.342  1.00  0.00     0.000 C 
BRANCH  18  19
ATOM     19  C   UNL     1      31.586  49.598   7.767  1.00  0.00     0.000 C 
BRANCH  19  20
ATOM     20  C   UNL     1      32.668  50.632   7.407  1.00  0.00     0.000 C 
BRANCH  20  21
ATOM     21  C   UNL     1      32.136  51.975   6.864  1.00  0.00     0.000 C 
BRANCH  21  22
ATOM     22  C   UNL     1      30.818  51.884   6.075  1.00  0.00     0.000 C 
BRANCH  22  23
ATOM     23  C   UNL     1      29.783  52.929   6.522  1.00  0.00     0.000 C 
BRANCH  23  24
ATOM     24  C   UNL     1      28.469  52.292   7.006  1.00  0.00    -0.000 C 
BRANCH  24  25
ATOM     25  C   UNL     1      27.240  53.223   6.961  1.00  0.00    -0.000 C 
BRANCH  25  26
ATOM     26  C   UNL     1      25.879  52.522   7.134  1.00  0.00    -0.000 C 
BRANCH  26  27
ATOM     27  C   UNL     1      26.006  51.089   7.672  1.00  0.00    -0.000 C 
BRANCH  27  28
ATOM     28  C   UNL     1      25.718  50.059   6.573  1.00  0.00    -0.000 C 
BRANCH  28  29
ATOM     29  C   UNL     1      26.162  48.654   7.008  1.00  0.00    -0.000 C 
BRANCH  29  30
ATOM     30  C   UNL     1      25.902  48.386   8.499  1.00  0.00    -0.000 C 
BRANCH  30  31
ATOM     31  C   UNL     1      27.173  47.970   9.255  1.00  0.00    -0.003 C 
ATOM     32  C   UNL     1      28.309  48.958   9.006  1.00  0.00     0.004 C 
ENDBRANCH  30  31
ENDBRANCH  29  30
ENDBRANCH  28  29
ENDBRANCH  27  28
ENDBRANCH  26  27
ENDBRANCH  25  26
ENDBRANCH  24  25
ENDBRANCH  23  24
ENDBRANCH  22  23
ENDBRANCH  21  22
ENDBRANCH  20  21
ENDBRANCH  19  20
ENDBRANCH  18  19
ENDBRANCH   1  18
TORSDOF 28
ENDMDL
MODEL 2
REMARK VINA RESULT:    -3.348      1.133      2.036
REMARK INTER + INTRA:         -11.712
REMARK INTER:                  -8.338
REMARK INTRA:                  -3.374
REMARK UNBOUND:                -2.884
REMARK SMILES CCCCCCCCCCCCCCCCCCCCCCCCCCCCCC(=O)[O-]
REMARK SMILES IDX 16 1 17 2 18 3 19 4 20 5 21 6 22 7 23 8 24 9 25 10 26 11
REMARK SMILES IDX 27 12 28 13 29 14 30 15 31 16 32 17 15 18 14 19 13 20 12 21
REMARK SMILES IDX 11 22 10 23 9 24 8 25 7 26 6 27 5 28 4 29 3 30 2 31 1 32
REMARK H PARENT
REMARK Flexibility Score: inf
ROOT
ATOM      1  C   UNL     1      30.114  46.327   8.147  1.00  0.00     0.000 C 
ENDROOT
BRANCH   1   2
ATOM      2  C   UNL     1      29.906  45.174   7.146  1.00  0.00     0.000 C 
BRANCH   2   3
ATOM      3  C   UNL     1      28.478  45.038   6.582  1.00  0.00     0.000 C 
BRANCH   3   4
ATOM      4  C   UNL     1      27.604  43.972   7.269  1.00  0.00     0.000 C 
BRANCH   4   5
ATOM      5  C   UNL     1      27.445  42.696   6.431  1.00  0.00     0.000 C 
BRANCH   5   6
ATOM      6  C   UNL     1      28.613  41.733   6.681  1.00  0.00     0.000 C 
BRANCH   6   7
ATOM      7  C   UNL     1      28.116  40.297   6.887  1.00  0.00     0.000 C 
BRANCH   7   8
ATOM      8  C   UNL     1      26.625  40.285   7.254  1.00  0.00     0.000 C 
BRANCH   8   9
ATOM      9  C   UNL     1      26.335  39.482   8.533  1.00  0.00     0.000 C 
BRANCH   9  10
ATOM     10  C   UNL     1      25.244  38.418   8.323  1.00  0.00     0.000 C 
BRANCH  10  11
ATOM     11  C   UNL     1      24.976  38.126   6.836  1.00  0.00     0.000 C 
BRANCH  11  12
ATOM     12  C   UNL     1      24.903  36.631   6.468  1.00  0.00     0.000 C 
BRANCH  12  13
ATOM     13  C   UNL     1      26.265  35.907   6.512  1.00  0.00     0.006 C 
BRANCH  13  14
ATOM     14  C   UNL     1      26.342  34.876   7.645  1.00  0.00     0.053 C 
BRANCH  14  15
ATOM     15  C   UNL     1      27.391  35.264   8.637  1.00  0.00     0.041 C 
ATOM     16  O   UNL     1      28.599  34.969   8.431  1.00  0.00    -0.550 OA
ATOM     17  O   UNL     1      27.031  35.919   9.809  1.00  0.00    -0.550 OA
ENDBRANCH  14  15
ENDBRANCH  13  14
ENDBRANCH  12  13
ENDBRANCH  11  12
ENDBRANCH  10  11
ENDBRANCH   9  10
ENDBRANCH   8   9
ENDBRANCH   7   8
ENDBRANCH   6   7
ENDBRANCH   5   6
ENDBRANCH   4   5
ENDBRANCH   3   4
ENDBRANCH   2   3
ENDBRANCH   1   2
BRANCH   1  18
ATOM     18  C   UNL     1      31.586  46.656   8.458  1.00  0.00     0.000 C 
BRANCH  18  19
ATOM     19  C   UNL     1      31.966  48.093   8.067  1.00  0.00     0.000 C 
BRANCH  19  20
ATOM     20  C   UNL     1      31.776  48.374   6.565  1.00  0.00     0.000 C 
BRANCH  20  21
ATOM     21  C   UNL     1      31.357  49.817   6.216  1.00  0.00     0.000 C 
BRANCH  21  22
ATOM     22  C   UNL     1      29.913  50.188   6.596  1.00  0.00     0.000 C 
BRANCH  22  23
ATOM     23  C   UNL     1      29.828  51.484   7.419  1.00  0.00     0.000 C 
BRANCH  23  24
ATOM     24  C   UNL     1      28.560  51.551   8.288  1.00  0.00    -0.000 C 
BRANCH  24  25
ATOM     25  C   UNL     1      27.401  52.372   7.687  1.00  0.00    -0.000 C 
BRANCH  25  26
ATOM     26  C   UNL     1      26.003  52.038   8.241  1.00  0.00    -0.000 C 
BRANCH  26  27
ATOM     27  C   UNL     1      25.156  51.202   7.270  1.00  0.00    -0.000 C 
BRANCH  27  28
ATOM     28  C   UNL     1      26.043  50.319   6.383  1.00  0.00    -0.000 C 
BRANCH  28  29
ATOM     29  C   UNL     1      25.842  48.832   6.713  1.00  0.00    -0.000 C 
BRANCH  29  30
ATOM     30  C   UNL     1      27.087  48.193   7.347  1.00  0.00    -0.000 C 
BRANCH  30  31
ATOM     31  C   UNL     1      27.046  48.214   8.882  1.00  0.00    -0.003 C 
ATOM     32  C   UNL     1      26.168  47.088   9.423  1.00  0.00     0.004 C 
ENDBRANCH  30  31
ENDBRANCH  29  30
ENDBRANCH  28  29
ENDBRANCH  27  28
ENDBRANCH  26  27
ENDBRANCH  25  26
ENDBRANCH  24  25
ENDBRANCH  23  24
ENDBRANCH  22  23
ENDBRANCH  21  22
ENDBRANCH  20  21
ENDBRANCH  19  20
ENDBRANCH  18  19
ENDBRANCH   1  18
TORSDOF 28
ENDMDL
MODEL 3
REMARK VINA RESULT:    -3.226      1.147      3.467
REMARK INTER + INTRA:         -11.390
REMARK INTER:                  -7.927
REMARK INTRA:                  -3.463
REMARK UNBOUND:                -2.884
REMARK SMILES CCCCCCCCCCCCCCCCCCCCCCCCCCCCCC(=O)[O-]
REMARK SMILES IDX 16 1 17 2 18 3 19 4 20 5 21 6 22 7 23 8 24 9 25 10 26 11
REMARK SMILES IDX 27 12 28 13 29 14 30 15 31 16 32 17 15 18 14 19 13 20 12 21
REMARK SMILES IDX 11 22 10 23 9 24 8 25 7 26 6 27 5 28 4 29 3 30 2 31 1 32
REMARK H PARENT
REMARK Flexibility Score: inf
ROOT
ATOM      1  C   UNL     1      30.909  46.557   8.747  1.00  0.00     0.000 C 
ENDROOT
BRANCH   1   2
ATOM      2  C   UNL     1      30.508  46.324   7.278  1.00  0.00     0.000 C 
BRANCH   2   3
ATOM      3  C   UNL     1      29.917  44.934   6.967  1.00  0.00     0.000 C 
BRANCH   3   4
ATOM      4  C   UNL     1      28.467  44.944   6.445  1.00  0.00     0.000 C 
BRANCH   4   5
ATOM      5  C   UNL     1      27.802  43.561   6.497  1.00  0.00     0.000 C 
BRANCH   5   6
ATOM      6  C   UNL     1      26.931  43.424   7.753  1.00  0.00     0.000 C 
BRANCH   6   7
ATOM      7  C   UNL     1      25.776  42.442   7.524  1.00  0.00     0.000 C 
BRANCH   7   8
ATOM      8  C   UNL     1      25.993  41.637   6.235  1.00  0.00     0.000 C 
BRANCH   8   9
ATOM      9  C   UNL     1      25.055  40.423   6.128  1.00  0.00     0.000 C 
BRANCH   9  10
ATOM     10  C   UNL     1      24.939  39.655   7.456  1.00  0.00     0.000 C 
BRANCH  10  11
ATOM     11  C   UNL     1      26.279  39.055   7.917  1.00  0.00     0.000 C 
BRANCH  11  12
ATOM     12  C   UNL     1      26.293  38.524   9.364  1.00  0.00     0.000 C 
BRANCH  12  13
ATOM     13  C   UNL     1      25.532  37.195   9.551  1.00  0.00     0.006 C 
BRANCH  13  14
ATOM     14  C   UNL     1      26.477  36.009   9.789  1.00  0.00     0.053 C 
BRANCH  14  15
ATOM     15  C   UNL     1      26.901  35.407   8.488  1.00  0.00     0.041 C 
ATOM     16  O   UNL     1      28.075  34.974   8.342  1.00  0.00    -0.550 OA
ATOM     17  O   UNL     1      26.010  35.359   7.422  1.00  0.00    -0.550 OA
ENDBRANCH  14  15
ENDBRANCH  13  14
ENDBRANCH  12  13
ENDBRANCH  11  12
ENDBRANCH  10  11
ENDBRANCH   9  10
ENDBRANCH   8   9
ENDBRANCH   7   8
ENDBRANCH   6   7
ENDBRANCH   5   6
ENDBRANCH   4   5
ENDBRANCH   3   4
ENDBRANCH   2   3
ENDBRANCH   1   2
BRANCH   1  18
ATOM     18  C   UNL     1      29.965  47.484   9.535  1.00  0.00     0.000 C 
BRANCH  18  19
ATOM     19  C   UNL     1      28.688  47.831   8.754  1.00  0.00     0.000 C 
BRANCH  19  20
ATOM     20  C   UNL     1      27.454  47.056   9.251  1.00  0.00     0.000 C 
BRANCH  20  21
ATOM     21  C   UNL     1      26.126  47.423   8.557  1.00  0.00     0.000 C 
BRANCH  21  22
ATOM     22  C   UNL     1      26.246  47.779   7.065  1.00  0.00     0.000 C 
BRANCH  22  23
ATOM     23  C   UNL     1      25.808  49.221   6.760  1.00  0.00     0.000 C 
BRANCH  23  24
ATOM     24  C   UNL     1      25.999  50.164   7.960  1.00  0.00    -0.000 C 
BRANCH  24  25
ATOM     25  C   UNL     1      26.124  51.659   7.600  1.00  0.00    -0.000 C 
BRANCH  25  26
ATOM     26  C   UNL     1      27.490  52.298   7.913  1.00  0.00    -0.000 C 
BRANCH  26  27
ATOM     27  C   UNL     1      28.016  53.180   6.771  1.00  0.00    -0.000 C 
BRANCH  27  28
ATOM     28  C   UNL     1      29.447  52.787   6.384  1.00  0.00    -0.000 C 
BRANCH  28  29
ATOM     29  C   UNL     1      29.925  51.579   7.205  1.00  0.00    -0.000 C 
BRANCH  29  30
ATOM     30  C   UNL     1      30.181  50.337   6.338  1.00  0.00    -0.000 C 
BRANCH  30  31
ATOM     31  C   UNL     1      31.470  49.598   6.730  1.00  0.00    -0.003 C 
ATOM     32  C   UNL     1      32.266  50.393   7.761  1.00  0.00     0.004 C 
ENDBRANCH  30  31
ENDBRANCH  29  30
ENDBRANCH  28  29
ENDBRANCH  27  28
ENDBRANCH  26  27
ENDBRANCH  25  26
ENDBRANCH  24  25
ENDBRANCH  23  24
ENDBRANCH  22  23
ENDBRANCH  21  22
ENDBRANCH  20  21
ENDBRANCH  19  20
ENDBRANCH  18  19
ENDBRANCH   1  18
TORSDOF 28
ENDMDL
MODEL 4
REMARK VINA RESULT:    -2.605      3.283      4.867
REMARK INTER + INTRA:          -9.751
REMARK INTER:                  -6.213
REMARK INTRA:                  -3.539
REMARK UNBOUND:                -2.884
REMARK SMILES CCCCCCCCCCCCCCCCCCCCCCCCCCCCCC(=O)[O-]
REMARK SMILES IDX 16 1 17 2 18 3 19 4 20 5 21 6 22 7 23 8 24 9 25 10 26 11
REMARK SMILES IDX 27 12 28 13 29 14 30 15 31 16 32 17 15 18 14 19 13 20 12 21
REMARK SMILES IDX 11 22 10 23 9 24 8 25 7 26 6 27 5 28 4 29 3 30 2 31 1 32
REMARK H PARENT
REMARK Flexibility Score: inf
ROOT
ATOM      1  C   UNL     1      30.581  46.610   8.526  1.00  0.00     0.000 C 
ENDROOT
BRANCH   1   2
ATOM      2  C   UNL     1      29.236  46.754   7.786  1.00  0.00     0.000 C 
BRANCH   2   3
ATOM      3  C   UNL     1      29.258  46.365   6.295  1.00  0.00     0.000 C 
BRANCH   3   4
ATOM      4  C   UNL     1      28.413  45.128   5.931  1.00  0.00     0.000 C 
BRANCH   4   5
ATOM      5  C   UNL     1      29.238  43.834   5.875  1.00  0.00     0.000 C 
BRANCH   5   6
ATOM      6  C   UNL     1      28.891  42.917   7.055  1.00  0.00     0.000 C 
BRANCH   6   7
ATOM      7  C   UNL     1      28.252  41.610   6.574  1.00  0.00     0.000 C 
BRANCH   7   8
ATOM      8  C   UNL     1      27.561  40.881   7.736  1.00  0.00     0.000 C 
BRANCH   8   9
ATOM      9  C   UNL     1      26.417  39.968   7.267  1.00  0.00     0.000 C 
BRANCH   9  10
ATOM     10  C   UNL     1      25.333  40.737   6.493  1.00  0.00     0.000 C 
BRANCH  10  11
ATOM     11  C   UNL     1      24.909  42.038   7.197  1.00  0.00     0.000 C 
BRANCH  11  12
ATOM     12  C   UNL     1      25.080  43.320   6.358  1.00  0.00     0.000 C 
BRANCH  12  13
ATOM     13  C   UNL     1      24.945  44.624   7.172  1.00  0.00     0.006 C 
BRANCH  13  14
ATOM     14  C   UNL     1      25.693  44.558   8.510  1.00  0.00     0.053 C 
BRANCH  14  15
ATOM     15  C   UNL     1      25.514  45.831   9.274  1.00  0.00     0.041 C 
ATOM     16  O   UNL     1      25.419  46.929   8.664  1.00  0.00    -0.550 OA
ATOM     17  O   UNL     1      25.491  45.808  10.664  1.00  0.00    -0.550 OA
ENDBRANCH  14  15
ENDBRANCH  13  14
ENDBRANCH  12  13
ENDBRANCH  11  12
ENDBRANCH  10  11
ENDBRANCH   9  10
ENDBRANCH   8   9
ENDBRANCH   7   8
ENDBRANCH   6   7
ENDBRANCH   5   6
ENDBRANCH   4   5
ENDBRANCH   3   4
ENDBRANCH   2   3
ENDBRANCH   1   2
BRANCH   1  18
ATOM     18  C   UNL     1      31.230  47.939   8.951  1.00  0.00     0.000 C 
BRANCH  18  19
ATOM     19  C   UNL     1      32.346  48.386   7.993  1.00  0.00     0.000 C 
BRANCH  19  20
ATOM     20  C   UNL     1      32.015  49.699   7.261  1.00  0.00     0.000 C 
BRANCH  20  21
ATOM     21  C   UNL     1      31.265  49.533   5.923  1.00  0.00     0.000 C 
BRANCH  21  22
ATOM     22  C   UNL     1      29.866  50.171   5.875  1.00  0.00     0.000 C 
BRANCH  22  23
ATOM     23  C   UNL     1      29.860  51.632   6.351  1.00  0.00     0.000 C 
BRANCH  23  24
ATOM     24  C   UNL     1      29.122  51.817   7.689  1.00  0.00    -0.000 C 
BRANCH  24  25
ATOM     25  C   UNL     1      28.217  50.638   8.101  1.00  0.00    -0.000 C 
BRANCH  25  26
ATOM     26  C   UNL     1      26.708  50.943   8.114  1.00  0.00    -0.000 C 
BRANCH  26  27
ATOM     27  C   UNL     1      26.028  50.676   6.763  1.00  0.00    -0.000 C 
BRANCH  27  28
ATOM     28  C   UNL     1      25.231  51.899   6.294  1.00  0.00    -0.000 C 
BRANCH  28  29
ATOM     29  C   UNL     1      25.796  53.189   6.907  1.00  0.00    -0.000 C 
BRANCH  29  30
ATOM     30  C   UNL     1      25.146  53.539   8.254  1.00  0.00    -0.000 C 
BRANCH  30  31
ATOM     31  C   UNL     1      26.145  54.138   9.256  1.00  0.00    -0.003 C 
ATOM     32  C   UNL     1      25.430  54.995  10.298  1.00  0.00     0.004 C 
ENDBRANCH  30  31
ENDBRANCH  29  30
ENDBRANCH  28  29
ENDBRANCH  27  28
ENDBRANCH  26  27
ENDBRANCH  25  26
ENDBRANCH  24  25
ENDBRANCH  23  24
ENDBRANCH  22  23
ENDBRANCH  21  22
ENDBRANCH  20  21
ENDBRANCH  19  20
ENDBRANCH  18  19
ENDBRANCH   1  18
TORSDOF 28
ENDMDL
MODEL 5
REMARK VINA RESULT:    -2.560      1.321      3.729
REMARK INTER + INTRA:          -9.635
REMARK INTER:                  -7.227
REMARK INTRA:                  -2.408
REMARK UNBOUND:                -2.884
REMARK SMILES CCCCCCCCCCCCCCCCCCCCCCCCCCCCCC(=O)[O-]
REMARK SMILES IDX 16 1 17 2 18 3 19 4 20 5 21 6 22 7 23 8 24 9 25 10 26 11
REMARK SMILES IDX 27 12 28 13 29 14 30 15 31 16 32 17 15 18 14 19 13 20 12 21
REMARK SMILES IDX 11 22 10 23 9 24 8 25 7 26 6 27 5 28 4 29 3 30 2 31 1 32
REMARK H PARENT
REMARK Flexibility Score: inf
ROOT
ATOM      1  C   UNL     1      29.180  48.096   9.074  1.00  0.00     0.000 C 
ENDROOT
BRANCH   1   2
ATOM      2  C   UNL     1      29.927  46.748   9.083  1.00  0.00     0.000 C 
BRANCH   2   3
ATOM      3  C   UNL     1      30.523  46.313   7.729  1.00  0.00     0.000 C 
BRANCH   3   4
ATOM      4  C   UNL     1      29.626  46.582   6.506  1.00  0.00     0.000 C 
BRANCH   4   5
ATOM      5  C   UNL     1      28.833  45.344   6.061  1.00  0.00     0.000 C 
BRANCH   5   6
ATOM      6  C   UNL     1      28.619  44.384   7.238  1.00  0.00     0.000 C 
BRANCH   6   7
ATOM      7  C   UNL     1      27.269  44.632   7.920  1.00  0.00     0.000 C 
BRANCH   7   8
ATOM      8  C   UNL     1      26.110  44.203   7.007  1.00  0.00     0.000 C 
BRANCH   8   9
ATOM      9  C   UNL     1      25.476  42.872   7.439  1.00  0.00     0.000 C 
BRANCH   9  10
ATOM     10  C   UNL     1      24.875  42.096   6.254  1.00  0.00     0.000 C 
BRANCH  10  11
ATOM     11  C   UNL     1      24.989  40.571   6.422  1.00  0.00     0.000 C 
BRANCH  11  12
ATOM     12  C   UNL     1      26.041  40.104   7.448  1.00  0.00     0.000 C 
BRANCH  12  13
ATOM     13  C   UNL     1      26.090  38.574   7.643  1.00  0.00     0.006 C 
BRANCH  13  14
ATOM     14  C   UNL     1      25.270  38.114   8.856  1.00  0.00     0.053 C 
BRANCH  14  15
ATOM     15  C   UNL     1      25.776  36.801   9.363  1.00  0.00     0.041 C 
ATOM     16  O   UNL     1      26.723  36.763  10.193  1.00  0.00    -0.550 OA
ATOM     17  O   UNL     1      25.226  35.615   8.888  1.00  0.00    -0.550 OA
ENDBRANCH  14  15
ENDBRANCH  13  14
ENDBRANCH  12  13
ENDBRANCH  11  12
ENDBRANCH  10  11
ENDBRANCH   9  10
ENDBRANCH   8   9
ENDBRANCH   7   8
ENDBRANCH   6   7
ENDBRANCH   5   6
ENDBRANCH   4   5
ENDBRANCH   3   4
ENDBRANCH   2   3
ENDBRANCH   1   2
BRANCH   1  18
ATOM     18  C   UNL     1      27.880  48.108   8.250  1.00  0.00     0.000 C 
BRANCH  18  19
ATOM     19  C   UNL     1      26.622  48.002   9.128  1.00  0.00     0.000 C 
BRANCH  19  20
ATOM     20  C   UNL     1      25.334  47.814   8.307  1.00  0.00     0.000 C 
BRANCH  20  21
ATOM     21  C   UNL     1      24.936  49.016   7.426  1.00  0.00     0.000 C 
BRANCH  21  22
ATOM     22  C   UNL     1      25.041  50.390   8.111  1.00  0.00     0.000 C 
BRANCH  22  23
ATOM     23  C   UNL     1      25.724  51.446   7.226  1.00  0.00     0.000 C 
BRANCH  23  24
ATOM     24  C   UNL     1      25.497  52.881   7.734  1.00  0.00    -0.000 C 
BRANCH  24  25
ATOM     25  C   UNL     1      26.450  53.939   7.142  1.00  0.00    -0.000 C 
BRANCH  25  26
ATOM     26  C   UNL     1      27.231  53.493   5.892  1.00  0.00    -0.000 C 
BRANCH  26  27
ATOM     27  C   UNL     1      28.754  53.526   6.092  1.00  0.00    -0.000 C 
BRANCH  27  28
ATOM     28  C   UNL     1      29.330  52.108   6.185  1.00  0.00    -0.000 C 
BRANCH  28  29
ATOM     29  C   UNL     1      29.064  51.498   7.570  1.00  0.00    -0.000 C 
BRANCH  29  30
ATOM     30  C   UNL     1      30.351  51.046   8.275  1.00  0.00    -0.000 C 
BRANCH  30  31
ATOM     31  C   UNL     1      31.522  50.850   7.300  1.00  0.00    -0.003 C 
ATOM     32  C   UNL     1      32.400  49.676   7.726  1.00  0.00     0.004 C 
ENDBRANCH  30  31
ENDBRANCH  29  30
ENDBRANCH  28  29
ENDBRANCH  27  28
ENDBRANCH  26  27
ENDBRANCH  25  26
ENDBRANCH  24  25
ENDBRANCH  23  24
ENDBRANCH  22  23
ENDBRANCH  21  22
ENDBRANCH  20  21
ENDBRANCH  19  20
ENDBRANCH  18  19
ENDBRANCH   1  18
TORSDOF 28
ENDMDL
MODEL 6
REMARK VINA RESULT:    -2.531      1.493      2.437
REMARK INTER + INTRA:          -9.557
REMARK INTER:                  -6.511
REMARK INTRA:                  -3.046
REMARK UNBOUND:                -2.884
REMARK SMILES CCCCCCCCCCCCCCCCCCCCCCCCCCCCCC(=O)[O-]
REMARK SMILES IDX 16 1 17 2 18 3 19 4 20 5 21 6 22 7 23 8 24 9 25 10 26 11
REMARK SMILES IDX 27 12 28 13 29 14 30 15 31 16 32 17 15 18 14 19 13 20 12 21
REMARK SMILES IDX 11 22 10 23 9 24 8 25 7 26 6 27 5 28 4 29 3 30 2 31 1 32
REMARK H PARENT
REMARK Flexibility Score: inf
ROOT
ATOM      1  C   UNL     1      29.606  47.928   8.041  1.00  0.00     0.000 C 
ENDROOT
BRANCH   1   2
ATOM      2  C   UNL     1      30.491  46.849   8.694  1.00  0.00     0.000 C 
BRANCH   2   3
ATOM      3  C   UNL     1      30.849  45.652   7.790  1.00  0.00     0.000 C 
BRANCH   3   4
ATOM      4  C   UNL     1      30.304  45.735   6.352  1.00  0.00     0.000 C 
BRANCH   4   5
ATOM      5  C   UNL     1      28.904  45.121   6.204  1.00  0.00     0.000 C 
BRANCH   5   6
ATOM      6  C   UNL     1      28.986  43.590   6.145  1.00  0.00     0.000 C 
BRANCH   6   7
ATOM      7  C   UNL     1      28.230  42.948   7.313  1.00  0.00     0.000 C 
BRANCH   7   8
ATOM      8  C   UNL     1      26.806  43.511   7.417  1.00  0.00     0.000 C 
BRANCH   8   9
ATOM      9  C   UNL     1      25.729  42.465   7.088  1.00  0.00     0.000 C 
BRANCH   9  10
ATOM     10  C   UNL     1      26.192  41.465   6.014  1.00  0.00     0.000 C 
BRANCH  10  11
ATOM     11  C   UNL     1      25.543  40.079   6.173  1.00  0.00     0.000 C 
BRANCH  11  12
ATOM     12  C   UNL     1      26.383  39.050   6.956  1.00  0.00     0.000 C 
BRANCH  12  13
ATOM     13  C   UNL     1      25.845  38.749   8.371  1.00  0.00     0.006 C 
BRANCH  13  14
ATOM     14  C   UNL     1      25.082  37.419   8.433  1.00  0.00     0.053 C 
BRANCH  14  15
ATOM     15  C   UNL     1      25.521  36.618   9.618  1.00  0.00     0.041 C 
ATOM     16  O   UNL     1      26.451  35.775   9.504  1.00  0.00    -0.550 OA
ATOM     17  O   UNL     1      24.877  36.776  10.840  1.00  0.00    -0.550 OA
ENDBRANCH  14  15
ENDBRANCH  13  14
ENDBRANCH  12  13
ENDBRANCH  11  12
ENDBRANCH  10  11
ENDBRANCH   9  10
ENDBRANCH   8   9
ENDBRANCH   7   8
ENDBRANCH   6   7
ENDBRANCH   5   6
ENDBRANCH   4   5
ENDBRANCH   3   4
ENDBRANCH   2   3
ENDBRANCH   1   2
BRANCH   1  18
ATOM     18  C   UNL     1      29.912  49.370   8.484  1.00  0.00     0.000 C 
BRANCH  18  19
ATOM     19  C   UNL     1      30.180  50.309   7.297  1.00  0.00     0.000 C 
BRANCH  19  20
ATOM     20  C   UNL     1      29.518  51.688   7.464  1.00  0.00     0.000 C 
BRANCH  20  21
ATOM     21  C   UNL     1      28.492  51.788   8.612  1.00  0.00     0.000 C 
BRANCH  21  22
ATOM     22  C   UNL     1      27.090  52.266   8.195  1.00  0.00     0.000 C 
BRANCH  22  23
ATOM     23  C   UNL     1      27.094  53.030   6.861  1.00  0.00     0.000 C 
BRANCH  23  24
ATOM     24  C   UNL     1      26.035  52.506   5.875  1.00  0.00    -0.000 C 
BRANCH  24  25
ATOM     25  C   UNL     1      24.875  51.721   6.522  1.00  0.00    -0.000 C 
BRANCH  25  26
ATOM     26  C   UNL     1      24.943  50.192   6.353  1.00  0.00    -0.000 C 
BRANCH  26  27
ATOM     27  C   UNL     1      26.378  49.645   6.405  1.00  0.00    -0.000 C 
BRANCH  27  28
ATOM     28  C   UNL     1      26.402  48.134   6.146  1.00  0.00    -0.000 C 
BRANCH  28  29
ATOM     29  C   UNL     1      25.970  47.356   7.398  1.00  0.00    -0.000 C 
BRANCH  29  30
ATOM     30  C   UNL     1      26.369  48.063   8.702  1.00  0.00    -0.000 C 
BRANCH  30  31
ATOM     31  C   UNL     1      25.854  47.334   9.952  1.00  0.00    -0.003 C 
ATOM     32  C   UNL     1      25.948  45.820   9.782  1.00  0.00     0.004 C 
ENDBRANCH  30  31
ENDBRANCH  29  30
ENDBRANCH  28  29
ENDBRANCH  27  28
ENDBRANCH  26  27
ENDBRANCH  25  26
ENDBRANCH  24  25
ENDBRANCH  23  24
ENDBRANCH  22  23
ENDBRANCH  21  22
ENDBRANCH  20  21
ENDBRANCH  19  20
ENDBRANCH  18  19
ENDBRANCH   1  18
TORSDOF 28
ENDMDL
MODEL 7
REMARK VINA RESULT:    -2.451      1.140      2.702
REMARK INTER + INTRA:          -9.348
REMARK INTER:                  -6.637
REMARK INTRA:                  -2.711
REMARK UNBOUND:                -2.884
REMARK SMILES CCCCCCCCCCCCCCCCCCCCCCCCCCCCCC(=O)[O-]
REMARK SMILES IDX 16 1 17 2 18 3 19 4 20 5 21 6 22 7 23 8 24 9 25 10 26 11
REMARK SMILES IDX 27 12 28 13 29 14 30 15 31 16 32 17 15 18 14 19 13 20 12 21
REMARK SMILES IDX 11 22 10 23 9 24 8 25 7 26 6 27 5 28 4 29 3 30 2 31 1 32
REMARK H PARENT
REMARK Flexibility Score: inf
ROOT
ATOM      1  C   UNL     1      31.988  48.409   7.365  1.00  0.00     0.000 C 
ENDROOT
BRANCH   1   2
ATOM      2  C   UNL     1      31.277  47.273   6.602  1.00  0.00     0.000 C 
BRANCH   2   3
ATOM      3  C   UNL     1      30.815  46.085   7.468  1.00  0.00     0.000 C 
BRANCH   3   4
ATOM      4  C   UNL     1      29.294  45.997   7.697  1.00  0.00     0.000 C 
BRANCH   4   5
ATOM      5  C   UNL     1      28.713  44.619   7.347  1.00  0.00     0.000 C 
BRANCH   5   6
ATOM      6  C   UNL     1      27.195  44.597   7.571  1.00  0.00     0.000 C 
BRANCH   6   7
ATOM      7  C   UNL     1      26.492  43.716   6.532  1.00  0.00     0.000 C 
BRANCH   7   8
ATOM      8  C   UNL     1      25.096  43.305   7.022  1.00  0.00     0.000 C 
BRANCH   8   9
ATOM      9  C   UNL     1      24.880  41.783   6.985  1.00  0.00     0.000 C 
BRANCH   9  10
ATOM     10  C   UNL     1      25.998  41.014   7.710  1.00  0.00     0.000 C 
BRANCH  10  11
ATOM     11  C   UNL     1      26.333  39.673   7.034  1.00  0.00     0.000 C 
BRANCH  11  12
ATOM     12  C   UNL     1      26.430  38.467   7.990  1.00  0.00     0.000 C 
BRANCH  12  13
ATOM     13  C   UNL     1      25.069  37.822   8.326  1.00  0.00     0.006 C 
BRANCH  13  14
ATOM     14  C   UNL     1      25.141  36.290   8.356  1.00  0.00     0.053 C 
BRANCH  14  15
ATOM     15  C   UNL     1      26.453  35.837   8.912  1.00  0.00     0.041 C 
ATOM     16  O   UNL     1      26.670  35.895  10.152  1.00  0.00    -0.550 OA
ATOM     17  O   UNL     1      27.452  35.388   8.056  1.00  0.00    -0.550 OA
ENDBRANCH  14  15
ENDBRANCH  13  14
ENDBRANCH  12  13
ENDBRANCH  11  12
ENDBRANCH  10  11
ENDBRANCH   9  10
ENDBRANCH   8   9
ENDBRANCH   7   8
ENDBRANCH   6   7
ENDBRANCH   5   6
ENDBRANCH   4   5
ENDBRANCH   3   4
ENDBRANCH   2   3
ENDBRANCH   1   2
BRANCH   1  18
ATOM     18  C   UNL     1      31.643  49.828   6.879  1.00  0.00     0.000 C 
BRANCH  18  19
ATOM     19  C   UNL     1      30.479  49.843   5.875  1.00  0.00     0.000 C 
BRANCH  19  20
ATOM     20  C   UNL     1      29.347  50.801   6.287  1.00  0.00     0.000 C 
BRANCH  20  21
ATOM     21  C   UNL     1      29.652  51.689   7.512  1.00  0.00     0.000 C 
BRANCH  21  22
ATOM     22  C   UNL     1      29.535  50.984   8.875  1.00  0.00     0.000 C 
BRANCH  22  23
ATOM     23  C   UNL     1      28.215  50.213   9.034  1.00  0.00     0.000 C 
BRANCH  23  24
ATOM     24  C   UNL     1      28.428  48.694   9.162  1.00  0.00    -0.000 C 
BRANCH  24  25
ATOM     25  C   UNL     1      27.137  47.868   9.335  1.00  0.00    -0.000 C 
BRANCH  25  26
ATOM     26  C   UNL     1      26.007  48.201   8.344  1.00  0.00    -0.000 C 
BRANCH  26  27
ATOM     27  C   UNL     1      26.521  48.523   6.933  1.00  0.00    -0.000 C 
BRANCH  27  28
ATOM     28  C   UNL     1      25.389  49.043   6.038  1.00  0.00    -0.000 C 
BRANCH  28  29
ATOM     29  C   UNL     1      25.475  50.568   5.875  1.00  0.00    -0.000 C 
BRANCH  29  30
ATOM     30  C   UNL     1      25.398  51.312   7.217  1.00  0.00    -0.000 C 
BRANCH  30  31
ATOM     31  C   UNL     1      25.827  52.782   7.104  1.00  0.00    -0.003 C 
ATOM     32  C   UNL     1      26.400  53.291   8.425  1.00  0.00     0.004 C 
ENDBRANCH  30  31
ENDBRANCH  29  30
ENDBRANCH  28  29
ENDBRANCH  27  28
ENDBRANCH  26  27
ENDBRANCH  25  26
ENDBRANCH  24  25
ENDBRANCH  23  24
ENDBRANCH  22  23
ENDBRANCH  21  22
ENDBRANCH  20  21
ENDBRANCH  19  20
ENDBRANCH  18  19
ENDBRANCH   1  18
TORSDOF 28
ENDMDL
MODEL 8
REMARK VINA RESULT:    -2.308      3.310     10.673
REMARK INTER + INTRA:          -8.969
REMARK INTER:                  -6.677
REMARK INTRA:                  -2.293
REMARK UNBOUND:                -2.884
REMARK SMILES CCCCCCCCCCCCCCCCCCCCCCCCCCCCCC(=O)[O-]
REMARK SMILES IDX 16 1 17 2 18 3 19 4 20 5 21 6 22 7 23 8 24 9 25 10 26 11
REMARK SMILES IDX 27 12 28 13 29 14 30 15 31 16 32 17 15 18 14 19 13 20 12 21
REMARK SMILES IDX 11 22 10 23 9 24 8 25 7 26 6 27 5 28 4 29 3 30 2 31 1 32
REMARK H PARENT
REMARK Flexibility Score: inf
ROOT
ATOM      1  C   UNL     1      30.987  46.531   8.444  1.00  0.00     0.000 C 
ENDROOT
BRANCH   1   2
ATOM      2  C   UNL     1      32.139  47.526   8.206  1.00  0.00     0.000 C 
BRANCH   2   3
ATOM      3  C   UNL     1      31.785  49.011   8.424  1.00  0.00     0.000 C 
BRANCH   3   4
ATOM      4  C   UNL     1      30.963  49.658   7.293  1.00  0.00     0.000 C 
BRANCH   4   5
ATOM      5  C   UNL     1      31.092  51.188   7.257  1.00  0.00     0.000 C 
BRANCH   5   6
ATOM      6  C   UNL     1      30.163  51.786   6.193  1.00  0.00     0.000 C 
BRANCH   6   7
ATOM      7  C   UNL     1      29.012  52.569   6.836  1.00  0.00     0.000 C 
BRANCH   7   8
ATOM      8  C   UNL     1      27.818  52.670   5.875  1.00  0.00     0.000 C 
BRANCH   8   9
ATOM      9  C   UNL     1      26.668  53.515   6.446  1.00  0.00     0.000 C 
BRANCH   9  10
ATOM     10  C   UNL     1      26.566  53.408   7.978  1.00  0.00     0.000 C 
BRANCH  10  11
ATOM     11  C   UNL     1      25.353  52.578   8.436  1.00  0.00     0.000 C 
BRANCH  11  12
ATOM     12  C   UNL     1      24.939  51.443   7.478  1.00  0.00     0.000 C 
BRANCH  12  13
ATOM     13  C   UNL     1      25.302  50.032   7.986  1.00  0.00     0.006 C 
BRANCH  13  14
ATOM     14  C   UNL     1      26.809  49.752   7.905  1.00  0.00     0.053 C 
BRANCH  14  15
ATOM     15  C   UNL     1      27.173  48.588   8.771  1.00  0.00     0.041 C 
ATOM     16  O   UNL     1      26.355  47.645   8.942  1.00  0.00    -0.550 OA
ATOM     17  O   UNL     1      28.402  48.563   9.420  1.00  0.00    -0.550 OA
ENDBRANCH  14  15
ENDBRANCH  13  14
ENDBRANCH  12  13
ENDBRANCH  11  12
ENDBRANCH  10  11
ENDBRANCH   9  10
ENDBRANCH   8   9
ENDBRANCH   7   8
ENDBRANCH   6   7
ENDBRANCH   5   6
ENDBRANCH   4   5
ENDBRANCH   3   4
ENDBRANCH   2   3
ENDBRANCH   1   2
BRANCH   1  18
ATOM     18  C   UNL     1      30.717  45.563   7.278  1.00  0.00     0.000 C 
BRANCH  18  19
ATOM     19  C   UNL     1      29.310  45.732   6.683  1.00  0.00     0.000 C 
BRANCH  19  20
ATOM     20  C   UNL     1      28.247  44.895   7.417  1.00  0.00     0.000 C 
BRANCH  20  21
ATOM     21  C   UNL     1      26.871  44.828   6.722  1.00  0.00     0.000 C 
BRANCH  21  22
ATOM     22  C   UNL     1      26.528  43.471   6.082  1.00  0.00     0.000 C 
BRANCH  22  23
ATOM     23  C   UNL     1      27.741  42.531   5.992  1.00  0.00     0.000 C 
BRANCH  23  24
ATOM     24  C   UNL     1      27.347  41.046   6.061  1.00  0.00    -0.000 C 
BRANCH  24  25
ATOM     25  C   UNL     1      26.849  40.568   7.441  1.00  0.00    -0.000 C 
BRANCH  25  26
ATOM     26  C   UNL     1      25.320  40.448   7.582  1.00  0.00    -0.000 C 
BRANCH  26  27
ATOM     27  C   UNL     1      24.876  39.117   8.205  1.00  0.00    -0.000 C 
BRANCH  27  28
ATOM     28  C   UNL     1      26.073  38.352   8.784  1.00  0.00    -0.000 C 
BRANCH  28  29
ATOM     29  C   UNL     1      26.582  37.296   7.792  1.00  0.00    -0.000 C 
BRANCH  29  30
ATOM     30  C   UNL     1      27.125  36.040   8.491  1.00  0.00    -0.000 C 
BRANCH  30  31
ATOM     31  C   UNL     1      27.363  34.877   7.516  1.00  0.00    -0.003 C 
ATOM     32  C   UNL     1      26.644  35.115   6.190  1.00  0.00     0.004 C 
ENDBRANCH  30  31
ENDBRANCH  29  30
ENDBRANCH  28  29
ENDBRANCH  27  28
ENDBRANCH  26  27
ENDBRANCH  25  26
ENDBRANCH  24  25
ENDBRANCH  23  24
ENDBRANCH  22  23
ENDBRANCH  21  22
ENDBRANCH  20  21
ENDBRANCH  19  20
ENDBRANCH  18  19
ENDBRANCH   1  18
TORSDOF 28
ENDMDL
MODEL 9
REMARK VINA RESULT:    -2.241      1.755      4.174
REMARK INTER + INTRA:          -8.794
REMARK INTER:                  -5.197
REMARK INTRA:                  -3.597
REMARK UNBOUND:                -2.884
REMARK SMILES CCCCCCCCCCCCCCCCCCCCCCCCCCCCCC(=O)[O-]
REMARK SMILES IDX 16 1 17 2 18 3 19 4 20 5 21 6 22 7 23 8 24 9 25 10 26 11
REMARK SMILES IDX 27 12 28 13 29 14 30 15 31 16 32 17 15 18 14 19 13 20 12 21
REMARK SMILES IDX 11 22 10 23 9 24 8 25 7 26 6 27 5 28 4 29 3 30 2 31 1 32
REMARK H PARENT
REMARK Flexibility Score: inf
ROOT
ATOM      1  C   UNL     1      30.214  51.453   7.006  1.00  0.00     0.000 C 
ENDROOT
BRANCH   1   2
ATOM      2  C   UNL     1      31.739  51.290   6.856  1.00  0.00     0.000 C 
BRANCH   2   3
ATOM      3  C   UNL     1      32.301  49.916   7.271  1.00  0.00     0.000 C 
BRANCH   3   4
ATOM      4  C   UNL     1      32.287  48.845   6.164  1.00  0.00     0.000 C 
BRANCH   4   5
ATOM      5  C   UNL     1      31.578  47.551   6.589  1.00  0.00     0.000 C 
BRANCH   5   6
ATOM      6  C   UNL     1      30.059  47.757   6.642  1.00  0.00     0.000 C 
BRANCH   6   7
ATOM      7  C   UNL     1      29.313  46.538   6.086  1.00  0.00     0.000 C 
BRANCH   7   8
ATOM      8  C   UNL     1      29.914  45.236   6.633  1.00  0.00     0.000 C 
BRANCH   8   9
ATOM      9  C   UNL     1      28.851  44.291   7.216  1.00  0.00     0.000 C 
BRANCH   9  10
ATOM     10  C   UNL     1      27.955  43.674   6.128  1.00  0.00     0.000 C 
BRANCH  10  11
ATOM     11  C   UNL     1      27.770  42.156   6.298  1.00  0.00     0.000 C 
BRANCH  11  12
ATOM     12  C   UNL     1      26.321  41.654   6.145  1.00  0.00     0.000 C 
BRANCH  12  13
ATOM     13  C   UNL     1      25.701  41.117   7.452  1.00  0.00     0.006 C 
BRANCH  13  14
ATOM     14  C   UNL     1      26.641  40.155   8.191  1.00  0.00     0.053 C 
BRANCH  14  15
ATOM     15  C   UNL     1      26.358  38.740   7.797  1.00  0.00     0.041 C 
ATOM     16  O   UNL     1      25.720  37.981   8.575  1.00  0.00    -0.550 OA
ATOM     17  O   UNL     1      26.833  38.248   6.587  1.00  0.00    -0.550 OA
ENDBRANCH  14  15
ENDBRANCH  13  14
ENDBRANCH  12  13
ENDBRANCH  11  12
ENDBRANCH  10  11
ENDBRANCH   9  10
ENDBRANCH   8   9
ENDBRANCH   7   8
ENDBRANCH   6   7
ENDBRANCH   5   6
ENDBRANCH   4   5
ENDBRANCH   3   4
ENDBRANCH   2   3
ENDBRANCH   1   2
BRANCH   1  18
ATOM     18  C   UNL     1      29.659  52.810   6.537  1.00  0.00     0.000 C 
BRANCH  18  19
ATOM     19  C   UNL     1      28.246  52.697   5.942  1.00  0.00     0.000 C 
BRANCH  19  20
ATOM     20  C   UNL     1      27.517  54.051   5.875  1.00  0.00     0.000 C 
BRANCH  20  21
ATOM     21  C   UNL     1      27.031  54.602   7.232  1.00  0.00     0.000 C 
BRANCH  21  22
ATOM     22  C   UNL     1      26.309  53.581   8.130  1.00  0.00     0.000 C 
BRANCH  22  23
ATOM     23  C   UNL     1      25.031  53.020   7.486  1.00  0.00     0.000 C 
BRANCH  23  24
ATOM     24  C   UNL     1      24.971  51.483   7.531  1.00  0.00    -0.000 C 
BRANCH  24  25
ATOM     25  C   UNL     1      26.266  50.795   8.011  1.00  0.00    -0.000 C 
BRANCH  25  26
ATOM     26  C   UNL     1      26.707  49.575   7.182  1.00  0.00    -0.000 C 
BRANCH  26  27
ATOM     27  C   UNL     1      25.533  48.848   6.511  1.00  0.00    -0.000 C 
BRANCH  27  28
ATOM     28  C   UNL     1      25.950  47.454   6.026  1.00  0.00    -0.000 C 
BRANCH  28  29
ATOM     29  C   UNL     1      25.705  46.399   7.115  1.00  0.00    -0.000 C 
BRANCH  29  30
ATOM     30  C   UNL     1      24.875  46.941   8.289  1.00  0.00    -0.000 C 
BRANCH  30  31
ATOM     31  C   UNL     1      25.660  46.960   9.609  1.00  0.00    -0.003 C 
ATOM     32  C   UNL     1      26.987  46.218   9.470  1.00  0.00     0.004 C 
ENDBRANCH  30  31
ENDBRANCH  29  30
ENDBRANCH  28  29
ENDBRANCH  27  28
ENDBRANCH  26  27
ENDBRANCH  25  26
ENDBRANCH  24  25
ENDBRANCH  23  24
ENDBRANCH  22  23
ENDBRANCH  21  22
ENDBRANCH  20  21
ENDBRANCH  19  20
ENDBRANCH  18  19
ENDBRANCH   1  18
TORSDOF 28
ENDMDL
