MODEL 1
REMARK VINA RESULT:    -2.722      0.000      0.000
REMARK INTER + INTRA:          -6.087
REMARK INTER:                  -4.473
REMARK INTRA:                  -1.615
REMARK UNBOUND:                -1.615
REMARK SMILES C[C@@H]1O[C@@H](OC[C@@H]2O[C@H](Oc3c(-c4ccc(O)c(O)c4)oc4cc(O)cc(O)c4c3=O)[C@@H](O)[C@H](O)[C@H]2O)[C@@H](O)[C@@H](O)[C@H]1O
REMARK SMILES IDX 7 1 36 2 34 3 32 4 9 5 8 6 6 7 5 8 4 9 1 10 2 11 42 12 3 13
REMARK SMILES IDX 40 14 38 15 43 16 41 18 39 20 37 22 35 24 10 26 11 27 12 28
REMARK SMILES IDX 30 29 21 30 29 31 31 32 22 33 27 34 23 35 26 36 24 37 13 38
REMARK SMILES IDX 20 39 14 40 18 41 15 42 16 43 19 44 17 46 28 48 25 50 33 52
REMARK H PARENT 43 17 41 19 39 21 37 23 35 25 19 45 17 47 28 49 25 51 33 53
REMARK Flexibility Score: inf
ROOT
ATOM      1  C   UNL     1     -30.722  18.427  55.684  1.00  0.00     0.180 C 
ATOM      2  C   UNL     1     -29.353  17.679  56.001  1.00  0.00     0.177 C 
ATOM      3  C   UNL     1     -29.399  16.519  56.984  1.00  0.00     0.180 C 
ATOM      4  C   UNL     1     -30.660  15.575  56.708  1.00  0.00     0.214 C 
ATOM      5  C   UNL     1     -31.809  16.319  55.835  1.00  0.00     0.339 C 
ATOM      6  O   UNL     1     -31.846  17.647  56.192  1.00  0.00    -0.332 OA
ENDROOT
BRANCH   1   7
ATOM      7  C   UNL     1     -31.045  20.035  55.827  1.00  0.00     0.198 C 
BRANCH   7   8
ATOM      8  O   UNL     1     -29.820  20.868  56.023  1.00  0.00    -0.347 OA
BRANCH   8   9
ATOM      9  C   UNL     1     -29.647  21.333  57.341  1.00  0.00     0.281 C 
ATOM     10  C   UNL     1     -26.186  21.763  56.502  1.00  0.00     0.041 C 
ATOM     11  C   UNL     1     -27.396  21.008  57.128  1.00  0.00     0.150 C 
ATOM     12  C   UNL     1     -27.152  20.039  58.330  1.00  0.00     0.174 C 
ATOM     13  O   UNL     1     -28.399  21.994  57.413  1.00  0.00    -0.344 OA
ATOM     14  C   UNL     1     -28.360  20.095  59.326  1.00  0.00     0.179 C 
ATOM     15  C   UNL     1     -29.746  20.267  58.531  1.00  0.00     0.202 C 
BRANCH  12  16
ATOM     16  O   UNL     1     -26.918  18.711  57.892  1.00  0.00    -0.388 OA
ATOM     17  H   UNL     1     -26.132  18.286  58.350  1.00  0.00     0.211 HD
ENDBRANCH  12  16
BRANCH  14  18
ATOM     18  O   UNL     1     -28.408  19.051  60.250  1.00  0.00    -0.387 OA
ATOM     19  H   UNL     1     -27.893  18.329  59.852  1.00  0.00     0.211 HD
ENDBRANCH  14  18
BRANCH  15  20
ATOM     20  O   UNL     1     -30.786  19.280  58.514  1.00  0.00    -0.385 OA
ATOM     21  H   UNL     1     -30.439  18.329  58.397  1.00  0.00     0.211 HD
ENDBRANCH  15  20
ENDBRANCH   8   9
ENDBRANCH   7   8
ENDBRANCH   1   7
BRANCH   2  22
ATOM     22  O   UNL     1     -28.796  17.256  54.796  1.00  0.00    -0.387 OA
ATOM     23  H   UNL     1     -28.549  18.119  54.337  1.00  0.00     0.211 HD
ENDBRANCH   2  22
BRANCH   3  24
ATOM     24  O   UNL     1     -29.210  16.872  58.347  1.00  0.00    -0.387 OA
ATOM     25  H   UNL     1     -29.985  17.481  58.619  1.00  0.00     0.211 HD
ENDBRANCH   3  24
BRANCH   5  26
ATOM     26  O   UNL     1     -33.165  15.757  56.155  1.00  0.00    -0.454 OA
BRANCH  26  27
ATOM     27  C   UNL     1     -33.341  14.858  57.310  1.00  0.00     0.214 A 
ATOM     28  C   UNL     1     -33.837  13.543  57.068  1.00  0.00     0.180 A 
ATOM     29  C   UNL     1     -33.402  15.243  58.674  1.00  0.00     0.239 A 
ATOM     30  O   UNL     1     -34.142  12.657  58.081  1.00  0.00    -0.452 OA
ATOM     31  C   UNL     1     -33.983  14.437  59.661  1.00  0.00     0.111 A 
ATOM     32  O   UNL     1     -33.193  16.443  58.996  1.00  0.00    -0.285 OA
ATOM     33  C   UNL     1     -34.446  13.142  59.288  1.00  0.00     0.146 A 
ATOM     34  C   UNL     1     -34.354  14.964  60.893  1.00  0.00     0.134 A 
ATOM     35  C   UNL     1     -35.333  12.397  60.132  1.00  0.00     0.094 A 
ATOM     36  C   UNL     1     -35.423  14.306  61.596  1.00  0.00     0.093 A 
ATOM     37  C   UNL     1     -35.928  13.069  61.173  1.00  0.00     0.123 A 
BRANCH  28  38
ATOM     38  C   UNL     1     -34.818  13.416  56.029  1.00  0.00     0.025 A 
ATOM     39  C   UNL     1     -35.738  14.390  55.541  1.00  0.00     0.062 A 
ATOM     40  C   UNL     1     -34.711  12.180  55.345  1.00  0.00     0.016 A 
ATOM     41  C   UNL     1     -36.417  14.088  54.338  1.00  0.00     0.158 A 
ATOM     42  C   UNL     1     -35.636  11.786  54.457  1.00  0.00     0.051 A 
ATOM     43  C   UNL     1     -36.425  12.728  53.845  1.00  0.00     0.157 A 
BRANCH  41  44
ATOM     44  O   UNL     1     -36.891  15.176  53.590  1.00  0.00    -0.504 OA
ATOM     45  H   UNL     1     -37.828  15.571  53.705  1.00  0.00     0.293 HD
ENDBRANCH  41  44
BRANCH  43  46
ATOM     46  O   UNL     1     -37.084  12.387  52.693  1.00  0.00    -0.504 OA
ATOM     47  H   UNL     1     -37.349  13.068  51.930  1.00  0.00     0.293 HD
ENDBRANCH  43  46
ENDBRANCH  28  38
BRANCH  34  48
ATOM     48  O   UNL     1     -33.774  16.120  61.494  1.00  0.00    -0.507 OA
ATOM     49  H   UNL     1     -33.959  17.050  61.133  1.00  0.00     0.293 HD
ENDBRANCH  34  48
BRANCH  37  50
ATOM     50  O   UNL     1     -37.101  12.521  61.803  1.00  0.00    -0.508 OA
ATOM     51  H   UNL     1     -37.065  11.519  61.890  1.00  0.00     0.293 HD
ENDBRANCH  37  50
ENDBRANCH  26  27
ENDBRANCH   5  26
BRANCH   4  52
ATOM     52  O   UNL     1     -30.094  14.433  56.057  1.00  0.00    -0.384 OA
ATOM     53  H   UNL     1     -30.314  13.603  56.620  1.00  0.00     0.211 HD
ENDBRANCH   4  52
TORSDOF 16
ENDMDL
