MODEL 1
REMARK VINA RESULT:    -3.325      0.000      0.000
REMARK INTER + INTRA:          -8.734
REMARK INTER:                  -7.213
REMARK INTRA:                  -1.521
REMARK UNBOUND:                -1.521
REMARK SMILES CCCCCCCCCCCCCCCCCCCCCC(=O)[O-]
REMARK SMILES IDX 12 1 11 2 10 3 9 4 8 5 7 6 6 7 5 8 4 9 3 10 2 11 1 12 13 13
REMARK SMILES IDX 14 14 15 15 16 16 17 17 18 18 19 19 20 20 21 21 22 22 23 23
REMARK SMILES IDX 24 24
REMARK H PARENT
REMARK Flexibility Score: inf
ROOT
ATOM      1  C   UNL     1      -4.085   6.940  -6.087  1.00  0.00     0.000 C 
ENDROOT
BRANCH   1   2
ATOM      2  C   UNL     1      -3.748   5.456  -5.860  1.00  0.00     0.000 C 
BRANCH   2   3
ATOM      3  C   UNL     1      -3.323   5.175  -4.402  1.00  0.00     0.000 C 
BRANCH   3   4
ATOM      4  C   UNL     1      -2.605   3.827  -4.215  1.00  0.00    -0.000 C 
BRANCH   4   5
ATOM      5  C   UNL     1      -2.728   3.283  -2.783  1.00  0.00    -0.000 C 
BRANCH   5   6
ATOM      6  C   UNL     1      -1.432   2.623  -2.277  1.00  0.00    -0.000 C 
BRANCH   6   7
ATOM      7  C   UNL     1      -0.514   2.047  -3.371  1.00  0.00    -0.000 C 
BRANCH   7   8
ATOM      8  C   UNL     1      -0.426   0.511  -3.335  1.00  0.00    -0.000 C 
BRANCH   8   9
ATOM      9  C   UNL     1      -1.723  -0.164  -3.809  1.00  0.00    -0.000 C 
BRANCH   9  10
ATOM     10  C   UNL     1      -1.457  -1.425  -4.651  1.00  0.00    -0.000 C 
BRANCH  10  11
ATOM     11  C   UNL     1      -2.517  -2.515  -4.428  1.00  0.00    -0.003 C 
ATOM     12  C   UNL     1      -1.926  -3.925  -4.414  1.00  0.00     0.004 C 
ENDBRANCH  10  11
ENDBRANCH   9  10
ENDBRANCH   8   9
ENDBRANCH   7   8
ENDBRANCH   6   7
ENDBRANCH   5   6
ENDBRANCH   4   5
ENDBRANCH   3   4
ENDBRANCH   2   3
ENDBRANCH   1   2
BRANCH   1  13
ATOM     13  C   UNL     1      -4.322   7.285  -7.570  1.00  0.00     0.000 C 
BRANCH  13  14
ATOM     14  C   UNL     1      -3.871   8.695  -7.997  1.00  0.00     0.000 C 
BRANCH  14  15
ATOM     15  C   UNL     1      -4.427   9.110  -9.370  1.00  0.00     0.000 C 
BRANCH  15  16
ATOM     16  C   UNL     1      -5.644  10.049  -9.263  1.00  0.00     0.000 C 
BRANCH  16  17
ATOM     17  C   UNL     1      -6.530   9.838  -8.019  1.00  0.00     0.000 C 
BRANCH  17  18
ATOM     18  C   UNL     1      -7.975   9.391  -8.312  1.00  0.00     0.000 C 
BRANCH  18  19
ATOM     19  C   UNL     1      -8.169   8.642  -9.646  1.00  0.00     0.000 C 
BRANCH  19  20
ATOM     20  C   UNL     1      -8.509   7.148  -9.507  1.00  0.00     0.006 C 
BRANCH  20  21
ATOM     21  C   UNL     1      -7.262   6.258  -9.418  1.00  0.00     0.053 C 
BRANCH  21  22
ATOM     22  C   UNL     1      -7.306   5.422  -8.179  1.00  0.00     0.041 C 
ATOM     23  O   UNL     1      -6.454   4.511  -7.999  1.00  0.00    -0.550 OA
ATOM     24  O   UNL     1      -8.252   5.682  -7.196  1.00  0.00    -0.550 OA
ENDBRANCH  21  22
ENDBRANCH  20  21
ENDBRANCH  19  20
ENDBRANCH  18  19
ENDBRANCH  17  18
ENDBRANCH  16  17
ENDBRANCH  15  16
ENDBRANCH  14  15
ENDBRANCH  13  14
ENDBRANCH   1  13
TORSDOF 20
ENDMDL
MODEL 2
REMARK VINA RESULT:    -3.296      3.149      8.038
REMARK INTER + INTRA:          -8.670
REMARK INTER:                  -7.108
REMARK INTRA:                  -1.562
REMARK UNBOUND:                -1.521
REMARK SMILES CCCCCCCCCCCCCCCCCCCCCC(=O)[O-]
REMARK SMILES IDX 12 1 11 2 10 3 9 4 8 5 7 6 6 7 5 8 4 9 3 10 2 11 1 12 13 13
REMARK SMILES IDX 14 14 15 15 16 16 17 17 18 18 19 19 20 20 21 21 22 22 23 23
REMARK SMILES IDX 24 24
REMARK H PARENT
REMARK Flexibility Score: inf
ROOT
ATOM      1  C   UNL     1      -5.721   8.718  -9.865  1.00  0.00     0.000 C 
ENDROOT
BRANCH   1   2
ATOM      2  C   UNL     1      -7.128   9.338  -9.838  1.00  0.00     0.000 C 
BRANCH   2   3
ATOM      3  C   UNL     1      -8.028   8.688  -8.765  1.00  0.00     0.000 C 
BRANCH   3   4
ATOM      4  C   UNL     1      -8.315   7.198  -9.017  1.00  0.00    -0.000 C 
BRANCH   4   5
ATOM      5  C   UNL     1      -7.867   6.301  -7.852  1.00  0.00    -0.000 C 
BRANCH   5   6
ATOM      6  C   UNL     1      -7.454   4.888  -8.303  1.00  0.00    -0.000 C 
BRANCH   6   7
ATOM      7  C   UNL     1      -8.425   4.197  -9.279  1.00  0.00    -0.000 C 
BRANCH   7   8
ATOM      8  C   UNL     1      -9.865   4.121  -8.741  1.00  0.00    -0.000 C 
BRANCH   8   9
ATOM      9  C   UNL     1     -10.021   3.079  -7.622  1.00  0.00    -0.000 C 
BRANCH   9  10
ATOM     10  C   UNL     1     -10.103   3.722  -6.226  1.00  0.00    -0.000 C 
BRANCH  10  11
ATOM     11  C   UNL     1     -10.122   2.679  -5.098  1.00  0.00    -0.003 C 
ATOM     12  C   UNL     1     -10.077   3.308  -3.706  1.00  0.00     0.004 C 
ENDBRANCH  10  11
ENDBRANCH   9  10
ENDBRANCH   8   9
ENDBRANCH   7   8
ENDBRANCH   6   7
ENDBRANCH   5   6
ENDBRANCH   4   5
ENDBRANCH   3   4
ENDBRANCH   2   3
ENDBRANCH   1   2
BRANCH   1  13
ATOM     13  C   UNL     1      -4.663   9.589  -9.162  1.00  0.00     0.000 C 
BRANCH  13  14
ATOM     14  C   UNL     1      -3.977   8.938  -7.946  1.00  0.00     0.000 C 
BRANCH  14  15
ATOM     15  C   UNL     1      -4.888   7.938  -7.211  1.00  0.00     0.000 C 
BRANCH  15  16
ATOM     16  C   UNL     1      -4.232   6.556  -7.027  1.00  0.00     0.000 C 
BRANCH  16  17
ATOM     17  C   UNL     1      -3.933   6.160  -5.567  1.00  0.00     0.000 C 
BRANCH  17  18
ATOM     18  C   UNL     1      -3.093   4.879  -5.396  1.00  0.00     0.000 C 
BRANCH  18  19
ATOM     19  C   UNL     1      -2.551   4.640  -3.972  1.00  0.00     0.000 C 
BRANCH  19  20
ATOM     20  C   UNL     1      -3.088   3.377  -3.277  1.00  0.00     0.006 C 
BRANCH  20  21
ATOM     21  C   UNL     1      -2.057   2.723  -2.348  1.00  0.00     0.053 C 
BRANCH  21  22
ATOM     22  C   UNL     1      -1.325   1.633  -3.065  1.00  0.00     0.041 C 
ATOM     23  O   UNL     1      -0.393   1.915  -3.863  1.00  0.00    -0.550 OA
ATOM     24  O   UNL     1      -1.636   0.303  -2.811  1.00  0.00    -0.550 OA
ENDBRANCH  21  22
ENDBRANCH  20  21
ENDBRANCH  19  20
ENDBRANCH  18  19
ENDBRANCH  17  18
ENDBRANCH  16  17
ENDBRANCH  15  16
ENDBRANCH  14  15
ENDBRANCH  13  14
ENDBRANCH   1  13
TORSDOF 20
ENDMDL
MODEL 3
REMARK VINA RESULT:    -3.087      1.768      2.959
REMARK INTER + INTRA:          -8.218
REMARK INTER:                  -6.454
REMARK INTRA:                  -1.764
REMARK UNBOUND:                -1.521
REMARK SMILES CCCCCCCCCCCCCCCCCCCCCC(=O)[O-]
REMARK SMILES IDX 12 1 11 2 10 3 9 4 8 5 7 6 6 7 5 8 4 9 3 10 2 11 1 12 13 13
REMARK SMILES IDX 14 14 15 15 16 16 17 17 18 18 19 19 20 20 21 21 22 22 23 23
REMARK SMILES IDX 24 24
REMARK H PARENT
REMARK Flexibility Score: inf
ROOT
ATOM      1  C   UNL     1      -5.214   7.239  -6.068  1.00  0.00     0.000 C 
ENDROOT
BRANCH   1   2
ATOM      2  C   UNL     1      -3.929   6.396  -6.132  1.00  0.00     0.000 C 
BRANCH   2   3
ATOM      3  C   UNL     1      -3.499   5.888  -4.738  1.00  0.00     0.000 C 
BRANCH   3   4
ATOM      4  C   UNL     1      -2.896   4.473  -4.753  1.00  0.00    -0.000 C 
BRANCH   4   5
ATOM      5  C   UNL     1      -3.080   3.735  -3.418  1.00  0.00    -0.000 C 
BRANCH   5   6
ATOM      6  C   UNL     1      -1.746   3.334  -2.762  1.00  0.00    -0.000 C 
BRANCH   6   7
ATOM      7  C   UNL     1      -0.807   2.487  -3.642  1.00  0.00    -0.000 C 
BRANCH   7   8
ATOM      8  C   UNL     1      -0.533   1.090  -3.058  1.00  0.00    -0.000 C 
BRANCH   8   9
ATOM      9  C   UNL     1      -1.650   0.086  -3.386  1.00  0.00    -0.000 C 
BRANCH   9  10
ATOM     10  C   UNL     1      -1.130  -1.141  -4.156  1.00  0.00    -0.000 C 
BRANCH  10  11
ATOM     11  C   UNL     1      -2.266  -1.981  -4.759  1.00  0.00    -0.003 C 
ATOM     12  C   UNL     1      -2.085  -3.481  -4.525  1.00  0.00     0.004 C 
ENDBRANCH  10  11
ENDBRANCH   9  10
ENDBRANCH   8   9
ENDBRANCH   7   8
ENDBRANCH   6   7
ENDBRANCH   5   6
ENDBRANCH   4   5
ENDBRANCH   3   4
ENDBRANCH   2   3
ENDBRANCH   1   2
BRANCH   1  13
ATOM     13  C   UNL     1      -6.394   6.600  -6.825  1.00  0.00     0.000 C 
BRANCH  13  14
ATOM     14  C   UNL     1      -6.068   5.285  -7.560  1.00  0.00     0.000 C 
BRANCH  14  15
ATOM     15  C   UNL     1      -7.154   4.880  -8.571  1.00  0.00     0.000 C 
BRANCH  15  16
ATOM     16  C   UNL     1      -8.300   5.905  -8.660  1.00  0.00     0.000 C 
BRANCH  16  17
ATOM     17  C   UNL     1      -8.242   6.852  -9.877  1.00  0.00     0.000 C 
BRANCH  17  18
ATOM     18  C   UNL     1      -9.055   8.153  -9.733  1.00  0.00     0.000 C 
BRANCH  18  19
ATOM     19  C   UNL     1      -8.408   9.231  -8.839  1.00  0.00     0.000 C 
BRANCH  19  20
ATOM     20  C   UNL     1      -7.178   9.926  -9.448  1.00  0.00     0.006 C 
BRANCH  20  21
ATOM     21  C   UNL     1      -6.000  10.017  -8.470  1.00  0.00     0.053 C 
BRANCH  21  22
ATOM     22  C   UNL     1      -4.793   9.343  -9.042  1.00  0.00     0.041 C 
ATOM     23  O   UNL     1      -3.658   9.876  -8.932  1.00  0.00    -0.550 OA
ATOM     24  O   UNL     1      -4.914   8.100  -9.649  1.00  0.00    -0.550 OA
ENDBRANCH  21  22
ENDBRANCH  20  21
ENDBRANCH  19  20
ENDBRANCH  18  19
ENDBRANCH  17  18
ENDBRANCH  16  17
ENDBRANCH  15  16
ENDBRANCH  14  15
ENDBRANCH  13  14
ENDBRANCH   1  13
TORSDOF 20
ENDMDL
MODEL 4
REMARK VINA RESULT:    -2.986      1.772      2.874
REMARK INTER + INTRA:          -7.997
REMARK INTER:                  -6.701
REMARK INTRA:                  -1.296
REMARK UNBOUND:                -1.521
REMARK SMILES CCCCCCCCCCCCCCCCCCCCCC(=O)[O-]
REMARK SMILES IDX 12 1 11 2 10 3 9 4 8 5 7 6 6 7 5 8 4 9 3 10 2 11 1 12 13 13
REMARK SMILES IDX 14 14 15 15 16 16 17 17 18 18 19 19 20 20 21 21 22 22 23 23
REMARK SMILES IDX 24 24
REMARK H PARENT
REMARK Flexibility Score: inf
ROOT
ATOM      1  C   UNL     1      -3.923   8.016  -7.479  1.00  0.00     0.000 C 
ENDROOT
BRANCH   1   2
ATOM      2  C   UNL     1      -4.185   6.646  -6.829  1.00  0.00     0.000 C 
BRANCH   2   3
ATOM      3  C   UNL     1      -3.411   6.476  -5.503  1.00  0.00     0.000 C 
BRANCH   3   4
ATOM      4  C   UNL     1      -3.820   5.228  -4.703  1.00  0.00    -0.000 C 
BRANCH   4   5
ATOM      5  C   UNL     1      -2.660   4.641  -3.884  1.00  0.00    -0.000 C 
BRANCH   5   6
ATOM      6  C   UNL     1      -2.910   3.188  -3.441  1.00  0.00    -0.000 C 
BRANCH   6   7
ATOM      7  C   UNL     1      -1.827   2.581  -2.528  1.00  0.00    -0.000 C 
BRANCH   7   8
ATOM      8  C   UNL     1      -0.513   2.283  -3.271  1.00  0.00    -0.000 C 
BRANCH   8   9
ATOM      9  C   UNL     1      -0.175   0.784  -3.291  1.00  0.00    -0.000 C 
BRANCH   9  10
ATOM     10  C   UNL     1      -1.429  -0.100  -3.422  1.00  0.00    -0.000 C 
BRANCH  10  11
ATOM     11  C   UNL     1      -1.412  -0.958  -4.697  1.00  0.00    -0.003 C 
ATOM     12  C   UNL     1      -2.304  -2.196  -4.592  1.00  0.00     0.004 C 
ENDBRANCH  10  11
ENDBRANCH   9  10
ENDBRANCH   8   9
ENDBRANCH   7   8
ENDBRANCH   6   7
ENDBRANCH   5   6
ENDBRANCH   4   5
ENDBRANCH   3   4
ENDBRANCH   2   3
ENDBRANCH   1   2
BRANCH   1  13
ATOM     13  C   UNL     1      -5.202   8.679  -8.025  1.00  0.00     0.000 C 
BRANCH  13  14
ATOM     14  C   UNL     1      -6.524   8.062  -7.531  1.00  0.00     0.000 C 
BRANCH  14  15
ATOM     15  C   UNL     1      -7.759   8.658  -8.228  1.00  0.00     0.000 C 
BRANCH  15  16
ATOM     16  C   UNL     1      -7.956   8.119  -9.658  1.00  0.00     0.000 C 
BRANCH  16  17
ATOM     17  C   UNL     1      -7.493   6.665  -9.883  1.00  0.00     0.000 C 
BRANCH  17  18
ATOM     18  C   UNL     1      -8.627   5.631 -10.019  1.00  0.00     0.000 C 
BRANCH  18  19
ATOM     19  C   UNL     1      -8.576   4.469  -9.007  1.00  0.00     0.000 C 
BRANCH  19  20
ATOM     20  C   UNL     1      -9.015   4.833  -7.578  1.00  0.00     0.006 C 
BRANCH  20  21
ATOM     21  C   UNL     1     -10.094   3.891  -7.028  1.00  0.00     0.053 C 
BRANCH  21  22
ATOM     22  C   UNL     1      -9.889   3.661  -5.564  1.00  0.00     0.041 C 
ATOM     23  O   UNL     1      -9.457   2.553  -5.151  1.00  0.00    -0.550 OA
ATOM     24  O   UNL     1     -10.125   4.688  -4.659  1.00  0.00    -0.550 OA
ENDBRANCH  21  22
ENDBRANCH  20  21
ENDBRANCH  19  20
ENDBRANCH  18  19
ENDBRANCH  17  18
ENDBRANCH  16  17
ENDBRANCH  15  16
ENDBRANCH  14  15
ENDBRANCH  13  14
ENDBRANCH   1  13
TORSDOF 20
ENDMDL
MODEL 5
REMARK VINA RESULT:    -2.898      3.049      8.883
REMARK INTER + INTRA:          -7.808
REMARK INTER:                  -6.499
REMARK INTRA:                  -1.309
REMARK UNBOUND:                -1.521
REMARK SMILES CCCCCCCCCCCCCCCCCCCCCC(=O)[O-]
REMARK SMILES IDX 12 1 11 2 10 3 9 4 8 5 7 6 6 7 5 8 4 9 3 10 2 11 1 12 13 13
REMARK SMILES IDX 14 14 15 15 16 16 17 17 18 18 19 19 20 20 21 21 22 22 23 23
REMARK SMILES IDX 24 24
REMARK H PARENT
REMARK Flexibility Score: inf
ROOT
ATOM      1  C   UNL     1      -5.619   7.371  -6.056  1.00  0.00     0.000 C 
ENDROOT
BRANCH   1   2
ATOM      2  C   UNL     1      -6.427   8.146  -7.111  1.00  0.00     0.000 C 
BRANCH   2   3
ATOM      3  C   UNL     1      -5.696   8.209  -8.470  1.00  0.00     0.000 C 
BRANCH   3   4
ATOM      4  C   UNL     1      -6.190   7.167  -9.488  1.00  0.00    -0.000 C 
BRANCH   4   5
ATOM      5  C   UNL     1      -7.542   7.543 -10.114  1.00  0.00    -0.000 C 
BRANCH   5   6
ATOM      6  C   UNL     1      -8.693   6.627  -9.659  1.00  0.00    -0.000 C 
BRANCH   6   7
ATOM      7  C   UNL     1      -8.340   5.132  -9.544  1.00  0.00    -0.000 C 
BRANCH   7   8
ATOM      8  C   UNL     1      -9.175   4.397  -8.480  1.00  0.00    -0.000 C 
BRANCH   8   9
ATOM      9  C   UNL     1      -8.840   4.853  -7.051  1.00  0.00    -0.000 C 
BRANCH   9  10
ATOM     10  C   UNL     1      -9.950   4.501  -6.045  1.00  0.00    -0.000 C 
BRANCH  10  11
ATOM     11  C   UNL     1      -9.676   3.182  -5.305  1.00  0.00    -0.003 C 
ATOM     12  C   UNL     1     -10.125   3.217  -3.844  1.00  0.00     0.004 C 
ENDBRANCH  10  11
ENDBRANCH   9  10
ENDBRANCH   8   9
ENDBRANCH   7   8
ENDBRANCH   6   7
ENDBRANCH   5   6
ENDBRANCH   4   5
ENDBRANCH   3   4
ENDBRANCH   2   3
ENDBRANCH   1   2
BRANCH   1  13
ATOM     13  C   UNL     1      -5.008   6.066  -6.603  1.00  0.00     0.000 C 
BRANCH  13  14
ATOM     14  C   UNL     1      -3.573   5.765  -6.130  1.00  0.00     0.000 C 
BRANCH  14  15
ATOM     15  C   UNL     1      -3.462   5.637  -4.601  1.00  0.00     0.000 C 
BRANCH  15  16
ATOM     16  C   UNL     1      -2.435   4.576  -4.163  1.00  0.00     0.000 C 
BRANCH  16  17
ATOM     17  C   UNL     1      -3.000   3.432  -3.296  1.00  0.00     0.000 C 
BRANCH  17  18
ATOM     18  C   UNL     1      -2.249   3.181  -1.974  1.00  0.00     0.000 C 
BRANCH  18  19
ATOM     19  C   UNL     1      -0.902   2.445  -2.118  1.00  0.00     0.000 C 
BRANCH  19  20
ATOM     20  C   UNL     1      -0.660   1.798  -3.493  1.00  0.00     0.006 C 
BRANCH  20  21
ATOM     21  C   UNL     1      -0.364   0.295  -3.401  1.00  0.00     0.053 C 
BRANCH  21  22
ATOM     22  C   UNL     1      -1.589  -0.499  -3.728  1.00  0.00     0.041 C 
ATOM     23  O   UNL     1      -2.653  -0.317  -3.079  1.00  0.00    -0.550 OA
ATOM     24  O   UNL     1      -1.572  -1.401  -4.784  1.00  0.00    -0.550 OA
ENDBRANCH  21  22
ENDBRANCH  20  21
ENDBRANCH  19  20
ENDBRANCH  18  19
ENDBRANCH  17  18
ENDBRANCH  16  17
ENDBRANCH  15  16
ENDBRANCH  14  15
ENDBRANCH  13  14
ENDBRANCH   1  13
TORSDOF 20
ENDMDL
MODEL 6
REMARK VINA RESULT:    -2.852      0.945      1.150
REMARK INTER + INTRA:          -7.707
REMARK INTER:                  -5.855
REMARK INTRA:                  -1.852
REMARK UNBOUND:                -1.521
REMARK SMILES CCCCCCCCCCCCCCCCCCCCCC(=O)[O-]
REMARK SMILES IDX 12 1 11 2 10 3 9 4 8 5 7 6 6 7 5 8 4 9 3 10 2 11 1 12 13 13
REMARK SMILES IDX 14 14 15 15 16 16 17 17 18 18 19 19 20 20 21 21 22 22 23 23
REMARK SMILES IDX 24 24
REMARK H PARENT
REMARK Flexibility Score: inf
ROOT
ATOM      1  C   UNL     1      -4.206   5.607  -6.364  1.00  0.00     0.000 C 
ENDROOT
BRANCH   1   2
ATOM      2  C   UNL     1      -3.024   4.861  -5.721  1.00  0.00     0.000 C 
BRANCH   2   3
ATOM      3  C   UNL     1      -3.097   4.878  -4.178  1.00  0.00     0.000 C 
BRANCH   3   4
ATOM      4  C   UNL     1      -2.885   3.499  -3.532  1.00  0.00    -0.000 C 
BRANCH   4   5
ATOM      5  C   UNL     1      -2.087   3.574  -2.221  1.00  0.00    -0.000 C 
BRANCH   5   6
ATOM      6  C   UNL     1      -0.933   2.556  -2.159  1.00  0.00    -0.000 C 
BRANCH   6   7
ATOM      7  C   UNL     1      -0.378   2.103  -3.523  1.00  0.00    -0.000 C 
BRANCH   7   8
ATOM      8  C   UNL     1      -0.616   0.609  -3.803  1.00  0.00    -0.000 C 
BRANCH   8   9
ATOM      9  C   UNL     1      -1.731   0.016  -2.926  1.00  0.00    -0.000 C 
BRANCH   9  10
ATOM     10  C   UNL     1      -2.653  -0.936  -3.709  1.00  0.00    -0.000 C 
BRANCH  10  11
ATOM     11  C   UNL     1      -1.879  -1.822  -4.697  1.00  0.00    -0.003 C 
ATOM     12  C   UNL     1      -2.082  -3.316  -4.440  1.00  0.00     0.004 C 
ENDBRANCH  10  11
ENDBRANCH   9  10
ENDBRANCH   8   9
ENDBRANCH   7   8
ENDBRANCH   6   7
ENDBRANCH   5   6
ENDBRANCH   4   5
ENDBRANCH   3   4
ENDBRANCH   2   3
ENDBRANCH   1   2
BRANCH   1  13
ATOM     13  C   UNL     1      -4.193   7.120  -6.074  1.00  0.00     0.000 C 
BRANCH  13  14
ATOM     14  C   UNL     1      -3.434   7.980  -7.102  1.00  0.00     0.000 C 
BRANCH  14  15
ATOM     15  C   UNL     1      -4.081   7.954  -8.497  1.00  0.00     0.000 C 
BRANCH  15  16
ATOM     16  C   UNL     1      -4.425   9.361  -9.023  1.00  0.00     0.000 C 
BRANCH  16  17
ATOM     17  C   UNL     1      -5.878   9.816  -8.781  1.00  0.00     0.000 C 
BRANCH  17  18
ATOM     18  C   UNL     1      -6.746   8.831  -7.974  1.00  0.00     0.000 C 
BRANCH  18  19
ATOM     19  C   UNL     1      -7.927   8.213  -8.751  1.00  0.00     0.000 C 
BRANCH  19  20
ATOM     20  C   UNL     1      -7.556   7.028  -9.660  1.00  0.00     0.006 C 
BRANCH  20  21
ATOM     21  C   UNL     1      -7.043   5.813  -8.875  1.00  0.00     0.053 C 
BRANCH  21  22
ATOM     22  C   UNL     1      -8.185   4.938  -8.465  1.00  0.00     0.041 C 
ATOM     23  O   UNL     1      -8.685   4.124  -9.285  1.00  0.00    -0.550 OA
ATOM     24  O   UNL     1      -8.661   4.982  -7.161  1.00  0.00    -0.550 OA
ENDBRANCH  21  22
ENDBRANCH  20  21
ENDBRANCH  19  20
ENDBRANCH  18  19
ENDBRANCH  17  18
ENDBRANCH  16  17
ENDBRANCH  15  16
ENDBRANCH  14  15
ENDBRANCH  13  14
ENDBRANCH   1  13
TORSDOF 20
ENDMDL
MODEL 7
REMARK VINA RESULT:    -2.511      2.885      9.430
REMARK INTER + INTRA:          -6.968
REMARK INTER:                  -5.065
REMARK INTRA:                  -1.903
REMARK UNBOUND:                -1.521
REMARK SMILES CCCCCCCCCCCCCCCCCCCCCC(=O)[O-]
REMARK SMILES IDX 12 1 11 2 10 3 9 4 8 5 7 6 6 7 5 8 4 9 3 10 2 11 1 12 13 13
REMARK SMILES IDX 14 14 15 15 16 16 17 17 18 18 19 19 20 20 21 21 22 22 23 23
REMARK SMILES IDX 24 24
REMARK H PARENT
REMARK Flexibility Score: inf
ROOT
ATOM      1  C   UNL     1      -5.126   6.267  -6.535  1.00  0.00     0.000 C 
ENDROOT
BRANCH   1   2
ATOM      2  C   UNL     1      -5.040   7.791  -6.726  1.00  0.00     0.000 C 
BRANCH   2   3
ATOM      3  C   UNL     1      -3.788   8.206  -7.529  1.00  0.00     0.000 C 
BRANCH   3   4
ATOM      4  C   UNL     1      -4.053   8.403  -9.032  1.00  0.00    -0.000 C 
BRANCH   4   5
ATOM      5  C   UNL     1      -4.921   9.637  -9.324  1.00  0.00    -0.000 C 
BRANCH   5   6
ATOM      6  C   UNL     1      -6.294   9.280  -9.923  1.00  0.00    -0.000 C 
BRANCH   6   7
ATOM      7  C   UNL     1      -7.472   9.301  -8.930  1.00  0.00    -0.000 C 
BRANCH   7   8
ATOM      8  C   UNL     1      -8.279   7.990  -8.929  1.00  0.00    -0.000 C 
BRANCH   8   9
ATOM      9  C   UNL     1      -7.473   6.802  -9.478  1.00  0.00    -0.000 C 
BRANCH   9  10
ATOM     10  C   UNL     1      -7.888   5.464  -8.840  1.00  0.00    -0.000 C 
BRANCH  10  11
ATOM     11  C   UNL     1      -8.491   5.643  -7.438  1.00  0.00    -0.003 C 
ATOM     12  C   UNL     1      -9.365   4.463  -7.012  1.00  0.00     0.004 C 
ENDBRANCH  10  11
ENDBRANCH   9  10
ENDBRANCH   8   9
ENDBRANCH   7   8
ENDBRANCH   6   7
ENDBRANCH   5   6
ENDBRANCH   4   5
ENDBRANCH   3   4
ENDBRANCH   2   3
ENDBRANCH   1   2
BRANCH   1  13
ATOM     13  C   UNL     1      -3.761   5.620  -6.229  1.00  0.00     0.000 C 
BRANCH  13  14
ATOM     14  C   UNL     1      -3.406   5.511  -4.733  1.00  0.00     0.000 C 
BRANCH  14  15
ATOM     15  C   UNL     1      -2.434   4.356  -4.433  1.00  0.00     0.000 C 
BRANCH  15  16
ATOM     16  C   UNL     1      -2.954   3.408  -3.336  1.00  0.00     0.000 C 
BRANCH  16  17
ATOM     17  C   UNL     1      -2.092   3.347  -2.058  1.00  0.00     0.000 C 
BRANCH  17  18
ATOM     18  C   UNL     1      -1.055   2.208  -2.021  1.00  0.00     0.000 C 
BRANCH  18  19
ATOM     19  C   UNL     1      -0.584   1.710  -3.402  1.00  0.00     0.000 C 
BRANCH  19  20
ATOM     20  C   UNL     1      -0.492   0.181  -3.543  1.00  0.00     0.006 C 
BRANCH  20  21
ATOM     21  C   UNL     1      -1.859  -0.483  -3.752  1.00  0.00     0.053 C 
BRANCH  21  22
ATOM     22  C   UNL     1      -1.700  -1.802  -4.440  1.00  0.00     0.041 C 
ATOM     23  O   UNL     1      -2.692  -2.563  -4.588  1.00  0.00    -0.550 OA
ATOM     24  O   UNL     1      -0.467  -2.168  -4.965  1.00  0.00    -0.550 OA
ENDBRANCH  21  22
ENDBRANCH  20  21
ENDBRANCH  19  20
ENDBRANCH  18  19
ENDBRANCH  17  18
ENDBRANCH  16  17
ENDBRANCH  15  16
ENDBRANCH  14  15
ENDBRANCH  13  14
ENDBRANCH   1  13
TORSDOF 20
ENDMDL
MODEL 8
REMARK VINA RESULT:    -2.349      3.051      8.593
REMARK INTER + INTRA:          -6.615
REMARK INTER:                  -4.822
REMARK INTRA:                  -1.793
REMARK UNBOUND:                -1.521
REMARK SMILES CCCCCCCCCCCCCCCCCCCCCC(=O)[O-]
REMARK SMILES IDX 12 1 11 2 10 3 9 4 8 5 7 6 6 7 5 8 4 9 3 10 2 11 1 12 13 13
REMARK SMILES IDX 14 14 15 15 16 16 17 17 18 18 19 19 20 20 21 21 22 22 23 23
REMARK SMILES IDX 24 24
REMARK H PARENT
REMARK Flexibility Score: inf
ROOT
ATOM      1  C   UNL     1      -5.893   9.715  -9.431  1.00  0.00     0.000 C 
ENDROOT
BRANCH   1   2
ATOM      2  C   UNL     1      -6.796  10.067  -8.236  1.00  0.00     0.000 C 
BRANCH   2   3
ATOM      3  C   UNL     1      -8.143   9.313  -8.286  1.00  0.00     0.000 C 
BRANCH   3   4
ATOM      4  C   UNL     1      -8.681   9.099  -9.711  1.00  0.00    -0.000 C 
BRANCH   4   5
ATOM      5  C   UNL     1      -8.694   7.619 -10.125  1.00  0.00    -0.000 C 
BRANCH   5   6
ATOM      6  C   UNL     1      -9.844   6.823  -9.482  1.00  0.00    -0.000 C 
BRANCH   6   7
ATOM      7  C   UNL     1      -9.796   5.300  -9.704  1.00  0.00    -0.000 C 
BRANCH   7   8
ATOM      8  C   UNL     1      -9.067   4.550  -8.575  1.00  0.00    -0.000 C 
BRANCH   8   9
ATOM      9  C   UNL     1      -9.235   5.235  -7.209  1.00  0.00    -0.000 C 
BRANCH   9  10
ATOM     10  C   UNL     1      -7.953   5.951  -6.748  1.00  0.00    -0.000 C 
BRANCH  10  11
ATOM     11  C   UNL     1      -6.824   5.864  -7.788  1.00  0.00    -0.003 C 
ATOM     12  C   UNL     1      -5.843   4.726  -7.507  1.00  0.00     0.004 C 
ENDBRANCH  10  11
ENDBRANCH   9  10
ENDBRANCH   8   9
ENDBRANCH   7   8
ENDBRANCH   6   7
ENDBRANCH   5   6
ENDBRANCH   4   5
ENDBRANCH   3   4
ENDBRANCH   2   3
ENDBRANCH   1   2
BRANCH   1  13
ATOM     13  C   UNL     1      -4.491   9.237  -9.006  1.00  0.00     0.000 C 
BRANCH  13  14
ATOM     14  C   UNL     1      -4.390   8.692  -7.569  1.00  0.00     0.000 C 
BRANCH  14  15
ATOM     15  C   UNL     1      -3.523   7.424  -7.470  1.00  0.00     0.000 C 
BRANCH  15  16
ATOM     16  C   UNL     1      -3.198   7.034  -6.016  1.00  0.00     0.000 C 
BRANCH  16  17
ATOM     17  C   UNL     1      -3.131   5.517  -5.742  1.00  0.00     0.000 C 
BRANCH  17  18
ATOM     18  C   UNL     1      -2.999   5.126  -4.257  1.00  0.00     0.000 C 
BRANCH  18  19
ATOM     19  C   UNL     1      -3.012   3.610  -3.979  1.00  0.00     0.000 C 
BRANCH  19  20
ATOM     20  C   UNL     1      -2.707   3.215  -2.523  1.00  0.00     0.006 C 
BRANCH  20  21
ATOM     21  C   UNL     1      -1.251   2.779  -2.316  1.00  0.00     0.053 C 
BRANCH  21  22
ATOM     22  C   UNL     1      -0.994   1.474  -3.001  1.00  0.00     0.041 C 
ATOM     23  O   UNL     1      -1.876   0.574  -3.000  1.00  0.00    -0.550 OA
ATOM     24  O   UNL     1       0.196   1.271  -3.687  1.00  0.00    -0.550 OA
ENDBRANCH  21  22
ENDBRANCH  20  21
ENDBRANCH  19  20
ENDBRANCH  18  19
ENDBRANCH  17  18
ENDBRANCH  16  17
ENDBRANCH  15  16
ENDBRANCH  14  15
ENDBRANCH  13  14
ENDBRANCH   1  13
TORSDOF 20
ENDMDL
MODEL 9
REMARK VINA RESULT:    -2.292      2.794      9.929
REMARK INTER + INTRA:          -6.493
REMARK INTER:                  -4.350
REMARK INTRA:                  -2.143
REMARK UNBOUND:                -1.521
REMARK SMILES CCCCCCCCCCCCCCCCCCCCCC(=O)[O-]
REMARK SMILES IDX 12 1 11 2 10 3 9 4 8 5 7 6 6 7 5 8 4 9 3 10 2 11 1 12 13 13
REMARK SMILES IDX 14 14 15 15 16 16 17 17 18 18 19 19 20 20 21 21 22 22 23 23
REMARK SMILES IDX 24 24
REMARK H PARENT
REMARK Flexibility Score: inf
ROOT
ATOM      1  C   UNL     1      -3.941   5.890  -6.514  1.00  0.00     0.000 C 
ENDROOT
BRANCH   1   2
ATOM      2  C   UNL     1      -5.244   5.493  -7.228  1.00  0.00     0.000 C 
BRANCH   2   3
ATOM      3  C   UNL     1      -6.338   6.574  -7.082  1.00  0.00     0.000 C 
BRANCH   3   4
ATOM      4  C   UNL     1      -7.741   6.095  -7.492  1.00  0.00    -0.000 C 
BRANCH   4   5
ATOM      5  C   UNL     1      -7.854   5.809  -8.998  1.00  0.00    -0.000 C 
BRANCH   5   6
ATOM      6  C   UNL     1      -7.799   7.085  -9.859  1.00  0.00    -0.000 C 
BRANCH   6   7
ATOM      7  C   UNL     1      -8.606   8.281  -9.319  1.00  0.00    -0.000 C 
BRANCH   7   8
ATOM      8  C   UNL     1      -7.898   9.630  -9.535  1.00  0.00    -0.000 C 
BRANCH   8   9
ATOM      9  C   UNL     1      -6.419   9.464  -9.917  1.00  0.00    -0.000 C 
BRANCH   9  10
ATOM     10  C   UNL     1      -5.467   9.861  -8.774  1.00  0.00    -0.000 C 
BRANCH  10  11
ATOM     11  C   UNL     1      -4.205   8.986  -8.729  1.00  0.00    -0.003 C 
ATOM     12  C   UNL     1      -4.127   7.995  -9.891  1.00  0.00     0.004 C 
ENDBRANCH  10  11
ENDBRANCH   9  10
ENDBRANCH   8   9
ENDBRANCH   7   8
ENDBRANCH   6   7
ENDBRANCH   5   6
ENDBRANCH   4   5
ENDBRANCH   3   4
ENDBRANCH   2   3
ENDBRANCH   1   2
BRANCH   1  13
ATOM     13  C   UNL     1      -4.097   5.992  -4.984  1.00  0.00     0.000 C 
BRANCH  13  14
ATOM     14  C   UNL     1      -2.901   5.469  -4.166  1.00  0.00     0.000 C 
BRANCH  14  15
ATOM     15  C   UNL     1      -2.707   3.948  -4.294  1.00  0.00     0.000 C 
BRANCH  15  16
ATOM     16  C   UNL     1      -3.040   3.191  -2.994  1.00  0.00     0.000 C 
BRANCH  16  17
ATOM     17  C   UNL     1      -1.849   2.469  -2.332  1.00  0.00     0.000 C 
BRANCH  17  18
ATOM     18  C   UNL     1      -0.664   2.166  -3.268  1.00  0.00     0.000 C 
BRANCH  18  19
ATOM     19  C   UNL     1      -0.306   0.672  -3.406  1.00  0.00     0.000 C 
BRANCH  19  20
ATOM     20  C   UNL     1      -1.497  -0.255  -3.708  1.00  0.00     0.006 C 
BRANCH  20  21
ATOM     21  C   UNL     1      -1.118  -1.438  -4.609  1.00  0.00     0.053 C 
BRANCH  21  22
ATOM     22  C   UNL     1      -2.178  -2.492  -4.557  1.00  0.00     0.041 C 
ATOM     23  O   UNL     1      -3.359  -2.220  -4.897  1.00  0.00    -0.550 OA
ATOM     24  O   UNL     1      -1.850  -3.790  -4.186  1.00  0.00    -0.550 OA
ENDBRANCH  21  22
ENDBRANCH  20  21
ENDBRANCH  19  20
ENDBRANCH  18  19
ENDBRANCH  17  18
ENDBRANCH  16  17
ENDBRANCH  15  16
ENDBRANCH  14  15
ENDBRANCH  13  14
ENDBRANCH   1  13
TORSDOF 20
ENDMDL
