MODEL 1
REMARK VINA RESULT:    -8.178      0.000      0.000
REMARK INTER + INTRA:         -10.094
REMARK INTER:                  -9.852
REMARK INTRA:                  -0.242
REMARK UNBOUND:                -0.242
REMARK SMILES O=c1c(O)c(-c2ccc(O)cc2O)oc2cc(O)cc(O)c12
REMARK SMILES IDX 5 1 3 2 2 3 1 4 22 5 20 6 19 7 17 8 16 9 15 10 14 11 6 12
REMARK SMILES IDX 8 13 7 14 9 15 11 16 12 17 10 18 13 20 4 22 21 24 18 26
REMARK H PARENT 10 19 13 21 4 23 21 25 18 27
REMARK Flexibility Score: inf
ROOT
ATOM      1  C   UNL     1     -47.683 -15.998  33.311  1.00  0.00     0.184 A 
ATOM      2  C   UNL     1     -46.362 -15.908  33.775  1.00  0.00     0.208 A 
ATOM      3  C   UNL     1     -45.392 -16.768  33.239  1.00  0.00     0.238 A 
ATOM      4  O   UNL     1     -44.197 -16.641  33.615  1.00  0.00    -0.285 OA
ATOM      5  C   UNL     1     -45.762 -17.726  32.264  1.00  0.00     0.111 A 
ATOM      6  C   UNL     1     -44.870 -18.674  31.678  1.00  0.00     0.134 A 
ATOM      7  C   UNL     1     -45.320 -19.493  30.636  1.00  0.00     0.093 A 
ATOM      8  C   UNL     1     -46.647 -19.443  30.200  1.00  0.00     0.123 A 
ATOM      9  C   UNL     1     -47.540 -18.560  30.804  1.00  0.00     0.094 A 
ATOM     10  C   UNL     1     -47.112 -17.705  31.822  1.00  0.00     0.146 A 
ATOM     11  O   UNL     1     -47.993 -16.870  32.360  1.00  0.00    -0.451 OA
ENDROOT
BRANCH   1  12
ATOM     12  C   UNL     1     -48.752 -15.134  33.858  1.00  0.00     0.063 A 
ATOM     13  C   UNL     1     -50.354 -13.335  33.519  1.00  0.00     0.047 A 
ATOM     14  C   UNL     1     -49.381 -14.201  33.016  1.00  0.00     0.020 A 
ATOM     15  C   UNL     1     -50.706 -13.381  34.870  1.00  0.00     0.119 A 
ATOM     16  C   UNL     1     -50.084 -14.306  35.718  1.00  0.00     0.093 A 
ATOM     17  C   UNL     1     -49.115 -15.187  35.224  1.00  0.00     0.130 A 
BRANCH  15  18
ATOM     18  O   UNL     1     -51.674 -12.507  35.358  1.00  0.00    -0.508 OA
ATOM     19  H   UNL     1     -51.737 -12.283  36.345  1.00  0.00     0.293 HD
ENDBRANCH  15  18
BRANCH  17  20
ATOM     20  O   UNL     1     -48.554 -16.113  36.106  1.00  0.00    -0.507 OA
ATOM     21  H   UNL     1     -49.074 -16.885  36.502  1.00  0.00     0.293 HD
ENDBRANCH  17  20
ENDBRANCH   1  12
BRANCH   2  22
ATOM     22  O   UNL     1     -46.026 -14.955  34.741  1.00  0.00    -0.502 OA
ATOM     23  H   UNL     1     -45.188 -14.389  34.677  1.00  0.00     0.293 HD
ENDBRANCH   2  22
BRANCH   6  24
ATOM     24  O   UNL     1     -43.552 -18.871  32.100  1.00  0.00    -0.507 OA
ATOM     25  H   UNL     1     -43.071 -18.295  32.775  1.00  0.00     0.293 HD
ENDBRANCH   6  24
BRANCH   8  26
ATOM     26  O   UNL     1     -47.090 -20.272  29.172  1.00  0.00    -0.508 OA
ATOM     27  H   UNL     1     -46.593 -21.119  28.923  1.00  0.00     0.293 HD
ENDBRANCH   8  26
TORSDOF 6
ENDMDL
MODEL 2
REMARK VINA RESULT:    -8.172      5.484      8.426
REMARK INTER + INTRA:         -10.087
REMARK INTER:                  -9.791
REMARK INTRA:                  -0.296
REMARK UNBOUND:                -0.242
REMARK SMILES O=c1c(O)c(-c2ccc(O)cc2O)oc2cc(O)cc(O)c12
REMARK SMILES IDX 5 1 3 2 2 3 1 4 22 5 20 6 19 7 17 8 16 9 15 10 14 11 6 12
REMARK SMILES IDX 8 13 7 14 9 15 11 16 12 17 10 18 13 20 4 22 21 24 18 26
REMARK H PARENT 10 19 13 21 4 23 21 25 18 27
REMARK Flexibility Score: inf
ROOT
ATOM      1  C   UNL     1     -44.464 -22.046  31.252  1.00  0.00     0.184 A 
ATOM      2  C   UNL     1     -45.104 -20.906  31.761  1.00  0.00     0.208 A 
ATOM      3  C   UNL     1     -45.765 -20.042  30.874  1.00  0.00     0.238 A 
ATOM      4  O   UNL     1     -46.388 -19.055  31.343  1.00  0.00    -0.285 OA
ATOM      5  C   UNL     1     -45.753 -20.317  29.484  1.00  0.00     0.111 A 
ATOM      6  C   UNL     1     -46.356 -19.492  28.488  1.00  0.00     0.134 A 
ATOM      7  C   UNL     1     -46.387 -19.926  27.157  1.00  0.00     0.093 A 
ATOM      8  C   UNL     1     -45.780 -21.125  26.775  1.00  0.00     0.123 A 
ATOM      9  C   UNL     1     -45.138 -21.910  27.730  1.00  0.00     0.094 A 
ATOM     10  C   UNL     1     -45.122 -21.522  29.072  1.00  0.00     0.146 A 
ATOM     11  O   UNL     1     -44.512 -22.307  29.952  1.00  0.00    -0.451 OA
ENDROOT
BRANCH   1  12
ATOM     12  C   UNL     1     -43.732 -22.978  32.137  1.00  0.00     0.063 A 
ATOM     13  C   UNL     1     -41.636 -24.041  32.767  1.00  0.00     0.047 A 
ATOM     14  C   UNL     1     -42.343 -23.127  31.982  1.00  0.00     0.020 A 
ATOM     15  C   UNL     1     -42.305 -24.823  33.710  1.00  0.00     0.119 A 
ATOM     16  C   UNL     1     -43.689 -24.683  33.873  1.00  0.00     0.093 A 
ATOM     17  C   UNL     1     -44.408 -23.763  33.100  1.00  0.00     0.130 A 
BRANCH  15  18
ATOM     18  O   UNL     1     -41.587 -25.733  34.483  1.00  0.00    -0.508 OA
ATOM     19  H   UNL     1     -41.918 -26.034  35.392  1.00  0.00     0.293 HD
ENDBRANCH  15  18
BRANCH  17  20
ATOM     20  O   UNL     1     -45.780 -23.639  33.329  1.00  0.00    -0.507 OA
ATOM     21  H   UNL     1     -46.480 -24.008  32.700  1.00  0.00     0.293 HD
ENDBRANCH  17  20
ENDBRANCH   1  12
BRANCH   2  22
ATOM     22  O   UNL     1     -45.096 -20.657  33.137  1.00  0.00    -0.502 OA
ATOM     23  H   UNL     1     -44.469 -21.136  33.771  1.00  0.00     0.293 HD
ENDBRANCH   2  22
BRANCH   6  24
ATOM     24  O   UNL     1     -46.910 -18.235  28.747  1.00  0.00    -0.507 OA
ATOM     25  H   UNL     1     -47.506 -17.726  28.111  1.00  0.00     0.293 HD
ENDBRANCH   6  24
BRANCH   8  26
ATOM     26  O   UNL     1     -45.802 -21.541  25.446  1.00  0.00    -0.508 OA
ATOM     27  H   UNL     1     -45.428 -22.440  25.166  1.00  0.00     0.293 HD
ENDBRANCH   8  26
TORSDOF 6
ENDMDL
MODEL 3
REMARK VINA RESULT:    -8.160      6.782     11.012
REMARK INTER + INTRA:         -10.072
REMARK INTER:                  -9.816
REMARK INTRA:                  -0.256
REMARK UNBOUND:                -0.242
REMARK SMILES O=c1c(O)c(-c2ccc(O)cc2O)oc2cc(O)cc(O)c12
REMARK SMILES IDX 5 1 3 2 2 3 1 4 22 5 20 6 19 7 17 8 16 9 15 10 14 11 6 12
REMARK SMILES IDX 8 13 7 14 9 15 11 16 12 17 10 18 13 20 4 22 21 24 18 26
REMARK H PARENT 10 19 13 21 4 23 21 25 18 27
REMARK Flexibility Score: inf
ROOT
ATOM      1  C   UNL     1     -42.065 -24.483  33.242  1.00  0.00     0.184 A 
ATOM      2  C   UNL     1     -43.388 -24.612  33.690  1.00  0.00     0.208 A 
ATOM      3  C   UNL     1     -44.371 -23.761  33.163  1.00  0.00     0.238 A 
ATOM      4  O   UNL     1     -45.566 -23.921  33.523  1.00  0.00    -0.285 OA
ATOM      5  C   UNL     1     -44.011 -22.773  32.213  1.00  0.00     0.111 A 
ATOM      6  C   UNL     1     -44.917 -21.830  31.639  1.00  0.00     0.134 A 
ATOM      7  C   UNL     1     -44.474 -20.979  30.620  1.00  0.00     0.093 A 
ATOM      8  C   UNL     1     -43.142 -20.992  30.197  1.00  0.00     0.123 A 
ATOM      9  C   UNL     1     -42.237 -21.869  30.791  1.00  0.00     0.094 A 
ATOM     10  C   UNL     1     -42.657 -22.756  31.785  1.00  0.00     0.146 A 
ATOM     11  O   UNL     1     -41.764 -23.584  32.314  1.00  0.00    -0.451 OA
ENDROOT
BRANCH   1  12
ATOM     12  C   UNL     1     -40.984 -25.337  33.780  1.00  0.00     0.063 A 
ATOM     13  C   UNL     1     -39.355 -27.110  33.424  1.00  0.00     0.047 A 
ATOM     14  C   UNL     1     -40.340 -26.253  32.929  1.00  0.00     0.020 A 
ATOM     15  C   UNL     1     -39.005 -27.072  34.775  1.00  0.00     0.119 A 
ATOM     16  C   UNL     1     -39.640 -26.165  35.633  1.00  0.00     0.093 A 
ATOM     17  C   UNL     1     -40.621 -25.292  35.147  1.00  0.00     0.130 A 
BRANCH  15  18
ATOM     18  O   UNL     1     -38.023 -27.936  35.256  1.00  0.00    -0.508 OA
ATOM     19  H   UNL     1     -37.115 -27.596  35.551  1.00  0.00     0.293 HD
ENDBRANCH  15  18
BRANCH  17  20
ATOM     20  O   UNL     1     -41.196 -24.384  36.038  1.00  0.00    -0.507 OA
ATOM     21  H   UNL     1     -40.981 -23.396  36.035  1.00  0.00     0.293 HD
ENDBRANCH  17  20
ENDBRANCH   1  12
BRANCH   2  22
ATOM     22  O   UNL     1     -43.714 -25.593  34.631  1.00  0.00    -0.502 OA
ATOM     23  H   UNL     1     -44.107 -26.488  34.367  1.00  0.00     0.293 HD
ENDBRANCH   2  22
BRANCH   6  24
ATOM     24  O   UNL     1     -46.243 -21.671  32.052  1.00  0.00    -0.507 OA
ATOM     25  H   UNL     1     -46.767 -20.811  31.988  1.00  0.00     0.293 HD
ENDBRANCH   6  24
BRANCH   8  26
ATOM     26  O   UNL     1     -42.706 -20.131  29.192  1.00  0.00    -0.508 OA
ATOM     27  H   UNL     1     -41.971 -19.454  29.357  1.00  0.00     0.293 HD
ENDBRANCH   8  26
TORSDOF 6
ENDMDL
MODEL 4
REMARK VINA RESULT:    -8.049      5.475      8.573
REMARK INTER + INTRA:          -9.939
REMARK INTER:                  -9.678
REMARK INTRA:                  -0.261
REMARK UNBOUND:                -0.242
REMARK SMILES O=c1c(O)c(-c2ccc(O)cc2O)oc2cc(O)cc(O)c12
REMARK SMILES IDX 5 1 3 2 2 3 1 4 22 5 20 6 19 7 17 8 16 9 15 10 14 11 6 12
REMARK SMILES IDX 8 13 7 14 9 15 11 16 12 17 10 18 13 20 4 22 21 24 18 26
REMARK H PARENT 10 19 13 21 4 23 21 25 18 27
REMARK Flexibility Score: inf
ROOT
ATOM      1  C   UNL     1     -44.401 -22.057  31.236  1.00  0.00     0.184 A 
ATOM      2  C   UNL     1     -45.028 -20.930  31.788  1.00  0.00     0.208 A 
ATOM      3  C   UNL     1     -45.720 -20.052  30.940  1.00  0.00     0.238 A 
ATOM      4  O   UNL     1     -46.332 -19.076  31.449  1.00  0.00    -0.285 OA
ATOM      5  C   UNL     1     -45.750 -20.297  29.545  1.00  0.00     0.111 A 
ATOM      6  C   UNL     1     -46.388 -19.454  28.586  1.00  0.00     0.134 A 
ATOM      7  C   UNL     1     -46.458 -19.860  27.248  1.00  0.00     0.093 A 
ATOM      8  C   UNL     1     -45.859 -21.049  26.823  1.00  0.00     0.123 A 
ATOM      9  C   UNL     1     -45.185 -21.851  27.741  1.00  0.00     0.094 A 
ATOM     10  C   UNL     1     -45.129 -21.491  29.089  1.00  0.00     0.146 A 
ATOM     11  O   UNL     1     -44.488 -22.291  29.933  1.00  0.00    -0.451 OA
ENDROOT
BRANCH   1  12
ATOM     12  C   UNL     1     -43.638 -23.004  32.078  1.00  0.00     0.063 A 
ATOM     13  C   UNL     1     -43.569 -24.489  34.004  1.00  0.00     0.047 A 
ATOM     14  C   UNL     1     -44.279 -23.634  33.159  1.00  0.00     0.020 A 
ATOM     15  C   UNL     1     -42.209 -24.720  33.788  1.00  0.00     0.119 A 
ATOM     16  C   UNL     1     -41.559 -24.097  32.716  1.00  0.00     0.093 A 
ATOM     17  C   UNL     1     -42.263 -23.246  31.854  1.00  0.00     0.130 A 
BRANCH  15  18
ATOM     18  O   UNL     1     -41.512 -25.572  34.643  1.00  0.00    -0.508 OA
ATOM     19  H   UNL     1     -41.981 -26.075  35.387  1.00  0.00     0.293 HD
ENDBRANCH  15  18
BRANCH  17  20
ATOM     20  O   UNL     1     -41.574 -22.679  30.780  1.00  0.00    -0.507 OA
ATOM     21  H   UNL     1     -41.364 -23.185  29.930  1.00  0.00     0.293 HD
ENDBRANCH  17  20
ENDBRANCH   1  12
BRANCH   2  22
ATOM     22  O   UNL     1     -44.979 -20.710  33.168  1.00  0.00    -0.502 OA
ATOM     23  H   UNL     1     -45.812 -20.684  33.743  1.00  0.00     0.293 HD
ENDBRANCH   2  22
BRANCH   6  24
ATOM     24  O   UNL     1     -46.937 -18.205  28.888  1.00  0.00    -0.507 OA
ATOM     25  H   UNL     1     -47.865 -17.905  28.627  1.00  0.00     0.293 HD
ENDBRANCH   6  24
BRANCH   8  26
ATOM     26  O   UNL     1     -45.921 -21.437  25.486  1.00  0.00    -0.508 OA
ATOM     27  H   UNL     1     -45.083 -21.648  24.956  1.00  0.00     0.293 HD
ENDBRANCH   8  26
TORSDOF 6
ENDMDL
MODEL 5
REMARK VINA RESULT:    -8.017      5.270      8.257
REMARK INTER + INTRA:          -9.900
REMARK INTER:                  -9.572
REMARK INTRA:                  -0.328
REMARK UNBOUND:                -0.242
REMARK SMILES O=c1c(O)c(-c2ccc(O)cc2O)oc2cc(O)cc(O)c12
REMARK SMILES IDX 5 1 3 2 2 3 1 4 22 5 20 6 19 7 17 8 16 9 15 10 14 11 6 12
REMARK SMILES IDX 8 13 7 14 9 15 11 16 12 17 10 18 13 20 4 22 21 24 18 26
REMARK H PARENT 10 19 13 21 4 23 21 25 18 27
REMARK Flexibility Score: inf
ROOT
ATOM      1  C   UNL     1     -44.314 -22.196  32.142  1.00  0.00     0.184 A 
ATOM      2  C   UNL     1     -45.484 -22.766  32.665  1.00  0.00     0.208 A 
ATOM      3  C   UNL     1     -45.396 -23.975  33.371  1.00  0.00     0.238 A 
ATOM      4  O   UNL     1     -46.440 -24.450  33.890  1.00  0.00    -0.285 OA
ATOM      5  C   UNL     1     -44.140 -24.614  33.520  1.00  0.00     0.111 A 
ATOM      6  C   UNL     1     -43.937 -25.861  34.182  1.00  0.00     0.134 A 
ATOM      7  C   UNL     1     -42.635 -26.337  34.375  1.00  0.00     0.093 A 
ATOM      8  C   UNL     1     -41.531 -25.642  33.874  1.00  0.00     0.123 A 
ATOM      9  C   UNL     1     -41.723 -24.451  33.176  1.00  0.00     0.094 A 
ATOM     10  C   UNL     1     -43.007 -23.933  32.999  1.00  0.00     0.146 A 
ATOM     11  O   UNL     1     -43.143 -22.788  32.340  1.00  0.00    -0.451 OA
ENDROOT
BRANCH   1  12
ATOM     12  C   UNL     1     -44.351 -20.935  31.369  1.00  0.00     0.063 A 
ATOM     13  C   UNL     1     -44.006 -19.773  29.260  1.00  0.00     0.047 A 
ATOM     14  C   UNL     1     -44.033 -20.957  30.000  1.00  0.00     0.020 A 
ATOM     15  C   UNL     1     -44.286 -18.552  29.876  1.00  0.00     0.119 A 
ATOM     16  C   UNL     1     -44.602 -18.518  31.239  1.00  0.00     0.093 A 
ATOM     17  C   UNL     1     -44.644 -19.699  31.991  1.00  0.00     0.130 A 
BRANCH  15  18
ATOM     18  O   UNL     1     -44.250 -17.379  29.125  1.00  0.00    -0.508 OA
ATOM     19  H   UNL     1     -44.470 -17.376  28.136  1.00  0.00     0.293 HD
ENDBRANCH  15  18
BRANCH  17  20
ATOM     20  O   UNL     1     -45.000 -19.611  33.338  1.00  0.00    -0.507 OA
ATOM     21  H   UNL     1     -45.279 -18.745  33.780  1.00  0.00     0.293 HD
ENDBRANCH  17  20
ENDBRANCH   1  12
BRANCH   2  22
ATOM     22  O   UNL     1     -46.711 -22.115  32.500  1.00  0.00    -0.502 OA
ATOM     23  H   UNL     1     -46.813 -21.114  32.608  1.00  0.00     0.293 HD
ENDBRANCH   2  22
BRANCH   6  24
ATOM     24  O   UNL     1     -44.974 -26.680  34.640  1.00  0.00    -0.507 OA
ATOM     25  H   UNL     1     -45.537 -26.494  35.457  1.00  0.00     0.293 HD
ENDBRANCH   6  24
BRANCH   8  26
ATOM     26  O   UNL     1     -40.239 -26.131  34.057  1.00  0.00    -0.508 OA
ATOM     27  H   UNL     1     -39.425 -25.555  33.880  1.00  0.00     0.293 HD
ENDBRANCH   8  26
TORSDOF 6
ENDMDL
MODEL 6
REMARK VINA RESULT:    -7.992      6.950     11.181
REMARK INTER + INTRA:          -9.869
REMARK INTER:                  -9.524
REMARK INTRA:                  -0.346
REMARK UNBOUND:                -0.242
REMARK SMILES O=c1c(O)c(-c2ccc(O)cc2O)oc2cc(O)cc(O)c12
REMARK SMILES IDX 5 1 3 2 2 3 1 4 22 5 20 6 19 7 17 8 16 9 15 10 14 11 6 12
REMARK SMILES IDX 8 13 7 14 9 15 11 16 12 17 10 18 13 20 4 22 21 24 18 26
REMARK H PARENT 10 19 13 21 4 23 21 25 18 27
REMARK Flexibility Score: inf
ROOT
ATOM      1  C   UNL     1     -41.926 -24.577  33.143  1.00  0.00     0.184 A 
ATOM      2  C   UNL     1     -41.649 -23.645  32.132  1.00  0.00     0.208 A 
ATOM      3  C   UNL     1     -42.680 -22.811  31.674  1.00  0.00     0.238 A 
ATOM      4  O   UNL     1     -42.411 -21.936  30.810  1.00  0.00    -0.285 OA
ATOM      5  C   UNL     1     -43.983 -22.940  32.215  1.00  0.00     0.111 A 
ATOM      6  C   UNL     1     -45.114 -22.175  31.800  1.00  0.00     0.134 A 
ATOM      7  C   UNL     1     -46.325 -22.303  32.490  1.00  0.00     0.093 A 
ATOM      8  C   UNL     1     -46.465 -23.215  33.539  1.00  0.00     0.123 A 
ATOM      9  C   UNL     1     -45.383 -24.008  33.915  1.00  0.00     0.094 A 
ATOM     10  C   UNL     1     -44.151 -23.877  33.269  1.00  0.00     0.146 A 
ATOM     11  O   UNL     1     -43.143 -24.643  33.669  1.00  0.00    -0.451 OA
ENDROOT
BRANCH   1  12
ATOM     12  C   UNL     1     -40.884 -25.498  33.648  1.00  0.00     0.063 A 
ATOM     13  C   UNL     1     -39.365 -27.353  33.234  1.00  0.00     0.047 A 
ATOM     14  C   UNL     1     -40.310 -26.436  32.771  1.00  0.00     0.020 A 
ATOM     15  C   UNL     1     -38.986 -27.355  34.577  1.00  0.00     0.119 A 
ATOM     16  C   UNL     1     -39.552 -26.427  35.460  1.00  0.00     0.093 A 
ATOM     17  C   UNL     1     -40.492 -25.494  35.007  1.00  0.00     0.130 A 
BRANCH  15  18
ATOM     18  O   UNL     1     -38.045 -28.280  35.025  1.00  0.00    -0.508 OA
ATOM     19  H   UNL     1     -37.054 -28.066  35.035  1.00  0.00     0.293 HD
ENDBRANCH  15  18
BRANCH  17  20
ATOM     20  O   UNL     1     -40.997 -24.568  35.922  1.00  0.00    -0.507 OA
ATOM     21  H   UNL     1     -41.568 -24.831  36.715  1.00  0.00     0.293 HD
ENDBRANCH  17  20
ENDBRANCH   1  12
BRANCH   2  22
ATOM     22  O   UNL     1     -40.355 -23.542  31.614  1.00  0.00    -0.502 OA
ATOM     23  H   UNL     1     -40.169 -23.520  30.618  1.00  0.00     0.293 HD
ENDBRANCH   2  22
BRANCH   6  24
ATOM     24  O   UNL     1     -45.108 -21.303  30.707  1.00  0.00    -0.507 OA
ATOM     25  H   UNL     1     -44.326 -21.165  30.085  1.00  0.00     0.293 HD
ENDBRANCH   6  24
BRANCH   8  26
ATOM     26  O   UNL     1     -47.679 -23.346  34.210  1.00  0.00    -0.508 OA
ATOM     27  H   UNL     1     -47.818 -24.056  34.919  1.00  0.00     0.293 HD
ENDBRANCH   8  26
TORSDOF 6
ENDMDL
MODEL 7
REMARK VINA RESULT:    -7.923      1.848      6.658
REMARK INTER + INTRA:          -9.787
REMARK INTER:                  -9.442
REMARK INTRA:                  -0.345
REMARK UNBOUND:                -0.242
REMARK SMILES O=c1c(O)c(-c2ccc(O)cc2O)oc2cc(O)cc(O)c12
REMARK SMILES IDX 5 1 3 2 2 3 1 4 22 5 20 6 19 7 17 8 16 9 15 10 14 11 6 12
REMARK SMILES IDX 8 13 7 14 9 15 11 16 12 17 10 18 13 20 4 22 21 24 18 26
REMARK H PARENT 10 19 13 21 4 23 21 25 18 27
REMARK Flexibility Score: inf
ROOT
ATOM      1  C   UNL     1     -45.414 -18.191  32.121  1.00  0.00     0.184 A 
ATOM      2  C   UNL     1     -44.233 -17.643  32.644  1.00  0.00     0.208 A 
ATOM      3  C   UNL     1     -44.307 -16.466  33.404  1.00  0.00     0.238 A 
ATOM      4  O   UNL     1     -43.253 -16.013  33.922  1.00  0.00    -0.285 OA
ATOM      5  C   UNL     1     -45.560 -15.836  33.608  1.00  0.00     0.111 A 
ATOM      6  C   UNL     1     -45.749 -14.619  34.329  1.00  0.00     0.134 A 
ATOM      7  C   UNL     1     -47.048 -14.154  34.570  1.00  0.00     0.093 A 
ATOM      8  C   UNL     1     -48.161 -14.828  34.062  1.00  0.00     0.123 A 
ATOM      9  C   UNL     1     -47.984 -15.987  33.308  1.00  0.00     0.094 A 
ATOM     10  C   UNL     1     -46.703 -16.495  33.081  1.00  0.00     0.146 A 
ATOM     11  O   UNL     1     -46.581 -17.609  32.370  1.00  0.00    -0.451 OA
ENDROOT
BRANCH   1  12
ATOM     12  C   UNL     1     -45.393 -19.416  31.293  1.00  0.00     0.063 A 
ATOM     13  C   UNL     1     -45.711 -20.470  29.123  1.00  0.00     0.047 A 
ATOM     14  C   UNL     1     -45.670 -19.323  29.918  1.00  0.00     0.020 A 
ATOM     15  C   UNL     1     -45.486 -21.727  29.691  1.00  0.00     0.119 A 
ATOM     16  C   UNL     1     -45.211 -21.832  31.060  1.00  0.00     0.093 A 
ATOM     17  C   UNL     1     -45.156 -20.687  31.865  1.00  0.00     0.130 A 
BRANCH  15  18
ATOM     18  O   UNL     1     -45.536 -22.863  28.886  1.00  0.00    -0.508 OA
ATOM     19  H   UNL     1     -46.207 -23.603  29.055  1.00  0.00     0.293 HD
ENDBRANCH  15  18
BRANCH  17  20
ATOM     20  O   UNL     1     -44.842 -20.847  33.216  1.00  0.00    -0.507 OA
ATOM     21  H   UNL     1     -45.375 -20.419  33.962  1.00  0.00     0.293 HD
ENDBRANCH  17  20
ENDBRANCH   1  12
BRANCH   2  22
ATOM     22  O   UNL     1     -43.010 -18.283  32.424  1.00  0.00    -0.502 OA
ATOM     23  H   UNL     1     -42.130 -17.897  32.746  1.00  0.00     0.293 HD
ENDBRANCH   2  22
BRANCH   6  24
ATOM     24  O   UNL     1     -44.704 -13.820  34.800  1.00  0.00    -0.507 OA
ATOM     25  H   UNL     1     -44.798 -12.858  35.088  1.00  0.00     0.293 HD
ENDBRANCH   6  24
BRANCH   8  26
ATOM     26  O   UNL     1     -49.449 -14.350  34.294  1.00  0.00    -0.508 OA
ATOM     27  H   UNL     1     -49.628 -13.365  34.453  1.00  0.00     0.293 HD
ENDBRANCH   8  26
TORSDOF 6
ENDMDL
MODEL 8
REMARK VINA RESULT:    -7.873      3.116      5.416
REMARK INTER + INTRA:          -9.726
REMARK INTER:                  -9.482
REMARK INTRA:                  -0.244
REMARK UNBOUND:                -0.242
REMARK SMILES O=c1c(O)c(-c2ccc(O)cc2O)oc2cc(O)cc(O)c12
REMARK SMILES IDX 5 1 3 2 2 3 1 4 22 5 20 6 19 7 17 8 16 9 15 10 14 11 6 12
REMARK SMILES IDX 8 13 7 14 9 15 11 16 12 17 10 18 13 20 4 22 21 24 18 26
REMARK H PARENT 10 19 13 21 4 23 21 25 18 27
REMARK Flexibility Score: inf
ROOT
ATOM      1  C   UNL     1     -45.014 -19.065  30.331  1.00  0.00     0.184 A 
ATOM      2  C   UNL     1     -44.285 -20.176  30.781  1.00  0.00     0.208 A 
ATOM      3  C   UNL     1     -43.512 -20.902  29.862  1.00  0.00     0.238 A 
ATOM      4  O   UNL     1     -42.812 -21.860  30.282  1.00  0.00    -0.285 OA
ATOM      5  C   UNL     1     -43.502 -20.522  28.497  1.00  0.00     0.111 A 
ATOM      6  C   UNL     1     -42.786 -21.206  27.469  1.00  0.00     0.134 A 
ATOM      7  C   UNL     1     -42.751 -20.670  26.177  1.00  0.00     0.093 A 
ATOM      8  C   UNL     1     -43.458 -19.507  25.859  1.00  0.00     0.123 A 
ATOM      9  C   UNL     1     -44.206 -18.862  26.842  1.00  0.00     0.094 A 
ATOM     10  C   UNL     1     -44.231 -19.354  28.149  1.00  0.00     0.146 A 
ATOM     11  O   UNL     1     -44.946 -18.700  29.058  1.00  0.00    -0.451 OA
ENDROOT
BRANCH   1  12
ATOM     12  C   UNL     1     -45.864 -18.278  31.252  1.00  0.00     0.063 A 
ATOM     13  C   UNL     1     -48.064 -17.417  31.833  1.00  0.00     0.047 A 
ATOM     14  C   UNL     1     -47.247 -18.198  31.012  1.00  0.00     0.020 A 
ATOM     15  C   UNL     1     -47.512 -16.700  32.897  1.00  0.00     0.119 A 
ATOM     16  C   UNL     1     -46.136 -16.772  33.143  1.00  0.00     0.093 A 
ATOM     17  C   UNL     1     -45.307 -17.560  32.335  1.00  0.00     0.130 A 
BRANCH  15  18
ATOM     18  O   UNL     1     -48.339 -15.922  33.703  1.00  0.00    -0.508 OA
ATOM     19  H   UNL     1     -49.274 -16.224  33.951  1.00  0.00     0.293 HD
ENDBRANCH  15  18
BRANCH  17  20
ATOM     20  O   UNL     1     -43.948 -17.623  32.648  1.00  0.00    -0.507 OA
ATOM     21  H   UNL     1     -43.548 -17.182  33.466  1.00  0.00     0.293 HD
ENDBRANCH  17  20
ENDBRANCH   1  12
BRANCH   2  22
ATOM     22  O   UNL     1     -44.316 -20.531  32.134  1.00  0.00    -0.502 OA
ATOM     23  H   UNL     1     -43.536 -20.363  32.757  1.00  0.00     0.293 HD
ENDBRANCH   2  22
BRANCH   6  24
ATOM     24  O   UNL     1     -42.122 -22.422  27.657  1.00  0.00    -0.507 OA
ATOM     25  H   UNL     1     -42.262 -23.248  27.095  1.00  0.00     0.293 HD
ENDBRANCH   6  24
BRANCH   8  26
ATOM     26  O   UNL     1     -43.429 -18.988  24.566  1.00  0.00    -0.508 OA
ATOM     27  H   UNL     1     -42.720 -19.267  23.899  1.00  0.00     0.293 HD
ENDBRANCH   8  26
TORSDOF 6
ENDMDL
MODEL 9
REMARK VINA RESULT:    -7.587      6.253      8.060
REMARK INTER + INTRA:          -9.382
REMARK INTER:                  -8.975
REMARK INTRA:                  -0.407
REMARK UNBOUND:                -0.242
REMARK SMILES O=c1c(O)c(-c2ccc(O)cc2O)oc2cc(O)cc(O)c12
REMARK SMILES IDX 5 1 3 2 2 3 1 4 22 5 20 6 19 7 17 8 16 9 15 10 14 11 6 12
REMARK SMILES IDX 8 13 7 14 9 15 11 16 12 17 10 18 13 20 4 22 21 24 18 26
REMARK H PARENT 10 19 13 21 4 23 21 25 18 27
REMARK Flexibility Score: inf
ROOT
ATOM      1  C   UNL     1     -44.602 -21.577  30.749  1.00  0.00     0.184 A 
ATOM      2  C   UNL     1     -45.573 -21.875  31.718  1.00  0.00     0.208 A 
ATOM      3  C   UNL     1     -45.256 -22.779  32.744  1.00  0.00     0.238 A 
ATOM      4  O   UNL     1     -46.108 -22.995  33.644  1.00  0.00    -0.285 OA
ATOM      5  C   UNL     1     -43.980 -23.395  32.770  1.00  0.00     0.111 A 
ATOM      6  C   UNL     1     -43.562 -24.355  33.740  1.00  0.00     0.134 A 
ATOM      7  C   UNL     1     -42.237 -24.805  33.739  1.00  0.00     0.093 A 
ATOM      8  C   UNL     1     -41.330 -24.378  32.765  1.00  0.00     0.123 A 
ATOM      9  C   UNL     1     -41.744 -23.485  31.780  1.00  0.00     0.094 A 
ATOM     10  C   UNL     1     -43.050 -22.990  31.776  1.00  0.00     0.146 A 
ATOM     11  O   UNL     1     -43.398 -22.129  30.826  1.00  0.00    -0.451 OA
ENDROOT
BRANCH   1  12
ATOM     12  C   UNL     1     -44.889 -20.651  29.632  1.00  0.00     0.063 A 
ATOM     13  C   UNL     1     -45.935 -20.252  27.472  1.00  0.00     0.047 A 
ATOM     14  C   UNL     1     -45.694 -21.087  28.565  1.00  0.00     0.020 A 
ATOM     15  C   UNL     1     -45.370 -18.976  27.424  1.00  0.00     0.119 A 
ATOM     16  C   UNL     1     -44.566 -18.532  28.481  1.00  0.00     0.093 A 
ATOM     17  C   UNL     1     -44.326 -19.354  29.588  1.00  0.00     0.130 A 
BRANCH  15  18
ATOM     18  O   UNL     1     -45.616 -18.156  26.324  1.00  0.00    -0.508 OA
ATOM     19  H   UNL     1     -46.337 -18.379  25.648  1.00  0.00     0.293 HD
ENDBRANCH  15  18
BRANCH  17  20
ATOM     20  O   UNL     1     -43.546 -18.847  30.629  1.00  0.00    -0.507 OA
ATOM     21  H   UNL     1     -43.905 -18.690  31.562  1.00  0.00     0.293 HD
ENDBRANCH  17  20
ENDBRANCH   1  12
BRANCH   2  22
ATOM     22  O   UNL     1     -46.825 -21.255  31.665  1.00  0.00    -0.502 OA
ATOM     23  H   UNL     1     -46.933 -20.249  31.683  1.00  0.00     0.293 HD
ENDBRANCH   2  22
BRANCH   6  24
ATOM     24  O   UNL     1     -44.410 -24.915  34.699  1.00  0.00    -0.507 OA
ATOM     25  H   UNL     1     -45.023 -24.389  35.304  1.00  0.00     0.293 HD
ENDBRANCH   6  24
BRANCH   8  26
ATOM     26  O   UNL     1     -40.017 -24.844  32.763  1.00  0.00    -0.508 OA
ATOM     27  H   UNL     1     -39.678 -25.477  33.478  1.00  0.00     0.293 HD
ENDBRANCH   8  26
TORSDOF 6
ENDMDL
