MODEL 1
REMARK VINA RESULT:    -4.911      0.000      0.000
REMARK INTER + INTRA:         -14.459
REMARK INTER:                 -10.653
REMARK INTRA:                  -3.806
REMARK UNBOUND:                -3.806
REMARK SMILES CCCCCCCCCCCCCCCCCCCCCC(=O)[O-]
REMARK SMILES IDX 12 1 11 2 10 3 9 4 8 5 7 6 6 7 5 8 4 9 3 10 2 11 1 12 13 13
REMARK SMILES IDX 14 14 15 15 16 16 17 17 18 18 19 19 20 20 21 21 22 22 23 23
REMARK SMILES IDX 24 24
REMARK H PARENT
REMARK Flexibility Score: inf
ROOT
ATOM      1  C   UNL     1      19.334  22.748   6.132  1.00  0.00     0.000 C 
ENDROOT
BRANCH   1   2
ATOM      2  C   UNL     1      18.089  21.907   6.488  1.00  0.00     0.000 C 
BRANCH   2   3
ATOM      3  C   UNL     1      16.940  22.760   7.058  1.00  0.00     0.000 C 
BRANCH   3   4
ATOM      4  C   UNL     1      17.251  24.265   7.039  1.00  0.00    -0.000 C 
BRANCH   4   5
ATOM      5  C   UNL     1      17.239  24.890   8.444  1.00  0.00    -0.000 C 
BRANCH   5   6
ATOM      6  C   UNL     1      18.567  25.581   8.793  1.00  0.00    -0.000 C 
BRANCH   6   7
ATOM      7  C   UNL     1      19.255  24.964  10.024  1.00  0.00    -0.000 C 
BRANCH   7   8
ATOM      8  C   UNL     1      20.236  23.834   9.646  1.00  0.00    -0.000 C 
BRANCH   8   9
ATOM      9  C   UNL     1      19.701  22.419   9.937  1.00  0.00    -0.000 C 
BRANCH   9  10
ATOM     10  C   UNL     1      18.663  22.336  11.074  1.00  0.00    -0.000 C 
BRANCH  10  11
ATOM     11  C   UNL     1      17.277  21.819  10.648  1.00  0.00    -0.003 C 
ATOM     12  C   UNL     1      17.327  20.449   9.972  1.00  0.00     0.004 C 
ENDBRANCH  10  11
ENDBRANCH   9  10
ENDBRANCH   8   9
ENDBRANCH   7   8
ENDBRANCH   6   7
ENDBRANCH   5   6
ENDBRANCH   4   5
ENDBRANCH   3   4
ENDBRANCH   2   3
ENDBRANCH   1   2
BRANCH   1  13
ATOM     13  C   UNL     1      20.569  21.909   5.752  1.00  0.00     0.000 C 
BRANCH  13  14
ATOM     14  C   UNL     1      21.741  21.987   6.748  1.00  0.00     0.000 C 
BRANCH  14  15
ATOM     15  C   UNL     1      21.948  20.731   7.620  1.00  0.00     0.000 C 
BRANCH  15  16
ATOM     16  C   UNL     1      23.315  20.044   7.459  1.00  0.00     0.000 C 
BRANCH  16  17
ATOM     17  C   UNL     1      23.266  18.827   6.520  1.00  0.00     0.000 C 
BRANCH  17  18
ATOM     18  C   UNL     1      23.605  19.193   5.066  1.00  0.00     0.000 C 
BRANCH  18  19
ATOM     19  C   UNL     1      22.380  19.113   4.139  1.00  0.00     0.000 C 
BRANCH  19  20
ATOM     20  C   UNL     1      21.343  18.084   4.617  1.00  0.00     0.006 C 
BRANCH  20  21
ATOM     21  C   UNL     1      19.902  18.586   4.468  1.00  0.00     0.053 C 
BRANCH  21  22
ATOM     22  C   UNL     1      19.058  18.098   5.603  1.00  0.00     0.041 C 
ATOM     23  O   UNL     1      18.131  17.270   5.394  1.00  0.00    -0.550 OA
ATOM     24  O   UNL     1      19.262  18.596   6.885  1.00  0.00    -0.550 OA
ENDBRANCH  21  22
ENDBRANCH  20  21
ENDBRANCH  19  20
ENDBRANCH  18  19
ENDBRANCH  17  18
ENDBRANCH  16  17
ENDBRANCH  15  16
ENDBRANCH  14  15
ENDBRANCH  13  14
ENDBRANCH   1  13
TORSDOF 20
ENDMDL
MODEL 2
REMARK VINA RESULT:    -4.858      1.260      4.599
REMARK INTER + INTRA:         -14.344
REMARK INTER:                 -10.518
REMARK INTRA:                  -3.825
REMARK UNBOUND:                -3.806
REMARK SMILES CCCCCCCCCCCCCCCCCCCCCC(=O)[O-]
REMARK SMILES IDX 12 1 11 2 10 3 9 4 8 5 7 6 6 7 5 8 4 9 3 10 2 11 1 12 13 13
REMARK SMILES IDX 14 14 15 15 16 16 17 17 18 18 19 19 20 20 21 21 22 22 23 23
REMARK SMILES IDX 24 24
REMARK H PARENT
REMARK Flexibility Score: inf
ROOT
ATOM      1  C   UNL     1      19.815  24.978   9.865  1.00  0.00     0.000 C 
ENDROOT
BRANCH   1   2
ATOM      2  C   UNL     1      18.872  25.728   8.900  1.00  0.00     0.000 C 
BRANCH   2   3
ATOM      3  C   UNL     1      17.386  25.434   9.175  1.00  0.00     0.000 C 
BRANCH   3   4
ATOM      4  C   UNL     1      16.875  24.197   8.418  1.00  0.00    -0.000 C 
BRANCH   4   5
ATOM      5  C   UNL     1      17.256  24.217   6.927  1.00  0.00    -0.000 C 
BRANCH   5   6
ATOM      6  C   UNL     1      17.704  22.837   6.416  1.00  0.00    -0.000 C 
BRANCH   6   7
ATOM      7  C   UNL     1      19.221  22.755   6.174  1.00  0.00    -0.000 C 
BRANCH   7   8
ATOM      8  C   UNL     1      19.584  21.797   5.020  1.00  0.00    -0.000 C 
BRANCH   8   9
ATOM      9  C   UNL     1      21.034  21.280   5.071  1.00  0.00    -0.000 C 
BRANCH   9  10
ATOM     10  C   UNL     1      21.829  21.689   6.326  1.00  0.00    -0.000 C 
BRANCH  10  11
ATOM     11  C   UNL     1      22.153  20.535   7.292  1.00  0.00    -0.003 C 
ATOM     12  C   UNL     1      23.026  19.450   6.661  1.00  0.00     0.004 C 
ENDBRANCH  10  11
ENDBRANCH   9  10
ENDBRANCH   8   9
ENDBRANCH   7   8
ENDBRANCH   6   7
ENDBRANCH   5   6
ENDBRANCH   4   5
ENDBRANCH   3   4
ENDBRANCH   2   3
ENDBRANCH   1   2
BRANCH   1  13
ATOM     13  C   UNL     1      20.577  23.808   9.212  1.00  0.00     0.000 C 
BRANCH  13  14
ATOM     14  C   UNL     1      20.400  22.446   9.910  1.00  0.00     0.000 C 
BRANCH  14  15
ATOM     15  C   UNL     1      19.258  22.381  10.946  1.00  0.00     0.000 C 
BRANCH  15  16
ATOM     16  C   UNL     1      18.065  21.496  10.545  1.00  0.00     0.000 C 
BRANCH  16  17
ATOM     17  C   UNL     1      18.333  20.673   9.273  1.00  0.00     0.000 C 
BRANCH  17  18
ATOM     18  C   UNL     1      17.112  19.845   8.841  1.00  0.00     0.000 C 
BRANCH  18  19
ATOM     19  C   UNL     1      17.226  19.341   7.392  1.00  0.00     0.000 C 
BRANCH  19  20
ATOM     20  C   UNL     1      18.061  18.056   7.276  1.00  0.00     0.006 C 
BRANCH  20  21
ATOM     21  C   UNL     1      19.350  18.262   6.473  1.00  0.00     0.053 C 
BRANCH  21  22
ATOM     22  C   UNL     1      19.593  17.097   5.565  1.00  0.00     0.041 C 
ATOM     23  O   UNL     1      18.669  16.670   4.821  1.00  0.00    -0.550 OA
ATOM     24  O   UNL     1      20.823  16.450   5.577  1.00  0.00    -0.550 OA
ENDBRANCH  21  22
ENDBRANCH  20  21
ENDBRANCH  19  20
ENDBRANCH  18  19
ENDBRANCH  17  18
ENDBRANCH  16  17
ENDBRANCH  15  16
ENDBRANCH  14  15
ENDBRANCH  13  14
ENDBRANCH   1  13
TORSDOF 20
ENDMDL
MODEL 3
REMARK VINA RESULT:    -4.744      1.772      4.065
REMARK INTER + INTRA:         -14.097
REMARK INTER:                 -10.394
REMARK INTRA:                  -3.702
REMARK UNBOUND:                -3.806
REMARK SMILES CCCCCCCCCCCCCCCCCCCCCC(=O)[O-]
REMARK SMILES IDX 12 1 11 2 10 3 9 4 8 5 7 6 6 7 5 8 4 9 3 10 2 11 1 12 13 13
REMARK SMILES IDX 14 14 15 15 16 16 17 17 18 18 19 19 20 20 21 21 22 22 23 23
REMARK SMILES IDX 24 24
REMARK H PARENT
REMARK Flexibility Score: inf
ROOT
ATOM      1  C   UNL     1      21.657  21.861   8.474  1.00  0.00     0.000 C 
ENDROOT
BRANCH   1   2
ATOM      2  C   UNL     1      21.122  23.288   8.726  1.00  0.00     0.000 C 
BRANCH   2   3
ATOM      3  C   UNL     1      20.655  23.498  10.178  1.00  0.00     0.000 C 
BRANCH   3   4
ATOM      4  C   UNL     1      19.699  22.396  10.660  1.00  0.00    -0.000 C 
BRANCH   4   5
ATOM      5  C   UNL     1      18.249  22.889  10.801  1.00  0.00    -0.000 C 
BRANCH   5   6
ATOM      6  C   UNL     1      17.239  21.954  10.114  1.00  0.00    -0.000 C 
BRANCH   6   7
ATOM      7  C   UNL     1      17.664  21.564   8.687  1.00  0.00    -0.000 C 
BRANCH   7   8
ATOM      8  C   UNL     1      16.961  22.417   7.610  1.00  0.00    -0.000 C 
BRANCH   8   9
ATOM      9  C   UNL     1      17.760  23.662   7.182  1.00  0.00    -0.000 C 
BRANCH   9  10
ATOM     10  C   UNL     1      17.317  24.981   7.846  1.00  0.00    -0.000 C 
BRANCH  10  11
ATOM     11  C   UNL     1      18.457  25.810   8.465  1.00  0.00    -0.003 C 
ATOM     12  C   UNL     1      18.053  27.252   8.773  1.00  0.00     0.004 C 
ENDBRANCH  10  11
ENDBRANCH   9  10
ENDBRANCH   8   9
ENDBRANCH   7   8
ENDBRANCH   6   7
ENDBRANCH   5   6
ENDBRANCH   4   5
ENDBRANCH   3   4
ENDBRANCH   2   3
ENDBRANCH   1   2
BRANCH   1  13
ATOM     13  C   UNL     1      21.044  21.172   7.240  1.00  0.00     0.000 C 
BRANCH  13  14
ATOM     14  C   UNL     1      21.819  21.381   5.925  1.00  0.00     0.000 C 
BRANCH  14  15
ATOM     15  C   UNL     1      20.960  21.349   4.644  1.00  0.00     0.000 C 
BRANCH  15  16
ATOM     16  C   UNL     1      19.441  21.433   4.875  1.00  0.00     0.000 C 
BRANCH  16  17
ATOM     17  C   UNL     1      18.708  20.130   4.512  1.00  0.00     0.000 C 
BRANCH  17  18
ATOM     18  C   UNL     1      18.330  19.303   5.751  1.00  0.00     0.000 C 
BRANCH  18  19
ATOM     19  C   UNL     1      18.805  17.843   5.651  1.00  0.00     0.000 C 
BRANCH  19  20
ATOM     20  C   UNL     1      20.206  17.718   5.032  1.00  0.00     0.006 C 
BRANCH  20  21
ATOM     21  C   UNL     1      21.304  17.550   6.089  1.00  0.00     0.053 C 
BRANCH  21  22
ATOM     22  C   UNL     1      21.458  16.108   6.460  1.00  0.00     0.041 C 
ATOM     23  O   UNL     1      22.310  15.390   5.871  1.00  0.00    -0.550 OA
ATOM     24  O   UNL     1      20.627  15.544   7.420  1.00  0.00    -0.550 OA
ENDBRANCH  21  22
ENDBRANCH  20  21
ENDBRANCH  19  20
ENDBRANCH  18  19
ENDBRANCH  17  18
ENDBRANCH  16  17
ENDBRANCH  15  16
ENDBRANCH  14  15
ENDBRANCH  13  14
ENDBRANCH   1  13
TORSDOF 20
ENDMDL
MODEL 4
REMARK VINA RESULT:    -4.675      2.982      7.354
REMARK INTER + INTRA:         -13.947
REMARK INTER:                 -10.952
REMARK INTRA:                  -2.995
REMARK UNBOUND:                -3.806
REMARK SMILES CCCCCCCCCCCCCCCCCCCCCC(=O)[O-]
REMARK SMILES IDX 12 1 11 2 10 3 9 4 8 5 7 6 6 7 5 8 4 9 3 10 2 11 1 12 13 13
REMARK SMILES IDX 14 14 15 15 16 16 17 17 18 18 19 19 20 20 21 21 22 22 23 23
REMARK SMILES IDX 24 24
REMARK H PARENT
REMARK Flexibility Score: inf
ROOT
ATOM      1  C   UNL     1      21.388  23.121   8.402  1.00  0.00     0.000 C 
ENDROOT
BRANCH   1   2
ATOM      2  C   UNL     1      21.532  21.714   7.783  1.00  0.00     0.000 C 
BRANCH   2   3
ATOM      3  C   UNL     1      21.737  21.756   6.257  1.00  0.00     0.000 C 
BRANCH   3   4
ATOM      4  C   UNL     1      20.420  21.937   5.485  1.00  0.00    -0.000 C 
BRANCH   4   5
ATOM      5  C   UNL     1      20.435  21.236   4.116  1.00  0.00    -0.000 C 
BRANCH   5   6
ATOM      6  C   UNL     1      21.497  20.127   4.034  1.00  0.00    -0.000 C 
BRANCH   6   7
ATOM      7  C   UNL     1      20.889  18.715   4.110  1.00  0.00    -0.000 C 
BRANCH   7   8
ATOM      8  C   UNL     1      20.958  18.119   5.532  1.00  0.00    -0.000 C 
BRANCH   8   9
ATOM      9  C   UNL     1      22.392  17.862   6.031  1.00  0.00    -0.000 C 
BRANCH   9  10
ATOM     10  C   UNL     1      23.137  16.719   5.314  1.00  0.00    -0.000 C 
BRANCH  10  11
ATOM     11  C   UNL     1      24.427  17.141   4.588  1.00  0.00    -0.003 C 
ATOM     12  C   UNL     1      24.807  18.601   4.837  1.00  0.00     0.004 C 
ENDBRANCH  10  11
ENDBRANCH   9  10
ENDBRANCH   8   9
ENDBRANCH   7   8
ENDBRANCH   6   7
ENDBRANCH   5   6
ENDBRANCH   4   5
ENDBRANCH   3   4
ENDBRANCH   2   3
ENDBRANCH   1   2
BRANCH   1  13
ATOM     13  C   UNL     1      21.335  23.125   9.942  1.00  0.00     0.000 C 
BRANCH  13  14
ATOM     14  C   UNL     1      19.952  23.434  10.545  1.00  0.00     0.000 C 
BRANCH  14  15
ATOM     15  C   UNL     1      19.181  22.209  11.082  1.00  0.00     0.000 C 
BRANCH  15  16
ATOM     16  C   UNL     1      17.880  21.879  10.332  1.00  0.00     0.000 C 
BRANCH  16  17
ATOM     17  C   UNL     1      18.127  21.160   8.995  1.00  0.00     0.000 C 
BRANCH  17  18
ATOM     18  C   UNL     1      17.849  22.063   7.782  1.00  0.00     0.000 C 
BRANCH  18  19
ATOM     19  C   UNL     1      16.875  23.208   8.113  1.00  0.00     0.000 C 
BRANCH  19  20
ATOM     20  C   UNL     1      17.507  24.595   7.919  1.00  0.00     0.006 C 
BRANCH  20  21
ATOM     21  C   UNL     1      17.369  25.484   9.161  1.00  0.00     0.053 C 
BRANCH  21  22
ATOM     22  C   UNL     1      18.092  26.779   8.961  1.00  0.00     0.041 C 
ATOM     23  O   UNL     1      17.447  27.834   8.719  1.00  0.00    -0.550 OA
ATOM     24  O   UNL     1      19.481  26.812   8.992  1.00  0.00    -0.550 OA
ENDBRANCH  21  22
ENDBRANCH  20  21
ENDBRANCH  19  20
ENDBRANCH  18  19
ENDBRANCH  17  18
ENDBRANCH  16  17
ENDBRANCH  15  16
ENDBRANCH  14  15
ENDBRANCH  13  14
ENDBRANCH   1  13
TORSDOF 20
ENDMDL
MODEL 5
REMARK VINA RESULT:    -4.669      1.126      3.663
REMARK INTER + INTRA:         -13.935
REMARK INTER:                  -9.924
REMARK INTRA:                  -4.012
REMARK UNBOUND:                -3.806
REMARK SMILES CCCCCCCCCCCCCCCCCCCCCC(=O)[O-]
REMARK SMILES IDX 12 1 11 2 10 3 9 4 8 5 7 6 6 7 5 8 4 9 3 10 2 11 1 12 13 13
REMARK SMILES IDX 14 14 15 15 16 16 17 17 18 18 19 19 20 20 21 21 22 22 23 23
REMARK SMILES IDX 24 24
REMARK H PARENT
REMARK Flexibility Score: inf
ROOT
ATOM      1  C   UNL     1      19.299  23.367  11.008  1.00  0.00     0.000 C 
ENDROOT
BRANCH   1   2
ATOM      2  C   UNL     1      18.754  21.924  11.063  1.00  0.00     0.000 C 
BRANCH   2   3
ATOM      3  C   UNL     1      17.441  21.756  10.276  1.00  0.00     0.000 C 
BRANCH   3   4
ATOM      4  C   UNL     1      17.278  20.346   9.685  1.00  0.00    -0.000 C 
BRANCH   4   5
ATOM      5  C   UNL     1      17.225  20.351   8.148  1.00  0.00    -0.000 C 
BRANCH   5   6
ATOM      6  C   UNL     1      18.552  20.800   7.514  1.00  0.00    -0.000 C 
BRANCH   6   7
ATOM      7  C   UNL     1      18.352  21.763   6.331  1.00  0.00    -0.000 C 
BRANCH   7   8
ATOM      8  C   UNL     1      17.351  22.893   6.654  1.00  0.00    -0.000 C 
BRANCH   8   9
ATOM      9  C   UNL     1      17.984  24.098   7.377  1.00  0.00    -0.000 C 
BRANCH   9  10
ATOM     10  C   UNL     1      17.042  24.850   8.338  1.00  0.00    -0.000 C 
BRANCH  10  11
ATOM     11  C   UNL     1      17.716  25.950   9.177  1.00  0.00    -0.003 C 
ATOM     12  C   UNL     1      19.133  26.279   8.710  1.00  0.00     0.004 C 
ENDBRANCH  10  11
ENDBRANCH   9  10
ENDBRANCH   8   9
ENDBRANCH   7   8
ENDBRANCH   6   7
ENDBRANCH   5   6
ENDBRANCH   4   5
ENDBRANCH   3   4
ENDBRANCH   2   3
ENDBRANCH   1   2
BRANCH   1  13
ATOM     13  C   UNL     1      20.777  23.462  10.582  1.00  0.00     0.000 C 
BRANCH  13  14
ATOM     14  C   UNL     1      21.198  22.484   9.469  1.00  0.00     0.000 C 
BRANCH  14  15
ATOM     15  C   UNL     1      21.442  23.126   8.087  1.00  0.00     0.000 C 
BRANCH  15  16
ATOM     16  C   UNL     1      21.847  22.144   6.975  1.00  0.00     0.000 C 
BRANCH  16  17
ATOM     17  C   UNL     1      22.303  20.780   7.520  1.00  0.00     0.000 C 
BRANCH  17  18
ATOM     18  C   UNL     1      22.442  19.722   6.413  1.00  0.00     0.000 C 
BRANCH  18  19
ATOM     19  C   UNL     1      21.523  20.004   5.211  1.00  0.00     0.000 C 
BRANCH  19  20
ATOM     20  C   UNL     1      20.640  18.800   4.848  1.00  0.00     0.006 C 
BRANCH  20  21
ATOM     21  C   UNL     1      20.337  17.905   6.056  1.00  0.00     0.053 C 
BRANCH  21  22
ATOM     22  C   UNL     1      18.971  17.305   5.933  1.00  0.00     0.041 C 
ATOM     23  O   UNL     1      18.525  16.970   4.802  1.00  0.00    -0.550 OA
ATOM     24  O   UNL     1      18.171  17.162   7.060  1.00  0.00    -0.550 OA
ENDBRANCH  21  22
ENDBRANCH  20  21
ENDBRANCH  19  20
ENDBRANCH  18  19
ENDBRANCH  17  18
ENDBRANCH  16  17
ENDBRANCH  15  16
ENDBRANCH  14  15
ENDBRANCH  13  14
ENDBRANCH   1  13
TORSDOF 20
ENDMDL
MODEL 6
REMARK VINA RESULT:    -4.655      1.681      3.022
REMARK INTER + INTRA:         -13.903
REMARK INTER:                 -10.254
REMARK INTRA:                  -3.649
REMARK UNBOUND:                -3.806
REMARK SMILES CCCCCCCCCCCCCCCCCCCCCC(=O)[O-]
REMARK SMILES IDX 12 1 11 2 10 3 9 4 8 5 7 6 6 7 5 8 4 9 3 10 2 11 1 12 13 13
REMARK SMILES IDX 14 14 15 15 16 16 17 17 18 18 19 19 20 20 21 21 22 22 23 23
REMARK SMILES IDX 24 24
REMARK H PARENT
REMARK Flexibility Score: inf
ROOT
ATOM      1  C   UNL     1      19.445  22.654   6.182  1.00  0.00     0.000 C 
ENDROOT
BRANCH   1   2
ATOM      2  C   UNL     1      18.163  23.476   6.435  1.00  0.00     0.000 C 
BRANCH   2   3
ATOM      3  C   UNL     1      16.979  22.602   6.888  1.00  0.00     0.000 C 
BRANCH   3   4
ATOM      4  C   UNL     1      17.226  21.102   6.662  1.00  0.00    -0.000 C 
BRANCH   4   5
ATOM      5  C   UNL     1      17.292  20.308   7.978  1.00  0.00    -0.000 C 
BRANCH   5   6
ATOM      6  C   UNL     1      16.975  21.177   9.207  1.00  0.00    -0.000 C 
BRANCH   6   7
ATOM      7  C   UNL     1      18.112  21.180  10.244  1.00  0.00    -0.000 C 
BRANCH   7   8
ATOM      8  C   UNL     1      18.161  22.488  11.061  1.00  0.00    -0.000 C 
BRANCH   8   9
ATOM      9  C   UNL     1      17.988  23.761  10.211  1.00  0.00    -0.000 C 
BRANCH   9  10
ATOM     10  C   UNL     1      19.256  24.625  10.064  1.00  0.00    -0.000 C 
BRANCH  10  11
ATOM     11  C   UNL     1      19.088  25.879   9.188  1.00  0.00    -0.003 C 
ATOM     12  C   UNL     1      17.626  26.217   8.895  1.00  0.00     0.004 C 
ENDBRANCH  10  11
ENDBRANCH   9  10
ENDBRANCH   8   9
ENDBRANCH   7   8
ENDBRANCH   6   7
ENDBRANCH   5   6
ENDBRANCH   4   5
ENDBRANCH   3   4
ENDBRANCH   2   3
ENDBRANCH   1   2
BRANCH   1  13
ATOM     13  C   UNL     1      20.493  22.768   7.306  1.00  0.00     0.000 C 
BRANCH  13  14
ATOM     14  C   UNL     1      20.881  21.435   7.973  1.00  0.00     0.000 C 
BRANCH  14  15
ATOM     15  C   UNL     1      22.329  20.967   7.715  1.00  0.00     0.000 C 
BRANCH  15  16
ATOM     16  C   UNL     1      22.478  19.866   6.652  1.00  0.00     0.000 C 
BRANCH  16  17
ATOM     17  C   UNL     1      22.458  20.416   5.215  1.00  0.00     0.000 C 
BRANCH  17  18
ATOM     18  C   UNL     1      21.239  19.927   4.416  1.00  0.00     0.000 C 
BRANCH  18  19
ATOM     19  C   UNL     1      20.348  18.971   5.229  1.00  0.00     0.000 C 
BRANCH  19  20
ATOM     20  C   UNL     1      20.400  17.527   4.706  1.00  0.00     0.006 C 
BRANCH  20  21
ATOM     21  C   UNL     1      19.828  16.517   5.708  1.00  0.00     0.053 C 
BRANCH  21  22
ATOM     22  C   UNL     1      20.915  15.976   6.583  1.00  0.00     0.041 C 
ATOM     23  O   UNL     1      22.124  16.122   6.257  1.00  0.00    -0.550 OA
ATOM     24  O   UNL     1      20.593  15.268   7.735  1.00  0.00    -0.550 OA
ENDBRANCH  21  22
ENDBRANCH  20  21
ENDBRANCH  19  20
ENDBRANCH  18  19
ENDBRANCH  17  18
ENDBRANCH  16  17
ENDBRANCH  15  16
ENDBRANCH  14  15
ENDBRANCH  13  14
ENDBRANCH   1  13
TORSDOF 20
ENDMDL
MODEL 7
REMARK VINA RESULT:    -4.642      1.431      2.522
REMARK INTER + INTRA:         -13.875
REMARK INTER:                 -10.747
REMARK INTRA:                  -3.128
REMARK UNBOUND:                -3.806
REMARK SMILES CCCCCCCCCCCCCCCCCCCCCC(=O)[O-]
REMARK SMILES IDX 12 1 11 2 10 3 9 4 8 5 7 6 6 7 5 8 4 9 3 10 2 11 1 12 13 13
REMARK SMILES IDX 14 14 15 15 16 16 17 17 18 18 19 19 20 20 21 21 22 22 23 23
REMARK SMILES IDX 24 24
REMARK H PARENT
REMARK Flexibility Score: inf
ROOT
ATOM      1  C   UNL     1      21.328  22.397   7.250  1.00  0.00     0.000 C 
ENDROOT
BRANCH   1   2
ATOM      2  C   UNL     1      20.810  22.021   5.845  1.00  0.00     0.000 C 
BRANCH   2   3
ATOM      3  C   UNL     1      19.342  22.431   5.625  1.00  0.00     0.000 C 
BRANCH   3   4
ATOM      4  C   UNL     1      18.365  21.639   6.507  1.00  0.00    -0.000 C 
BRANCH   4   5
ATOM      5  C   UNL     1      17.088  22.431   6.835  1.00  0.00    -0.000 C 
BRANCH   5   6
ATOM      6  C   UNL     1      17.293  23.951   6.726  1.00  0.00    -0.000 C 
BRANCH   6   7
ATOM      7  C   UNL     1      17.485  24.626   8.095  1.00  0.00    -0.000 C 
BRANCH   7   8
ATOM      8  C   UNL     1      18.962  24.965   8.384  1.00  0.00    -0.000 C 
BRANCH   8   9
ATOM      9  C   UNL     1      19.442  24.523   9.780  1.00  0.00    -0.000 C 
BRANCH   9  10
ATOM     10  C   UNL     1      18.610  23.401  10.430  1.00  0.00    -0.000 C 
BRANCH  10  11
ATOM     11  C   UNL     1      19.162  21.979  10.218  1.00  0.00    -0.003 C 
ATOM     12  C   UNL     1      18.066  20.918  10.117  1.00  0.00     0.004 C 
ENDBRANCH  10  11
ENDBRANCH   9  10
ENDBRANCH   8   9
ENDBRANCH   7   8
ENDBRANCH   6   7
ENDBRANCH   5   6
ENDBRANCH   4   5
ENDBRANCH   3   4
ENDBRANCH   2   3
ENDBRANCH   1   2
BRANCH   1  13
ATOM     13  C   UNL     1      22.074  21.257   7.968  1.00  0.00     0.000 C 
BRANCH  13  14
ATOM     14  C   UNL     1      22.097  19.915   7.211  1.00  0.00     0.000 C 
BRANCH  14  15
ATOM     15  C   UNL     1      23.502  19.389   6.849  1.00  0.00     0.000 C 
BRANCH  15  16
ATOM     16  C   UNL     1      23.712  19.064   5.360  1.00  0.00     0.000 C 
BRANCH  16  17
ATOM     17  C   UNL     1      24.868  18.079   5.121  1.00  0.00     0.000 C 
BRANCH  17  18
ATOM     18  C   UNL     1      24.375  16.647   4.853  1.00  0.00     0.000 C 
BRANCH  18  19
ATOM     19  C   UNL     1      22.844  16.569   4.721  1.00  0.00     0.000 C 
BRANCH  19  20
ATOM     20  C   UNL     1      22.240  15.409   5.528  1.00  0.00     0.006 C 
BRANCH  20  21
ATOM     21  C   UNL     1      21.383  15.894   6.704  1.00  0.00     0.053 C 
BRANCH  21  22
ATOM     22  C   UNL     1      20.090  16.461   6.210  1.00  0.00     0.041 C 
ATOM     23  O   UNL     1      19.742  17.628   6.537  1.00  0.00    -0.550 OA
ATOM     24  O   UNL     1      19.243  15.684   5.429  1.00  0.00    -0.550 OA
ENDBRANCH  21  22
ENDBRANCH  20  21
ENDBRANCH  19  20
ENDBRANCH  18  19
ENDBRANCH  17  18
ENDBRANCH  16  17
ENDBRANCH  15  16
ENDBRANCH  14  15
ENDBRANCH  13  14
ENDBRANCH   1  13
TORSDOF 20
ENDMDL
MODEL 8
REMARK VINA RESULT:    -4.611      1.623      3.329
REMARK INTER + INTRA:         -13.809
REMARK INTER:                  -9.934
REMARK INTRA:                  -3.875
REMARK UNBOUND:                -3.806
REMARK SMILES CCCCCCCCCCCCCCCCCCCCCC(=O)[O-]
REMARK SMILES IDX 12 1 11 2 10 3 9 4 8 5 7 6 6 7 5 8 4 9 3 10 2 11 1 12 13 13
REMARK SMILES IDX 14 14 15 15 16 16 17 17 18 18 19 19 20 20 21 21 22 22 23 23
REMARK SMILES IDX 24 24
REMARK H PARENT
REMARK Flexibility Score: inf
ROOT
ATOM      1  C   UNL     1      21.846  21.803   8.228  1.00  0.00     0.000 C 
ENDROOT
BRANCH   1   2
ATOM      2  C   UNL     1      21.003  22.903   7.548  1.00  0.00     0.000 C 
BRANCH   2   3
ATOM      3  C   UNL     1      20.110  22.352   6.421  1.00  0.00     0.000 C 
BRANCH   3   4
ATOM      4  C   UNL     1      18.784  23.118   6.285  1.00  0.00    -0.000 C 
BRANCH   4   5
ATOM      5  C   UNL     1      17.556  22.226   6.538  1.00  0.00    -0.000 C 
BRANCH   5   6
ATOM      6  C   UNL     1      17.857  21.071   7.507  1.00  0.00    -0.000 C 
BRANCH   6   7
ATOM      7  C   UNL     1      17.384  21.359   8.943  1.00  0.00    -0.000 C 
BRANCH   7   8
ATOM      8  C   UNL     1      18.520  21.222   9.978  1.00  0.00    -0.000 C 
BRANCH   8   9
ATOM      9  C   UNL     1      18.994  22.564  10.566  1.00  0.00    -0.000 C 
BRANCH   9  10
ATOM     10  C   UNL     1      18.264  23.808  10.022  1.00  0.00    -0.000 C 
BRANCH  10  11
ATOM     11  C   UNL     1      19.089  25.107  10.050  1.00  0.00    -0.003 C 
ATOM     12  C   UNL     1      19.003  25.902   8.747  1.00  0.00     0.004 C 
ENDBRANCH  10  11
ENDBRANCH   9  10
ENDBRANCH   8   9
ENDBRANCH   7   8
ENDBRANCH   6   7
ENDBRANCH   5   6
ENDBRANCH   4   5
ENDBRANCH   3   4
ENDBRANCH   2   3
ENDBRANCH   1   2
BRANCH   1  13
ATOM     13  C   UNL     1      21.894  20.476   7.446  1.00  0.00     0.000 C 
BRANCH  13  14
ATOM     14  C   UNL     1      23.294  19.849   7.313  1.00  0.00     0.000 C 
BRANCH  14  15
ATOM     15  C   UNL     1      23.477  18.899   6.110  1.00  0.00     0.000 C 
BRANCH  15  16
ATOM     16  C   UNL     1      22.883  19.404   4.784  1.00  0.00     0.000 C 
BRANCH  16  17
ATOM     17  C   UNL     1      21.689  18.562   4.305  1.00  0.00     0.000 C 
BRANCH  17  18
ATOM     18  C   UNL     1      20.371  19.353   4.313  1.00  0.00     0.000 C 
BRANCH  18  19
ATOM     19  C   UNL     1      19.271  18.655   5.133  1.00  0.00     0.000 C 
BRANCH  19  20
ATOM     20  C   UNL     1      19.831  17.899   6.348  1.00  0.00     0.006 C 
BRANCH  20  21
ATOM     21  C   UNL     1      19.492  16.404   6.318  1.00  0.00     0.053 C 
BRANCH  21  22
ATOM     22  C   UNL     1      20.546  15.614   7.029  1.00  0.00     0.041 C 
ATOM     23  O   UNL     1      20.235  14.858   7.988  1.00  0.00    -0.550 OA
ATOM     24  O   UNL     1      21.880  15.751   6.665  1.00  0.00    -0.550 OA
ENDBRANCH  21  22
ENDBRANCH  20  21
ENDBRANCH  19  20
ENDBRANCH  18  19
ENDBRANCH  17  18
ENDBRANCH  16  17
ENDBRANCH  15  16
ENDBRANCH  14  15
ENDBRANCH  13  14
ENDBRANCH   1  13
TORSDOF 20
ENDMDL
