MODEL 1
REMARK VINA RESULT:    -5.681      0.000      0.000
REMARK INTER + INTRA:         -18.017
REMARK INTER:                 -14.315
REMARK INTRA:                  -3.701
REMARK UNBOUND:                -3.701
REMARK SMILES CCCCCCCCCCCCCCCCCCCCCCCCCCCC(=O)[O-]
REMARK SMILES IDX 15 1 16 2 17 3 18 4 19 5 20 6 21 7 22 8 23 9 24 10 25 11
REMARK SMILES IDX 26 12 27 13 28 14 29 15 30 16 14 17 13 18 12 19 11 20 10 21
REMARK SMILES IDX 9 22 8 23 7 24 6 25 5 26 4 27 3 28 2 29 1 30
REMARK H PARENT
REMARK Flexibility Score: inf
ROOT
ATOM      1  C   UNL     1      88.504 323.475 197.835  1.00  0.00     0.000 C 
ENDROOT
BRANCH   1   2
ATOM      2  C   UNL     1      89.327 324.640 198.412  1.00  0.00     0.000 C 
BRANCH   2   3
ATOM      3  C   UNL     1      88.853 326.045 197.995  1.00  0.00     0.000 C 
BRANCH   3   4
ATOM      4  C   UNL     1      88.025 326.069 196.691  1.00  0.00     0.000 C 
BRANCH   4   5
ATOM      5  C   UNL     1      88.820 326.635 195.500  1.00  0.00     0.000 C 
BRANCH   5   6
ATOM      6  C   UNL     1      87.915 327.012 194.316  1.00  0.00     0.000 C 
BRANCH   6   7
ATOM      7  C   UNL     1      86.520 326.369 194.415  1.00  0.00     0.000 C 
BRANCH   7   8
ATOM      8  C   UNL     1      86.334 325.194 193.440  1.00  0.00     0.000 C 
BRANCH   8   9
ATOM      9  C   UNL     1      86.428 323.798 194.084  1.00  0.00     0.000 C 
BRANCH   9  10
ATOM     10  C   UNL     1      87.867 323.255 194.125  1.00  0.00     0.000 C 
BRANCH  10  11
ATOM     11  C   UNL     1      88.736 323.786 192.966  1.00  0.00     0.000 C 
BRANCH  11  12
ATOM     12  C   UNL     1      88.686 322.921 191.690  1.00  0.00     0.006 C 
BRANCH  12  13
ATOM     13  C   UNL     1      88.047 323.626 190.475  1.00  0.00     0.053 C 
BRANCH  13  14
ATOM     14  C   UNL     1      88.809 323.398 189.201  1.00  0.00     0.041 C 
ATOM     15  O   UNL     1      89.719 324.192 188.841  1.00  0.00    -0.550 OA
ATOM     16  O   UNL     1      88.486 322.318 188.388  1.00  0.00    -0.550 OA
ENDBRANCH  13  14
ENDBRANCH  12  13
ENDBRANCH  11  12
ENDBRANCH  10  11
ENDBRANCH   9  10
ENDBRANCH   8   9
ENDBRANCH   7   8
ENDBRANCH   6   7
ENDBRANCH   5   6
ENDBRANCH   4   5
ENDBRANCH   3   4
ENDBRANCH   2   3
ENDBRANCH   1   2
BRANCH   1  17
ATOM     17  C   UNL     1      88.335 322.314 198.828  1.00  0.00     0.000 C 
BRANCH  17  18
ATOM     18  C   UNL     1      88.605 322.776 200.268  1.00  0.00     0.000 C 
BRANCH  18  19
ATOM     19  C   UNL     1      87.316 322.964 201.087  1.00  0.00     0.000 C 
BRANCH  19  20
ATOM     20  C   UNL     1      87.308 324.276 201.891  1.00  0.00     0.000 C 
BRANCH  20  21
ATOM     21  C   UNL     1      88.722 324.832 202.139  1.00  0.00     0.000 C 
BRANCH  21  22
ATOM     22  C   UNL     1      88.907 326.321 201.794  1.00  0.00    -0.000 C 
BRANCH  22  23
ATOM     23  C   UNL     1      89.909 327.027 202.724  1.00  0.00    -0.000 C 
BRANCH  23  24
ATOM     24  C   UNL     1      89.244 327.607 203.983  1.00  0.00    -0.000 C 
BRANCH  24  25
ATOM     25  C   UNL     1      89.960 327.197 205.280  1.00  0.00    -0.000 C 
BRANCH  25  26
ATOM     26  C   UNL     1      88.955 326.706 206.333  1.00  0.00    -0.000 C 
BRANCH  26  27
ATOM     27  C   UNL     1      87.778 325.931 205.703  1.00  0.00    -0.000 C 
BRANCH  27  28
ATOM     28  C   UNL     1      87.998 324.410 205.651  1.00  0.00    -0.000 C 
BRANCH  28  29
ATOM     29  C   UNL     1      86.695 323.623 205.458  1.00  0.00    -0.003 C 
ATOM     30  C   UNL     1      86.980 322.190 205.016  1.00  0.00     0.004 C 
ENDBRANCH  28  29
ENDBRANCH  27  28
ENDBRANCH  26  27
ENDBRANCH  25  26
ENDBRANCH  24  25
ENDBRANCH  23  24
ENDBRANCH  22  23
ENDBRANCH  21  22
ENDBRANCH  20  21
ENDBRANCH  19  20
ENDBRANCH  18  19
ENDBRANCH  17  18
ENDBRANCH   1  17
TORSDOF 26
ENDMDL
MODEL 2
REMARK VINA RESULT:    -5.680      1.494      3.230
REMARK INTER + INTRA:         -18.014
REMARK INTER:                 -15.554
REMARK INTRA:                  -2.460
REMARK UNBOUND:                -3.701
REMARK SMILES CCCCCCCCCCCCCCCCCCCCCCCCCCCC(=O)[O-]
REMARK SMILES IDX 15 1 16 2 17 3 18 4 19 5 20 6 21 7 22 8 23 9 24 10 25 11
REMARK SMILES IDX 26 12 27 13 28 14 29 15 30 16 14 17 13 18 12 19 11 20 10 21
REMARK SMILES IDX 9 22 8 23 7 24 6 25 5 26 4 27 3 28 2 29 1 30
REMARK H PARENT
REMARK Flexibility Score: inf
ROOT
ATOM      1  C   UNL     1      89.113 325.007 198.387  1.00  0.00     0.000 C 
ENDROOT
BRANCH   1   2
ATOM      2  C   UNL     1      88.794 326.418 197.863  1.00  0.00     0.000 C 
BRANCH   2   3
ATOM      3  C   UNL     1      88.453 326.496 196.363  1.00  0.00     0.000 C 
BRANCH   3   4
ATOM      4  C   UNL     1      86.940 326.434 196.057  1.00  0.00     0.000 C 
BRANCH   4   5
ATOM      5  C   UNL     1      86.646 326.398 194.547  1.00  0.00     0.000 C 
BRANCH   5   6
ATOM      6  C   UNL     1      87.900 326.665 193.698  1.00  0.00     0.000 C 
BRANCH   6   7
ATOM      7  C   UNL     1      88.269 325.467 192.804  1.00  0.00     0.000 C 
BRANCH   7   8
ATOM      8  C   UNL     1      87.065 324.562 192.491  1.00  0.00     0.000 C 
BRANCH   8   9
ATOM      9  C   UNL     1      87.204 323.721 191.209  1.00  0.00     0.000 C 
BRANCH   9  10
ATOM     10  C   UNL     1      88.603 323.825 190.576  1.00  0.00     0.000 C 
BRANCH  10  11
ATOM     11  C   UNL     1      88.591 323.541 189.060  1.00  0.00     0.000 C 
BRANCH  11  12
ATOM     12  C   UNL     1      89.235 322.196 188.663  1.00  0.00     0.006 C 
BRANCH  12  13
ATOM     13  C   UNL     1      88.306 321.268 187.852  1.00  0.00     0.053 C 
BRANCH  13  14
ATOM     14  C   UNL     1      86.861 321.405 188.240  1.00  0.00     0.041 C 
ATOM     15  O   UNL     1      86.064 322.083 187.538  1.00  0.00    -0.550 OA
ATOM     16  O   UNL     1      86.402 320.805 189.407  1.00  0.00    -0.550 OA
ENDBRANCH  13  14
ENDBRANCH  12  13
ENDBRANCH  11  12
ENDBRANCH  10  11
ENDBRANCH   9  10
ENDBRANCH   8   9
ENDBRANCH   7   8
ENDBRANCH   6   7
ENDBRANCH   5   6
ENDBRANCH   4   5
ENDBRANCH   3   4
ENDBRANCH   2   3
ENDBRANCH   1   2
BRANCH   1  17
ATOM     17  C   UNL     1      89.500 324.996 199.874  1.00  0.00     0.000 C 
BRANCH  17  18
ATOM     18  C   UNL     1      89.632 326.426 200.421  1.00  0.00     0.000 C 
BRANCH  18  19
ATOM     19  C   UNL     1      88.814 326.652 201.704  1.00  0.00     0.000 C 
BRANCH  19  20
ATOM     20  C   UNL     1      89.680 326.616 202.976  1.00  0.00     0.000 C 
BRANCH  20  21
ATOM     21  C   UNL     1      89.120 327.502 204.104  1.00  0.00     0.000 C 
BRANCH  21  22
ATOM     22  C   UNL     1      89.705 327.227 205.501  1.00  0.00    -0.000 C 
BRANCH  22  23
ATOM     23  C   UNL     1      89.091 325.986 206.169  1.00  0.00    -0.000 C 
BRANCH  23  24
ATOM     24  C   UNL     1      87.553 325.987 206.127  1.00  0.00    -0.000 C 
BRANCH  24  25
ATOM     25  C   UNL     1      86.968 324.655 205.632  1.00  0.00    -0.000 C 
BRANCH  25  26
ATOM     26  C   UNL     1      87.890 324.001 204.591  1.00  0.00    -0.000 C 
BRANCH  26  27
ATOM     27  C   UNL     1      87.127 323.045 203.650  1.00  0.00    -0.000 C 
BRANCH  27  28
ATOM     28  C   UNL     1      86.467 323.752 202.454  1.00  0.00    -0.000 C 
BRANCH  28  29
ATOM     29  C   UNL     1      86.209 322.810 201.271  1.00  0.00    -0.003 C 
ATOM     30  C   UNL     1      87.461 322.010 200.924  1.00  0.00     0.004 C 
ENDBRANCH  28  29
ENDBRANCH  27  28
ENDBRANCH  26  27
ENDBRANCH  25  26
ENDBRANCH  24  25
ENDBRANCH  23  24
ENDBRANCH  22  23
ENDBRANCH  21  22
ENDBRANCH  20  21
ENDBRANCH  19  20
ENDBRANCH  18  19
ENDBRANCH  17  18
ENDBRANCH   1  17
TORSDOF 26
ENDMDL
MODEL 3
REMARK VINA RESULT:    -5.647      4.248     11.499
REMARK INTER + INTRA:         -17.932
REMARK INTER:                 -14.951
REMARK INTRA:                  -2.981
REMARK UNBOUND:                -3.701
REMARK SMILES CCCCCCCCCCCCCCCCCCCCCCCCCCCC(=O)[O-]
REMARK SMILES IDX 15 1 16 2 17 3 18 4 19 5 20 6 21 7 22 8 23 9 24 10 25 11
REMARK SMILES IDX 26 12 27 13 28 14 29 15 30 16 14 17 13 18 12 19 11 20 10 21
REMARK SMILES IDX 9 22 8 23 7 24 6 25 5 26 4 27 3 28 2 29 1 30
REMARK H PARENT
REMARK Flexibility Score: inf
ROOT
ATOM      1  C   UNL     1      89.998 324.543 199.456  1.00  0.00     0.000 C 
ENDROOT
BRANCH   1   2
ATOM      2  C   UNL     1      88.896 325.065 200.395  1.00  0.00     0.000 C 
BRANCH   2   3
ATOM      3  C   UNL     1      89.234 326.375 201.132  1.00  0.00     0.000 C 
BRANCH   3   4
ATOM      4  C   UNL     1      90.605 326.977 200.751  1.00  0.00     0.000 C 
BRANCH   4   5
ATOM      5  C   UNL     1      91.502 327.220 201.978  1.00  0.00     0.000 C 
BRANCH   5   6
ATOM      6  C   UNL     1      90.690 327.464 203.260  1.00  0.00     0.000 C 
BRANCH   6   7
ATOM      7  C   UNL     1      91.587 327.648 204.498  1.00  0.00     0.000 C 
BRANCH   7   8
ATOM      8  C   UNL     1      90.815 327.506 205.821  1.00  0.00     0.000 C 
BRANCH   8   9
ATOM      9  C   UNL     1      89.283 327.445 205.673  1.00  0.00     0.000 C 
BRANCH   9  10
ATOM     10  C   UNL     1      88.632 326.427 206.625  1.00  0.00     0.000 C 
BRANCH  10  11
ATOM     11  C   UNL     1      87.513 325.610 205.946  1.00  0.00     0.000 C 
BRANCH  11  12
ATOM     12  C   UNL     1      88.013 324.625 204.869  1.00  0.00     0.006 C 
BRANCH  12  13
ATOM     13  C   UNL     1      89.147 323.693 205.346  1.00  0.00     0.053 C 
BRANCH  13  14
ATOM     14  C   UNL     1      90.451 323.957 204.649  1.00  0.00     0.041 C 
ATOM     15  O   UNL     1      90.520 323.981 203.392  1.00  0.00    -0.550 OA
ATOM     16  O   UNL     1      91.607 324.144 205.398  1.00  0.00    -0.550 OA
ENDBRANCH  13  14
ENDBRANCH  12  13
ENDBRANCH  11  12
ENDBRANCH  10  11
ENDBRANCH   9  10
ENDBRANCH   8   9
ENDBRANCH   7   8
ENDBRANCH   6   7
ENDBRANCH   5   6
ENDBRANCH   4   5
ENDBRANCH   3   4
ENDBRANCH   2   3
ENDBRANCH   1   2
BRANCH   1  17
ATOM     17  C   UNL     1      89.493 323.461 198.488  1.00  0.00     0.000 C 
BRANCH  17  18
ATOM     18  C   UNL     1      88.494 324.046 197.478  1.00  0.00     0.000 C 
BRANCH  18  19
ATOM     19  C   UNL     1      89.101 325.169 196.620  1.00  0.00     0.000 C 
BRANCH  19  20
ATOM     20  C   UNL     1      88.352 326.505 196.771  1.00  0.00     0.000 C 
BRANCH  20  21
ATOM     21  C   UNL     1      86.968 326.492 196.095  1.00  0.00     0.000 C 
BRANCH  21  22
ATOM     22  C   UNL     1      86.960 326.929 194.619  1.00  0.00    -0.000 C 
BRANCH  22  23
ATOM     23  C   UNL     1      86.747 325.752 193.652  1.00  0.00    -0.000 C 
BRANCH  23  24
ATOM     24  C   UNL     1      88.027 325.366 192.892  1.00  0.00    -0.000 C 
BRANCH  24  25
ATOM     25  C   UNL     1      88.466 323.917 193.158  1.00  0.00    -0.000 C 
BRANCH  25  26
ATOM     26  C   UNL     1      88.785 323.188 191.843  1.00  0.00    -0.000 C 
BRANCH  26  27
ATOM     27  C   UNL     1      88.704 324.125 190.619  1.00  0.00    -0.000 C 
BRANCH  27  28
ATOM     28  C   UNL     1      88.442 323.389 189.295  1.00  0.00    -0.000 C 
BRANCH  28  29
ATOM     29  C   UNL     1      87.300 322.369 189.393  1.00  0.00    -0.003 C 
ATOM     30  C   UNL     1      86.725 322.055 188.015  1.00  0.00     0.004 C 
ENDBRANCH  28  29
ENDBRANCH  27  28
ENDBRANCH  26  27
ENDBRANCH  25  26
ENDBRANCH  24  25
ENDBRANCH  23  24
ENDBRANCH  22  23
ENDBRANCH  21  22
ENDBRANCH  20  21
ENDBRANCH  19  20
ENDBRANCH  18  19
ENDBRANCH  17  18
ENDBRANCH   1  17
TORSDOF 26
ENDMDL
MODEL 4
REMARK VINA RESULT:    -5.629      1.247      3.109
REMARK INTER + INTRA:         -17.885
REMARK INTER:                 -15.310
REMARK INTRA:                  -2.575
REMARK UNBOUND:                -3.701
REMARK SMILES CCCCCCCCCCCCCCCCCCCCCCCCCCCC(=O)[O-]
REMARK SMILES IDX 15 1 16 2 17 3 18 4 19 5 20 6 21 7 22 8 23 9 24 10 25 11
REMARK SMILES IDX 26 12 27 13 28 14 29 15 30 16 14 17 13 18 12 19 11 20 10 21
REMARK SMILES IDX 9 22 8 23 7 24 6 25 5 26 4 27 3 28 2 29 1 30
REMARK H PARENT
REMARK Flexibility Score: inf
ROOT
ATOM      1  C   UNL     1      89.175 326.396 199.072  1.00  0.00     0.000 C 
ENDROOT
BRANCH   1   2
ATOM      2  C   UNL     1      89.257 325.021 198.385  1.00  0.00     0.000 C 
BRANCH   2   3
ATOM      3  C   UNL     1      88.668 324.966 196.962  1.00  0.00     0.000 C 
BRANCH   3   4
ATOM      4  C   UNL     1      87.992 326.279 196.510  1.00  0.00     0.000 C 
BRANCH   4   5
ATOM      5  C   UNL     1      88.593 326.831 195.204  1.00  0.00     0.000 C 
BRANCH   5   6
ATOM      6  C   UNL     1      87.531 327.052 194.116  1.00  0.00     0.000 C 
BRANCH   6   7
ATOM      7  C   UNL     1      86.310 326.132 194.290  1.00  0.00     0.000 C 
BRANCH   7   8
ATOM      8  C   UNL     1      86.229 325.037 193.213  1.00  0.00     0.000 C 
BRANCH   8   9
ATOM      9  C   UNL     1      87.104 323.800 193.480  1.00  0.00     0.000 C 
BRANCH   9  10
ATOM     10  C   UNL     1      88.495 323.901 192.829  1.00  0.00     0.000 C 
BRANCH  10  11
ATOM     11  C   UNL     1      88.457 324.589 191.449  1.00  0.00     0.000 C 
BRANCH  11  12
ATOM     12  C   UNL     1      88.366 323.614 190.258  1.00  0.00     0.006 C 
BRANCH  12  13
ATOM     13  C   UNL     1      89.281 323.982 189.071  1.00  0.00     0.053 C 
BRANCH  13  14
ATOM     14  C   UNL     1      90.338 322.947 188.807  1.00  0.00     0.041 C 
ATOM     15  O   UNL     1      90.299 321.823 189.374  1.00  0.00    -0.550 OA
ATOM     16  O   UNL     1      91.393 323.243 187.952  1.00  0.00    -0.550 OA
ENDBRANCH  13  14
ENDBRANCH  12  13
ENDBRANCH  11  12
ENDBRANCH  10  11
ENDBRANCH   9  10
ENDBRANCH   8   9
ENDBRANCH   7   8
ENDBRANCH   6   7
ENDBRANCH   5   6
ENDBRANCH   4   5
ENDBRANCH   3   4
ENDBRANCH   2   3
ENDBRANCH   1   2
BRANCH   1  17
ATOM     17  C   UNL     1      89.255 326.303 200.604  1.00  0.00     0.000 C 
BRANCH  17  18
ATOM     18  C   UNL     1      90.625 325.772 201.054  1.00  0.00     0.000 C 
BRANCH  18  19
ATOM     19  C   UNL     1      91.403 326.781 201.915  1.00  0.00     0.000 C 
BRANCH  19  20
ATOM     20  C   UNL     1      91.116 326.628 203.419  1.00  0.00     0.000 C 
BRANCH  20  21
ATOM     21  C   UNL     1      90.389 327.848 204.014  1.00  0.00     0.000 C 
BRANCH  21  22
ATOM     22  C   UNL     1      89.220 327.514 204.959  1.00  0.00    -0.000 C 
BRANCH  22  23
ATOM     23  C   UNL     1      89.102 326.008 205.248  1.00  0.00    -0.000 C 
BRANCH  23  24
ATOM     24  C   UNL     1      87.814 325.646 206.007  1.00  0.00    -0.000 C 
BRANCH  24  25
ATOM     25  C   UNL     1      87.013 324.526 205.324  1.00  0.00    -0.000 C 
BRANCH  25  26
ATOM     26  C   UNL     1      87.510 324.290 203.889  1.00  0.00    -0.000 C 
BRANCH  26  27
ATOM     27  C   UNL     1      86.894 323.024 203.256  1.00  0.00    -0.000 C 
BRANCH  27  28
ATOM     28  C   UNL     1      86.221 323.278 201.897  1.00  0.00    -0.000 C 
BRANCH  28  29
ATOM     29  C   UNL     1      86.371 322.100 200.926  1.00  0.00    -0.003 C 
ATOM     30  C   UNL     1      87.515 322.340 199.945  1.00  0.00     0.004 C 
ENDBRANCH  28  29
ENDBRANCH  27  28
ENDBRANCH  26  27
ENDBRANCH  25  26
ENDBRANCH  24  25
ENDBRANCH  23  24
ENDBRANCH  22  23
ENDBRANCH  21  22
ENDBRANCH  20  21
ENDBRANCH  19  20
ENDBRANCH  18  19
ENDBRANCH  17  18
ENDBRANCH   1  17
TORSDOF 26
ENDMDL
MODEL 5
REMARK VINA RESULT:    -5.622      1.067      3.128
REMARK INTER + INTRA:         -17.870
REMARK INTER:                 -14.756
REMARK INTRA:                  -3.114
REMARK UNBOUND:                -3.701
REMARK SMILES CCCCCCCCCCCCCCCCCCCCCCCCCCCC(=O)[O-]
REMARK SMILES IDX 15 1 16 2 17 3 18 4 19 5 20 6 21 7 22 8 23 9 24 10 25 11
REMARK SMILES IDX 26 12 27 13 28 14 29 15 30 16 14 17 13 18 12 19 11 20 10 21
REMARK SMILES IDX 9 22 8 23 7 24 6 25 5 26 4 27 3 28 2 29 1 30
REMARK H PARENT
REMARK Flexibility Score: inf
ROOT
ATOM      1  C   UNL     1      87.349 322.062 199.778  1.00  0.00     0.000 C 
ENDROOT
BRANCH   1   2
ATOM      2  C   UNL     1      88.332 323.109 199.225  1.00  0.00     0.000 C 
BRANCH   2   3
ATOM      3  C   UNL     1      88.690 322.946 197.736  1.00  0.00     0.000 C 
BRANCH   3   4
ATOM      4  C   UNL     1      89.228 324.234 197.073  1.00  0.00     0.000 C 
BRANCH   4   5
ATOM      5  C   UNL     1      88.707 325.510 197.759  1.00  0.00     0.000 C 
BRANCH   5   6
ATOM      6  C   UNL     1      88.413 326.637 196.755  1.00  0.00     0.000 C 
BRANCH   6   7
ATOM      7  C   UNL     1      87.003 326.529 196.148  1.00  0.00     0.000 C 
BRANCH   7   8
ATOM      8  C   UNL     1      86.948 326.989 194.681  1.00  0.00     0.000 C 
BRANCH   8   9
ATOM      9  C   UNL     1      88.155 326.565 193.825  1.00  0.00     0.000 C 
BRANCH   9  10
ATOM     10  C   UNL     1      87.816 325.440 192.831  1.00  0.00     0.000 C 
BRANCH  10  11
ATOM     11  C   UNL     1      88.577 324.133 193.132  1.00  0.00     0.000 C 
BRANCH  11  12
ATOM     12  C   UNL     1      88.766 323.214 191.908  1.00  0.00     0.006 C 
BRANCH  12  13
ATOM     13  C   UNL     1      88.321 323.846 190.572  1.00  0.00     0.053 C 
BRANCH  13  14
ATOM     14  C   UNL     1      89.149 323.386 189.405  1.00  0.00     0.041 C 
ATOM     15  O   UNL     1      89.108 322.190 189.014  1.00  0.00    -0.550 OA
ATOM     16  O   UNL     1      89.999 324.283 188.768  1.00  0.00    -0.550 OA
ENDBRANCH  13  14
ENDBRANCH  12  13
ENDBRANCH  11  12
ENDBRANCH  10  11
ENDBRANCH   9  10
ENDBRANCH   8   9
ENDBRANCH   7   8
ENDBRANCH   6   7
ENDBRANCH   5   6
ENDBRANCH   4   5
ENDBRANCH   3   4
ENDBRANCH   2   3
ENDBRANCH   1   2
BRANCH   1  17
ATOM     17  C   UNL     1      86.474 322.609 200.918  1.00  0.00     0.000 C 
BRANCH  17  18
ATOM     18  C   UNL     1      87.254 323.612 201.781  1.00  0.00     0.000 C 
BRANCH  18  19
ATOM     19  C   UNL     1      86.839 323.576 203.261  1.00  0.00     0.000 C 
BRANCH  19  20
ATOM     20  C   UNL     1      87.943 323.020 204.177  1.00  0.00     0.000 C 
BRANCH  20  21
ATOM     21  C   UNL     1      88.081 323.810 205.492  1.00  0.00     0.000 C 
BRANCH  21  22
ATOM     22  C   UNL     1      87.110 324.995 205.645  1.00  0.00    -0.000 C 
BRANCH  22  23
ATOM     23  C   UNL     1      87.724 326.168 206.428  1.00  0.00    -0.000 C 
BRANCH  23  24
ATOM     24  C   UNL     1      89.248 326.268 206.253  1.00  0.00    -0.000 C 
BRANCH  24  25
ATOM     25  C   UNL     1      89.681 327.532 205.494  1.00  0.00    -0.000 C 
BRANCH  25  26
ATOM     26  C   UNL     1      89.119 327.535 204.064  1.00  0.00    -0.000 C 
BRANCH  26  27
ATOM     27  C   UNL     1      89.770 326.453 203.176  1.00  0.00    -0.000 C 
BRANCH  27  28
ATOM     28  C   UNL     1      89.460 326.615 201.678  1.00  0.00    -0.000 C 
BRANCH  28  29
ATOM     29  C   UNL     1      90.722 326.638 200.806  1.00  0.00    -0.003 C 
ATOM     30  C   UNL     1      91.131 325.227 200.396  1.00  0.00     0.004 C 
ENDBRANCH  28  29
ENDBRANCH  27  28
ENDBRANCH  26  27
ENDBRANCH  25  26
ENDBRANCH  24  25
ENDBRANCH  23  24
ENDBRANCH  22  23
ENDBRANCH  21  22
ENDBRANCH  20  21
ENDBRANCH  19  20
ENDBRANCH  18  19
ENDBRANCH  17  18
ENDBRANCH   1  17
TORSDOF 26
ENDMDL
MODEL 6
REMARK VINA RESULT:    -5.619      1.326      3.026
REMARK INTER + INTRA:         -17.862
REMARK INTER:                 -15.085
REMARK INTRA:                  -2.777
REMARK UNBOUND:                -3.701
REMARK SMILES CCCCCCCCCCCCCCCCCCCCCCCCCCCC(=O)[O-]
REMARK SMILES IDX 15 1 16 2 17 3 18 4 19 5 20 6 21 7 22 8 23 9 24 10 25 11
REMARK SMILES IDX 26 12 27 13 28 14 29 15 30 16 14 17 13 18 12 19 11 20 10 21
REMARK SMILES IDX 9 22 8 23 7 24 6 25 5 26 4 27 3 28 2 29 1 30
REMARK H PARENT
REMARK Flexibility Score: inf
ROOT
ATOM      1  C   UNL     1      89.916 326.057 200.365  1.00  0.00     0.000 C 
ENDROOT
BRANCH   1   2
ATOM      2  C   UNL     1      89.296 326.143 198.959  1.00  0.00     0.000 C 
BRANCH   2   3
ATOM      3  C   UNL     1      88.928 324.789 198.323  1.00  0.00     0.000 C 
BRANCH   3   4
ATOM      4  C   UNL     1      88.924 324.800 196.779  1.00  0.00     0.000 C 
BRANCH   4   5
ATOM      5  C   UNL     1      87.925 325.818 196.201  1.00  0.00     0.000 C 
BRANCH   5   6
ATOM      6  C   UNL     1      88.615 326.903 195.357  1.00  0.00     0.000 C 
BRANCH   6   7
ATOM      7  C   UNL     1      88.095 326.940 193.909  1.00  0.00     0.000 C 
BRANCH   7   8
ATOM      8  C   UNL     1      86.753 326.208 193.738  1.00  0.00     0.000 C 
BRANCH   8   9
ATOM      9  C   UNL     1      86.815 324.937 192.871  1.00  0.00     0.000 C 
BRANCH   9  10
ATOM     10  C   UNL     1      88.255 324.520 192.525  1.00  0.00     0.000 C 
BRANCH  10  11
ATOM     11  C   UNL     1      88.509 324.463 191.005  1.00  0.00     0.000 C 
BRANCH  11  12
ATOM     12  C   UNL     1      88.194 323.097 190.362  1.00  0.00     0.006 C 
BRANCH  12  13
ATOM     13  C   UNL     1      88.383 323.062 188.831  1.00  0.00     0.053 C 
BRANCH  13  14
ATOM     14  C   UNL     1      87.723 321.876 188.188  1.00  0.00     0.041 C 
ATOM     15  O   UNL     1      88.322 321.197 187.313  1.00  0.00    -0.550 OA
ATOM     16  O   UNL     1      86.419 321.542 188.535  1.00  0.00    -0.550 OA
ENDBRANCH  13  14
ENDBRANCH  12  13
ENDBRANCH  11  12
ENDBRANCH  10  11
ENDBRANCH   9  10
ENDBRANCH   8   9
ENDBRANCH   7   8
ENDBRANCH   6   7
ENDBRANCH   5   6
ENDBRANCH   4   5
ENDBRANCH   3   4
ENDBRANCH   2   3
ENDBRANCH   1   2
BRANCH   1  17
ATOM     17  C   UNL     1      88.861 325.985 201.480  1.00  0.00     0.000 C 
BRANCH  17  18
ATOM     18  C   UNL     1      88.773 324.567 202.065  1.00  0.00     0.000 C 
BRANCH  18  19
ATOM     19  C   UNL     1      87.554 323.783 201.550  1.00  0.00     0.000 C 
BRANCH  19  20
ATOM     20  C   UNL     1      86.580 323.390 202.675  1.00  0.00     0.000 C 
BRANCH  20  21
ATOM     21  C   UNL     1      87.227 323.450 204.071  1.00  0.00     0.000 C 
BRANCH  21  22
ATOM     22  C   UNL     1      86.302 323.947 205.197  1.00  0.00    -0.000 C 
BRANCH  22  23
ATOM     23  C   UNL     1      86.835 325.214 205.888  1.00  0.00    -0.000 C 
BRANCH  23  24
ATOM     24  C   UNL     1      88.272 325.563 205.464  1.00  0.00    -0.000 C 
BRANCH  24  25
ATOM     25  C   UNL     1      89.067 326.269 206.573  1.00  0.00    -0.000 C 
BRANCH  25  26
ATOM     26  C   UNL     1      89.855 327.463 206.012  1.00  0.00    -0.000 C 
BRANCH  26  27
ATOM     27  C   UNL     1      89.685 327.611 204.484  1.00  0.00    -0.000 C 
BRANCH  27  28
ATOM     28  C   UNL     1      91.017 327.657 203.717  1.00  0.00    -0.000 C 
BRANCH  28  29
ATOM     29  C   UNL     1      92.057 326.672 204.266  1.00  0.00    -0.003 C 
ATOM     30  C   UNL     1      92.032 325.358 203.490  1.00  0.00     0.004 C 
ENDBRANCH  28  29
ENDBRANCH  27  28
ENDBRANCH  26  27
ENDBRANCH  25  26
ENDBRANCH  24  25
ENDBRANCH  23  24
ENDBRANCH  22  23
ENDBRANCH  21  22
ENDBRANCH  20  21
ENDBRANCH  19  20
ENDBRANCH  18  19
ENDBRANCH  17  18
ENDBRANCH   1  17
TORSDOF 26
ENDMDL
MODEL 7
REMARK VINA RESULT:    -5.525      3.187      9.683
REMARK INTER + INTRA:         -17.625
REMARK INTER:                 -14.489
REMARK INTRA:                  -3.136
REMARK UNBOUND:                -3.701
REMARK SMILES CCCCCCCCCCCCCCCCCCCCCCCCCCCC(=O)[O-]
REMARK SMILES IDX 15 1 16 2 17 3 18 4 19 5 20 6 21 7 22 8 23 9 24 10 25 11
REMARK SMILES IDX 26 12 27 13 28 14 29 15 30 16 14 17 13 18 12 19 11 20 10 21
REMARK SMILES IDX 9 22 8 23 7 24 6 25 5 26 4 27 3 28 2 29 1 30
REMARK H PARENT
REMARK Flexibility Score: inf
ROOT
ATOM      1  C   UNL     1      90.895 326.820 202.359  1.00  0.00     0.000 C 
ENDROOT
BRANCH   1   2
ATOM      2  C   UNL     1      90.702 327.644 203.644  1.00  0.00     0.000 C 
BRANCH   2   3
ATOM      3  C   UNL     1      89.309 327.525 204.293  1.00  0.00     0.000 C 
BRANCH   3   4
ATOM      4  C   UNL     1      89.328 327.583 205.837  1.00  0.00     0.000 C 
BRANCH   4   5
ATOM      5  C   UNL     1      88.923 326.245 206.481  1.00  0.00     0.000 C 
BRANCH   5   6
ATOM      6  C   UNL     1      88.289 325.275 205.470  1.00  0.00     0.000 C 
BRANCH   6   7
ATOM      7  C   UNL     1      86.840 324.908 205.839  1.00  0.00     0.000 C 
BRANCH   7   8
ATOM      8  C   UNL     1      86.219 323.886 204.870  1.00  0.00     0.000 C 
BRANCH   8   9
ATOM      9  C   UNL     1      87.018 323.654 203.575  1.00  0.00     0.000 C 
BRANCH   9  10
ATOM     10  C   UNL     1      86.175 323.878 202.306  1.00  0.00     0.000 C 
BRANCH  10  11
ATOM     11  C   UNL     1      86.167 322.649 201.374  1.00  0.00     0.000 C 
BRANCH  11  12
ATOM     12  C   UNL     1      87.524 321.922 201.274  1.00  0.00     0.006 C 
BRANCH  12  13
ATOM     13  C   UNL     1      88.222 322.076 199.907  1.00  0.00     0.053 C 
BRANCH  13  14
ATOM     14  C   UNL     1      89.721 322.065 200.013  1.00  0.00     0.041 C 
ATOM     15  O   UNL     1      90.441 321.948 198.986  1.00  0.00    -0.550 OA
ATOM     16  O   UNL     1      90.324 322.151 201.262  1.00  0.00    -0.550 OA
ENDBRANCH  13  14
ENDBRANCH  12  13
ENDBRANCH  11  12
ENDBRANCH  10  11
ENDBRANCH   9  10
ENDBRANCH   8   9
ENDBRANCH   7   8
ENDBRANCH   6   7
ENDBRANCH   5   6
ENDBRANCH   4   5
ENDBRANCH   3   4
ENDBRANCH   2   3
ENDBRANCH   1   2
BRANCH   1  17
ATOM     17  C   UNL     1      89.872 325.682 202.220  1.00  0.00     0.000 C 
BRANCH  17  18
ATOM     18  C   UNL     1      88.986 325.884 200.981  1.00  0.00     0.000 C 
BRANCH  18  19
ATOM     19  C   UNL     1      89.673 326.715 199.884  1.00  0.00     0.000 C 
BRANCH  19  20
ATOM     20  C   UNL     1      89.005 326.554 198.508  1.00  0.00     0.000 C 
BRANCH  20  21
ATOM     21  C   UNL     1      89.003 325.096 198.014  1.00  0.00     0.000 C 
BRANCH  21  22
ATOM     22  C   UNL     1      88.628 324.910 196.532  1.00  0.00    -0.000 C 
BRANCH  22  23
ATOM     23  C   UNL     1      88.368 326.245 195.813  1.00  0.00    -0.000 C 
BRANCH  23  24
ATOM     24  C   UNL     1      86.879 326.474 195.503  1.00  0.00    -0.000 C 
BRANCH  24  25
ATOM     25  C   UNL     1      86.583 326.522 193.996  1.00  0.00    -0.000 C 
BRANCH  25  26
ATOM     26  C   UNL     1      87.771 325.980 193.184  1.00  0.00    -0.000 C 
BRANCH  26  27
ATOM     27  C   UNL     1      87.412 324.695 192.407  1.00  0.00    -0.000 C 
BRANCH  27  28
ATOM     28  C   UNL     1      88.569 324.146 191.556  1.00  0.00    -0.000 C 
BRANCH  28  29
ATOM     29  C   UNL     1      88.933 322.697 191.905  1.00  0.00    -0.003 C 
ATOM     30  C   UNL     1      88.982 322.493 193.417  1.00  0.00     0.004 C 
ENDBRANCH  28  29
ENDBRANCH  27  28
ENDBRANCH  26  27
ENDBRANCH  25  26
ENDBRANCH  24  25
ENDBRANCH  23  24
ENDBRANCH  22  23
ENDBRANCH  21  22
ENDBRANCH  20  21
ENDBRANCH  19  20
ENDBRANCH  18  19
ENDBRANCH  17  18
ENDBRANCH   1  17
TORSDOF 26
ENDMDL
MODEL 8
REMARK VINA RESULT:    -5.514      4.952     11.647
REMARK INTER + INTRA:         -17.598
REMARK INTER:                 -14.679
REMARK INTRA:                  -2.918
REMARK UNBOUND:                -3.701
REMARK SMILES CCCCCCCCCCCCCCCCCCCCCCCCCCCC(=O)[O-]
REMARK SMILES IDX 15 1 16 2 17 3 18 4 19 5 20 6 21 7 22 8 23 9 24 10 25 11
REMARK SMILES IDX 26 12 27 13 28 14 29 15 30 16 14 17 13 18 12 19 11 20 10 21
REMARK SMILES IDX 9 22 8 23 7 24 6 25 5 26 4 27 3 28 2 29 1 30
REMARK H PARENT
REMARK Flexibility Score: inf
ROOT
ATOM      1  C   UNL     1      88.717 322.980 193.644  1.00  0.00     0.000 C 
ENDROOT
BRANCH   1   2
ATOM      2  C   UNL     1      87.226 323.358 193.681  1.00  0.00     0.000 C 
BRANCH   2   3
ATOM      3  C   UNL     1      86.876 324.700 193.010  1.00  0.00     0.000 C 
BRANCH   3   4
ATOM      4  C   UNL     1      88.070 325.673 192.888  1.00  0.00     0.000 C 
BRANCH   4   5
ATOM      5  C   UNL     1      87.973 326.850 193.875  1.00  0.00     0.000 C 
BRANCH   5   6
ATOM      6  C   UNL     1      86.677 326.819 194.700  1.00  0.00     0.000 C 
BRANCH   6   7
ATOM      7  C   UNL     1      86.942 326.617 196.203  1.00  0.00     0.000 C 
BRANCH   7   8
ATOM      8  C   UNL     1      88.436 326.450 196.528  1.00  0.00     0.000 C 
BRANCH   8   9
ATOM      9  C   UNL     1      88.877 325.004 196.819  1.00  0.00     0.000 C 
BRANCH   9  10
ATOM     10  C   UNL     1      89.018 324.714 198.324  1.00  0.00     0.000 C 
BRANCH  10  11
ATOM     11  C   UNL     1      89.225 325.994 199.159  1.00  0.00     0.000 C 
BRANCH  11  12
ATOM     12  C   UNL     1      90.276 325.856 200.279  1.00  0.00     0.006 C 
BRANCH  12  13
ATOM     13  C   UNL     1      90.199 326.960 201.355  1.00  0.00     0.053 C 
BRANCH  13  14
ATOM     14  C   UNL     1      89.343 326.573 202.527  1.00  0.00     0.041 C 
ATOM     15  O   UNL     1      88.642 325.527 202.499  1.00  0.00    -0.550 OA
ATOM     16  O   UNL     1      89.293 327.397 203.646  1.00  0.00    -0.550 OA
ENDBRANCH  13  14
ENDBRANCH  12  13
ENDBRANCH  11  12
ENDBRANCH  10  11
ENDBRANCH   9  10
ENDBRANCH   8   9
ENDBRANCH   7   8
ENDBRANCH   6   7
ENDBRANCH   5   6
ENDBRANCH   4   5
ENDBRANCH   3   4
ENDBRANCH   2   3
ENDBRANCH   1   2
BRANCH   1  17
ATOM     17  C   UNL     1      88.966 321.595 193.025  1.00  0.00     0.000 C 
BRANCH  17  18
ATOM     18  C   UNL     1      89.336 321.714 191.539  1.00  0.00     0.000 C 
BRANCH  18  19
ATOM     19  C   UNL     1      88.107 321.692 190.614  1.00  0.00     0.000 C 
BRANCH  19  20
ATOM     20  C   UNL     1      88.030 322.926 189.697  1.00  0.00     0.000 C 
BRANCH  20  21
ATOM     21  C   UNL     1      89.172 323.928 189.950  1.00  0.00     0.000 C 
BRANCH  21  22
ATOM     22  C   UNL     1      90.080 324.201 188.737  1.00  0.00    -0.000 C 
BRANCH  22  23
ATOM     23  C   UNL     1      90.582 322.910 188.068  1.00  0.00    -0.000 C 
BRANCH  23  24
ATOM     24  C   UNL     1      91.826 322.327 188.758  1.00  0.00    -0.000 C 
BRANCH  24  25
ATOM     25  C   UNL     1      93.138 322.935 188.237  1.00  0.00    -0.000 C 
BRANCH  25  26
ATOM     26  C   UNL     1      94.225 322.914 189.324  1.00  0.00    -0.000 C 
BRANCH  26  27
ATOM     27  C   UNL     1      94.885 324.296 189.519  1.00  0.00    -0.000 C 
BRANCH  27  28
ATOM     28  C   UNL     1      95.847 324.357 190.717  1.00  0.00    -0.000 C 
BRANCH  28  29
ATOM     29  C   UNL     1      95.663 325.620 191.569  1.00  0.00    -0.003 C 
ATOM     30  C   UNL     1      96.998 326.317 191.812  1.00  0.00     0.004 C 
ENDBRANCH  28  29
ENDBRANCH  27  28
ENDBRANCH  26  27
ENDBRANCH  25  26
ENDBRANCH  24  25
ENDBRANCH  23  24
ENDBRANCH  22  23
ENDBRANCH  21  22
ENDBRANCH  20  21
ENDBRANCH  19  20
ENDBRANCH  18  19
ENDBRANCH  17  18
ENDBRANCH   1  17
TORSDOF 26
ENDMDL
MODEL 9
REMARK VINA RESULT:    -5.469      1.299      3.077
REMARK INTER + INTRA:         -17.482
REMARK INTER:                 -14.066
REMARK INTRA:                  -3.417
REMARK UNBOUND:                -3.701
REMARK SMILES CCCCCCCCCCCCCCCCCCCCCCCCCCCC(=O)[O-]
REMARK SMILES IDX 15 1 16 2 17 3 18 4 19 5 20 6 21 7 22 8 23 9 24 10 25 11
REMARK SMILES IDX 26 12 27 13 28 14 29 15 30 16 14 17 13 18 12 19 11 20 10 21
REMARK SMILES IDX 9 22 8 23 7 24 6 25 5 26 4 27 3 28 2 29 1 30
REMARK H PARENT
REMARK Flexibility Score: inf
ROOT
ATOM      1  C   UNL     1      91.262 324.298 199.664  1.00  0.00     0.000 C 
ENDROOT
BRANCH   1   2
ATOM      2  C   UNL     1      90.270 323.124 199.740  1.00  0.00     0.000 C 
BRANCH   2   3
ATOM      3  C   UNL     1      89.832 322.551 198.378  1.00  0.00     0.000 C 
BRANCH   3   4
ATOM      4  C   UNL     1      88.582 323.235 197.781  1.00  0.00     0.000 C 
BRANCH   4   5
ATOM      5  C   UNL     1      88.930 324.192 196.627  1.00  0.00     0.000 C 
BRANCH   5   6
ATOM      6  C   UNL     1      88.564 325.651 196.944  1.00  0.00     0.000 C 
BRANCH   6   7
ATOM      7  C   UNL     1      88.186 326.449 195.683  1.00  0.00     0.000 C 
BRANCH   7   8
ATOM      8  C   UNL     1      86.668 326.660 195.543  1.00  0.00     0.000 C 
BRANCH   8   9
ATOM      9  C   UNL     1      86.069 326.179 194.209  1.00  0.00     0.000 C 
BRANCH   9  10
ATOM     10  C   UNL     1      86.397 324.706 193.904  1.00  0.00     0.000 C 
BRANCH  10  11
ATOM     11  C   UNL     1      86.768 324.474 192.425  1.00  0.00     0.000 C 
BRANCH  11  12
ATOM     12  C   UNL     1      88.279 324.561 192.130  1.00  0.00     0.006 C 
BRANCH  12  13
ATOM     13  C   UNL     1      88.656 324.233 190.670  1.00  0.00     0.053 C 
BRANCH  13  14
ATOM     14  C   UNL     1      88.198 322.868 190.242  1.00  0.00     0.041 C 
ATOM     15  O   UNL     1      87.530 322.711 189.186  1.00  0.00    -0.550 OA
ATOM     16  O   UNL     1      88.485 321.764 191.037  1.00  0.00    -0.550 OA
ENDBRANCH  13  14
ENDBRANCH  12  13
ENDBRANCH  11  12
ENDBRANCH  10  11
ENDBRANCH   9  10
ENDBRANCH   8   9
ENDBRANCH   7   8
ENDBRANCH   6   7
ENDBRANCH   5   6
ENDBRANCH   4   5
ENDBRANCH   3   4
ENDBRANCH   2   3
ENDBRANCH   1   2
BRANCH   1  17
ATOM     17  C   UNL     1      90.747 325.561 200.372  1.00  0.00     0.000 C 
BRANCH  17  18
ATOM     18  C   UNL     1      89.228 325.489 200.593  1.00  0.00     0.000 C 
BRANCH  18  19
ATOM     19  C   UNL     1      88.726 326.509 201.630  1.00  0.00     0.000 C 
BRANCH  19  20
ATOM     20  C   UNL     1      89.772 326.817 202.716  1.00  0.00     0.000 C 
BRANCH  20  21
ATOM     21  C   UNL     1      89.182 327.592 203.909  1.00  0.00     0.000 C 
BRANCH  21  22
ATOM     22  C   UNL     1      89.846 327.303 205.267  1.00  0.00    -0.000 C 
BRANCH  22  23
ATOM     23  C   UNL     1      88.866 326.707 206.292  1.00  0.00    -0.000 C 
BRANCH  23  24
ATOM     24  C   UNL     1      88.416 325.282 205.927  1.00  0.00    -0.000 C 
BRANCH  24  25
ATOM     25  C   UNL     1      86.888 325.122 205.915  1.00  0.00    -0.000 C 
BRANCH  25  26
ATOM     26  C   UNL     1      86.465 323.934 205.037  1.00  0.00    -0.000 C 
BRANCH  26  27
ATOM     27  C   UNL     1      86.809 324.153 203.548  1.00  0.00    -0.000 C 
BRANCH  27  28
ATOM     28  C   UNL     1      87.678 323.037 202.944  1.00  0.00    -0.000 C 
BRANCH  28  29
ATOM     29  C   UNL     1      86.853 321.959 202.228  1.00  0.00    -0.003 C 
ATOM     30  C   UNL     1      86.557 322.363 200.787  1.00  0.00     0.004 C 
ENDBRANCH  28  29
ENDBRANCH  27  28
ENDBRANCH  26  27
ENDBRANCH  25  26
ENDBRANCH  24  25
ENDBRANCH  23  24
ENDBRANCH  22  23
ENDBRANCH  21  22
ENDBRANCH  20  21
ENDBRANCH  19  20
ENDBRANCH  18  19
ENDBRANCH  17  18
ENDBRANCH   1  17
TORSDOF 26
ENDMDL
