MODEL 1
REMARK VINA RESULT:     3.441      0.000      0.000
REMARK INTER + INTRA:           7.253
REMARK INTER:                   7.465
REMARK INTRA:                  -0.211
REMARK UNBOUND:                -0.211
REMARK SMILES CCCCCCCCCCCCCCCCCCCCCC(=O)[O-]
REMARK SMILES IDX 12 1 11 2 10 3 9 4 8 5 7 6 6 7 5 8 4 9 3 10 2 11 1 12 13 13
REMARK SMILES IDX 14 14 15 15 16 16 17 17 18 18 19 19 20 20 21 21 22 22 23 23
REMARK SMILES IDX 24 24
REMARK H PARENT
REMARK Flexibility Score: inf
ROOT
ATOM      1  C   UNL     1      -4.135   6.800   9.934  1.00  0.00     0.000 C 
ENDROOT
BRANCH   1   2
ATOM      2  C   UNL     1      -2.800   6.057   9.730  1.00  0.00     0.000 C 
BRANCH   2   3
ATOM      3  C   UNL     1      -1.562   6.893  10.099  1.00  0.00     0.000 C 
BRANCH   3   4
ATOM      4  C   UNL     1      -1.208   7.942   9.038  1.00  0.00    -0.000 C 
BRANCH   4   5
ATOM      5  C   UNL     1      -0.635   9.207   9.687  1.00  0.00    -0.000 C 
BRANCH   5   6
ATOM      6  C   UNL     1       0.823   8.991  10.124  1.00  0.00    -0.000 C 
BRANCH   6   7
ATOM      7  C   UNL     1       1.803   9.952   9.429  1.00  0.00    -0.000 C 
BRANCH   7   8
ATOM      8  C   UNL     1       3.210   9.916  10.054  1.00  0.00    -0.000 C 
BRANCH   8   9
ATOM      9  C   UNL     1       3.905   8.553   9.889  1.00  0.00    -0.000 C 
BRANCH   9  10
ATOM     10  C   UNL     1       5.427   8.562  10.124  1.00  0.00    -0.000 C 
BRANCH  10  11
ATOM     11  C   UNL     1       6.175   9.512   9.177  1.00  0.00    -0.003 C 
ATOM     12  C   UNL     1       7.684   9.417   9.381  1.00  0.00     0.004 C 
ENDBRANCH  10  11
ENDBRANCH   9  10
ENDBRANCH   8   9
ENDBRANCH   7   8
ENDBRANCH   6   7
ENDBRANCH   5   6
ENDBRANCH   4   5
ENDBRANCH   3   4
ENDBRANCH   2   3
ENDBRANCH   1   2
BRANCH   1  13
ATOM     13  C   UNL     1      -5.351   5.895   9.676  1.00  0.00     0.000 C 
BRANCH  13  14
ATOM     14  C   UNL     1      -5.107   4.430  10.096  1.00  0.00     0.000 C 
BRANCH  14  15
ATOM     15  C   UNL     1      -6.382   3.565  10.125  1.00  0.00     0.000 C 
BRANCH  15  16
ATOM     16  C   UNL     1      -6.953   3.177   8.747  1.00  0.00     0.000 C 
BRANCH  16  17
ATOM     17  C   UNL     1      -5.946   2.532   7.775  1.00  0.00     0.000 C 
BRANCH  17  18
ATOM     18  C   UNL     1      -4.613   2.174   8.444  1.00  0.00     0.000 C 
BRANCH  18  19
ATOM     19  C   UNL     1      -3.428   2.779   7.676  1.00  0.00     0.000 C 
BRANCH  19  20
ATOM     20  C   UNL     1      -3.836   3.961   6.776  1.00  0.00     0.006 C 
BRANCH  20  21
ATOM     21  C   UNL     1      -3.093   5.276   7.069  1.00  0.00     0.053 C 
BRANCH  21  22
ATOM     22  C   UNL     1      -3.477   6.368   6.116  1.00  0.00     0.041 C 
ATOM     23  O   UNL     1      -2.927   7.497   6.194  1.00  0.00    -0.550 OA
ATOM     24  O   UNL     1      -4.394   6.120   5.104  1.00  0.00    -0.550 OA
ENDBRANCH  21  22
ENDBRANCH  20  21
ENDBRANCH  19  20
ENDBRANCH  18  19
ENDBRANCH  17  18
ENDBRANCH  16  17
ENDBRANCH  15  16
ENDBRANCH  14  15
ENDBRANCH  13  14
ENDBRANCH   1  13
TORSDOF 20
ENDMDL
MODEL 2
REMARK VINA RESULT:     3.797      3.536      4.226
REMARK INTER + INTRA:           8.025
REMARK INTER:                   8.940
REMARK INTRA:                  -0.916
REMARK UNBOUND:                -0.211
REMARK SMILES CCCCCCCCCCCCCCCCCCCCCC(=O)[O-]
REMARK SMILES IDX 12 1 11 2 10 3 9 4 8 5 7 6 6 7 5 8 4 9 3 10 2 11 1 12 13 13
REMARK SMILES IDX 14 14 15 15 16 16 17 17 18 18 19 19 20 20 21 21 22 22 23 23
REMARK SMILES IDX 24 24
REMARK H PARENT
REMARK Flexibility Score: inf
ROOT
ATOM      1  C   UNL     1      -3.409   6.949   9.806  1.00  0.00     0.000 C 
ENDROOT
BRANCH   1   2
ATOM      2  C   UNL     1      -2.165   6.132   9.403  1.00  0.00     0.000 C 
BRANCH   2   3
ATOM      3  C   UNL     1      -0.834   6.791   9.804  1.00  0.00     0.000 C 
BRANCH   3   4
ATOM      4  C   UNL     1      -0.672   8.209   9.243  1.00  0.00    -0.000 C 
BRANCH   4   5
ATOM      5  C   UNL     1       0.262   9.045  10.125  1.00  0.00    -0.000 C 
BRANCH   5   6
ATOM      6  C   UNL     1       1.731   8.832   9.729  1.00  0.00    -0.000 C 
BRANCH   6   7
ATOM      7  C   UNL     1       2.630  10.022  10.111  1.00  0.00    -0.000 C 
BRANCH   7   8
ATOM      8  C   UNL     1       4.129   9.672  10.055  1.00  0.00    -0.000 C 
BRANCH   8   9
ATOM      9  C   UNL     1       4.391   8.155  10.045  1.00  0.00    -0.000 C 
BRANCH   9  10
ATOM     10  C   UNL     1       5.869   7.747   9.911  1.00  0.00    -0.000 C 
BRANCH  10  11
ATOM     11  C   UNL     1       6.627   8.574   8.861  1.00  0.00    -0.003 C 
ATOM     12  C   UNL     1       7.542   9.600   9.524  1.00  0.00     0.004 C 
ENDBRANCH  10  11
ENDBRANCH   9  10
ENDBRANCH   8   9
ENDBRANCH   7   8
ENDBRANCH   6   7
ENDBRANCH   5   6
ENDBRANCH   4   5
ENDBRANCH   3   4
ENDBRANCH   2   3
ENDBRANCH   1   2
BRANCH   1  13
ATOM     13  C   UNL     1      -4.708   6.137   9.670  1.00  0.00     0.000 C 
BRANCH  13  14
ATOM     14  C   UNL     1      -4.504   4.631   9.937  1.00  0.00     0.000 C 
BRANCH  14  15
ATOM     15  C   UNL     1      -5.404   3.716   9.084  1.00  0.00     0.000 C 
BRANCH  15  16
ATOM     16  C   UNL     1      -4.934   3.486   7.635  1.00  0.00     0.000 C 
BRANCH  16  17
ATOM     17  C   UNL     1      -3.673   2.613   7.481  1.00  0.00     0.000 C 
BRANCH  17  18
ATOM     18  C   UNL     1      -3.360   1.788   8.736  1.00  0.00     0.000 C 
BRANCH  18  19
ATOM     19  C   UNL     1      -1.933   1.221   8.684  1.00  0.00     0.000 C 
BRANCH  19  20
ATOM     20  C   UNL     1      -1.878  -0.216   8.130  1.00  0.00     0.006 C 
BRANCH  20  21
ATOM     21  C   UNL     1      -2.522  -1.277   9.039  1.00  0.00     0.053 C 
BRANCH  21  22
ATOM     22  C   UNL     1      -1.855  -2.614   8.910  1.00  0.00     0.041 C 
ATOM     23  O   UNL     1      -1.414  -2.995   7.794  1.00  0.00    -0.550 OA
ATOM     24  O   UNL     1      -1.663  -3.409  10.031  1.00  0.00    -0.550 OA
ENDBRANCH  21  22
ENDBRANCH  20  21
ENDBRANCH  19  20
ENDBRANCH  18  19
ENDBRANCH  17  18
ENDBRANCH  16  17
ENDBRANCH  15  16
ENDBRANCH  14  15
ENDBRANCH  13  14
ENDBRANCH   1  13
TORSDOF 20
ENDMDL
MODEL 3
REMARK VINA RESULT:     4.854      3.409      9.419
REMARK INTER + INTRA:          10.317
REMARK INTER:                   9.822
REMARK INTRA:                   0.495
REMARK UNBOUND:                -0.211
REMARK SMILES CCCCCCCCCCCCCCCCCCCCCC(=O)[O-]
REMARK SMILES IDX 12 1 11 2 10 3 9 4 8 5 7 6 6 7 5 8 4 9 3 10 2 11 1 12 13 13
REMARK SMILES IDX 14 14 15 15 16 16 17 17 18 18 19 19 20 20 21 21 22 22 23 23
REMARK SMILES IDX 24 24
REMARK H PARENT
REMARK Flexibility Score: inf
ROOT
ATOM      1  C   UNL     1      -3.020   6.015   9.895  1.00  0.00     0.000 C 
ENDROOT
BRANCH   1   2
ATOM      2  C   UNL     1      -4.219   5.907   8.932  1.00  0.00     0.000 C 
BRANCH   2   3
ATOM      3  C   UNL     1      -5.301   4.916   9.397  1.00  0.00     0.000 C 
BRANCH   3   4
ATOM      4  C   UNL     1      -4.720   3.653  10.046  1.00  0.00    -0.000 C 
BRANCH   4   5
ATOM      5  C   UNL     1      -5.090   2.403   9.240  1.00  0.00    -0.000 C 
BRANCH   5   6
ATOM      6  C   UNL     1      -5.964   2.767   8.029  1.00  0.00    -0.000 C 
BRANCH   6   7
ATOM      7  C   UNL     1      -5.654   1.907   6.790  1.00  0.00    -0.000 C 
BRANCH   7   8
ATOM      8  C   UNL     1      -4.155   1.580   6.658  1.00  0.00    -0.000 C 
BRANCH   8   9
ATOM      9  C   UNL     1      -3.330   2.760   6.112  1.00  0.00    -0.000 C 
BRANCH   9  10
ATOM     10  C   UNL     1      -3.665   4.132   6.725  1.00  0.00    -0.000 C 
BRANCH  10  11
ATOM     11  C   UNL     1      -2.920   5.290   6.045  1.00  0.00    -0.003 C 
ATOM     12  C   UNL     1      -3.765   6.561   6.041  1.00  0.00     0.004 C 
ENDBRANCH  10  11
ENDBRANCH   9  10
ENDBRANCH   8   9
ENDBRANCH   7   8
ENDBRANCH   6   7
ENDBRANCH   5   6
ENDBRANCH   4   5
ENDBRANCH   3   4
ENDBRANCH   2   3
ENDBRANCH   1   2
BRANCH   1  13
ATOM     13  C   UNL     1      -1.901   6.909   9.335  1.00  0.00     0.000 C 
BRANCH  13  14
ATOM     14  C   UNL     1      -1.841   8.291  10.018  1.00  0.00     0.000 C 
BRANCH  14  15
ATOM     15  C   UNL     1      -0.443   8.939  10.000  1.00  0.00     0.000 C 
BRANCH  15  16
ATOM     16  C   UNL     1       0.744   7.957  10.045  1.00  0.00     0.000 C 
BRANCH  16  17
ATOM     17  C   UNL     1       1.984   8.383   9.234  1.00  0.00     0.000 C 
BRANCH  17  18
ATOM     18  C   UNL     1       3.184   8.741  10.120  1.00  0.00     0.000 C 
BRANCH  18  19
ATOM     19  C   UNL     1       4.147   9.690   9.391  1.00  0.00     0.000 C 
BRANCH  19  20
ATOM     20  C   UNL     1       5.554   9.715  10.017  1.00  0.00     0.006 C 
BRANCH  20  21
ATOM     21  C   UNL     1       6.541   8.699   9.416  1.00  0.00     0.053 C 
BRANCH  21  22
ATOM     22  C   UNL     1       7.473   9.333   8.427  1.00  0.00     0.041 C 
ATOM     23  O   UNL     1       7.156   9.399   7.211  1.00  0.00    -0.550 OA
ATOM     24  O   UNL     1       8.662   9.906   8.857  1.00  0.00    -0.550 OA
ENDBRANCH  21  22
ENDBRANCH  20  21
ENDBRANCH  19  20
ENDBRANCH  18  19
ENDBRANCH  17  18
ENDBRANCH  16  17
ENDBRANCH  15  16
ENDBRANCH  14  15
ENDBRANCH  13  14
ENDBRANCH   1  13
TORSDOF 20
ENDMDL
MODEL 4
REMARK VINA RESULT:     5.717     13.073     15.475
REMARK INTER + INTRA:          12.189
REMARK INTER:                  11.594
REMARK INTRA:                   0.595
REMARK UNBOUND:                -0.211
REMARK SMILES CCCCCCCCCCCCCCCCCCCCCC(=O)[O-]
REMARK SMILES IDX 12 1 11 2 10 3 9 4 8 5 7 6 6 7 5 8 4 9 3 10 2 11 1 12 13 13
REMARK SMILES IDX 14 14 15 15 16 16 17 17 18 18 19 19 20 20 21 21 22 22 23 23
REMARK SMILES IDX 24 24
REMARK H PARENT
REMARK Flexibility Score: inf
ROOT
ATOM      1  C   UNL     1       5.884   7.929  -3.304  1.00  0.00     0.000 C 
ENDROOT
BRANCH   1   2
ATOM      2  C   UNL     1       7.217   7.166  -3.172  1.00  0.00     0.000 C 
BRANCH   2   3
ATOM      3  C   UNL     1       7.562   6.304  -4.399  1.00  0.00     0.000 C 
BRANCH   3   4
ATOM      4  C   UNL     1       8.970   5.698  -4.331  1.00  0.00    -0.000 C 
BRANCH   4   5
ATOM      5  C   UNL     1       9.284   4.896  -5.599  1.00  0.00    -0.000 C 
BRANCH   5   6
ATOM      6  C   UNL     1       9.553   5.831  -6.790  1.00  0.00    -0.000 C 
BRANCH   6   7
ATOM      7  C   UNL     1      10.095   7.205  -6.358  1.00  0.00    -0.000 C 
BRANCH   7   8
ATOM      8  C   UNL     1       9.599   8.348  -7.263  1.00  0.00    -0.000 C 
BRANCH   8   9
ATOM      9  C   UNL     1       9.887   8.099  -8.755  1.00  0.00    -0.000 C 
BRANCH   9  10
ATOM     10  C   UNL     1       8.669   8.232  -9.687  1.00  0.00    -0.000 C 
BRANCH  10  11
ATOM     11  C   UNL     1       7.385   8.630  -8.944  1.00  0.00    -0.003 C 
ATOM     12  C   UNL     1       7.367  10.125  -8.638  1.00  0.00     0.004 C 
ENDBRANCH  10  11
ENDBRANCH   9  10
ENDBRANCH   8   9
ENDBRANCH   7   8
ENDBRANCH   6   7
ENDBRANCH   5   6
ENDBRANCH   4   5
ENDBRANCH   3   4
ENDBRANCH   2   3
ENDBRANCH   1   2
BRANCH   1  13
ATOM     13  C   UNL     1       5.747   9.048  -2.257  1.00  0.00     0.000 C 
BRANCH  13  14
ATOM     14  C   UNL     1       4.426   8.968  -1.465  1.00  0.00     0.000 C 
BRANCH  14  15
ATOM     15  C   UNL     1       3.191   8.659  -2.334  1.00  0.00     0.000 C 
BRANCH  15  16
ATOM     16  C   UNL     1       1.986   8.058  -1.586  1.00  0.00     0.000 C 
BRANCH  16  17
ATOM     17  C   UNL     1       0.669   8.011  -2.387  1.00  0.00     0.000 C 
BRANCH  17  18
ATOM     18  C   UNL     1      -0.506   7.455  -1.573  1.00  0.00     0.000 C 
BRANCH  18  19
ATOM     19  C   UNL     1      -1.669   8.458  -1.524  1.00  0.00     0.000 C 
BRANCH  19  20
ATOM     20  C   UNL     1      -2.408   8.454  -0.172  1.00  0.00     0.006 C 
BRANCH  20  21
ATOM     21  C   UNL     1      -3.762   9.185  -0.181  1.00  0.00     0.053 C 
BRANCH  21  22
ATOM     22  C   UNL     1      -4.460   9.068  -1.503  1.00  0.00     0.041 C 
ATOM     23  O   UNL     1      -3.873   8.540  -2.483  1.00  0.00    -0.550 OA
ATOM     24  O   UNL     1      -5.778   9.484  -1.635  1.00  0.00    -0.550 OA
ENDBRANCH  21  22
ENDBRANCH  20  21
ENDBRANCH  19  20
ENDBRANCH  18  19
ENDBRANCH  17  18
ENDBRANCH  16  17
ENDBRANCH  15  16
ENDBRANCH  14  15
ENDBRANCH  13  14
ENDBRANCH   1  13
TORSDOF 20
ENDMDL
