MODEL 1
REMARK VINA RESULT:    -4.443      0.000      0.000
REMARK INTER + INTRA:         -16.813
REMARK INTER:                 -11.715
REMARK INTRA:                  -5.098
REMARK UNBOUND:                -5.098
REMARK SMILES CCCCCCCCCCCCCCCCCCCCCCCCCCCCCC(=O)[O-]
REMARK SMILES IDX 16 1 17 2 18 3 19 4 20 5 21 6 22 7 23 8 24 9 25 10 26 11
REMARK SMILES IDX 27 12 28 13 29 14 30 15 31 16 32 17 15 18 14 19 13 20 12 21
REMARK SMILES IDX 11 22 10 23 9 24 8 25 7 26 6 27 5 28 4 29 3 30 2 31 1 32
REMARK H PARENT
REMARK Flexibility Score: inf
ROOT
ATOM      1  C   UNL     1      43.659 114.863   8.882  1.00  0.00     0.000 C 
ENDROOT
BRANCH   1   2
ATOM      2  C   UNL     1      43.621 116.401   8.902  1.00  0.00     0.000 C 
BRANCH   2   3
ATOM      3  C   UNL     1      43.778 116.982  10.315  1.00  0.00     0.000 C 
BRANCH   3   4
ATOM      4  C   UNL     1      42.490 116.797  11.130  1.00  0.00     0.000 C 
BRANCH   4   5
ATOM      5  C   UNL     1      41.351 117.730  10.677  1.00  0.00     0.000 C 
BRANCH   5   6
ATOM      6  C   UNL     1      40.407 118.192  11.803  1.00  0.00     0.000 C 
BRANCH   6   7
ATOM      7  C   UNL     1      40.381 117.216  12.992  1.00  0.00     0.000 C 
BRANCH   7   8
ATOM      8  C   UNL     1      40.225 117.936  14.342  1.00  0.00     0.000 C 
BRANCH   8   9
ATOM      9  C   UNL     1      40.165 116.958  15.528  1.00  0.00     0.000 C 
BRANCH   9  10
ATOM     10  C   UNL     1      38.855 116.153  15.565  1.00  0.00     0.000 C 
BRANCH  10  11
ATOM     11  C   UNL     1      37.605 117.051  15.514  1.00  0.00     0.000 C 
BRANCH  11  12
ATOM     12  C   UNL     1      36.682 116.725  14.325  1.00  0.00     0.000 C 
BRANCH  12  13
ATOM     13  C   UNL     1      36.762 117.718  13.151  1.00  0.00     0.006 C 
BRANCH  13  14
ATOM     14  C   UNL     1      35.936 118.989  13.386  1.00  0.00     0.053 C 
BRANCH  14  15
ATOM     15  C   UNL     1      36.808 120.103  13.873  1.00  0.00     0.041 C 
ATOM     16  O   UNL     1      37.802 120.478  13.192  1.00  0.00    -0.550 OA
ATOM     17  O   UNL     1      36.498 120.760  15.058  1.00  0.00    -0.550 OA
ENDBRANCH  14  15
ENDBRANCH  13  14
ENDBRANCH  12  13
ENDBRANCH  11  12
ENDBRANCH  10  11
ENDBRANCH   9  10
ENDBRANCH   8   9
ENDBRANCH   7   8
ENDBRANCH   6   7
ENDBRANCH   5   6
ENDBRANCH   4   5
ENDBRANCH   3   4
ENDBRANCH   2   3
ENDBRANCH   1   2
BRANCH   1  18
ATOM     18  C   UNL     1      45.053 114.249   8.641  1.00  0.00     0.000 C 
BRANCH  18  19
ATOM     19  C   UNL     1      45.490 113.194   9.677  1.00  0.00     0.000 C 
BRANCH  19  20
ATOM     20  C   UNL     1      45.231 113.576  11.147  1.00  0.00     0.000 C 
BRANCH  20  21
ATOM     21  C   UNL     1      45.153 112.396  12.135  1.00  0.00     0.000 C 
BRANCH  21  22
ATOM     22  C   UNL     1      46.252 112.400  13.219  1.00  0.00     0.000 C 
BRANCH  22  23
ATOM     23  C   UNL     1      45.685 112.479  14.649  1.00  0.00     0.000 C 
BRANCH  23  24
ATOM     24  C   UNL     1      46.362 113.584  15.480  1.00  0.00    -0.000 C 
BRANCH  24  25
ATOM     25  C   UNL     1      47.471 114.305  14.689  1.00  0.00    -0.000 C 
BRANCH  25  26
ATOM     26  C   UNL     1      47.322 115.835  14.710  1.00  0.00    -0.000 C 
BRANCH  26  27
ATOM     27  C   UNL     1      46.702 116.389  13.415  1.00  0.00    -0.000 C 
BRANCH  27  28
ATOM     28  C   UNL     1      45.366 117.118  13.669  1.00  0.00    -0.000 C 
BRANCH  28  29
ATOM     29  C   UNL     1      44.862 117.008  15.120  1.00  0.00    -0.000 C 
BRANCH  29  30
ATOM     30  C   UNL     1      43.616 116.116  15.257  1.00  0.00    -0.000 C 
BRANCH  30  31
ATOM     31  C   UNL     1      43.368 115.250  14.010  1.00  0.00    -0.003 C 
ATOM     32  C   UNL     1      42.328 114.156  14.251  1.00  0.00     0.004 C 
ENDBRANCH  30  31
ENDBRANCH  29  30
ENDBRANCH  28  29
ENDBRANCH  27  28
ENDBRANCH  26  27
ENDBRANCH  25  26
ENDBRANCH  24  25
ENDBRANCH  23  24
ENDBRANCH  22  23
ENDBRANCH  21  22
ENDBRANCH  20  21
ENDBRANCH  19  20
ENDBRANCH  18  19
ENDBRANCH   1  18
TORSDOF 28
ENDMDL
MODEL 2
REMARK VINA RESULT:    -4.392      3.164      8.068
REMARK INTER + INTRA:         -16.680
REMARK INTER:                 -11.675
REMARK INTRA:                  -5.005
REMARK UNBOUND:                -5.098
REMARK SMILES CCCCCCCCCCCCCCCCCCCCCCCCCCCCCC(=O)[O-]
REMARK SMILES IDX 16 1 17 2 18 3 19 4 20 5 21 6 22 7 23 8 24 9 25 10 26 11
REMARK SMILES IDX 27 12 28 13 29 14 30 15 31 16 32 17 15 18 14 19 13 20 12 21
REMARK SMILES IDX 11 22 10 23 9 24 8 25 7 26 6 27 5 28 4 29 3 30 2 31 1 32
REMARK H PARENT
REMARK Flexibility Score: inf
ROOT
ATOM      1  C   UNL     1      40.661 117.539  10.826  1.00  0.00     0.000 C 
ENDROOT
BRANCH   1   2
ATOM      2  C   UNL     1      42.086 117.793  10.304  1.00  0.00     0.000 C 
BRANCH   2   3
ATOM      3  C   UNL     1      42.339 117.154   8.930  1.00  0.00     0.000 C 
BRANCH   3   4
ATOM      4  C   UNL     1      43.701 116.446   8.897  1.00  0.00     0.000 C 
BRANCH   4   5
ATOM      5  C   UNL     1      43.665 115.041   9.528  1.00  0.00     0.000 C 
BRANCH   5   6
ATOM      6  C   UNL     1      44.624 114.841  10.716  1.00  0.00     0.000 C 
BRANCH   6   7
ATOM      7  C   UNL     1      45.292 116.152  11.165  1.00  0.00     0.000 C 
BRANCH   7   8
ATOM      8  C   UNL     1      44.776 116.638  12.530  1.00  0.00     0.000 C 
BRANCH   8   9
ATOM      9  C   UNL     1      43.688 115.717  13.110  1.00  0.00     0.000 C 
BRANCH   9  10
ATOM     10  C   UNL     1      44.104 115.084  14.449  1.00  0.00     0.000 C 
BRANCH  10  11
ATOM     11  C   UNL     1      43.960 113.551  14.451  1.00  0.00     0.000 C 
BRANCH  11  12
ATOM     12  C   UNL     1      45.308 112.823  14.610  1.00  0.00     0.000 C 
BRANCH  12  13
ATOM     13  C   UNL     1      46.420 113.303  13.659  1.00  0.00     0.006 C 
BRANCH  13  14
ATOM     14  C   UNL     1      47.761 113.522  14.370  1.00  0.00     0.053 C 
BRANCH  14  15
ATOM     15  C   UNL     1      47.787 114.854  15.052  1.00  0.00     0.041 C 
ATOM     16  O   UNL     1      47.604 115.912  14.388  1.00  0.00    -0.550 OA
ATOM     17  O   UNL     1      47.968 114.926  16.428  1.00  0.00    -0.550 OA
ENDBRANCH  14  15
ENDBRANCH  13  14
ENDBRANCH  12  13
ENDBRANCH  11  12
ENDBRANCH  10  11
ENDBRANCH   9  10
ENDBRANCH   8   9
ENDBRANCH   7   8
ENDBRANCH   6   7
ENDBRANCH   5   6
ENDBRANCH   4   5
ENDBRANCH   3   4
ENDBRANCH   2   3
ENDBRANCH   1   2
BRANCH   1  18
ATOM     18  C   UNL     1      40.584 116.983  12.263  1.00  0.00     0.000 C 
BRANCH  18  19
ATOM     19  C   UNL     1      39.460 117.580  13.133  1.00  0.00     0.000 C 
BRANCH  19  20
ATOM     20  C   UNL     1      39.931 118.255  14.435  1.00  0.00     0.000 C 
BRANCH  20  21
ATOM     21  C   UNL     1      41.092 117.551  15.164  1.00  0.00     0.000 C 
BRANCH  21  22
ATOM     22  C   UNL     1      40.647 116.506  16.209  1.00  0.00     0.000 C 
BRANCH  22  23
ATOM     23  C   UNL     1      40.729 115.059  15.684  1.00  0.00     0.000 C 
BRANCH  23  24
ATOM     24  C   UNL     1      39.460 114.252  16.010  1.00  0.00    -0.000 C 
BRANCH  24  25
ATOM     25  C   UNL     1      38.319 115.151  16.527  1.00  0.00    -0.000 C 
BRANCH  25  26
ATOM     26  C   UNL     1      37.041 115.041  15.680  1.00  0.00    -0.000 C 
BRANCH  26  27
ATOM     27  C   UNL     1      36.677 116.364  14.982  1.00  0.00    -0.000 C 
BRANCH  27  28
ATOM     28  C   UNL     1      36.412 117.504  15.987  1.00  0.00    -0.000 C 
BRANCH  28  29
ATOM     29  C   UNL     1      35.630 118.690  15.394  1.00  0.00    -0.000 C 
BRANCH  29  30
ATOM     30  C   UNL     1      36.545 119.809  14.866  1.00  0.00    -0.000 C 
BRANCH  30  31
ATOM     31  C   UNL     1      36.563 119.883  13.330  1.00  0.00    -0.003 C 
ATOM     32  C   UNL     1      35.483 119.013  12.686  1.00  0.00     0.004 C 
ENDBRANCH  30  31
ENDBRANCH  29  30
ENDBRANCH  28  29
ENDBRANCH  27  28
ENDBRANCH  26  27
ENDBRANCH  25  26
ENDBRANCH  24  25
ENDBRANCH  23  24
ENDBRANCH  22  23
ENDBRANCH  21  22
ENDBRANCH  20  21
ENDBRANCH  19  20
ENDBRANCH  18  19
ENDBRANCH   1  18
TORSDOF 28
ENDMDL
MODEL 3
REMARK VINA RESULT:    -4.373      1.795      4.906
REMARK INTER + INTRA:         -16.629
REMARK INTER:                 -11.961
REMARK INTRA:                  -4.668
REMARK UNBOUND:                -5.098
REMARK SMILES CCCCCCCCCCCCCCCCCCCCCCCCCCCCCC(=O)[O-]
REMARK SMILES IDX 16 1 17 2 18 3 19 4 20 5 21 6 22 7 23 8 24 9 25 10 26 11
REMARK SMILES IDX 27 12 28 13 29 14 30 15 31 16 32 17 15 18 14 19 13 20 12 21
REMARK SMILES IDX 11 22 10 23 9 24 8 25 7 26 6 27 5 28 4 29 3 30 2 31 1 32
REMARK H PARENT
REMARK Flexibility Score: inf
ROOT
ATOM      1  C   UNL     1      41.880 115.598  12.989  1.00  0.00     0.000 C 
ENDROOT
BRANCH   1   2
ATOM      2  C   UNL     1      42.121 114.836  14.304  1.00  0.00     0.000 C 
BRANCH   2   3
ATOM      3  C   UNL     1      41.535 115.560  15.526  1.00  0.00     0.000 C 
BRANCH   3   4
ATOM      4  C   UNL     1      40.512 114.673  16.251  1.00  0.00     0.000 C 
BRANCH   4   5
ATOM      5  C   UNL     1      40.207 113.366  15.495  1.00  0.00     0.000 C 
BRANCH   5   6
ATOM      6  C   UNL     1      39.339 112.357  16.272  1.00  0.00     0.000 C 
BRANCH   6   7
ATOM      7  C   UNL     1      37.934 112.195  15.667  1.00  0.00     0.000 C 
BRANCH   7   8
ATOM      8  C   UNL     1      36.822 112.623  16.640  1.00  0.00     0.000 C 
BRANCH   8   9
ATOM      9  C   UNL     1      36.784 114.145  16.859  1.00  0.00     0.000 C 
BRANCH   9  10
ATOM     10  C   UNL     1      36.623 114.926  15.545  1.00  0.00     0.000 C 
BRANCH  10  11
ATOM     11  C   UNL     1      36.953 116.423  15.698  1.00  0.00     0.000 C 
BRANCH  11  12
ATOM     12  C   UNL     1      37.639 117.015  14.453  1.00  0.00     0.000 C 
BRANCH  12  13
ATOM     13  C   UNL     1      36.685 117.663  13.433  1.00  0.00     0.006 C 
BRANCH  13  14
ATOM     14  C   UNL     1      35.702 118.649  14.076  1.00  0.00     0.053 C 
BRANCH  14  15
ATOM     15  C   UNL     1      36.402 119.915  14.463  1.00  0.00     0.041 C 
ATOM     16  O   UNL     1      37.153 120.504  13.638  1.00  0.00    -0.550 OA
ATOM     17  O   UNL     1      36.188 120.470  15.719  1.00  0.00    -0.550 OA
ENDBRANCH  14  15
ENDBRANCH  13  14
ENDBRANCH  12  13
ENDBRANCH  11  12
ENDBRANCH  10  11
ENDBRANCH   9  10
ENDBRANCH   8   9
ENDBRANCH   7   8
ENDBRANCH   6   7
ENDBRANCH   5   6
ENDBRANCH   4   5
ENDBRANCH   3   4
ENDBRANCH   2   3
ENDBRANCH   1   2
BRANCH   1  18
ATOM     18  C   UNL     1      40.961 116.831  13.110  1.00  0.00     0.000 C 
BRANCH  18  19
ATOM     19  C   UNL     1      40.283 117.271  11.797  1.00  0.00     0.000 C 
BRANCH  19  20
ATOM     20  C   UNL     1      41.129 118.198  10.904  1.00  0.00     0.000 C 
BRANCH  20  21
ATOM     21  C   UNL     1      41.814 117.517   9.703  1.00  0.00     0.000 C 
BRANCH  21  22
ATOM     22  C   UNL     1      43.285 117.120   9.952  1.00  0.00     0.000 C 
BRANCH  22  23
ATOM     23  C   UNL     1      43.652 115.756   9.337  1.00  0.00     0.000 C 
BRANCH  23  24
ATOM     24  C   UNL     1      45.121 115.379   9.597  1.00  0.00    -0.000 C 
BRANCH  24  25
ATOM     25  C   UNL     1      45.264 113.941  10.133  1.00  0.00    -0.000 C 
BRANCH  25  26
ATOM     26  C   UNL     1      44.118 113.538  11.075  1.00  0.00    -0.000 C 
BRANCH  26  27
ATOM     27  C   UNL     1      44.596 112.672  12.254  1.00  0.00    -0.000 C 
BRANCH  27  28
ATOM     28  C   UNL     1      45.829 113.272  12.961  1.00  0.00    -0.000 C 
BRANCH  28  29
ATOM     29  C   UNL     1      45.604 113.585  14.451  1.00  0.00    -0.000 C 
BRANCH  29  30
ATOM     30  C   UNL     1      45.742 115.082  14.779  1.00  0.00    -0.000 C 
BRANCH  30  31
ATOM     31  C   UNL     1      46.301 115.896  13.600  1.00  0.00    -0.003 C 
ATOM     32  C   UNL     1      45.308 116.935  13.078  1.00  0.00     0.004 C 
ENDBRANCH  30  31
ENDBRANCH  29  30
ENDBRANCH  28  29
ENDBRANCH  27  28
ENDBRANCH  26  27
ENDBRANCH  25  26
ENDBRANCH  24  25
ENDBRANCH  23  24
ENDBRANCH  22  23
ENDBRANCH  21  22
ENDBRANCH  20  21
ENDBRANCH  19  20
ENDBRANCH  18  19
ENDBRANCH   1  18
TORSDOF 28
ENDMDL
MODEL 4
REMARK VINA RESULT:    -4.368      1.831      4.032
REMARK INTER + INTRA:         -16.617
REMARK INTER:                 -12.185
REMARK INTRA:                  -4.432
REMARK UNBOUND:                -5.098
REMARK SMILES CCCCCCCCCCCCCCCCCCCCCCCCCCCCCC(=O)[O-]
REMARK SMILES IDX 16 1 17 2 18 3 19 4 20 5 21 6 22 7 23 8 24 9 25 10 26 11
REMARK SMILES IDX 27 12 28 13 29 14 30 15 31 16 32 17 15 18 14 19 13 20 12 21
REMARK SMILES IDX 11 22 10 23 9 24 8 25 7 26 6 27 5 28 4 29 3 30 2 31 1 32
REMARK H PARENT
REMARK Flexibility Score: inf
ROOT
ATOM      1  C   UNL     1      42.290 116.863  11.477  1.00  0.00     0.000 C 
ENDROOT
BRANCH   1   2
ATOM      2  C   UNL     1      41.198 116.632  12.536  1.00  0.00     0.000 C 
BRANCH   2   3
ATOM      3  C   UNL     1      41.773 116.292  13.920  1.00  0.00     0.000 C 
BRANCH   3   4
ATOM      4  C   UNL     1      40.654 116.172  14.965  1.00  0.00     0.000 C 
BRANCH   4   5
ATOM      5  C   UNL     1      40.850 114.982  15.923  1.00  0.00     0.000 C 
BRANCH   5   6
ATOM      6  C   UNL     1      40.380 113.623  15.371  1.00  0.00     0.000 C 
BRANCH   6   7
ATOM      7  C   UNL     1      39.489 112.857  16.364  1.00  0.00     0.000 C 
BRANCH   7   8
ATOM      8  C   UNL     1      38.235 112.268  15.695  1.00  0.00     0.000 C 
BRANCH   8   9
ATOM      9  C   UNL     1      37.125 113.316  15.498  1.00  0.00     0.000 C 
BRANCH   9  10
ATOM     10  C   UNL     1      36.906 114.184  16.748  1.00  0.00     0.000 C 
BRANCH  10  11
ATOM     11  C   UNL     1      36.583 115.650  16.404  1.00  0.00     0.000 C 
BRANCH  11  12
ATOM     12  C   UNL     1      37.254 116.121  15.100  1.00  0.00     0.000 C 
BRANCH  12  13
ATOM     13  C   UNL     1      37.256 117.646  14.886  1.00  0.00     0.006 C 
BRANCH  13  14
ATOM     14  C   UNL     1      35.845 118.245  14.845  1.00  0.00     0.053 C 
BRANCH  14  15
ATOM     15  C   UNL     1      35.659 119.072  13.611  1.00  0.00     0.041 C 
ATOM     16  O   UNL     1      34.656 118.889  12.868  1.00  0.00    -0.550 OA
ATOM     17  O   UNL     1      36.570 120.077  13.305  1.00  0.00    -0.550 OA
ENDBRANCH  14  15
ENDBRANCH  13  14
ENDBRANCH  12  13
ENDBRANCH  11  12
ENDBRANCH  10  11
ENDBRANCH   9  10
ENDBRANCH   8   9
ENDBRANCH   7   8
ENDBRANCH   6   7
ENDBRANCH   5   6
ENDBRANCH   4   5
ENDBRANCH   3   4
ENDBRANCH   2   3
ENDBRANCH   1   2
BRANCH   1  18
ATOM     18  C   UNL     1      41.824 117.622  10.218  1.00  0.00     0.000 C 
BRANCH  18  19
ATOM     19  C   UNL     1      42.443 117.131   8.894  1.00  0.00     0.000 C 
BRANCH  19  20
ATOM     20  C   UNL     1      43.817 116.446   9.030  1.00  0.00     0.000 C 
BRANCH  20  21
ATOM     21  C   UNL     1      43.814 114.915   8.858  1.00  0.00     0.000 C 
BRANCH  21  22
ATOM     22  C   UNL     1      45.143 114.229   9.239  1.00  0.00     0.000 C 
BRANCH  22  23
ATOM     23  C   UNL     1      45.192 113.795  10.717  1.00  0.00     0.000 C 
BRANCH  23  24
ATOM     24  C   UNL     1      43.802 113.412  11.255  1.00  0.00    -0.000 C 
BRANCH  24  25
ATOM     25  C   UNL     1      43.647 113.751  12.751  1.00  0.00    -0.000 C 
BRANCH  25  26
ATOM     26  C   UNL     1      44.627 112.974  13.644  1.00  0.00    -0.000 C 
BRANCH  26  27
ATOM     27  C   UNL     1      44.523 113.373  15.128  1.00  0.00    -0.000 C 
BRANCH  27  28
ATOM     28  C   UNL     1      44.809 114.872  15.353  1.00  0.00    -0.000 C 
BRANCH  28  29
ATOM     29  C   UNL     1      46.308 115.219  15.419  1.00  0.00    -0.000 C 
BRANCH  29  30
ATOM     30  C   UNL     1      46.728 116.268  14.375  1.00  0.00    -0.000 C 
BRANCH  30  31
ATOM     31  C   UNL     1      45.525 116.974  13.729  1.00  0.00    -0.003 C 
ATOM     32  C   UNL     1      45.658 117.090  12.210  1.00  0.00     0.004 C 
ENDBRANCH  30  31
ENDBRANCH  29  30
ENDBRANCH  28  29
ENDBRANCH  27  28
ENDBRANCH  26  27
ENDBRANCH  25  26
ENDBRANCH  24  25
ENDBRANCH  23  24
ENDBRANCH  22  23
ENDBRANCH  21  22
ENDBRANCH  20  21
ENDBRANCH  19  20
ENDBRANCH  18  19
ENDBRANCH   1  18
TORSDOF 28
ENDMDL
MODEL 5
REMARK VINA RESULT:    -4.337      4.385      8.824
REMARK INTER + INTRA:         -16.534
REMARK INTER:                 -12.079
REMARK INTRA:                  -4.456
REMARK UNBOUND:                -5.098
REMARK SMILES CCCCCCCCCCCCCCCCCCCCCCCCCCCCCC(=O)[O-]
REMARK SMILES IDX 16 1 17 2 18 3 19 4 20 5 21 6 22 7 23 8 24 9 25 10 26 11
REMARK SMILES IDX 27 12 28 13 29 14 30 15 31 16 32 17 15 18 14 19 13 20 12 21
REMARK SMILES IDX 11 22 10 23 9 24 8 25 7 26 6 27 5 28 4 29 3 30 2 31 1 32
REMARK H PARENT
REMARK Flexibility Score: inf
ROOT
ATOM      1  C   UNL     1      43.441 116.619   9.323  1.00  0.00     0.000 C 
ENDROOT
BRANCH   1   2
ATOM      2  C   UNL     1      44.580 115.925   8.557  1.00  0.00     0.000 C 
BRANCH   2   3
ATOM      3  C   UNL     1      44.452 114.394   8.559  1.00  0.00     0.000 C 
BRANCH   3   4
ATOM      4  C   UNL     1      45.628 113.747   9.306  1.00  0.00     0.000 C 
BRANCH   4   5
ATOM      5  C   UNL     1      45.230 113.185  10.685  1.00  0.00     0.000 C 
BRANCH   5   6
ATOM      6  C   UNL     1      45.853 111.819  11.030  1.00  0.00     0.000 C 
BRANCH   6   7
ATOM      7  C   UNL     1      46.941 111.394  10.030  1.00  0.00     0.000 C 
BRANCH   7   8
ATOM      8  C   UNL     1      46.431 110.361   9.010  1.00  0.00     0.000 C 
BRANCH   8   9
ATOM      9  C   UNL     1      47.226 110.392   7.693  1.00  0.00     0.000 C 
BRANCH   9  10
ATOM     10  C   UNL     1      48.499 111.250   7.792  1.00  0.00     0.000 C 
BRANCH  10  11
ATOM     11  C   UNL     1      48.386 112.573   7.011  1.00  0.00     0.000 C 
BRANCH  11  12
ATOM     12  C   UNL     1      47.126 112.641   6.128  1.00  0.00     0.000 C 
BRANCH  12  13
ATOM     13  C   UNL     1      46.743 114.055   5.653  1.00  0.00     0.006 C 
BRANCH  13  14
ATOM     14  C   UNL     1      47.815 114.698   4.764  1.00  0.00     0.053 C 
BRANCH  14  15
ATOM     15  C   UNL     1      47.296 114.902   3.375  1.00  0.00     0.041 C 
ATOM     16  O   UNL     1      47.922 114.430   2.386  1.00  0.00    -0.550 OA
ATOM     17  O   UNL     1      46.097 115.576   3.175  1.00  0.00    -0.550 OA
ENDBRANCH  14  15
ENDBRANCH  13  14
ENDBRANCH  12  13
ENDBRANCH  11  12
ENDBRANCH  10  11
ENDBRANCH   9  10
ENDBRANCH   8   9
ENDBRANCH   7   8
ENDBRANCH   6   7
ENDBRANCH   5   6
ENDBRANCH   4   5
ENDBRANCH   3   4
ENDBRANCH   2   3
ENDBRANCH   1   2
BRANCH   1  18
ATOM     18  C   UNL     1      43.588 116.607  10.858  1.00  0.00     0.000 C 
BRANCH  18  19
ATOM     19  C   UNL     1      45.021 116.837  11.379  1.00  0.00     0.000 C 
BRANCH  19  20
ATOM     20  C   UNL     1      45.160 116.884  12.912  1.00  0.00     0.000 C 
BRANCH  20  21
ATOM     21  C   UNL     1      46.517 116.411  13.469  1.00  0.00     0.000 C 
BRANCH  21  22
ATOM     22  C   UNL     1      46.410 115.430  14.657  1.00  0.00     0.000 C 
BRANCH  22  23
ATOM     23  C   UNL     1      46.765 113.981  14.273  1.00  0.00     0.000 C 
BRANCH  23  24
ATOM     24  C   UNL     1      45.580 113.021  14.475  1.00  0.00    -0.000 C 
BRANCH  24  25
ATOM     25  C   UNL     1      44.256 113.776  14.706  1.00  0.00    -0.000 C 
BRANCH  25  26
ATOM     26  C   UNL     1      43.365 113.818  13.454  1.00  0.00    -0.000 C 
BRANCH  26  27
ATOM     27  C   UNL     1      41.999 114.476  13.719  1.00  0.00    -0.000 C 
BRANCH  27  28
ATOM     28  C   UNL     1      42.130 115.814  14.476  1.00  0.00    -0.000 C 
BRANCH  28  29
ATOM     29  C   UNL     1      40.979 116.801  14.204  1.00  0.00    -0.000 C 
BRANCH  29  30
ATOM     30  C   UNL     1      40.575 116.857  12.720  1.00  0.00    -0.000 C 
BRANCH  30  31
ATOM     31  C   UNL     1      39.908 118.190  12.339  1.00  0.00    -0.003 C 
ATOM     32  C   UNL     1      39.632 119.077  13.553  1.00  0.00     0.004 C 
ENDBRANCH  30  31
ENDBRANCH  29  30
ENDBRANCH  28  29
ENDBRANCH  27  28
ENDBRANCH  26  27
ENDBRANCH  25  26
ENDBRANCH  24  25
ENDBRANCH  23  24
ENDBRANCH  22  23
ENDBRANCH  21  22
ENDBRANCH  20  21
ENDBRANCH  19  20
ENDBRANCH  18  19
ENDBRANCH   1  18
TORSDOF 28
ENDMDL
MODEL 6
REMARK VINA RESULT:    -4.327      2.993      7.988
REMARK INTER + INTRA:         -16.507
REMARK INTER:                 -12.286
REMARK INTRA:                  -4.221
REMARK UNBOUND:                -5.098
REMARK SMILES CCCCCCCCCCCCCCCCCCCCCCCCCCCCCC(=O)[O-]
REMARK SMILES IDX 16 1 17 2 18 3 19 4 20 5 21 6 22 7 23 8 24 9 25 10 26 11
REMARK SMILES IDX 27 12 28 13 29 14 30 15 31 16 32 17 15 18 14 19 13 20 12 21
REMARK SMILES IDX 11 22 10 23 9 24 8 25 7 26 6 27 5 28 4 29 3 30 2 31 1 32
REMARK H PARENT
REMARK Flexibility Score: inf
ROOT
ATOM      1  C   UNL     1      43.375 115.716   9.353  1.00  0.00     0.000 C 
ENDROOT
BRANCH   1   2
ATOM      2  C   UNL     1      44.910 115.737   9.451  1.00  0.00     0.000 C 
BRANCH   2   3
ATOM      3  C   UNL     1      45.423 116.664  10.564  1.00  0.00     0.000 C 
BRANCH   3   4
ATOM      4  C   UNL     1      45.131 116.070  11.950  1.00  0.00     0.000 C 
BRANCH   4   5
ATOM      5  C   UNL     1      45.423 117.053  13.100  1.00  0.00     0.000 C 
BRANCH   5   6
ATOM      6  C   UNL     1      44.650 116.773  14.402  1.00  0.00     0.000 C 
BRANCH   6   7
ATOM      7  C   UNL     1      43.633 115.627  14.253  1.00  0.00     0.000 C 
BRANCH   7   8
ATOM      8  C   UNL     1      43.476 114.808  15.545  1.00  0.00     0.000 C 
BRANCH   8   9
ATOM      9  C   UNL     1      43.099 113.342  15.270  1.00  0.00     0.000 C 
BRANCH   9  10
ATOM     10  C   UNL     1      44.127 112.351  15.842  1.00  0.00     0.000 C 
BRANCH  10  11
ATOM     11  C   UNL     1      45.477 113.017  16.168  1.00  0.00     0.000 C 
BRANCH  11  12
ATOM     12  C   UNL     1      46.598 112.609  15.194  1.00  0.00     0.000 C 
BRANCH  12  13
ATOM     13  C   UNL     1      46.440 113.149  13.761  1.00  0.00     0.006 C 
BRANCH  13  14
ATOM     14  C   UNL     1      46.400 112.037  12.705  1.00  0.00     0.053 C 
BRANCH  14  15
ATOM     15  C   UNL     1      45.440 112.382  11.610  1.00  0.00     0.041 C 
ATOM     16  O   UNL     1      45.779 112.251  10.402  1.00  0.00    -0.550 OA
ATOM     17  O   UNL     1      44.154 112.808  11.923  1.00  0.00    -0.550 OA
ENDBRANCH  14  15
ENDBRANCH  13  14
ENDBRANCH  12  13
ENDBRANCH  11  12
ENDBRANCH  10  11
ENDBRANCH   9  10
ENDBRANCH   8   9
ENDBRANCH   7   8
ENDBRANCH   6   7
ENDBRANCH   5   6
ENDBRANCH   4   5
ENDBRANCH   3   4
ENDBRANCH   2   3
ENDBRANCH   1   2
BRANCH   1  18
ATOM     18  C   UNL     1      42.726 117.075   9.021  1.00  0.00     0.000 C 
BRANCH  18  19
ATOM     19  C   UNL     1      42.289 117.906  10.244  1.00  0.00     0.000 C 
BRANCH  19  20
ATOM     20  C   UNL     1      41.548 117.115  11.339  1.00  0.00     0.000 C 
BRANCH  20  21
ATOM     21  C   UNL     1      40.055 117.458  11.508  1.00  0.00     0.000 C 
BRANCH  21  22
ATOM     22  C   UNL     1      39.683 118.012  12.900  1.00  0.00     0.000 C 
BRANCH  22  23
ATOM     23  C   UNL     1      40.603 117.488  14.020  1.00  0.00     0.000 C 
BRANCH  23  24
ATOM     24  C   UNL     1      39.917 116.406  14.873  1.00  0.00    -0.000 C 
BRANCH  24  25
ATOM     25  C   UNL     1      38.825 116.996  15.788  1.00  0.00    -0.000 C 
BRANCH  25  26
ATOM     26  C   UNL     1      37.403 116.671  15.305  1.00  0.00    -0.000 C 
BRANCH  26  27
ATOM     27  C   UNL     1      36.505 117.919  15.223  1.00  0.00    -0.000 C 
BRANCH  27  28
ATOM     28  C   UNL     1      36.114 118.265  13.771  1.00  0.00    -0.000 C 
BRANCH  28  29
ATOM     29  C   UNL     1      36.244 119.761  13.429  1.00  0.00    -0.000 C 
BRANCH  29  30
ATOM     30  C   UNL     1      37.413 120.444  14.160  1.00  0.00    -0.000 C 
BRANCH  30  31
ATOM     31  C   UNL     1      37.008 121.784  14.799  1.00  0.00    -0.003 C 
ATOM     32  C   UNL     1      36.604 121.636  16.266  1.00  0.00     0.004 C 
ENDBRANCH  30  31
ENDBRANCH  29  30
ENDBRANCH  28  29
ENDBRANCH  27  28
ENDBRANCH  26  27
ENDBRANCH  25  26
ENDBRANCH  24  25
ENDBRANCH  23  24
ENDBRANCH  22  23
ENDBRANCH  21  22
ENDBRANCH  20  21
ENDBRANCH  19  20
ENDBRANCH  18  19
ENDBRANCH   1  18
TORSDOF 28
ENDMDL
MODEL 7
REMARK VINA RESULT:    -4.308      2.300      7.691
REMARK INTER + INTRA:         -16.458
REMARK INTER:                 -12.368
REMARK INTRA:                  -4.089
REMARK UNBOUND:                -5.098
REMARK SMILES CCCCCCCCCCCCCCCCCCCCCCCCCCCCCC(=O)[O-]
REMARK SMILES IDX 16 1 17 2 18 3 19 4 20 5 21 6 22 7 23 8 24 9 25 10 26 11
REMARK SMILES IDX 27 12 28 13 29 14 30 15 31 16 32 17 15 18 14 19 13 20 12 21
REMARK SMILES IDX 11 22 10 23 9 24 8 25 7 26 6 27 5 28 4 29 3 30 2 31 1 32
REMARK H PARENT
REMARK Flexibility Score: inf
ROOT
ATOM      1  C   UNL     1      44.175 115.788   8.799  1.00  0.00     0.000 C 
ENDROOT
BRANCH   1   2
ATOM      2  C   UNL     1      44.168 114.381   9.421  1.00  0.00     0.000 C 
BRANCH   2   3
ATOM      3  C   UNL     1      44.394 114.401  10.941  1.00  0.00     0.000 C 
BRANCH   3   4
ATOM      4  C   UNL     1      45.283 115.585  11.347  1.00  0.00     0.000 C 
BRANCH   4   5
ATOM      5  C   UNL     1      45.015 116.075  12.783  1.00  0.00     0.000 C 
BRANCH   5   6
ATOM      6  C   UNL     1      46.198 116.803  13.449  1.00  0.00     0.000 C 
BRANCH   6   7
ATOM      7  C   UNL     1      46.035 116.928  14.974  1.00  0.00     0.000 C 
BRANCH   7   8
ATOM      8  C   UNL     1      46.690 115.762  15.733  1.00  0.00     0.000 C 
BRANCH   8   9
ATOM      9  C   UNL     1      47.893 115.170  14.978  1.00  0.00     0.000 C 
BRANCH   9  10
ATOM     10  C   UNL     1      47.867 113.633  14.939  1.00  0.00     0.000 C 
BRANCH  10  11
ATOM     11  C   UNL     1      46.953 113.082  13.828  1.00  0.00     0.000 C 
BRANCH  11  12
ATOM     12  C   UNL     1      45.744 112.303  14.379  1.00  0.00     0.000 C 
BRANCH  12  13
ATOM     13  C   UNL     1      44.389 113.016  14.229  1.00  0.00     0.006 C 
BRANCH  13  14
ATOM     14  C   UNL     1      43.683 113.247  15.571  1.00  0.00     0.053 C 
BRANCH  14  15
ATOM     15  C   UNL     1      42.564 114.230  15.418  1.00  0.00     0.041 C 
ATOM     16  O   UNL     1      42.800 115.469  15.430  1.00  0.00    -0.550 OA
ATOM     17  O   UNL     1      41.266 113.776  15.217  1.00  0.00    -0.550 OA
ENDBRANCH  14  15
ENDBRANCH  13  14
ENDBRANCH  12  13
ENDBRANCH  11  12
ENDBRANCH  10  11
ENDBRANCH   9  10
ENDBRANCH   8   9
ENDBRANCH   7   8
ENDBRANCH   6   7
ENDBRANCH   5   6
ENDBRANCH   4   5
ENDBRANCH   3   4
ENDBRANCH   2   3
ENDBRANCH   1   2
BRANCH   1  18
ATOM     18  C   UNL     1      42.783 116.351   8.447  1.00  0.00     0.000 C 
BRANCH  18  19
ATOM     19  C   UNL     1      42.417 117.674   9.149  1.00  0.00     0.000 C 
BRANCH  19  20
ATOM     20  C   UNL     1      41.405 117.543  10.302  1.00  0.00     0.000 C 
BRANCH  20  21
ATOM     21  C   UNL     1      41.984 117.034  11.637  1.00  0.00     0.000 C 
BRANCH  21  22
ATOM     22  C   UNL     1      40.924 116.530  12.639  1.00  0.00     0.000 C 
BRANCH  22  23
ATOM     23  C   UNL     1      39.864 117.595  12.979  1.00  0.00     0.000 C 
BRANCH  23  24
ATOM     24  C   UNL     1      39.791 117.877  14.490  1.00  0.00    -0.000 C 
BRANCH  24  25
ATOM     25  C   UNL     1      38.721 117.016  15.189  1.00  0.00    -0.000 C 
BRANCH  25  26
ATOM     26  C   UNL     1      37.364 117.046  14.467  1.00  0.00    -0.000 C 
BRANCH  26  27
ATOM     27  C   UNL     1      36.406 118.101  15.048  1.00  0.00    -0.000 C 
BRANCH  27  28
ATOM     28  C   UNL     1      35.565 118.794  13.956  1.00  0.00    -0.000 C 
BRANCH  28  29
ATOM     29  C   UNL     1      36.271 119.988  13.288  1.00  0.00    -0.000 C 
BRANCH  29  30
ATOM     30  C   UNL     1      37.425 120.553  14.134  1.00  0.00    -0.000 C 
BRANCH  30  31
ATOM     31  C   UNL     1      37.062 121.881  14.819  1.00  0.00    -0.003 C 
ATOM     32  C   UNL     1      36.577 121.688  16.256  1.00  0.00     0.004 C 
ENDBRANCH  30  31
ENDBRANCH  29  30
ENDBRANCH  28  29
ENDBRANCH  27  28
ENDBRANCH  26  27
ENDBRANCH  25  26
ENDBRANCH  24  25
ENDBRANCH  23  24
ENDBRANCH  22  23
ENDBRANCH  21  22
ENDBRANCH  20  21
ENDBRANCH  19  20
ENDBRANCH  18  19
ENDBRANCH   1  18
TORSDOF 28
ENDMDL
MODEL 8
REMARK VINA RESULT:    -4.288      2.803      8.117
REMARK INTER + INTRA:         -16.405
REMARK INTER:                 -11.389
REMARK INTRA:                  -5.016
REMARK UNBOUND:                -5.098
REMARK SMILES CCCCCCCCCCCCCCCCCCCCCCCCCCCCCC(=O)[O-]
REMARK SMILES IDX 16 1 17 2 18 3 19 4 20 5 21 6 22 7 23 8 24 9 25 10 26 11
REMARK SMILES IDX 27 12 28 13 29 14 30 15 31 16 32 17 15 18 14 19 13 20 12 21
REMARK SMILES IDX 11 22 10 23 9 24 8 25 7 26 6 27 5 28 4 29 3 30 2 31 1 32
REMARK H PARENT
REMARK Flexibility Score: inf
ROOT
ATOM      1  C   UNL     1      37.068 117.244  12.834  1.00  0.00     0.000 C 
ENDROOT
BRANCH   1   2
ATOM      2  C   UNL     1      38.551 117.593  13.045  1.00  0.00     0.000 C 
BRANCH   2   3
ATOM      3  C   UNL     1      39.437 117.166  11.865  1.00  0.00     0.000 C 
BRANCH   3   4
ATOM      4  C   UNL     1      40.642 118.106  11.716  1.00  0.00     0.000 C 
BRANCH   4   5
ATOM      5  C   UNL     1      41.361 117.955  10.362  1.00  0.00     0.000 C 
BRANCH   5   6
ATOM      6  C   UNL     1      42.680 117.160  10.416  1.00  0.00     0.000 C 
BRANCH   6   7
ATOM      7  C   UNL     1      43.077 116.578   9.049  1.00  0.00     0.000 C 
BRANCH   7   8
ATOM      8  C   UNL     1      44.568 116.206   8.978  1.00  0.00     0.000 C 
BRANCH   8   9
ATOM      9  C   UNL     1      45.017 115.342  10.170  1.00  0.00     0.000 C 
BRANCH   9  10
ATOM     10  C   UNL     1      44.481 113.903  10.089  1.00  0.00     0.000 C 
BRANCH  10  11
ATOM     11  C   UNL     1      43.884 113.415  11.423  1.00  0.00     0.000 C 
BRANCH  11  12
ATOM     12  C   UNL     1      44.748 112.341  12.108  1.00  0.00     0.000 C 
BRANCH  12  13
ATOM     13  C   UNL     1      45.224 112.700  13.528  1.00  0.00     0.006 C 
BRANCH  13  14
ATOM     14  C   UNL     1      46.368 113.722  13.533  1.00  0.00     0.053 C 
BRANCH  14  15
ATOM     15  C   UNL     1      45.943 114.986  14.214  1.00  0.00     0.041 C 
ATOM     16  O   UNL     1      45.638 114.978  15.438  1.00  0.00    -0.550 OA
ATOM     17  O   UNL     1      45.928 116.183  13.508  1.00  0.00    -0.550 OA
ENDBRANCH  14  15
ENDBRANCH  13  14
ENDBRANCH  12  13
ENDBRANCH  11  12
ENDBRANCH  10  11
ENDBRANCH   9  10
ENDBRANCH   8   9
ENDBRANCH   7   8
ENDBRANCH   6   7
ENDBRANCH   5   6
ENDBRANCH   4   5
ENDBRANCH   3   4
ENDBRANCH   2   3
ENDBRANCH   1   2
BRANCH   1  18
ATOM     18  C   UNL     1      36.112 118.454  12.811  1.00  0.00     0.000 C 
BRANCH  18  19
ATOM     19  C   UNL     1      36.657 119.729  13.485  1.00  0.00     0.000 C 
BRANCH  19  20
ATOM     20  C   UNL     1      36.167 119.967  14.926  1.00  0.00     0.000 C 
BRANCH  20  21
ATOM     21  C   UNL     1      37.043 119.350  16.034  1.00  0.00     0.000 C 
BRANCH  21  22
ATOM     22  C   UNL     1      36.719 117.875  16.353  1.00  0.00     0.000 C 
BRANCH  22  23
ATOM     23  C   UNL     1      37.954 117.072  16.803  1.00  0.00     0.000 C 
BRANCH  23  24
ATOM     24  C   UNL     1      37.987 115.664  16.183  1.00  0.00    -0.000 C 
BRANCH  24  25
ATOM     25  C   UNL     1      39.037 114.759  16.858  1.00  0.00    -0.000 C 
BRANCH  25  26
ATOM     26  C   UNL     1      39.742 113.819  15.866  1.00  0.00    -0.000 C 
BRANCH  26  27
ATOM     27  C   UNL     1      41.137 113.384  16.351  1.00  0.00    -0.000 C 
BRANCH  27  28
ATOM     28  C   UNL     1      42.248 113.749  15.344  1.00  0.00    -0.000 C 
BRANCH  28  29
ATOM     29  C   UNL     1      41.735 114.464  14.081  1.00  0.00    -0.000 C 
BRANCH  29  30
ATOM     30  C   UNL     1      42.385 115.842  13.865  1.00  0.00    -0.000 C 
BRANCH  30  31
ATOM     31  C   UNL     1      42.551 116.630  15.175  1.00  0.00    -0.003 C 
ATOM     32  C   UNL     1      41.371 117.561  15.454  1.00  0.00     0.004 C 
ENDBRANCH  30  31
ENDBRANCH  29  30
ENDBRANCH  28  29
ENDBRANCH  27  28
ENDBRANCH  26  27
ENDBRANCH  25  26
ENDBRANCH  24  25
ENDBRANCH  23  24
ENDBRANCH  22  23
ENDBRANCH  21  22
ENDBRANCH  20  21
ENDBRANCH  19  20
ENDBRANCH  18  19
ENDBRANCH   1  18
TORSDOF 28
ENDMDL
MODEL 9
REMARK VINA RESULT:    -4.270      3.492      8.081
REMARK INTER + INTRA:         -16.359
REMARK INTER:                 -12.154
REMARK INTRA:                  -4.205
REMARK UNBOUND:                -5.098
REMARK SMILES CCCCCCCCCCCCCCCCCCCCCCCCCCCCCC(=O)[O-]
REMARK SMILES IDX 16 1 17 2 18 3 19 4 20 5 21 6 22 7 23 8 24 9 25 10 26 11
REMARK SMILES IDX 27 12 28 13 29 14 30 15 31 16 32 17 15 18 14 19 13 20 12 21
REMARK SMILES IDX 11 22 10 23 9 24 8 25 7 26 6 27 5 28 4 29 3 30 2 31 1 32
REMARK H PARENT
REMARK Flexibility Score: inf
ROOT
ATOM      1  C   UNL     1      39.955 117.257  11.979  1.00  0.00     0.000 C 
ENDROOT
BRANCH   1   2
ATOM      2  C   UNL     1      40.900 117.991  11.012  1.00  0.00     0.000 C 
BRANCH   2   3
ATOM      3  C   UNL     1      42.171 117.188  10.698  1.00  0.00     0.000 C 
BRANCH   3   4
ATOM      4  C   UNL     1      42.645 117.450   9.261  1.00  0.00     0.000 C 
BRANCH   4   5
ATOM      5  C   UNL     1      43.177 116.185   8.561  1.00  0.00     0.000 C 
BRANCH   5   6
ATOM      6  C   UNL     1      44.669 115.889   8.808  1.00  0.00     0.000 C 
BRANCH   6   7
ATOM      7  C   UNL     1      44.948 114.391   9.022  1.00  0.00     0.000 C 
BRANCH   7   8
ATOM      8  C   UNL     1      44.150 113.807  10.201  1.00  0.00     0.000 C 
BRANCH   8   9
ATOM      9  C   UNL     1      44.685 114.278  11.565  1.00  0.00     0.000 C 
BRANCH   9  10
ATOM     10  C   UNL     1      43.570 114.443  12.610  1.00  0.00     0.000 C 
BRANCH  10  11
ATOM     11  C   UNL     1      43.888 113.730  13.937  1.00  0.00     0.000 C 
BRANCH  11  12
ATOM     12  C   UNL     1      44.172 114.710  15.091  1.00  0.00     0.000 C 
BRANCH  12  13
ATOM     13  C   UNL     1      45.507 114.481  15.822  1.00  0.00     0.006 C 
BRANCH  13  14
ATOM     14  C   UNL     1      46.631 115.392  15.313  1.00  0.00     0.053 C 
BRANCH  14  15
ATOM     15  C   UNL     1      47.719 114.584  14.678  1.00  0.00     0.041 C 
ATOM     16  O   UNL     1      48.929 114.900  14.849  1.00  0.00    -0.550 OA
ATOM     17  O   UNL     1      47.400 113.453  13.935  1.00  0.00    -0.550 OA
ENDBRANCH  14  15
ENDBRANCH  13  14
ENDBRANCH  12  13
ENDBRANCH  11  12
ENDBRANCH  10  11
ENDBRANCH   9  10
ENDBRANCH   8   9
ENDBRANCH   7   8
ENDBRANCH   6   7
ENDBRANCH   5   6
ENDBRANCH   4   5
ENDBRANCH   3   4
ENDBRANCH   2   3
ENDBRANCH   1   2
BRANCH   1  18
ATOM     18  C   UNL     1      40.306 117.410  13.473  1.00  0.00     0.000 C 
BRANCH  18  19
ATOM     19  C   UNL     1      40.818 116.127  14.158  1.00  0.00     0.000 C 
BRANCH  19  20
ATOM     20  C   UNL     1      40.906 116.198  15.694  1.00  0.00     0.000 C 
BRANCH  20  21
ATOM     21  C   UNL     1      40.596 114.884  16.437  1.00  0.00     0.000 C 
BRANCH  21  22
ATOM     22  C   UNL     1      40.578 113.632  15.534  1.00  0.00     0.000 C 
BRANCH  22  23
ATOM     23  C   UNL     1      39.753 112.474  16.127  1.00  0.00     0.000 C 
BRANCH  23  24
ATOM     24  C   UNL     1      38.304 112.471  15.609  1.00  0.00    -0.000 C 
BRANCH  24  25
ATOM     25  C   UNL     1      37.295 112.846  16.713  1.00  0.00    -0.000 C 
BRANCH  25  26
ATOM     26  C   UNL     1      37.050 114.361  16.809  1.00  0.00    -0.000 C 
BRANCH  26  27
ATOM     27  C   UNL     1      36.668 114.988  15.456  1.00  0.00    -0.000 C 
BRANCH  27  28
ATOM     28  C   UNL     1      37.216 116.421  15.299  1.00  0.00    -0.000 C 
BRANCH  28  29
ATOM     29  C   UNL     1      36.757 117.127  14.009  1.00  0.00    -0.000 C 
BRANCH  29  30
ATOM     30  C   UNL     1      35.891 118.369  14.280  1.00  0.00    -0.000 C 
BRANCH  30  31
ATOM     31  C   UNL     1      36.270 119.561  13.386  1.00  0.00    -0.003 C 
ATOM     32  C   UNL     1      37.341 120.452  14.017  1.00  0.00     0.004 C 
ENDBRANCH  30  31
ENDBRANCH  29  30
ENDBRANCH  28  29
ENDBRANCH  27  28
ENDBRANCH  26  27
ENDBRANCH  25  26
ENDBRANCH  24  25
ENDBRANCH  23  24
ENDBRANCH  22  23
ENDBRANCH  21  22
ENDBRANCH  20  21
ENDBRANCH  19  20
ENDBRANCH  18  19
ENDBRANCH   1  18
TORSDOF 28
ENDMDL
