MODEL 1
REMARK VINA RESULT:    -5.276      0.000      0.000
REMARK INTER + INTRA:         -13.000
REMARK INTER:                 -10.211
REMARK INTRA:                  -2.790
REMARK UNBOUND:                -2.790
REMARK SMILES CCCCCCCCCCCCCCCCCC(=O)[O-]
REMARK SMILES IDX 10 1 11 2 12 3 13 4 14 5 15 6 16 7 17 8 18 9 19 10 20 11
REMARK SMILES IDX 9 12 8 13 7 14 6 15 5 16 4 17 3 18 2 19 1 20
REMARK H PARENT
REMARK Flexibility Score: inf
ROOT
ATOM      1  C   UNL     1     102.000 104.744 227.596  1.00  0.00     0.000 C 
ENDROOT
BRANCH   1   2
ATOM      2  C   UNL     1     101.409 105.429 228.842  1.00  0.00     0.000 C 
BRANCH   2   3
ATOM      3  C   UNL     1     101.304 104.487 230.054  1.00  0.00     0.000 C 
BRANCH   3   4
ATOM      4  C   UNL     1     102.207 103.251 229.915  1.00  0.00     0.000 C 
BRANCH   4   5
ATOM      5  C   UNL     1     103.493 103.365 230.753  1.00  0.00     0.000 C 
BRANCH   5   6
ATOM      6  C   UNL     1     104.111 101.997 231.091  1.00  0.00     0.000 C 
BRANCH   6   7
ATOM      7  C   UNL     1     105.650 101.971 231.144  1.00  0.00     0.006 C 
BRANCH   7   8
ATOM      8  C   UNL     1     106.301 102.892 230.104  1.00  0.00     0.053 C 
BRANCH   8   9
ATOM      9  C   UNL     1     107.666 103.304 230.553  1.00  0.00     0.041 C 
ATOM     10  O   UNL     1     107.825 104.375 231.196  1.00  0.00    -0.550 OA
ATOM     11  O   UNL     1     108.771 102.525 230.229  1.00  0.00    -0.550 OA
ENDBRANCH   8   9
ENDBRANCH   7   8
ENDBRANCH   6   7
ENDBRANCH   5   6
ENDBRANCH   4   5
ENDBRANCH   3   4
ENDBRANCH   2   3
ENDBRANCH   1   2
BRANCH   1  12
ATOM     12  C   UNL     1     103.150 105.505 226.910  1.00  0.00     0.000 C 
BRANCH  12  13
ATOM     13  C   UNL     1     104.540 105.025 227.362  1.00  0.00    -0.000 C 
BRANCH  13  14
ATOM     14  C   UNL     1     105.144 105.898 228.476  1.00  0.00    -0.000 C 
BRANCH  14  15
ATOM     15  C   UNL     1     104.674 107.368 228.494  1.00  0.00    -0.000 C 
BRANCH  15  16
ATOM     16  C   UNL     1     104.765 108.068 229.862  1.00  0.00    -0.000 C 
BRANCH  16  17
ATOM     17  C   UNL     1     103.476 107.929 230.691  1.00  0.00    -0.000 C 
BRANCH  17  18
ATOM     18  C   UNL     1     103.580 106.819 231.760  1.00  0.00    -0.000 C 
BRANCH  18  19
ATOM     19  C   UNL     1     105.025 106.485 232.168  1.00  0.00    -0.003 C 
ATOM     20  C   UNL     1     105.142 105.974 233.602  1.00  0.00     0.004 C 
ENDBRANCH  18  19
ENDBRANCH  17  18
ENDBRANCH  16  17
ENDBRANCH  15  16
ENDBRANCH  14  15
ENDBRANCH  13  14
ENDBRANCH  12  13
ENDBRANCH   1  12
TORSDOF 16
ENDMDL
MODEL 2
REMARK VINA RESULT:    -5.255      2.940      5.855
REMARK INTER + INTRA:         -12.961
REMARK INTER:                 -10.250
REMARK INTRA:                  -2.711
REMARK UNBOUND:                -2.790
REMARK SMILES CCCCCCCCCCCCCCCCCC(=O)[O-]
REMARK SMILES IDX 10 1 11 2 12 3 13 4 14 5 15 6 16 7 17 8 18 9 19 10 20 11
REMARK SMILES IDX 9 12 8 13 7 14 6 15 5 16 4 17 3 18 2 19 1 20
REMARK H PARENT
REMARK Flexibility Score: inf
ROOT
ATOM      1  C   UNL     1     105.795 102.406 231.581  1.00  0.00     0.000 C 
ENDROOT
BRANCH   1   2
ATOM      2  C   UNL     1     106.958 103.255 231.035  1.00  0.00     0.000 C 
BRANCH   2   3
ATOM      3  C   UNL     1     106.982 104.682 231.611  1.00  0.00     0.000 C 
BRANCH   3   4
ATOM      4  C   UNL     1     106.375 104.755 233.021  1.00  0.00     0.000 C 
BRANCH   4   5
ATOM      5  C   UNL     1     105.308 105.856 233.145  1.00  0.00     0.000 C 
BRANCH   5   6
ATOM      6  C   UNL     1     104.663 106.221 231.796  1.00  0.00     0.000 C 
BRANCH   6   7
ATOM      7  C   UNL     1     103.178 106.621 231.869  1.00  0.00     0.006 C 
BRANCH   7   8
ATOM      8  C   UNL     1     102.420 105.907 232.996  1.00  0.00     0.053 C 
BRANCH   8   9
ATOM      9  C   UNL     1     100.979 106.306 232.991  1.00  0.00     0.041 C 
ATOM     10  O   UNL     1     100.227 105.951 232.045  1.00  0.00    -0.550 OA
ATOM     11  O   UNL     1     100.473 107.102 234.011  1.00  0.00    -0.550 OA
ENDBRANCH   8   9
ENDBRANCH   7   8
ENDBRANCH   6   7
ENDBRANCH   5   6
ENDBRANCH   4   5
ENDBRANCH   3   4
ENDBRANCH   2   3
ENDBRANCH   1   2
BRANCH   1  12
ATOM     12  C   UNL     1     104.598 102.239 230.625  1.00  0.00     0.000 C 
BRANCH  12  13
ATOM     13  C   UNL     1     103.288 102.803 231.201  1.00  0.00    -0.000 C 
BRANCH  13  14
ATOM     14  C   UNL     1     102.036 102.241 230.506  1.00  0.00    -0.000 C 
BRANCH  14  15
ATOM     15  C   UNL     1     101.047 103.296 229.969  1.00  0.00    -0.000 C 
BRANCH  15  16
ATOM     16  C   UNL     1     101.263 103.708 228.501  1.00  0.00    -0.000 C 
BRANCH  16  17
ATOM     17  C   UNL     1     101.784 105.149 228.355  1.00  0.00    -0.000 C 
BRANCH  17  18
ATOM     18  C   UNL     1     102.995 105.244 227.403  1.00  0.00    -0.000 C 
BRANCH  18  19
ATOM     19  C   UNL     1     104.212 105.959 228.015  1.00  0.00    -0.003 C 
ATOM     20  C   UNL     1     105.416 105.042 228.205  1.00  0.00     0.004 C 
ENDBRANCH  18  19
ENDBRANCH  17  18
ENDBRANCH  16  17
ENDBRANCH  15  16
ENDBRANCH  14  15
ENDBRANCH  13  14
ENDBRANCH  12  13
ENDBRANCH   1  12
TORSDOF 16
ENDMDL
MODEL 3
REMARK VINA RESULT:    -5.245      1.451      2.265
REMARK INTER + INTRA:         -12.941
REMARK INTER:                 -10.118
REMARK INTRA:                  -2.823
REMARK UNBOUND:                -2.790
REMARK SMILES CCCCCCCCCCCCCCCCCC(=O)[O-]
REMARK SMILES IDX 10 1 11 2 12 3 13 4 14 5 15 6 16 7 17 8 18 9 19 10 20 11
REMARK SMILES IDX 9 12 8 13 7 14 6 15 5 16 4 17 3 18 2 19 1 20
REMARK H PARENT
REMARK Flexibility Score: inf
ROOT
ATOM      1  C   UNL     1     103.224 105.346 227.201  1.00  0.00     0.000 C 
ENDROOT
BRANCH   1   2
ATOM      2  C   UNL     1     101.848 104.820 227.651  1.00  0.00     0.000 C 
BRANCH   2   3
ATOM      3  C   UNL     1     101.635 104.919 229.171  1.00  0.00     0.000 C 
BRANCH   3   4
ATOM      4  C   UNL     1     101.028 103.636 229.763  1.00  0.00     0.000 C 
BRANCH   4   5
ATOM      5  C   UNL     1     102.095 102.577 230.088  1.00  0.00     0.000 C 
BRANCH   5   6
ATOM      6  C   UNL     1     103.386 103.183 230.666  1.00  0.00     0.000 C 
BRANCH   6   7
ATOM      7  C   UNL     1     104.432 102.160 231.143  1.00  0.00     0.006 C 
BRANCH   7   8
ATOM      8  C   UNL     1     105.742 102.813 231.603  1.00  0.00     0.053 C 
BRANCH   8   9
ATOM      9  C   UNL     1     106.903 102.232 230.860  1.00  0.00     0.041 C 
ATOM     10  O   UNL     1     107.397 101.130 231.218  1.00  0.00    -0.550 OA
ATOM     11  O   UNL     1     107.466 102.925 229.795  1.00  0.00    -0.550 OA
ENDBRANCH   8   9
ENDBRANCH   7   8
ENDBRANCH   6   7
ENDBRANCH   5   6
ENDBRANCH   4   5
ENDBRANCH   3   4
ENDBRANCH   2   3
ENDBRANCH   1   2
BRANCH   1  12
ATOM     12  C   UNL     1     103.997 106.156 228.258  1.00  0.00     0.000 C 
BRANCH  12  13
ATOM     13  C   UNL     1     105.343 105.518 228.637  1.00  0.00    -0.000 C 
BRANCH  13  14
ATOM     14  C   UNL     1     105.919 106.066 229.954  1.00  0.00    -0.000 C 
BRANCH  14  15
ATOM     15  C   UNL     1     104.896 106.740 230.893  1.00  0.00    -0.000 C 
BRANCH  15  16
ATOM     16  C   UNL     1     105.014 106.349 232.378  1.00  0.00    -0.000 C 
BRANCH  16  17
ATOM     17  C   UNL     1     103.648 106.085 233.036  1.00  0.00    -0.000 C 
BRANCH  17  18
ATOM     18  C   UNL     1     102.471 106.582 232.169  1.00  0.00    -0.000 C 
BRANCH  18  19
ATOM     19  C   UNL     1     101.093 106.109 232.664  1.00  0.00    -0.003 C 
ATOM     20  C   UNL     1     100.545 106.951 233.812  1.00  0.00     0.004 C 
ENDBRANCH  18  19
ENDBRANCH  17  18
ENDBRANCH  16  17
ENDBRANCH  15  16
ENDBRANCH  14  15
ENDBRANCH  13  14
ENDBRANCH  12  13
ENDBRANCH   1  12
TORSDOF 16
ENDMDL
MODEL 4
REMARK VINA RESULT:    -5.228      1.595      3.246
REMARK INTER + INTRA:         -12.908
REMARK INTER:                  -9.957
REMARK INTRA:                  -2.950
REMARK UNBOUND:                -2.790
REMARK SMILES CCCCCCCCCCCCCCCCCC(=O)[O-]
REMARK SMILES IDX 10 1 11 2 12 3 13 4 14 5 15 6 16 7 17 8 18 9 19 10 20 11
REMARK SMILES IDX 9 12 8 13 7 14 6 15 5 16 4 17 3 18 2 19 1 20
REMARK H PARENT
REMARK Flexibility Score: inf
ROOT
ATOM      1  C   UNL     1     101.255 104.001 228.106  1.00  0.00     0.000 C 
ENDROOT
BRANCH   1   2
ATOM      2  C   UNL     1     101.945 105.175 227.387  1.00  0.00     0.000 C 
BRANCH   2   3
ATOM      3  C   UNL     1     103.480 105.064 227.392  1.00  0.00     0.000 C 
BRANCH   3   4
ATOM      4  C   UNL     1     104.154 106.282 228.043  1.00  0.00     0.000 C 
BRANCH   4   5
ATOM      5  C   UNL     1     105.404 105.898 228.855  1.00  0.00     0.000 C 
BRANCH   5   6
ATOM      6  C   UNL     1     105.530 104.380 229.078  1.00  0.00     0.000 C 
BRANCH   6   7
ATOM      7  C   UNL     1     106.474 103.965 230.222  1.00  0.00     0.006 C 
BRANCH   7   8
ATOM      8  C   UNL     1     105.750 103.236 231.361  1.00  0.00     0.053 C 
BRANCH   8   9
ATOM      9  C   UNL     1     105.693 101.767 231.087  1.00  0.00     0.041 C 
ATOM     10  O   UNL     1     106.737 101.067 231.168  1.00  0.00    -0.550 OA
ATOM     11  O   UNL     1     104.495 101.175 230.706  1.00  0.00    -0.550 OA
ENDBRANCH   8   9
ENDBRANCH   7   8
ENDBRANCH   6   7
ENDBRANCH   5   6
ENDBRANCH   4   5
ENDBRANCH   3   4
ENDBRANCH   2   3
ENDBRANCH   1   2
BRANCH   1  12
ATOM     12  C   UNL     1     102.065 103.360 229.248  1.00  0.00     0.000 C 
BRANCH  12  13
ATOM     13  C   UNL     1     101.366 103.468 230.614  1.00  0.00    -0.000 C 
BRANCH  13  14
ATOM     14  C   UNL     1     100.261 104.538 230.640  1.00  0.00    -0.000 C 
BRANCH  14  15
ATOM     15  C   UNL     1     100.626 105.850 231.367  1.00  0.00    -0.000 C 
BRANCH  15  16
ATOM     16  C   UNL     1     101.569 106.788 230.592  1.00  0.00    -0.000 C 
BRANCH  16  17
ATOM     17  C   UNL     1     102.704 107.350 231.466  1.00  0.00    -0.000 C 
BRANCH  17  18
ATOM     18  C   UNL     1     103.541 106.236 232.131  1.00  0.00    -0.000 C 
BRANCH  18  19
ATOM     19  C   UNL     1     105.002 106.635 232.400  1.00  0.00    -0.003 C 
ATOM     20  C   UNL     1     105.536 106.103 233.727  1.00  0.00     0.004 C 
ENDBRANCH  18  19
ENDBRANCH  17  18
ENDBRANCH  16  17
ENDBRANCH  15  16
ENDBRANCH  14  15
ENDBRANCH  13  14
ENDBRANCH  12  13
ENDBRANCH   1  12
TORSDOF 16
ENDMDL
MODEL 5
REMARK VINA RESULT:    -5.226      1.608      3.411
REMARK INTER + INTRA:         -12.904
REMARK INTER:                 -10.327
REMARK INTRA:                  -2.577
REMARK UNBOUND:                -2.790
REMARK SMILES CCCCCCCCCCCCCCCCCC(=O)[O-]
REMARK SMILES IDX 10 1 11 2 12 3 13 4 14 5 15 6 16 7 17 8 18 9 19 10 20 11
REMARK SMILES IDX 9 12 8 13 7 14 6 15 5 16 4 17 3 18 2 19 1 20
REMARK H PARENT
REMARK Flexibility Score: inf
ROOT
ATOM      1  C   UNL     1     104.459 106.419 228.120  1.00  0.00     0.000 C 
ENDROOT
BRANCH   1   2
ATOM      2  C   UNL     1     103.951 105.176 227.365  1.00  0.00     0.000 C 
BRANCH   2   3
ATOM      3  C   UNL     1     102.465 105.273 226.980  1.00  0.00     0.000 C 
BRANCH   3   4
ATOM      4  C   UNL     1     101.534 105.150 228.197  1.00  0.00     0.000 C 
BRANCH   4   5
ATOM      5  C   UNL     1     101.199 103.687 228.536  1.00  0.00     0.000 C 
BRANCH   5   6
ATOM      6  C   UNL     1     101.419 103.351 230.021  1.00  0.00     0.000 C 
BRANCH   6   7
ATOM      7  C   UNL     1     102.880 103.431 230.500  1.00  0.00     0.006 C 
BRANCH   7   8
ATOM      8  C   UNL     1     103.399 102.102 231.065  1.00  0.00     0.053 C 
BRANCH   8   9
ATOM      9  C   UNL     1     104.768 101.811 230.540  1.00  0.00     0.041 C 
ATOM     10  O   UNL     1     105.282 102.554 229.662  1.00  0.00    -0.550 OA
ATOM     11  O   UNL     1     105.465 100.696 230.991  1.00  0.00    -0.550 OA
ENDBRANCH   8   9
ENDBRANCH   7   8
ENDBRANCH   6   7
ENDBRANCH   5   6
ENDBRANCH   4   5
ENDBRANCH   3   4
ENDBRANCH   2   3
ENDBRANCH   1   2
BRANCH   1  12
ATOM     12  C   UNL     1     105.208 106.129 229.434  1.00  0.00     0.000 C 
BRANCH  12  13
ATOM     13  C   UNL     1     105.777 107.397 230.093  1.00  0.00    -0.000 C 
BRANCH  13  14
ATOM     14  C   UNL     1     105.047 107.778 231.392  1.00  0.00    -0.000 C 
BRANCH  14  15
ATOM     15  C   UNL     1     103.800 106.931 231.724  1.00  0.00    -0.000 C 
BRANCH  15  16
ATOM     16  C   UNL     1     103.930 106.033 232.968  1.00  0.00    -0.000 C 
BRANCH  16  17
ATOM     17  C   UNL     1     105.393 105.803 233.388  1.00  0.00    -0.000 C 
BRANCH  17  18
ATOM     18  C   UNL     1     105.994 104.529 232.755  1.00  0.00    -0.000 C 
BRANCH  18  19
ATOM     19  C   UNL     1     107.521 104.585 232.581  1.00  0.00    -0.003 C 
ATOM     20  C   UNL     1     107.982 104.190 231.180  1.00  0.00     0.004 C 
ENDBRANCH  18  19
ENDBRANCH  17  18
ENDBRANCH  16  17
ENDBRANCH  15  16
ENDBRANCH  14  15
ENDBRANCH  13  14
ENDBRANCH  12  13
ENDBRANCH   1  12
TORSDOF 16
ENDMDL
MODEL 6
REMARK VINA RESULT:    -5.225      1.042      3.727
REMARK INTER + INTRA:         -12.902
REMARK INTER:                 -10.136
REMARK INTRA:                  -2.767
REMARK UNBOUND:                -2.790
REMARK SMILES CCCCCCCCCCCCCCCCCC(=O)[O-]
REMARK SMILES IDX 10 1 11 2 12 3 13 4 14 5 15 6 16 7 17 8 18 9 19 10 20 11
REMARK SMILES IDX 9 12 8 13 7 14 6 15 5 16 4 17 3 18 2 19 1 20
REMARK H PARENT
REMARK Flexibility Score: inf
ROOT
ATOM      1  C   UNL     1     105.015 107.098 228.895  1.00  0.00     0.000 C 
ENDROOT
BRANCH   1   2
ATOM      2  C   UNL     1     105.373 107.705 230.264  1.00  0.00     0.000 C 
BRANCH   2   3
ATOM      3  C   UNL     1     104.186 107.725 231.242  1.00  0.00     0.000 C 
BRANCH   3   4
ATOM      4  C   UNL     1     103.953 106.360 231.909  1.00  0.00     0.000 C 
BRANCH   4   5
ATOM      5  C   UNL     1     104.610 106.264 233.298  1.00  0.00     0.000 C 
BRANCH   5   6
ATOM      6  C   UNL     1     105.956 105.519 233.273  1.00  0.00     0.000 C 
BRANCH   6   7
ATOM      7  C   UNL     1     106.061 104.393 232.228  1.00  0.00     0.006 C 
BRANCH   7   8
ATOM      8  C   UNL     1     107.448 104.306 231.579  1.00  0.00     0.053 C 
BRANCH   8   9
ATOM      9  C   UNL     1     107.564 103.060 230.760  1.00  0.00     0.041 C 
ATOM     10  O   UNL     1     107.370 101.934 231.289  1.00  0.00    -0.550 OA
ATOM     11  O   UNL     1     107.922 103.137 229.420  1.00  0.00    -0.550 OA
ENDBRANCH   8   9
ENDBRANCH   7   8
ENDBRANCH   6   7
ENDBRANCH   5   6
ENDBRANCH   4   5
ENDBRANCH   3   4
ENDBRANCH   2   3
ENDBRANCH   1   2
BRANCH   1  12
ATOM     12  C   UNL     1     105.581 105.690 228.631  1.00  0.00     0.000 C 
BRANCH  12  13
ATOM     13  C   UNL     1     104.564 104.751 227.959  1.00  0.00    -0.000 C 
BRANCH  13  14
ATOM     14  C   UNL     1     103.535 105.500 227.096  1.00  0.00    -0.000 C 
BRANCH  14  15
ATOM     15  C   UNL     1     102.056 105.186 227.407  1.00  0.00    -0.000 C 
BRANCH  15  16
ATOM     16  C   UNL     1     101.759 104.819 228.872  1.00  0.00    -0.000 C 
BRANCH  16  17
ATOM     17  C   UNL     1     101.161 103.410 229.026  1.00  0.00    -0.000 C 
BRANCH  17  18
ATOM     18  C   UNL     1     101.478 102.782 230.401  1.00  0.00    -0.000 C 
BRANCH  18  19
ATOM     19  C   UNL     1     102.917 103.034 230.881  1.00  0.00    -0.003 C 
ATOM     20  C   UNL     1     103.896 101.949 230.442  1.00  0.00     0.004 C 
ENDBRANCH  18  19
ENDBRANCH  17  18
ENDBRANCH  16  17
ENDBRANCH  15  16
ENDBRANCH  14  15
ENDBRANCH  13  14
ENDBRANCH  12  13
ENDBRANCH   1  12
TORSDOF 16
ENDMDL
MODEL 7
REMARK VINA RESULT:    -5.221      2.849      5.420
REMARK INTER + INTRA:         -12.894
REMARK INTER:                 -10.059
REMARK INTRA:                  -2.834
REMARK UNBOUND:                -2.790
REMARK SMILES CCCCCCCCCCCCCCCCCC(=O)[O-]
REMARK SMILES IDX 10 1 11 2 12 3 13 4 14 5 15 6 16 7 17 8 18 9 19 10 20 11
REMARK SMILES IDX 9 12 8 13 7 14 6 15 5 16 4 17 3 18 2 19 1 20
REMARK H PARENT
REMARK Flexibility Score: inf
ROOT
ATOM      1  C   UNL     1     102.977 107.771 230.717  1.00  0.00     0.000 C 
ENDROOT
BRANCH   1   2
ATOM      2  C   UNL     1     104.488 108.065 230.664  1.00  0.00     0.000 C 
BRANCH   2   3
ATOM      3  C   UNL     1     105.116 107.744 229.297  1.00  0.00     0.000 C 
BRANCH   3   4
ATOM      4  C   UNL     1     104.934 106.270 228.900  1.00  0.00     0.000 C 
BRANCH   4   5
ATOM      5  C   UNL     1     104.311 106.111 227.502  1.00  0.00     0.000 C 
BRANCH   5   6
ATOM      6  C   UNL     1     103.140 105.114 227.478  1.00  0.00     0.000 C 
BRANCH   6   7
ATOM      7  C   UNL     1     102.782 104.493 228.841  1.00  0.00     0.006 C 
BRANCH   7   8
ATOM      8  C   UNL     1     101.331 104.000 228.912  1.00  0.00     0.053 C 
BRANCH   8   9
ATOM      9  C   UNL     1     100.493 104.956 229.700  1.00  0.00     0.041 C 
ATOM     10  O   UNL     1     100.237 106.101 229.241  1.00  0.00    -0.550 OA
ATOM     11  O   UNL     1     100.027 104.600 230.960  1.00  0.00    -0.550 OA
ENDBRANCH   8   9
ENDBRANCH   7   8
ENDBRANCH   6   7
ENDBRANCH   5   6
ENDBRANCH   4   5
ENDBRANCH   3   4
ENDBRANCH   2   3
ENDBRANCH   1   2
BRANCH   1  12
ATOM     12  C   UNL     1     102.510 106.944 231.929  1.00  0.00     0.000 C 
BRANCH  12  13
ATOM     13  C   UNL     1     103.460 105.783 232.266  1.00  0.00    -0.000 C 
BRANCH  13  14
ATOM     14  C   UNL     1     104.156 105.951 233.628  1.00  0.00    -0.000 C 
BRANCH  14  15
ATOM     15  C   UNL     1     105.694 106.066 233.577  1.00  0.00    -0.000 C 
BRANCH  15  16
ATOM     16  C   UNL     1     106.429 104.797 233.108  1.00  0.00    -0.000 C 
BRANCH  16  17
ATOM     17  C   UNL     1     106.865 104.870 231.634  1.00  0.00    -0.000 C 
BRANCH  17  18
ATOM     18  C   UNL     1     106.739 103.509 230.915  1.00  0.00    -0.000 C 
BRANCH  18  19
ATOM     19  C   UNL     1     105.923 102.467 231.698  1.00  0.00    -0.003 C 
ATOM     20  C   UNL     1     104.511 102.273 231.150  1.00  0.00     0.004 C 
ENDBRANCH  18  19
ENDBRANCH  17  18
ENDBRANCH  16  17
ENDBRANCH  15  16
ENDBRANCH  14  15
ENDBRANCH  13  14
ENDBRANCH  12  13
ENDBRANCH   1  12
TORSDOF 16
ENDMDL
MODEL 8
REMARK VINA RESULT:    -5.208      2.982      5.278
REMARK INTER + INTRA:         -12.869
REMARK INTER:                 -10.262
REMARK INTRA:                  -2.607
REMARK UNBOUND:                -2.790
REMARK SMILES CCCCCCCCCCCCCCCCCC(=O)[O-]
REMARK SMILES IDX 10 1 11 2 12 3 13 4 14 5 15 6 16 7 17 8 18 9 19 10 20 11
REMARK SMILES IDX 9 12 8 13 7 14 6 15 5 16 4 17 3 18 2 19 1 20
REMARK H PARENT
REMARK Flexibility Score: inf
ROOT
ATOM      1  C   UNL     1     103.443 105.178 227.054  1.00  0.00     0.000 C 
ENDROOT
BRANCH   1   2
ATOM      2  C   UNL     1     104.251 106.225 227.843  1.00  0.00     0.000 C 
BRANCH   2   3
ATOM      3  C   UNL     1     105.375 105.604 228.690  1.00  0.00     0.000 C 
BRANCH   3   4
ATOM      4  C   UNL     1     105.820 106.522 229.839  1.00  0.00     0.000 C 
BRANCH   4   5
ATOM      5  C   UNL     1     104.646 106.959 230.731  1.00  0.00     0.000 C 
BRANCH   5   6
ATOM      6  C   UNL     1     104.777 106.461 232.181  1.00  0.00     0.000 C 
BRANCH   6   7
ATOM      7  C   UNL     1     103.448 106.108 232.874  1.00  0.00     0.006 C 
BRANCH   7   8
ATOM      8  C   UNL     1     102.220 106.624 232.111  1.00  0.00     0.053 C 
BRANCH   8   9
ATOM      9  C   UNL     1     100.970 106.343 232.884  1.00  0.00     0.041 C 
ATOM     10  O   UNL     1      99.952 105.891 232.297  1.00  0.00    -0.550 OA
ATOM     11  O   UNL     1     100.916 106.616 234.245  1.00  0.00    -0.550 OA
ENDBRANCH   8   9
ENDBRANCH   7   8
ENDBRANCH   6   7
ENDBRANCH   5   6
ENDBRANCH   4   5
ENDBRANCH   3   4
ENDBRANCH   2   3
ENDBRANCH   1   2
BRANCH   1  12
ATOM     12  C   UNL     1     101.941 105.114 227.393  1.00  0.00     0.000 C 
BRANCH  12  13
ATOM     13  C   UNL     1     101.671 104.971 228.900  1.00  0.00    -0.000 C 
BRANCH  13  14
ATOM     14  C   UNL     1     101.027 103.623 229.269  1.00  0.00    -0.000 C 
BRANCH  14  15
ATOM     15  C   UNL     1     101.893 102.692 230.143  1.00  0.00    -0.000 C 
BRANCH  15  16
ATOM     16  C   UNL     1     103.232 103.291 230.609  1.00  0.00    -0.000 C 
BRANCH  16  17
ATOM     17  C   UNL     1     104.451 102.513 230.083  1.00  0.00    -0.000 C 
BRANCH  17  18
ATOM     18  C   UNL     1     105.123 101.659 231.180  1.00  0.00    -0.000 C 
BRANCH  18  19
ATOM     19  C   UNL     1     106.567 102.082 231.497  1.00  0.00    -0.003 C 
ATOM     20  C   UNL     1     106.652 103.217 232.514  1.00  0.00     0.004 C 
ENDBRANCH  18  19
ENDBRANCH  17  18
ENDBRANCH  16  17
ENDBRANCH  15  16
ENDBRANCH  14  15
ENDBRANCH  13  14
ENDBRANCH  12  13
ENDBRANCH   1  12
TORSDOF 16
ENDMDL
MODEL 9
REMARK VINA RESULT:    -5.166      1.275      3.653
REMARK INTER + INTRA:         -12.788
REMARK INTER:                 -10.136
REMARK INTRA:                  -2.652
REMARK UNBOUND:                -2.790
REMARK SMILES CCCCCCCCCCCCCCCCCC(=O)[O-]
REMARK SMILES IDX 10 1 11 2 12 3 13 4 14 5 15 6 16 7 17 8 18 9 19 10 20 11
REMARK SMILES IDX 9 12 8 13 7 14 6 15 5 16 4 17 3 18 2 19 1 20
REMARK H PARENT
REMARK Flexibility Score: inf
ROOT
ATOM      1  C   UNL     1     102.760 107.416 230.523  1.00  0.00     0.000 C 
ENDROOT
BRANCH   1   2
ATOM      2  C   UNL     1     102.274 106.884 231.884  1.00  0.00     0.000 C 
BRANCH   2   3
ATOM      3  C   UNL     1     103.028 105.622 232.340  1.00  0.00     0.000 C 
BRANCH   3   4
ATOM      4  C   UNL     1     103.781 105.835 233.662  1.00  0.00     0.000 C 
BRANCH   4   5
ATOM      5  C   UNL     1     105.297 105.998 233.456  1.00  0.00     0.000 C 
BRANCH   5   6
ATOM      6  C   UNL     1     105.836 105.163 232.281  1.00  0.00     0.000 C 
BRANCH   6   7
ATOM      7  C   UNL     1     106.555 103.861 232.681  1.00  0.00     0.006 C 
BRANCH   7   8
ATOM      8  C   UNL     1     106.084 102.644 231.874  1.00  0.00     0.053 C 
BRANCH   8   9
ATOM      9  C   UNL     1     107.155 102.197 230.931  1.00  0.00     0.041 C 
ATOM     10  O   UNL     1     107.767 101.116 231.135  1.00  0.00    -0.550 OA
ATOM     11  O   UNL     1     107.505 102.992 229.847  1.00  0.00    -0.550 OA
ENDBRANCH   8   9
ENDBRANCH   7   8
ENDBRANCH   6   7
ENDBRANCH   5   6
ENDBRANCH   4   5
ENDBRANCH   3   4
ENDBRANCH   2   3
ENDBRANCH   1   2
BRANCH   1  12
ATOM     12  C   UNL     1     104.138 108.104 230.540  1.00  0.00     0.000 C 
BRANCH  12  13
ATOM     13  C   UNL     1     105.006 107.737 229.324  1.00  0.00    -0.000 C 
BRANCH  13  14
ATOM     14  C   UNL     1     104.863 106.263 228.907  1.00  0.00    -0.000 C 
BRANCH  14  15
ATOM     15  C   UNL     1     104.241 106.026 227.515  1.00  0.00    -0.000 C 
BRANCH  15  16
ATOM     16  C   UNL     1     102.982 105.140 227.503  1.00  0.00    -0.000 C 
BRANCH  16  17
ATOM     17  C   UNL     1     102.870 104.244 228.748  1.00  0.00    -0.000 C 
BRANCH  17  18
ATOM     18  C   UNL     1     101.420 104.137 229.269  1.00  0.00    -0.000 C 
BRANCH  18  19
ATOM     19  C   UNL     1     101.167 102.901 230.150  1.00  0.00    -0.003 C 
ATOM     20  C   UNL     1     102.447 102.293 230.714  1.00  0.00     0.004 C 
ENDBRANCH  18  19
ENDBRANCH  17  18
ENDBRANCH  16  17
ENDBRANCH  15  16
ENDBRANCH  14  15
ENDBRANCH  13  14
ENDBRANCH  12  13
ENDBRANCH   1  12
TORSDOF 16
ENDMDL
