MODEL 1
REMARK VINA RESULT:     4.689      0.000      0.000
REMARK INTER + INTRA:           9.792
REMARK INTER:                  11.816
REMARK INTRA:                  -2.024
REMARK UNBOUND:                -2.024
REMARK SMILES CCCCCCCCCCCCCCCCCCCCCCCCCCCC(=O)[O-]
REMARK SMILES IDX 15 1 16 2 17 3 18 4 19 5 20 6 21 7 22 8 23 9 24 10 25 11
REMARK SMILES IDX 26 12 27 13 28 14 29 15 30 16 14 17 13 18 12 19 11 20 10 21
REMARK SMILES IDX 9 22 8 23 7 24 6 25 5 26 4 27 3 28 2 29 1 30
REMARK H PARENT
REMARK Flexibility Score: inf
ROOT
ATOM      1  C   UNL     1      -7.511   0.348 -10.264  1.00  0.00     0.000 C 
ENDROOT
BRANCH   1   2
ATOM      2  C   UNL     1      -6.899   1.599 -10.922  1.00  0.00     0.000 C 
BRANCH   2   3
ATOM      3  C   UNL     1      -7.035   2.842 -10.025  1.00  0.00     0.000 C 
BRANCH   3   4
ATOM      4  C   UNL     1      -7.309   4.129 -10.833  1.00  0.00     0.000 C 
BRANCH   4   5
ATOM      5  C   UNL     1      -6.422   4.249 -12.084  1.00  0.00     0.000 C 
BRANCH   5   6
ATOM      6  C   UNL     1      -6.294   5.705 -12.559  1.00  0.00     0.000 C 
BRANCH   6   7
ATOM      7  C   UNL     1      -7.630   6.452 -12.455  1.00  0.00     0.000 C 
BRANCH   7   8
ATOM      8  C   UNL     1      -7.729   7.534 -13.544  1.00  0.00     0.000 C 
BRANCH   8   9
ATOM      9  C   UNL     1      -9.164   8.074 -13.726  1.00  0.00     0.000 C 
BRANCH   9  10
ATOM     10  C   UNL     1      -9.433   9.390 -12.977  1.00  0.00     0.000 C 
BRANCH  10  11
ATOM     11  C   UNL     1      -8.153  10.177 -12.669  1.00  0.00     0.000 C 
BRANCH  11  12
ATOM     12  C   UNL     1      -8.048  11.425 -13.560  1.00  0.00     0.006 C 
BRANCH  12  13
ATOM     13  C   UNL     1      -7.018  11.255 -14.686  1.00  0.00     0.053 C 
BRANCH  13  14
ATOM     14  C   UNL     1      -5.671  10.851 -14.165  1.00  0.00     0.041 C 
ATOM     15  O   UNL     1      -5.091   9.831 -14.626  1.00  0.00    -0.550 OA
ATOM     16  O   UNL     1      -5.074  11.583 -13.148  1.00  0.00    -0.550 OA
ENDBRANCH  13  14
ENDBRANCH  12  13
ENDBRANCH  11  12
ENDBRANCH  10  11
ENDBRANCH   9  10
ENDBRANCH   8   9
ENDBRANCH   7   8
ENDBRANCH   6   7
ENDBRANCH   5   6
ENDBRANCH   4   5
ENDBRANCH   3   4
ENDBRANCH   2   3
ENDBRANCH   1   2
BRANCH   1  17
ATOM     17  C   UNL     1      -6.742  -0.952 -10.595  1.00  0.00     0.000 C 
BRANCH  17  18
ATOM     18  C   UNL     1      -7.188  -1.629 -11.906  1.00  0.00     0.000 C 
BRANCH  18  19
ATOM     19  C   UNL     1      -6.818  -3.119 -11.969  1.00  0.00     0.000 C 
BRANCH  19  20
ATOM     20  C   UNL     1      -6.178  -3.525 -13.310  1.00  0.00     0.000 C 
BRANCH  20  21
ATOM     21  C   UNL     1      -6.486  -4.960 -13.777  1.00  0.00     0.000 C 
BRANCH  21  22
ATOM     22  C   UNL     1      -7.980  -5.316 -13.689  1.00  0.00    -0.000 C 
BRANCH  22  23
ATOM     23  C   UNL     1      -8.321  -6.587 -14.498  1.00  0.00    -0.000 C 
BRANCH  23  24
ATOM     24  C   UNL     1      -9.830  -6.823 -14.678  1.00  0.00    -0.000 C 
BRANCH  24  25
ATOM     25  C   UNL     1     -10.372  -7.949 -13.781  1.00  0.00    -0.000 C 
BRANCH  25  26
ATOM     26  C   UNL     1     -10.705  -7.472 -12.349  1.00  0.00    -0.000 C 
BRANCH  26  27
ATOM     27  C   UNL     1      -9.674  -7.892 -11.283  1.00  0.00    -0.000 C 
BRANCH  27  28
ATOM     28  C   UNL     1      -9.516  -6.922 -10.097  1.00  0.00    -0.000 C 
BRANCH  28  29
ATOM     29  C   UNL     1      -8.522  -5.768 -10.323  1.00  0.00    -0.003 C 
ATOM     30  C   UNL     1      -7.068  -6.174 -10.093  1.00  0.00     0.004 C 
ENDBRANCH  28  29
ENDBRANCH  27  28
ENDBRANCH  26  27
ENDBRANCH  25  26
ENDBRANCH  24  25
ENDBRANCH  23  24
ENDBRANCH  22  23
ENDBRANCH  21  22
ENDBRANCH  20  21
ENDBRANCH  19  20
ENDBRANCH  18  19
ENDBRANCH  17  18
ENDBRANCH   1  17
TORSDOF 26
ENDMDL
MODEL 2
REMARK VINA RESULT:     4.837      3.687     13.328
REMARK INTER + INTRA:          10.165
REMARK INTER:                  11.651
REMARK INTRA:                  -1.486
REMARK UNBOUND:                -2.024
REMARK SMILES CCCCCCCCCCCCCCCCCCCCCCCCCCCC(=O)[O-]
REMARK SMILES IDX 15 1 16 2 17 3 18 4 19 5 20 6 21 7 22 8 23 9 24 10 25 11
REMARK SMILES IDX 26 12 27 13 28 14 29 15 30 16 14 17 13 18 12 19 11 20 10 21
REMARK SMILES IDX 9 22 8 23 7 24 6 25 5 26 4 27 3 28 2 29 1 30
REMARK H PARENT
REMARK Flexibility Score: inf
ROOT
ATOM      1  C   UNL     1      -7.025  -1.832  -9.451  1.00  0.00     0.000 C 
ENDROOT
BRANCH   1   2
ATOM      2  C   UNL     1      -6.867  -3.192 -10.155  1.00  0.00     0.000 C 
BRANCH   2   3
ATOM      3  C   UNL     1      -6.170  -4.226  -9.253  1.00  0.00     0.000 C 
BRANCH   3   4
ATOM      4  C   UNL     1      -6.691  -5.662  -9.484  1.00  0.00     0.000 C 
BRANCH   4   5
ATOM      5  C   UNL     1      -7.520  -5.796 -10.772  1.00  0.00     0.000 C 
BRANCH   5   6
ATOM      6  C   UNL     1      -9.009  -6.037 -10.472  1.00  0.00     0.000 C 
BRANCH   6   7
ATOM      7  C   UNL     1      -9.408  -7.495 -10.733  1.00  0.00     0.000 C 
BRANCH   7   8
ATOM      8  C   UNL     1     -10.468  -7.574 -11.845  1.00  0.00     0.000 C 
BRANCH   8   9
ATOM      9  C   UNL     1      -9.858  -7.848 -13.237  1.00  0.00     0.000 C 
BRANCH   9  10
ATOM     10  C   UNL     1      -8.331  -8.027 -13.222  1.00  0.00     0.000 C 
BRANCH  10  11
ATOM     11  C   UNL     1      -7.648  -7.453 -14.470  1.00  0.00     0.000 C 
BRANCH  11  12
ATOM     12  C   UNL     1      -6.723  -6.283 -14.099  1.00  0.00     0.006 C 
BRANCH  12  13
ATOM     13  C   UNL     1      -7.411  -4.919 -14.261  1.00  0.00     0.053 C 
BRANCH  13  14
ATOM     14  C   UNL     1      -6.689  -3.830 -13.526  1.00  0.00     0.041 C 
ATOM     15  O   UNL     1      -7.262  -2.732 -13.295  1.00  0.00    -0.550 OA
ATOM     16  O   UNL     1      -5.372  -4.017 -13.128  1.00  0.00    -0.550 OA
ENDBRANCH  13  14
ENDBRANCH  12  13
ENDBRANCH  11  12
ENDBRANCH  10  11
ENDBRANCH   9  10
ENDBRANCH   8   9
ENDBRANCH   7   8
ENDBRANCH   6   7
ENDBRANCH   5   6
ENDBRANCH   4   5
ENDBRANCH   3   4
ENDBRANCH   2   3
ENDBRANCH   1   2
BRANCH   1  17
ATOM     17  C   UNL     1      -7.197  -0.653 -10.436  1.00  0.00     0.000 C 
BRANCH  17  18
ATOM     18  C   UNL     1      -6.909   0.730  -9.818  1.00  0.00     0.000 C 
BRANCH  18  19
ATOM     19  C   UNL     1      -7.302   1.894 -10.741  1.00  0.00     0.000 C 
BRANCH  19  20
ATOM     20  C   UNL     1      -6.943   3.273 -10.158  1.00  0.00     0.000 C 
BRANCH  20  21
ATOM     21  C   UNL     1      -7.225   4.472 -11.083  1.00  0.00     0.000 C 
BRANCH  21  22
ATOM     22  C   UNL     1      -6.401   4.437 -12.382  1.00  0.00    -0.000 C 
BRANCH  22  23
ATOM     23  C   UNL     1      -6.257   5.840 -13.013  1.00  0.00    -0.000 C 
BRANCH  23  24
ATOM     24  C   UNL     1      -7.495   6.733 -12.833  1.00  0.00    -0.000 C 
BRANCH  24  25
ATOM     25  C   UNL     1      -7.889   7.478 -14.120  1.00  0.00    -0.000 C 
BRANCH  25  26
ATOM     26  C   UNL     1      -7.078   8.776 -14.338  1.00  0.00    -0.000 C 
BRANCH  26  27
ATOM     27  C   UNL     1      -7.907   9.962 -14.867  1.00  0.00    -0.000 C 
BRANCH  27  28
ATOM     28  C   UNL     1      -8.769  10.690 -13.816  1.00  0.00    -0.000 C 
BRANCH  28  29
ATOM     29  C   UNL     1      -8.294  10.534 -12.360  1.00  0.00    -0.003 C 
ATOM     30  C   UNL     1      -9.444  10.464 -11.358  1.00  0.00     0.004 C 
ENDBRANCH  28  29
ENDBRANCH  27  28
ENDBRANCH  26  27
ENDBRANCH  25  26
ENDBRANCH  24  25
ENDBRANCH  23  24
ENDBRANCH  22  23
ENDBRANCH  21  22
ENDBRANCH  20  21
ENDBRANCH  19  20
ENDBRANCH  18  19
ENDBRANCH  17  18
ENDBRANCH   1  17
TORSDOF 26
ENDMDL
MODEL 3
REMARK VINA RESULT:     4.880      4.563     13.765
REMARK INTER + INTRA:          10.273
REMARK INTER:                  11.812
REMARK INTRA:                  -1.539
REMARK UNBOUND:                -2.024
REMARK SMILES CCCCCCCCCCCCCCCCCCCCCCCCCCCC(=O)[O-]
REMARK SMILES IDX 15 1 16 2 17 3 18 4 19 5 20 6 21 7 22 8 23 9 24 10 25 11
REMARK SMILES IDX 26 12 27 13 28 14 29 15 30 16 14 17 13 18 12 19 11 20 10 21
REMARK SMILES IDX 9 22 8 23 7 24 6 25 5 26 4 27 3 28 2 29 1 30
REMARK H PARENT
REMARK Flexibility Score: inf
ROOT
ATOM      1  C   UNL     1      -6.626  -0.087 -10.371  1.00  0.00     0.000 C 
ENDROOT
BRANCH   1   2
ATOM      2  C   UNL     1      -7.438  -1.385 -10.542  1.00  0.00     0.000 C 
BRANCH   2   3
ATOM      3  C   UNL     1      -6.619  -2.485 -11.242  1.00  0.00     0.000 C 
BRANCH   3   4
ATOM      4  C   UNL     1      -6.979  -2.631 -12.737  1.00  0.00     0.000 C 
BRANCH   4   5
ATOM      5  C   UNL     1      -6.137  -3.702 -13.451  1.00  0.00     0.000 C 
BRANCH   5   6
ATOM      6  C   UNL     1      -6.591  -5.125 -13.086  1.00  0.00     0.000 C 
BRANCH   6   7
ATOM      7  C   UNL     1      -7.008  -5.921 -14.330  1.00  0.00     0.000 C 
BRANCH   7   8
ATOM      8  C   UNL     1      -8.540  -5.978 -14.446  1.00  0.00     0.000 C 
BRANCH   8   9
ATOM      9  C   UNL     1      -9.110  -7.388 -14.182  1.00  0.00     0.000 C 
BRANCH   9  10
ATOM     10  C   UNL     1     -10.568  -7.387 -13.693  1.00  0.00     0.000 C 
BRANCH  10  11
ATOM     11  C   UNL     1     -10.749  -8.098 -12.346  1.00  0.00     0.000 C 
BRANCH  11  12
ATOM     12  C   UNL     1     -10.856  -7.081 -11.198  1.00  0.00     0.006 C 
BRANCH  12  13
ATOM     13  C   UNL     1      -9.805  -7.322 -10.104  1.00  0.00     0.053 C 
BRANCH  13  14
ATOM     14  C   UNL     1      -8.453  -6.806 -10.495  1.00  0.00     0.041 C 
ATOM     15  O   UNL     1      -8.154  -5.597 -10.300  1.00  0.00    -0.550 OA
ATOM     16  O   UNL     1      -7.536  -7.652 -11.104  1.00  0.00    -0.550 OA
ENDBRANCH  13  14
ENDBRANCH  12  13
ENDBRANCH  11  12
ENDBRANCH  10  11
ENDBRANCH   9  10
ENDBRANCH   8   9
ENDBRANCH   7   8
ENDBRANCH   6   7
ENDBRANCH   5   6
ENDBRANCH   4   5
ENDBRANCH   3   4
ENDBRANCH   2   3
ENDBRANCH   1   2
BRANCH   1  17
ATOM     17  C   UNL     1      -7.399   1.176 -10.814  1.00  0.00     0.000 C 
BRANCH  17  18
ATOM     18  C   UNL     1      -6.998   2.457 -10.053  1.00  0.00     0.000 C 
BRANCH  18  19
ATOM     19  C   UNL     1      -7.685   3.718 -10.599  1.00  0.00     0.000 C 
BRANCH  19  20
ATOM     20  C   UNL     1      -6.687   4.769 -11.120  1.00  0.00     0.000 C 
BRANCH  20  21
ATOM     21  C   UNL     1      -7.002   5.339 -12.516  1.00  0.00     0.000 C 
BRANCH  21  22
ATOM     22  C   UNL     1      -5.749   5.819 -13.269  1.00  0.00    -0.000 C 
BRANCH  22  23
ATOM     23  C   UNL     1      -6.081   6.294 -14.700  1.00  0.00    -0.000 C 
BRANCH  23  24
ATOM     24  C   UNL     1      -6.193   7.821 -14.839  1.00  0.00    -0.000 C 
BRANCH  24  25
ATOM     25  C   UNL     1      -7.515   8.378 -14.284  1.00  0.00    -0.000 C 
BRANCH  25  26
ATOM     26  C   UNL     1      -7.348   9.749 -13.588  1.00  0.00    -0.000 C 
BRANCH  26  27
ATOM     27  C   UNL     1      -8.403  10.044 -12.505  1.00  0.00    -0.000 C 
BRANCH  27  28
ATOM     28  C   UNL     1      -9.761  10.553 -13.024  1.00  0.00    -0.000 C 
BRANCH  28  29
ATOM     29  C   UNL     1     -10.995   9.867 -12.410  1.00  0.00    -0.003 C 
ATOM     30  C   UNL     1     -11.125   8.398 -12.808  1.00  0.00     0.004 C 
ENDBRANCH  28  29
ENDBRANCH  27  28
ENDBRANCH  26  27
ENDBRANCH  25  26
ENDBRANCH  24  25
ENDBRANCH  23  24
ENDBRANCH  22  23
ENDBRANCH  21  22
ENDBRANCH  20  21
ENDBRANCH  19  20
ENDBRANCH  18  19
ENDBRANCH  17  18
ENDBRANCH   1  17
TORSDOF 26
ENDMDL
MODEL 4
REMARK VINA RESULT:     4.980      4.592     13.820
REMARK INTER + INTRA:          10.525
REMARK INTER:                  11.039
REMARK INTRA:                  -0.514
REMARK UNBOUND:                -2.024
REMARK SMILES CCCCCCCCCCCCCCCCCCCCCCCCCCCC(=O)[O-]
REMARK SMILES IDX 15 1 16 2 17 3 18 4 19 5 20 6 21 7 22 8 23 9 24 10 25 11
REMARK SMILES IDX 26 12 27 13 28 14 29 15 30 16 14 17 13 18 12 19 11 20 10 21
REMARK SMILES IDX 9 22 8 23 7 24 6 25 5 26 4 27 3 28 2 29 1 30
REMARK H PARENT
REMARK Flexibility Score: inf
ROOT
ATOM      1  C   UNL     1      -7.519   2.181 -10.293  1.00  0.00     0.000 C 
ENDROOT
BRANCH   1   2
ATOM      2  C   UNL     1      -6.655   0.912 -10.419  1.00  0.00     0.000 C 
BRANCH   2   3
ATOM      3  C   UNL     1      -7.516  -0.350 -10.606  1.00  0.00     0.000 C 
BRANCH   3   4
ATOM      4  C   UNL     1      -6.679  -1.588 -10.997  1.00  0.00     0.000 C 
BRANCH   4   5
ATOM      5  C   UNL     1      -7.151  -2.237 -12.309  1.00  0.00     0.000 C 
BRANCH   5   6
ATOM      6  C   UNL     1      -6.239  -3.400 -12.733  1.00  0.00     0.000 C 
BRANCH   6   7
ATOM      7  C   UNL     1      -6.814  -4.755 -12.300  1.00  0.00     0.000 C 
BRANCH   7   8
ATOM      8  C   UNL     1      -7.002  -4.799 -10.775  1.00  0.00     0.000 C 
BRANCH   8   9
ATOM      9  C   UNL     1      -8.183  -5.693 -10.340  1.00  0.00     0.000 C 
BRANCH   9  10
ATOM     10  C   UNL     1      -7.799  -7.164 -10.113  1.00  0.00     0.000 C 
BRANCH  10  11
ATOM     11  C   UNL     1      -8.247  -8.084 -11.256  1.00  0.00     0.000 C 
BRANCH  11  12
ATOM     12  C   UNL     1      -9.670  -7.731 -11.720  1.00  0.00     0.006 C 
BRANCH  12  13
ATOM     13  C   UNL     1      -9.883  -8.010 -13.216  1.00  0.00     0.053 C 
BRANCH  13  14
ATOM     14  C   UNL     1      -8.960  -7.203 -14.078  1.00  0.00     0.041 C 
ATOM     15  O   UNL     1      -9.282  -6.040 -14.439  1.00  0.00    -0.550 OA
ATOM     16  O   UNL     1      -7.759  -7.751 -14.510  1.00  0.00    -0.550 OA
ENDBRANCH  13  14
ENDBRANCH  12  13
ENDBRANCH  11  12
ENDBRANCH  10  11
ENDBRANCH   9  10
ENDBRANCH   8   9
ENDBRANCH   7   8
ENDBRANCH   6   7
ENDBRANCH   5   6
ENDBRANCH   4   5
ENDBRANCH   3   4
ENDBRANCH   2   3
ENDBRANCH   1   2
BRANCH   1  17
ATOM     17  C   UNL     1      -6.728   3.483 -10.557  1.00  0.00     0.000 C 
BRANCH  17  18
ATOM     18  C   UNL     1      -6.833   3.998 -12.007  1.00  0.00     0.000 C 
BRANCH  18  19
ATOM     19  C   UNL     1      -6.804   5.532 -12.103  1.00  0.00     0.000 C 
BRANCH  19  20
ATOM     20  C   UNL     1      -5.521   6.070 -12.762  1.00  0.00     0.000 C 
BRANCH  20  21
ATOM     21  C   UNL     1      -5.358   5.733 -14.255  1.00  0.00     0.000 C 
BRANCH  21  22
ATOM     22  C   UNL     1      -6.508   6.270 -15.125  1.00  0.00    -0.000 C 
BRANCH  22  23
ATOM     23  C   UNL     1      -6.594   7.812 -15.082  1.00  0.00    -0.000 C 
BRANCH  23  24
ATOM     24  C   UNL     1      -8.032   8.353 -15.034  1.00  0.00    -0.000 C 
BRANCH  24  25
ATOM     25  C   UNL     1      -8.718   8.113 -13.678  1.00  0.00    -0.000 C 
BRANCH  25  26
ATOM     26  C   UNL     1     -10.031   8.913 -13.516  1.00  0.00    -0.000 C 
BRANCH  26  27
ATOM     27  C   UNL     1      -9.966  10.034 -12.460  1.00  0.00    -0.000 C 
BRANCH  27  28
ATOM     28  C   UNL     1      -8.549  10.495 -12.070  1.00  0.00    -0.000 C 
BRANCH  28  29
ATOM     29  C   UNL     1      -7.590  10.734 -13.251  1.00  0.00    -0.003 C 
ATOM     30  C   UNL     1      -6.861  12.074 -13.170  1.00  0.00     0.004 C 
ENDBRANCH  28  29
ENDBRANCH  27  28
ENDBRANCH  26  27
ENDBRANCH  25  26
ENDBRANCH  24  25
ENDBRANCH  23  24
ENDBRANCH  22  23
ENDBRANCH  21  22
ENDBRANCH  20  21
ENDBRANCH  19  20
ENDBRANCH  18  19
ENDBRANCH  17  18
ENDBRANCH   1  17
TORSDOF 26
ENDMDL
MODEL 5
REMARK VINA RESULT:     5.012      4.061     13.565
REMARK INTER + INTRA:          10.606
REMARK INTER:                  11.787
REMARK INTRA:                  -1.181
REMARK UNBOUND:                -2.024
REMARK SMILES CCCCCCCCCCCCCCCCCCCCCCCCCCCC(=O)[O-]
REMARK SMILES IDX 15 1 16 2 17 3 18 4 19 5 20 6 21 7 22 8 23 9 24 10 25 11
REMARK SMILES IDX 26 12 27 13 28 14 29 15 30 16 14 17 13 18 12 19 11 20 10 21
REMARK SMILES IDX 9 22 8 23 7 24 6 25 5 26 4 27 3 28 2 29 1 30
REMARK H PARENT
REMARK Flexibility Score: inf
ROOT
ATOM      1  C   UNL     1      -6.575  -1.060 -10.920  1.00  0.00     0.000 C 
ENDROOT
BRANCH   1   2
ATOM      2  C   UNL     1      -7.272  -2.255 -11.597  1.00  0.00     0.000 C 
BRANCH   2   3
ATOM      3  C   UNL     1      -7.005  -2.292 -13.112  1.00  0.00     0.000 C 
BRANCH   3   4
ATOM      4  C   UNL     1      -7.246  -3.689 -13.724  1.00  0.00     0.000 C 
BRANCH   4   5
ATOM      5  C   UNL     1      -6.021  -4.610 -13.609  1.00  0.00     0.000 C 
BRANCH   5   6
ATOM      6  C   UNL     1      -6.422  -6.062 -13.298  1.00  0.00     0.000 C 
BRANCH   6   7
ATOM      7  C   UNL     1      -7.318  -6.648 -14.398  1.00  0.00     0.000 C 
BRANCH   7   8
ATOM      8  C   UNL     1      -8.740  -6.887 -13.865  1.00  0.00     0.000 C 
BRANCH   8   9
ATOM      9  C   UNL     1      -8.767  -7.781 -12.606  1.00  0.00     0.000 C 
BRANCH   9  10
ATOM     10  C   UNL     1      -9.669  -7.244 -11.482  1.00  0.00     0.000 C 
BRANCH  10  11
ATOM     11  C   UNL     1      -8.882  -6.804 -10.241  1.00  0.00     0.000 C 
BRANCH  11  12
ATOM     12  C   UNL     1      -7.916  -5.658 -10.582  1.00  0.00     0.006 C 
BRANCH  12  13
ATOM     13  C   UNL     1      -6.639  -5.697  -9.727  1.00  0.00     0.053 C 
BRANCH  13  14
ATOM     14  C   UNL     1      -6.397  -4.400  -9.015  1.00  0.00     0.041 C 
ATOM     15  O   UNL     1      -7.319  -3.547  -8.916  1.00  0.00    -0.550 OA
ATOM     16  O   UNL     1      -5.142  -4.122  -8.489  1.00  0.00    -0.550 OA
ENDBRANCH  13  14
ENDBRANCH  12  13
ENDBRANCH  11  12
ENDBRANCH  10  11
ENDBRANCH   9  10
ENDBRANCH   8   9
ENDBRANCH   7   8
ENDBRANCH   6   7
ENDBRANCH   5   6
ENDBRANCH   4   5
ENDBRANCH   3   4
ENDBRANCH   2   3
ENDBRANCH   1   2
BRANCH   1  17
ATOM     17  C   UNL     1      -7.389   0.251 -11.012  1.00  0.00     0.000 C 
BRANCH  17  18
ATOM     18  C   UNL     1      -6.762   1.435 -10.248  1.00  0.00     0.000 C 
BRANCH  18  19
ATOM     19  C   UNL     1      -7.641   2.695 -10.266  1.00  0.00     0.000 C 
BRANCH  19  20
ATOM     20  C   UNL     1      -6.850   3.977 -10.585  1.00  0.00     0.000 C 
BRANCH  20  21
ATOM     21  C   UNL     1      -6.868   4.409 -12.063  1.00  0.00     0.000 C 
BRANCH  21  22
ATOM     22  C   UNL     1      -6.617   5.915 -12.255  1.00  0.00    -0.000 C 
BRANCH  22  23
ATOM     23  C   UNL     1      -6.614   6.316 -13.746  1.00  0.00    -0.000 C 
BRANCH  23  24
ATOM     24  C   UNL     1      -7.565   7.478 -14.079  1.00  0.00    -0.000 C 
BRANCH  24  25
ATOM     25  C   UNL     1      -8.175   8.131 -12.827  1.00  0.00    -0.000 C 
BRANCH  25  26
ATOM     26  C   UNL     1      -9.287   9.152 -13.160  1.00  0.00    -0.000 C 
BRANCH  26  27
ATOM     27  C   UNL     1      -8.813  10.618 -13.198  1.00  0.00    -0.000 C 
BRANCH  27  28
ATOM     28  C   UNL     1      -7.426  10.849 -13.829  1.00  0.00    -0.000 C 
BRANCH  28  29
ATOM     29  C   UNL     1      -6.615  12.007 -13.220  1.00  0.00    -0.003 C 
ATOM     30  C   UNL     1      -5.106  11.826 -13.368  1.00  0.00     0.004 C 
ENDBRANCH  28  29
ENDBRANCH  27  28
ENDBRANCH  26  27
ENDBRANCH  25  26
ENDBRANCH  24  25
ENDBRANCH  23  24
ENDBRANCH  22  23
ENDBRANCH  21  22
ENDBRANCH  20  21
ENDBRANCH  19  20
ENDBRANCH  18  19
ENDBRANCH  17  18
ENDBRANCH   1  17
TORSDOF 26
ENDMDL
MODEL 6
REMARK VINA RESULT:     5.092      4.532     13.737
REMARK INTER + INTRA:          10.807
REMARK INTER:                  12.310
REMARK INTRA:                  -1.503
REMARK UNBOUND:                -2.024
REMARK SMILES CCCCCCCCCCCCCCCCCCCCCCCCCCCC(=O)[O-]
REMARK SMILES IDX 15 1 16 2 17 3 18 4 19 5 20 6 21 7 22 8 23 9 24 10 25 11
REMARK SMILES IDX 26 12 27 13 28 14 29 15 30 16 14 17 13 18 12 19 11 20 10 21
REMARK SMILES IDX 9 22 8 23 7 24 6 25 5 26 4 27 3 28 2 29 1 30
REMARK H PARENT
REMARK Flexibility Score: inf
ROOT
ATOM      1  C   UNL     1      -7.614   1.648 -10.221  1.00  0.00     0.000 C 
ENDROOT
BRANCH   1   2
ATOM      2  C   UNL     1      -6.677   0.487 -10.605  1.00  0.00     0.000 C 
BRANCH   2   3
ATOM      3  C   UNL     1      -7.451  -0.823 -10.833  1.00  0.00     0.000 C 
BRANCH   3   4
ATOM      4  C   UNL     1      -6.558  -1.950 -11.397  1.00  0.00     0.000 C 
BRANCH   4   5
ATOM      5  C   UNL     1      -7.269  -2.798 -12.464  1.00  0.00     0.000 C 
BRANCH   5   6
ATOM      6  C   UNL     1      -6.273  -3.600 -13.317  1.00  0.00     0.000 C 
BRANCH   6   7
ATOM      7  C   UNL     1      -6.474  -5.112 -13.149  1.00  0.00     0.000 C 
BRANCH   7   8
ATOM      8  C   UNL     1      -6.556  -5.801 -14.521  1.00  0.00     0.000 C 
BRANCH   8   9
ATOM      9  C   UNL     1      -7.719  -6.811 -14.617  1.00  0.00     0.000 C 
BRANCH   9  10
ATOM     10  C   UNL     1      -9.064  -6.260 -14.116  1.00  0.00     0.000 C 
BRANCH  10  11
ATOM     11  C   UNL     1      -9.558  -6.954 -12.840  1.00  0.00     0.000 C 
BRANCH  11  12
ATOM     12  C   UNL     1      -8.439  -7.793 -12.203  1.00  0.00     0.006 C 
BRANCH  12  13
ATOM     13  C   UNL     1      -8.422  -7.678 -10.671  1.00  0.00     0.053 C 
BRANCH  13  14
ATOM     14  C   UNL     1      -8.472  -6.253 -10.209  1.00  0.00     0.041 C 
ATOM     15  O   UNL     1      -7.421  -5.558 -10.180  1.00  0.00    -0.550 OA
ATOM     16  O   UNL     1      -9.673  -5.704  -9.781  1.00  0.00    -0.550 OA
ENDBRANCH  13  14
ENDBRANCH  12  13
ENDBRANCH  11  12
ENDBRANCH  10  11
ENDBRANCH   9  10
ENDBRANCH   8   9
ENDBRANCH   7   8
ENDBRANCH   6   7
ENDBRANCH   5   6
ENDBRANCH   4   5
ENDBRANCH   3   4
ENDBRANCH   2   3
ENDBRANCH   1   2
BRANCH   1  17
ATOM     17  C   UNL     1      -6.929   3.032 -10.291  1.00  0.00     0.000 C 
BRANCH  17  18
ATOM     18  C   UNL     1      -6.854   3.625 -11.712  1.00  0.00     0.000 C 
BRANCH  18  19
ATOM     19  C   UNL     1      -7.060   5.148 -11.739  1.00  0.00     0.000 C 
BRANCH  19  20
ATOM     20  C   UNL     1      -5.964   5.890 -12.525  1.00  0.00     0.000 C 
BRANCH  20  21
ATOM     21  C   UNL     1      -5.904   5.571 -14.030  1.00  0.00     0.000 C 
BRANCH  21  22
ATOM     22  C   UNL     1      -6.682   6.581 -14.892  1.00  0.00    -0.000 C 
BRANCH  22  23
ATOM     23  C   UNL     1      -6.257   8.037 -14.602  1.00  0.00    -0.000 C 
BRANCH  23  24
ATOM     24  C   UNL     1      -7.275   9.088 -15.078  1.00  0.00    -0.000 C 
BRANCH  24  25
ATOM     25  C   UNL     1      -8.733   8.624 -14.922  1.00  0.00    -0.000 C 
BRANCH  25  26
ATOM     26  C   UNL     1      -9.755   9.766 -15.125  1.00  0.00    -0.000 C 
BRANCH  26  27
ATOM     27  C   UNL     1      -9.646  10.907 -14.095  1.00  0.00    -0.000 C 
BRANCH  27  28
ATOM     28  C   UNL     1     -10.047  10.539 -12.653  1.00  0.00    -0.000 C 
BRANCH  28  29
ATOM     29  C   UNL     1      -8.879  10.154 -11.727  1.00  0.00    -0.003 C 
ATOM     30  C   UNL     1      -9.157  10.450 -10.255  1.00  0.00     0.004 C 
ENDBRANCH  28  29
ENDBRANCH  27  28
ENDBRANCH  26  27
ENDBRANCH  25  26
ENDBRANCH  24  25
ENDBRANCH  23  24
ENDBRANCH  22  23
ENDBRANCH  21  22
ENDBRANCH  20  21
ENDBRANCH  19  20
ENDBRANCH  18  19
ENDBRANCH  17  18
ENDBRANCH   1  17
TORSDOF 26
ENDMDL
MODEL 7
REMARK VINA RESULT:     5.218      4.908     14.439
REMARK INTER + INTRA:          11.124
REMARK INTER:                  11.663
REMARK INTRA:                  -0.538
REMARK UNBOUND:                -2.024
REMARK SMILES CCCCCCCCCCCCCCCCCCCCCCCCCCCC(=O)[O-]
REMARK SMILES IDX 15 1 16 2 17 3 18 4 19 5 20 6 21 7 22 8 23 9 24 10 25 11
REMARK SMILES IDX 26 12 27 13 28 14 29 15 30 16 14 17 13 18 12 19 11 20 10 21
REMARK SMILES IDX 9 22 8 23 7 24 6 25 5 26 4 27 3 28 2 29 1 30
REMARK H PARENT
REMARK Flexibility Score: inf
ROOT
ATOM      1  C   UNL     1      -7.589   2.745 -10.162  1.00  0.00     0.000 C 
ENDROOT
BRANCH   1   2
ATOM      2  C   UNL     1      -6.763   1.485 -10.480  1.00  0.00     0.000 C 
BRANCH   2   3
ATOM      3  C   UNL     1      -7.660   0.292 -10.857  1.00  0.00     0.000 C 
BRANCH   3   4
ATOM      4  C   UNL     1      -6.923  -1.061 -10.756  1.00  0.00     0.000 C 
BRANCH   4   5
ATOM      5  C   UNL     1      -7.007  -1.884 -12.052  1.00  0.00     0.000 C 
BRANCH   5   6
ATOM      6  C   UNL     1      -6.513  -3.326 -11.848  1.00  0.00     0.000 C 
BRANCH   6   7
ATOM      7  C   UNL     1      -7.458  -4.344 -12.500  1.00  0.00     0.000 C 
BRANCH   7   8
ATOM      8  C   UNL     1      -6.791  -4.989 -13.727  1.00  0.00     0.000 C 
BRANCH   8   9
ATOM      9  C   UNL     1      -6.173  -6.369 -13.419  1.00  0.00     0.000 C 
BRANCH   9  10
ATOM     10  C   UNL     1      -7.197  -7.421 -12.964  1.00  0.00     0.000 C 
BRANCH  10  11
ATOM     11  C   UNL     1      -8.263  -7.720 -14.027  1.00  0.00     0.000 C 
BRANCH  11  12
ATOM     12  C   UNL     1      -9.593  -8.125 -13.371  1.00  0.00     0.006 C 
BRANCH  12  13
ATOM     13  C   UNL     1     -10.226  -6.974 -12.573  1.00  0.00     0.053 C 
BRANCH  13  14
ATOM     14  C   UNL     1     -10.158  -7.207 -11.094  1.00  0.00     0.041 C 
ATOM     15  O   UNL     1     -11.011  -7.941 -10.527  1.00  0.00    -0.550 OA
ATOM     16  O   UNL     1      -9.171  -6.588 -10.339  1.00  0.00    -0.550 OA
ENDBRANCH  13  14
ENDBRANCH  12  13
ENDBRANCH  11  12
ENDBRANCH  10  11
ENDBRANCH   9  10
ENDBRANCH   8   9
ENDBRANCH   7   8
ENDBRANCH   6   7
ENDBRANCH   5   6
ENDBRANCH   4   5
ENDBRANCH   3   4
ENDBRANCH   2   3
ENDBRANCH   1   2
BRANCH   1  17
ATOM     17  C   UNL     1      -6.915   4.051 -10.641  1.00  0.00     0.000 C 
BRANCH  17  18
ATOM     18  C   UNL     1      -6.570   4.066 -12.144  1.00  0.00     0.000 C 
BRANCH  18  19
ATOM     19  C   UNL     1      -6.758   5.448 -12.789  1.00  0.00     0.000 C 
BRANCH  19  20
ATOM     20  C   UNL     1      -5.541   5.895 -13.620  1.00  0.00     0.000 C 
BRANCH  20  21
ATOM     21  C   UNL     1      -5.694   7.253 -14.330  1.00  0.00     0.000 C 
BRANCH  21  22
ATOM     22  C   UNL     1      -4.375   7.773 -14.929  1.00  0.00    -0.000 C 
BRANCH  22  23
ATOM     23  C   UNL     1      -4.384   9.307 -15.106  1.00  0.00    -0.000 C 
BRANCH  23  24
ATOM     24  C   UNL     1      -5.769   9.947 -14.908  1.00  0.00    -0.000 C 
BRANCH  24  25
ATOM     25  C   UNL     1      -5.696  11.460 -14.639  1.00  0.00    -0.000 C 
BRANCH  25  26
ATOM     26  C   UNL     1      -6.361  11.868 -13.304  1.00  0.00    -0.000 C 
BRANCH  26  27
ATOM     27  C   UNL     1      -7.818  11.391 -13.149  1.00  0.00    -0.000 C 
BRANCH  27  28
ATOM     28  C   UNL     1      -8.127  10.002 -13.740  1.00  0.00    -0.000 C 
BRANCH  28  29
ATOM     29  C   UNL     1      -9.565   9.816 -14.257  1.00  0.00    -0.003 C 
ATOM     30  C   UNL     1     -10.399  11.093 -14.184  1.00  0.00     0.004 C 
ENDBRANCH  28  29
ENDBRANCH  27  28
ENDBRANCH  26  27
ENDBRANCH  25  26
ENDBRANCH  24  25
ENDBRANCH  23  24
ENDBRANCH  22  23
ENDBRANCH  21  22
ENDBRANCH  20  21
ENDBRANCH  19  20
ENDBRANCH  18  19
ENDBRANCH  17  18
ENDBRANCH   1  17
TORSDOF 26
ENDMDL
MODEL 8
REMARK VINA RESULT:     5.390      1.566      2.260
REMARK INTER + INTRA:          11.559
REMARK INTER:                  13.042
REMARK INTRA:                  -1.483
REMARK UNBOUND:                -2.024
REMARK SMILES CCCCCCCCCCCCCCCCCCCCCCCCCCCC(=O)[O-]
REMARK SMILES IDX 15 1 16 2 17 3 18 4 19 5 20 6 21 7 22 8 23 9 24 10 25 11
REMARK SMILES IDX 26 12 27 13 28 14 29 15 30 16 14 17 13 18 12 19 11 20 10 21
REMARK SMILES IDX 9 22 8 23 7 24 6 25 5 26 4 27 3 28 2 29 1 30
REMARK H PARENT
REMARK Flexibility Score: inf
ROOT
ATOM      1  C   UNL     1      -7.353  -1.067 -10.051  1.00  0.00     0.000 C 
ENDROOT
BRANCH   1   2
ATOM      2  C   UNL     1      -7.228   0.183 -10.943  1.00  0.00     0.000 C 
BRANCH   2   3
ATOM      3  C   UNL     1      -6.616   1.372 -10.181  1.00  0.00     0.000 C 
BRANCH   3   4
ATOM      4  C   UNL     1      -7.390   2.688 -10.414  1.00  0.00     0.000 C 
BRANCH   4   5
ATOM      5  C   UNL     1      -6.899   3.457 -11.652  1.00  0.00     0.000 C 
BRANCH   5   6
ATOM      6  C   UNL     1      -7.042   4.978 -11.475  1.00  0.00     0.000 C 
BRANCH   6   7
ATOM      7  C   UNL     1      -6.942   5.714 -12.818  1.00  0.00     0.000 C 
BRANCH   7   8
ATOM      8  C   UNL     1      -5.959   4.993 -13.756  1.00  0.00     0.000 C 
BRANCH   8   9
ATOM      9  C   UNL     1      -5.312   5.939 -14.790  1.00  0.00     0.000 C 
BRANCH   9  10
ATOM     10  C   UNL     1      -5.328   7.419 -14.374  1.00  0.00     0.000 C 
BRANCH  10  11
ATOM     11  C   UNL     1      -6.383   8.241 -15.125  1.00  0.00     0.000 C 
BRANCH  11  12
ATOM     12  C   UNL     1      -6.347   9.713 -14.685  1.00  0.00     0.006 C 
BRANCH  12  13
ATOM     13  C   UNL     1      -7.746  10.347 -14.647  1.00  0.00     0.053 C 
BRANCH  13  14
ATOM     14  C   UNL     1      -8.330  10.346 -13.267  1.00  0.00     0.041 C 
ATOM     15  O   UNL     1      -8.914  11.370 -12.823  1.00  0.00    -0.550 OA
ATOM     16  O   UNL     1      -8.200   9.224 -12.459  1.00  0.00    -0.550 OA
ENDBRANCH  13  14
ENDBRANCH  12  13
ENDBRANCH  11  12
ENDBRANCH  10  11
ENDBRANCH   9  10
ENDBRANCH   8   9
ENDBRANCH   7   8
ENDBRANCH   6   7
ENDBRANCH   5   6
ENDBRANCH   4   5
ENDBRANCH   3   4
ENDBRANCH   2   3
ENDBRANCH   1   2
BRANCH   1  17
ATOM     17  C   UNL     1      -6.859  -2.359 -10.742  1.00  0.00     0.000 C 
BRANCH  17  18
ATOM     18  C   UNL     1      -7.020  -2.352 -12.276  1.00  0.00     0.000 C 
BRANCH  18  19
ATOM     19  C   UNL     1      -7.269  -3.752 -12.859  1.00  0.00     0.000 C 
BRANCH  19  20
ATOM     20  C   UNL     1      -6.274  -4.125 -13.974  1.00  0.00     0.000 C 
BRANCH  20  21
ATOM     21  C   UNL     1      -6.642  -5.379 -14.789  1.00  0.00     0.000 C 
BRANCH  21  22
ATOM     22  C   UNL     1      -7.350  -6.458 -13.951  1.00  0.00    -0.000 C 
BRANCH  22  23
ATOM     23  C   UNL     1      -8.841  -6.597 -14.328  1.00  0.00    -0.000 C 
BRANCH  23  24
ATOM     24  C   UNL     1      -9.783  -6.688 -13.116  1.00  0.00    -0.000 C 
BRANCH  24  25
ATOM     25  C   UNL     1      -9.838  -8.099 -12.503  1.00  0.00    -0.000 C 
BRANCH  25  26
ATOM     26  C   UNL     1     -10.500  -8.125 -11.107  1.00  0.00    -0.000 C 
BRANCH  26  27
ATOM     27  C   UNL     1      -9.619  -7.560  -9.976  1.00  0.00    -0.000 C 
BRANCH  27  28
ATOM     28  C   UNL     1      -8.099  -7.701 -10.186  1.00  0.00    -0.000 C 
BRANCH  28  29
ATOM     29  C   UNL     1      -7.387  -6.428 -10.679  1.00  0.00    -0.003 C 
ATOM     30  C   UNL     1      -6.646  -5.686  -9.569  1.00  0.00     0.004 C 
ENDBRANCH  28  29
ENDBRANCH  27  28
ENDBRANCH  26  27
ENDBRANCH  25  26
ENDBRANCH  24  25
ENDBRANCH  23  24
ENDBRANCH  22  23
ENDBRANCH  21  22
ENDBRANCH  20  21
ENDBRANCH  19  20
ENDBRANCH  18  19
ENDBRANCH  17  18
ENDBRANCH   1  17
TORSDOF 26
ENDMDL
