MODEL 1
REMARK VINA RESULT:    -5.228      0.000      0.000
REMARK INTER + INTRA:         -11.825
REMARK INTER:                 -10.117
REMARK INTRA:                  -1.708
REMARK UNBOUND:                -1.708
REMARK SMILES CCCCCCCCCCCCCCCCCC(=O)[O-]
REMARK SMILES IDX 10 1 11 2 12 3 13 4 14 5 15 6 16 7 17 8 18 9 19 10 20 11
REMARK SMILES IDX 9 12 8 13 7 14 6 15 5 16 4 17 3 18 2 19 1 20
REMARK H PARENT
REMARK Flexibility Score: inf
ROOT
ATOM      1  C   UNL     1      45.430   4.178 131.332  1.00  0.00     0.000 C 
ENDROOT
BRANCH   1   2
ATOM      2  C   UNL     1      44.798   3.953 132.716  1.00  0.00     0.000 C 
BRANCH   2   3
ATOM      3  C   UNL     1      45.811   4.136 133.861  1.00  0.00     0.000 C 
BRANCH   3   4
ATOM      4  C   UNL     1      46.276   2.799 134.458  1.00  0.00     0.000 C 
BRANCH   4   5
ATOM      5  C   UNL     1      45.743   2.565 135.884  1.00  0.00     0.000 C 
BRANCH   5   6
ATOM      6  C   UNL     1      44.892   1.282 135.984  1.00  0.00     0.000 C 
BRANCH   6   7
ATOM      7  C   UNL     1      43.623   1.313 135.114  1.00  0.00     0.006 C 
BRANCH   7   8
ATOM      8  C   UNL     1      43.459   0.057 134.251  1.00  0.00     0.053 C 
BRANCH   8   9
ATOM      9  C   UNL     1      43.771   0.361 132.820  1.00  0.00     0.041 C 
ATOM     10  O   UNL     1      42.908   0.914 132.087  1.00  0.00    -0.550 OA
ATOM     11  O   UNL     1      45.033   0.084 132.307  1.00  0.00    -0.550 OA
ENDBRANCH   8   9
ENDBRANCH   7   8
ENDBRANCH   6   7
ENDBRANCH   5   6
ENDBRANCH   4   5
ENDBRANCH   3   4
ENDBRANCH   2   3
ENDBRANCH   1   2
BRANCH   1  12
ATOM     12  C   UNL     1      46.922   4.532 131.413  1.00  0.00     0.000 C 
BRANCH  12  13
ATOM     13  C   UNL     1      47.497   4.808 130.020  1.00  0.00    -0.000 C 
BRANCH  13  14
ATOM     14  C   UNL     1      47.274   6.272 129.610  1.00  0.00    -0.000 C 
BRANCH  14  15
ATOM     15  C   UNL     1      46.477   6.400 128.294  1.00  0.00    -0.000 C 
BRANCH  15  16
ATOM     16  C   UNL     1      46.168   5.048 127.623  1.00  0.00    -0.000 C 
BRANCH  16  17
ATOM     17  C   UNL     1      44.689   4.628 127.660  1.00  0.00    -0.000 C 
BRANCH  17  18
ATOM     18  C   UNL     1      43.756   5.456 126.754  1.00  0.00    -0.000 C 
BRANCH  18  19
ATOM     19  C   UNL     1      42.490   5.971 127.470  1.00  0.00    -0.003 C 
ATOM     20  C   UNL     1      42.814   6.801 128.712  1.00  0.00     0.004 C 
ENDBRANCH  18  19
ENDBRANCH  17  18
ENDBRANCH  16  17
ENDBRANCH  15  16
ENDBRANCH  14  15
ENDBRANCH  13  14
ENDBRANCH  12  13
ENDBRANCH   1  12
TORSDOF 16
ENDMDL
MODEL 2
REMARK VINA RESULT:    -5.215      2.500      7.000
REMARK INTER + INTRA:         -11.801
REMARK INTER:                 -10.037
REMARK INTRA:                  -1.764
REMARK UNBOUND:                -1.708
REMARK SMILES CCCCCCCCCCCCCCCCCC(=O)[O-]
REMARK SMILES IDX 10 1 11 2 12 3 13 4 14 5 15 6 16 7 17 8 18 9 19 10 20 11
REMARK SMILES IDX 9 12 8 13 7 14 6 15 5 16 4 17 3 18 2 19 1 20
REMARK H PARENT
REMARK Flexibility Score: inf
ROOT
ATOM      1  C   UNL     1      45.866   4.142 131.525  1.00  0.00     0.000 C 
ENDROOT
BRANCH   1   2
ATOM      2  C   UNL     1      47.360   4.506 131.471  1.00  0.00     0.000 C 
BRANCH   2   3
ATOM      3  C   UNL     1      47.923   4.467 130.039  1.00  0.00     0.000 C 
BRANCH   3   4
ATOM      4  C   UNL     1      48.030   5.865 129.408  1.00  0.00     0.000 C 
BRANCH   4   5
ATOM      5  C   UNL     1      46.829   6.205 128.506  1.00  0.00     0.000 C 
BRANCH   5   6
ATOM      6  C   UNL     1      46.302   4.969 127.747  1.00  0.00     0.000 C 
BRANCH   6   7
ATOM      7  C   UNL     1      44.791   4.740 127.915  1.00  0.00     0.006 C 
BRANCH   7   8
ATOM      8  C   UNL     1      44.129   5.767 128.842  1.00  0.00     0.053 C 
BRANCH   8   9
ATOM      9  C   UNL     1      42.883   6.309 128.217  1.00  0.00     0.041 C 
ATOM     10  O   UNL     1      42.440   5.808 127.149  1.00  0.00    -0.550 OA
ATOM     11  O   UNL     1      42.179   7.333 128.840  1.00  0.00    -0.550 OA
ENDBRANCH   8   9
ENDBRANCH   7   8
ENDBRANCH   6   7
ENDBRANCH   5   6
ENDBRANCH   4   5
ENDBRANCH   3   4
ENDBRANCH   2   3
ENDBRANCH   1   2
BRANCH   1  12
ATOM     12  C   UNL     1      45.359   3.938 132.960  1.00  0.00     0.000 C 
BRANCH  12  13
ATOM     13  C   UNL     1      46.288   3.003 133.742  1.00  0.00    -0.000 C 
BRANCH  13  14
ATOM     14  C   UNL     1      46.028   3.103 135.254  1.00  0.00    -0.000 C 
BRANCH  14  15
ATOM     15  C   UNL     1      45.340   1.842 135.818  1.00  0.00    -0.000 C 
BRANCH  15  16
ATOM     16  C   UNL     1      43.993   1.518 135.143  1.00  0.00    -0.000 C 
BRANCH  16  17
ATOM     17  C   UNL     1      43.929   0.147 134.448  1.00  0.00    -0.000 C 
BRANCH  17  18
ATOM     18  C   UNL     1      44.491   0.120 133.013  1.00  0.00    -0.000 C 
BRANCH  18  19
ATOM     19  C   UNL     1      43.587   0.820 131.977  1.00  0.00    -0.003 C 
ATOM     20  C   UNL     1      42.144   0.317 132.022  1.00  0.00     0.004 C 
ENDBRANCH  18  19
ENDBRANCH  17  18
ENDBRANCH  16  17
ENDBRANCH  15  16
ENDBRANCH  14  15
ENDBRANCH  13  14
ENDBRANCH  12  13
ENDBRANCH   1  12
TORSDOF 16
ENDMDL
MODEL 3
REMARK VINA RESULT:    -5.188      2.450      6.950
REMARK INTER + INTRA:         -11.748
REMARK INTER:                 -10.323
REMARK INTRA:                  -1.425
REMARK UNBOUND:                -1.708
REMARK SMILES CCCCCCCCCCCCCCCCCC(=O)[O-]
REMARK SMILES IDX 10 1 11 2 12 3 13 4 14 5 15 6 16 7 17 8 18 9 19 10 20 11
REMARK SMILES IDX 9 12 8 13 7 14 6 15 5 16 4 17 3 18 2 19 1 20
REMARK H PARENT
REMARK Flexibility Score: inf
ROOT
ATOM      1  C   UNL     1      47.312   3.428 132.009  1.00  0.00     0.000 C 
ENDROOT
BRANCH   1   2
ATOM      2  C   UNL     1      48.075   4.200 130.919  1.00  0.00     0.000 C 
BRANCH   2   3
ATOM      3  C   UNL     1      47.157   5.131 130.106  1.00  0.00     0.000 C 
BRANCH   3   4
ATOM      4  C   UNL     1      47.939   6.043 129.148  1.00  0.00     0.000 C 
BRANCH   4   5
ATOM      5  C   UNL     1      47.021   6.927 128.285  1.00  0.00     0.000 C 
BRANCH   5   6
ATOM      6  C   UNL     1      45.870   7.548 129.105  1.00  0.00     0.000 C 
BRANCH   6   7
ATOM      7  C   UNL     1      44.504   7.482 128.402  1.00  0.00     0.006 C 
BRANCH   7   8
ATOM      8  C   UNL     1      43.806   6.128 128.578  1.00  0.00     0.053 C 
BRANCH   8   9
ATOM      9  C   UNL     1      43.777   5.382 127.281  1.00  0.00     0.041 C 
ATOM     10  O   UNL     1      42.830   5.559 126.469  1.00  0.00    -0.550 OA
ATOM     11  O   UNL     1      44.823   4.530 126.944  1.00  0.00    -0.550 OA
ENDBRANCH   8   9
ENDBRANCH   7   8
ENDBRANCH   6   7
ENDBRANCH   5   6
ENDBRANCH   4   5
ENDBRANCH   3   4
ENDBRANCH   2   3
ENDBRANCH   1   2
BRANCH   1  12
ATOM     12  C   UNL     1      46.016   4.133 132.434  1.00  0.00     0.000 C 
BRANCH  12  13
ATOM     13  C   UNL     1      45.895   4.186 133.962  1.00  0.00    -0.000 C 
BRANCH  13  14
ATOM     14  C   UNL     1      46.320   2.852 134.596  1.00  0.00    -0.000 C 
BRANCH  14  15
ATOM     15  C   UNL     1      45.230   2.265 135.518  1.00  0.00    -0.000 C 
BRANCH  15  16
ATOM     16  C   UNL     1      44.087   1.564 134.759  1.00  0.00    -0.000 C 
BRANCH  16  17
ATOM     17  C   UNL     1      44.503   0.886 133.442  1.00  0.00    -0.000 C 
BRANCH  17  18
ATOM     18  C   UNL     1      43.670   1.294 132.211  1.00  0.00    -0.000 C 
BRANCH  18  19
ATOM     19  C   UNL     1      42.620   0.242 131.794  1.00  0.00    -0.003 C 
ATOM     20  C   UNL     1      41.859  -0.334 132.988  1.00  0.00     0.004 C 
ENDBRANCH  18  19
ENDBRANCH  17  18
ENDBRANCH  16  17
ENDBRANCH  15  16
ENDBRANCH  14  15
ENDBRANCH  13  14
ENDBRANCH  12  13
ENDBRANCH   1  12
TORSDOF 16
ENDMDL
MODEL 4
REMARK VINA RESULT:    -5.099      7.044     11.016
REMARK INTER + INTRA:         -11.577
REMARK INTER:                  -9.954
REMARK INTRA:                  -1.623
REMARK UNBOUND:                -1.708
REMARK SMILES CCCCCCCCCCCCCCCCCC(=O)[O-]
REMARK SMILES IDX 10 1 11 2 12 3 13 4 14 5 15 6 16 7 17 8 18 9 19 10 20 11
REMARK SMILES IDX 9 12 8 13 7 14 6 15 5 16 4 17 3 18 2 19 1 20
REMARK H PARENT
REMARK Flexibility Score: inf
ROOT
ATOM      1  C   UNL     1      46.874   8.086 125.237  1.00  0.00     0.000 C 
ENDROOT
BRANCH   1   2
ATOM      2  C   UNL     1      47.605   8.160 123.885  1.00  0.00     0.000 C 
BRANCH   2   3
ATOM      3  C   UNL     1      47.609   9.583 123.297  1.00  0.00     0.000 C 
BRANCH   3   4
ATOM      4  C   UNL     1      47.482  10.669 124.377  1.00  0.00     0.000 C 
BRANCH   4   5
ATOM      5  C   UNL     1      46.661  11.884 123.907  1.00  0.00     0.000 C 
BRANCH   5   6
ATOM      6  C   UNL     1      45.146  11.680 124.119  1.00  0.00     0.000 C 
BRANCH   6   7
ATOM      7  C   UNL     1      44.397  11.250 122.846  1.00  0.00     0.006 C 
BRANCH   7   8
ATOM      8  C   UNL     1      44.473  12.294 121.726  1.00  0.00     0.053 C 
BRANCH   8   9
ATOM      9  C   UNL     1      45.267  11.767 120.572  1.00  0.00     0.041 C 
ATOM     10  O   UNL     1      45.519  10.536 120.486  1.00  0.00    -0.550 OA
ATOM     11  O   UNL     1      45.683  12.627 119.562  1.00  0.00    -0.550 OA
ENDBRANCH   8   9
ENDBRANCH   7   8
ENDBRANCH   6   7
ENDBRANCH   5   6
ENDBRANCH   4   5
ENDBRANCH   3   4
ENDBRANCH   2   3
ENDBRANCH   1   2
BRANCH   1  12
ATOM     12  C   UNL     1      47.756   7.510 126.354  1.00  0.00     0.000 C 
BRANCH  12  13
ATOM     13  C   UNL     1      46.949   6.577 127.264  1.00  0.00    -0.000 C 
BRANCH  13  14
ATOM     14  C   UNL     1      47.086   6.988 128.739  1.00  0.00    -0.000 C 
BRANCH  14  15
ATOM     15  C   UNL     1      45.751   7.479 129.339  1.00  0.00    -0.000 C 
BRANCH  15  16
ATOM     16  C   UNL     1      44.611   7.588 128.309  1.00  0.00    -0.000 C 
BRANCH  16  17
ATOM     17  C   UNL     1      43.243   7.082 128.798  1.00  0.00    -0.000 C 
BRANCH  17  18
ATOM     18  C   UNL     1      42.536   6.099 127.845  1.00  0.00    -0.000 C 
BRANCH  18  19
ATOM     19  C   UNL     1      43.249   5.926 126.487  1.00  0.00    -0.003 C 
ATOM     20  C   UNL     1      43.992   4.595 126.379  1.00  0.00     0.004 C 
ENDBRANCH  18  19
ENDBRANCH  17  18
ENDBRANCH  16  17
ENDBRANCH  15  16
ENDBRANCH  14  15
ENDBRANCH  13  14
ENDBRANCH  12  13
ENDBRANCH   1  12
TORSDOF 16
ENDMDL
MODEL 5
REMARK VINA RESULT:    -5.063      0.857      1.684
REMARK INTER + INTRA:         -11.506
REMARK INTER:                  -9.829
REMARK INTRA:                  -1.677
REMARK UNBOUND:                -1.708
REMARK SMILES CCCCCCCCCCCCCCCCCC(=O)[O-]
REMARK SMILES IDX 10 1 11 2 12 3 13 4 14 5 15 6 16 7 17 8 18 9 19 10 20 11
REMARK SMILES IDX 9 12 8 13 7 14 6 15 5 16 4 17 3 18 2 19 1 20
REMARK H PARENT
REMARK Flexibility Score: inf
ROOT
ATOM      1  C   UNL     1      48.030   4.592 130.587  1.00  0.00     0.000 C 
ENDROOT
BRANCH   1   2
ATOM      2  C   UNL     1      47.397   3.702 131.670  1.00  0.00     0.000 C 
BRANCH   2   3
ATOM      3  C   UNL     1      45.925   4.060 131.939  1.00  0.00     0.000 C 
BRANCH   3   4
ATOM      4  C   UNL     1      45.591   4.103 133.438  1.00  0.00     0.000 C 
BRANCH   4   5
ATOM      5  C   UNL     1      46.243   2.952 134.227  1.00  0.00     0.000 C 
BRANCH   5   6
ATOM      6  C   UNL     1      45.317   2.408 135.335  1.00  0.00     0.000 C 
BRANCH   6   7
ATOM      7  C   UNL     1      44.613   1.093 134.959  1.00  0.00     0.006 C 
BRANCH   7   8
ATOM      8  C   UNL     1      43.342   1.311 134.129  1.00  0.00     0.053 C 
BRANCH   8   9
ATOM      9  C   UNL     1      43.509   0.739 132.757  1.00  0.00     0.041 C 
ATOM     10  O   UNL     1      42.532   0.700 131.963  1.00  0.00    -0.550 OA
ATOM     11  O   UNL     1      44.757   0.297 132.333  1.00  0.00    -0.550 OA
ENDBRANCH   8   9
ENDBRANCH   7   8
ENDBRANCH   6   7
ENDBRANCH   5   6
ENDBRANCH   4   5
ENDBRANCH   3   4
ENDBRANCH   2   3
ENDBRANCH   1   2
BRANCH   1  12
ATOM     12  C   UNL     1      47.053   4.923 129.449  1.00  0.00     0.000 C 
BRANCH  12  13
ATOM     13  C   UNL     1      47.047   6.426 129.150  1.00  0.00    -0.000 C 
BRANCH  13  14
ATOM     14  C   UNL     1      47.092   6.689 127.636  1.00  0.00    -0.000 C 
BRANCH  14  15
ATOM     15  C   UNL     1      45.724   7.133 127.075  1.00  0.00    -0.000 C 
BRANCH  15  16
ATOM     16  C   UNL     1      44.986   6.028 126.296  1.00  0.00    -0.000 C 
BRANCH  16  17
ATOM     17  C   UNL     1      43.952   5.235 127.114  1.00  0.00    -0.000 C 
BRANCH  17  18
ATOM     18  C   UNL     1      42.644   5.993 127.416  1.00  0.00    -0.000 C 
BRANCH  18  19
ATOM     19  C   UNL     1      42.659   6.749 128.761  1.00  0.00    -0.003 C 
ATOM     20  C   UNL     1      43.490   6.036 129.826  1.00  0.00     0.004 C 
ENDBRANCH  18  19
ENDBRANCH  17  18
ENDBRANCH  16  17
ENDBRANCH  15  16
ENDBRANCH  14  15
ENDBRANCH  13  14
ENDBRANCH  12  13
ENDBRANCH   1  12
TORSDOF 16
ENDMDL
MODEL 6
REMARK VINA RESULT:    -4.909      1.806      2.692
REMARK INTER + INTRA:         -11.208
REMARK INTER:                  -9.894
REMARK INTRA:                  -1.315
REMARK UNBOUND:                -1.708
REMARK SMILES CCCCCCCCCCCCCCCCCC(=O)[O-]
REMARK SMILES IDX 10 1 11 2 12 3 13 4 14 5 15 6 16 7 17 8 18 9 19 10 20 11
REMARK SMILES IDX 9 12 8 13 7 14 6 15 5 16 4 17 3 18 2 19 1 20
REMARK H PARENT
REMARK Flexibility Score: inf
ROOT
ATOM      1  C   UNL     1      45.928   4.136 131.819  1.00  0.00     0.000 C 
ENDROOT
BRANCH   1   2
ATOM      2  C   UNL     1      45.819   4.109 133.353  1.00  0.00     0.000 C 
BRANCH   2   3
ATOM      3  C   UNL     1      45.603   2.688 133.902  1.00  0.00     0.000 C 
BRANCH   3   4
ATOM      4  C   UNL     1      44.277   2.068 133.432  1.00  0.00     0.000 C 
BRANCH   4   5
ATOM      5  C   UNL     1      44.465   0.694 132.764  1.00  0.00     0.000 C 
BRANCH   5   6
ATOM      6  C   UNL     1      43.325   0.366 131.777  1.00  0.00     0.000 C 
BRANCH   6   7
ATOM      7  C   UNL     1      41.959   0.168 132.456  1.00  0.00     0.006 C 
BRANCH   7   8
ATOM      8  C   UNL     1      42.006  -0.838 133.612  1.00  0.00     0.053 C 
BRANCH   8   9
ATOM      9  C   UNL     1      41.277  -0.301 134.803  1.00  0.00     0.041 C 
ATOM     10  O   UNL     1      40.160  -0.781 135.133  1.00  0.00    -0.550 OA
ATOM     11  O   UNL     1      41.856   0.693 135.584  1.00  0.00    -0.550 OA
ENDBRANCH   8   9
ENDBRANCH   7   8
ENDBRANCH   6   7
ENDBRANCH   5   6
ENDBRANCH   4   5
ENDBRANCH   3   4
ENDBRANCH   2   3
ENDBRANCH   1   2
BRANCH   1  12
ATOM     12  C   UNL     1      47.384   4.146 131.331  1.00  0.00     0.000 C 
BRANCH  12  13
ATOM     13  C   UNL     1      47.591   5.207 130.244  1.00  0.00    -0.000 C 
BRANCH  13  14
ATOM     14  C   UNL     1      46.291   5.464 129.467  1.00  0.00    -0.000 C 
BRANCH  14  15
ATOM     15  C   UNL     1      46.276   6.849 128.785  1.00  0.00    -0.000 C 
BRANCH  15  16
ATOM     16  C   UNL     1      44.873   7.477 128.689  1.00  0.00    -0.000 C 
BRANCH  16  17
ATOM     17  C   UNL     1      43.756   6.684 129.389  1.00  0.00    -0.000 C 
BRANCH  17  18
ATOM     18  C   UNL     1      42.528   6.379 128.509  1.00  0.00    -0.000 C 
BRANCH  18  19
ATOM     19  C   UNL     1      42.870   6.137 127.024  1.00  0.00    -0.003 C 
ATOM     20  C   UNL     1      43.676   4.857 126.808  1.00  0.00     0.004 C 
ENDBRANCH  18  19
ENDBRANCH  17  18
ENDBRANCH  16  17
ENDBRANCH  15  16
ENDBRANCH  14  15
ENDBRANCH  13  14
ENDBRANCH  12  13
ENDBRANCH   1  12
TORSDOF 16
ENDMDL
MODEL 7
REMARK VINA RESULT:    -4.877      5.290      9.559
REMARK INTER + INTRA:         -11.147
REMARK INTER:                 -10.100
REMARK INTRA:                  -1.047
REMARK UNBOUND:                -1.708
REMARK SMILES CCCCCCCCCCCCCCCCCC(=O)[O-]
REMARK SMILES IDX 10 1 11 2 12 3 13 4 14 5 15 6 16 7 17 8 18 9 19 10 20 11
REMARK SMILES IDX 9 12 8 13 7 14 6 15 5 16 4 17 3 18 2 19 1 20
REMARK H PARENT
REMARK Flexibility Score: inf
ROOT
ATOM      1  C   UNL     1      44.144   6.295 128.457  1.00  0.00     0.000 C 
ENDROOT
BRANCH   1   2
ATOM      2  C   UNL     1      45.184   7.424 128.361  1.00  0.00     0.000 C 
BRANCH   2   3
ATOM      3  C   UNL     1      46.467   6.981 127.635  1.00  0.00     0.000 C 
BRANCH   3   4
ATOM      4  C   UNL     1      46.550   7.521 126.199  1.00  0.00     0.000 C 
BRANCH   4   5
ATOM      5  C   UNL     1      47.984   7.902 125.787  1.00  0.00     0.000 C 
BRANCH   5   6
ATOM      6  C   UNL     1      48.007   8.852 124.570  1.00  0.00     0.000 C 
BRANCH   6   7
ATOM      7  C   UNL     1      46.628   9.052 123.918  1.00  0.00     0.006 C 
BRANCH   7   8
ATOM      8  C   UNL     1      46.541  10.340 123.090  1.00  0.00     0.053 C 
BRANCH   8   9
ATOM      9  C   UNL     1      46.191  11.502 123.965  1.00  0.00     0.041 C 
ATOM     10  O   UNL     1      47.088  12.299 124.349  1.00  0.00    -0.550 OA
ATOM     11  O   UNL     1      44.866  11.738 124.314  1.00  0.00    -0.550 OA
ENDBRANCH   8   9
ENDBRANCH   7   8
ENDBRANCH   6   7
ENDBRANCH   5   6
ENDBRANCH   4   5
ENDBRANCH   3   4
ENDBRANCH   2   3
ENDBRANCH   1   2
BRANCH   1  12
ATOM     12  C   UNL     1      44.769   4.948 128.849  1.00  0.00     0.000 C 
BRANCH  12  13
ATOM     13  C   UNL     1      45.076   4.902 130.351  1.00  0.00    -0.000 C 
BRANCH  13  14
ATOM     14  C   UNL     1      46.584   4.747 130.602  1.00  0.00    -0.000 C 
BRANCH  14  15
ATOM     15  C   UNL     1      46.896   4.273 132.037  1.00  0.00    -0.000 C 
BRANCH  15  16
ATOM     16  C   UNL     1      45.640   3.961 132.873  1.00  0.00    -0.000 C 
BRANCH  16  17
ATOM     17  C   UNL     1      45.490   2.490 133.295  1.00  0.00    -0.000 C 
BRANCH  17  18
ATOM     18  C   UNL     1      44.043   1.957 133.286  1.00  0.00    -0.000 C 
BRANCH  18  19
ATOM     19  C   UNL     1      43.698   1.118 132.038  1.00  0.00    -0.003 C 
ATOM     20  C   UNL     1      42.449   0.258 132.235  1.00  0.00     0.004 C 
ENDBRANCH  18  19
ENDBRANCH  17  18
ENDBRANCH  16  17
ENDBRANCH  15  16
ENDBRANCH  14  15
ENDBRANCH  13  14
ENDBRANCH  12  13
ENDBRANCH   1  12
TORSDOF 16
ENDMDL
MODEL 8
REMARK VINA RESULT:    -4.858      3.936      5.057
REMARK INTER + INTRA:         -11.109
REMARK INTER:                 -10.297
REMARK INTRA:                  -0.812
REMARK UNBOUND:                -1.708
REMARK SMILES CCCCCCCCCCCCCCCCCC(=O)[O-]
REMARK SMILES IDX 10 1 11 2 12 3 13 4 14 5 15 6 16 7 17 8 18 9 19 10 20 11
REMARK SMILES IDX 9 12 8 13 7 14 6 15 5 16 4 17 3 18 2 19 1 20
REMARK H PARENT
REMARK Flexibility Score: inf
ROOT
ATOM      1  C   UNL     1      45.759   6.142 127.753  1.00  0.00     0.000 C 
ENDROOT
BRANCH   1   2
ATOM      2  C   UNL     1      45.696   6.262 129.285  1.00  0.00     0.000 C 
BRANCH   2   3
ATOM      3  C   UNL     1      45.910   4.910 129.989  1.00  0.00     0.000 C 
BRANCH   3   4
ATOM      4  C   UNL     1      47.260   4.831 130.719  1.00  0.00     0.000 C 
BRANCH   4   5
ATOM      5  C   UNL     1      47.252   3.819 131.879  1.00  0.00     0.000 C 
BRANCH   5   6
ATOM      6  C   UNL     1      45.928   3.852 132.671  1.00  0.00     0.000 C 
BRANCH   6   7
ATOM      7  C   UNL     1      45.405   2.459 133.059  1.00  0.00     0.006 C 
BRANCH   7   8
ATOM      8  C   UNL     1      44.006   2.168 132.502  1.00  0.00     0.053 C 
BRANCH   8   9
ATOM      9  C   UNL     1      43.879   0.724 132.134  1.00  0.00     0.041 C 
ATOM     10  O   UNL     1      44.826  -0.075 132.365  1.00  0.00    -0.550 OA
ATOM     11  O   UNL     1      42.695   0.246 131.584  1.00  0.00    -0.550 OA
ENDBRANCH   8   9
ENDBRANCH   7   8
ENDBRANCH   6   7
ENDBRANCH   5   6
ENDBRANCH   4   5
ENDBRANCH   3   4
ENDBRANCH   2   3
ENDBRANCH   1   2
BRANCH   1  12
ATOM     12  C   UNL     1      47.016   6.796 127.160  1.00  0.00     0.000 C 
BRANCH  12  13
ATOM     13  C   UNL     1      46.661   7.671 125.952  1.00  0.00    -0.000 C 
BRANCH  13  14
ATOM     14  C   UNL     1      47.929   8.177 125.245  1.00  0.00    -0.000 C 
BRANCH  14  15
ATOM     15  C   UNL     1      47.669   8.558 123.772  1.00  0.00    -0.000 C 
BRANCH  15  16
ATOM     16  C   UNL     1      46.371   9.360 123.560  1.00  0.00    -0.000 C 
BRANCH  16  17
ATOM     17  C   UNL     1      46.483  10.867 123.849  1.00  0.00    -0.000 C 
BRANCH  17  18
ATOM     18  C   UNL     1      45.139  11.586 124.077  1.00  0.00    -0.000 C 
BRANCH  18  19
ATOM     19  C   UNL     1      44.186  11.523 122.865  1.00  0.00    -0.003 C 
ATOM     20  C   UNL     1      44.598  12.477 121.744  1.00  0.00     0.004 C 
ENDBRANCH  18  19
ENDBRANCH  17  18
ENDBRANCH  16  17
ENDBRANCH  15  16
ENDBRANCH  14  15
ENDBRANCH  13  14
ENDBRANCH  12  13
ENDBRANCH   1  12
TORSDOF 16
ENDMDL
MODEL 9
REMARK VINA RESULT:    -4.848      2.650      7.409
REMARK INTER + INTRA:         -11.089
REMARK INTER:                  -9.489
REMARK INTRA:                  -1.600
REMARK UNBOUND:                -1.708
REMARK SMILES CCCCCCCCCCCCCCCCCC(=O)[O-]
REMARK SMILES IDX 10 1 11 2 12 3 13 4 14 5 15 6 16 7 17 8 18 9 19 10 20 11
REMARK SMILES IDX 9 12 8 13 7 14 6 15 5 16 4 17 3 18 2 19 1 20
REMARK H PARENT
REMARK Flexibility Score: inf
ROOT
ATOM      1  C   UNL     1      45.442   4.091 131.501  1.00  0.00     0.000 C 
ENDROOT
BRANCH   1   2
ATOM      2  C   UNL     1      46.970   4.027 131.666  1.00  0.00     0.000 C 
BRANCH   2   3
ATOM      3  C   UNL     1      47.710   4.887 130.627  1.00  0.00     0.000 C 
BRANCH   3   4
ATOM      4  C   UNL     1      46.751   5.609 129.666  1.00  0.00     0.000 C 
BRANCH   4   5
ATOM      5  C   UNL     1      46.850   5.085 128.222  1.00  0.00     0.000 C 
BRANCH   5   6
ATOM      6  C   UNL     1      45.519   4.476 127.731  1.00  0.00     0.000 C 
BRANCH   6   7
ATOM      7  C   UNL     1      44.742   5.388 126.766  1.00  0.00     0.006 C 
BRANCH   7   8
ATOM      8  C   UNL     1      43.283   5.600 127.187  1.00  0.00     0.053 C 
BRANCH   8   9
ATOM      9  C   UNL     1      43.177   6.738 128.153  1.00  0.00     0.041 C 
ATOM     10  O   UNL     1      42.135   6.888 128.844  1.00  0.00    -0.550 OA
ATOM     11  O   UNL     1      44.251   7.603 128.331  1.00  0.00    -0.550 OA
ENDBRANCH   8   9
ENDBRANCH   7   8
ENDBRANCH   6   7
ENDBRANCH   5   6
ENDBRANCH   4   5
ENDBRANCH   3   4
ENDBRANCH   2   3
ENDBRANCH   1   2
BRANCH   1  12
ATOM     12  C   UNL     1      44.693   3.787 132.807  1.00  0.00     0.000 C 
BRANCH  12  13
ATOM     13  C   UNL     1      45.471   2.784 133.665  1.00  0.00    -0.000 C 
BRANCH  13  14
ATOM     14  C   UNL     1      44.708   1.456 133.792  1.00  0.00    -0.000 C 
BRANCH  14  15
ATOM     15  C   UNL     1      44.735   0.634 132.486  1.00  0.00    -0.000 C 
BRANCH  15  16
ATOM     16  C   UNL     1      43.340   0.376 131.887  1.00  0.00    -0.000 C 
BRANCH  16  17
ATOM     17  C   UNL     1      42.178   0.453 132.892  1.00  0.00    -0.000 C 
BRANCH  17  18
ATOM     18  C   UNL     1      41.755  -0.899 133.500  1.00  0.00    -0.000 C 
BRANCH  18  19
ATOM     19  C   UNL     1      42.312  -1.145 134.918  1.00  0.00    -0.003 C 
ATOM     20  C   UNL     1      43.098  -2.451 135.022  1.00  0.00     0.004 C 
ENDBRANCH  18  19
ENDBRANCH  17  18
ENDBRANCH  16  17
ENDBRANCH  15  16
ENDBRANCH  14  15
ENDBRANCH  13  14
ENDBRANCH  12  13
ENDBRANCH   1  12
TORSDOF 16
ENDMDL
