MODEL 1
REMARK VINA RESULT:    -4.929      0.000      0.000
REMARK INTER + INTRA:         -10.233
REMARK INTER:                  -8.962
REMARK INTRA:                  -1.271
REMARK UNBOUND:                -1.271
REMARK SMILES CCCCCCCCCCCCCCCC(=O)[O-]
REMARK SMILES IDX 9 1 10 2 11 3 12 4 13 5 14 6 15 7 16 8 17 9 18 10 8 11 7 12
REMARK SMILES IDX 6 13 5 14 4 15 3 16 2 17 1 18
REMARK H PARENT
REMARK Flexibility Score: inf
ROOT
ATOM      1  C   UNL     1      10.129  55.108  24.054  1.00  0.00     0.000 C 
ENDROOT
BRANCH   1   2
ATOM      2  C   UNL     1      11.063  54.007  23.513  1.00  0.00     0.000 C 
BRANCH   2   3
ATOM      3  C   UNL     1      10.966  53.743  21.999  1.00  0.00     0.000 C 
BRANCH   3   4
ATOM      4  C   UNL     1      10.356  52.370  21.670  1.00  0.00     0.000 C 
BRANCH   4   5
ATOM      5  C   UNL     1      10.456  51.374  22.841  1.00  0.00     0.000 C 
BRANCH   5   6
ATOM      6  C   UNL     1      10.632  49.900  22.435  1.00  0.00     0.006 C 
BRANCH   6   7
ATOM      7  C   UNL     1      11.783  49.207  23.175  1.00  0.00     0.053 C 
BRANCH   7   8
ATOM      8  C   UNL     1      11.258  48.109  24.045  1.00  0.00     0.041 C 
ATOM      9  O   UNL     1      10.913  47.008  23.539  1.00  0.00    -0.550 OA
ATOM     10  O   UNL     1      11.195  48.282  25.422  1.00  0.00    -0.550 OA
ENDBRANCH   7   8
ENDBRANCH   6   7
ENDBRANCH   5   6
ENDBRANCH   4   5
ENDBRANCH   3   4
ENDBRANCH   2   3
ENDBRANCH   1   2
BRANCH   1  11
ATOM     11  C   UNL     1       9.063  55.608  23.062  1.00  0.00     0.000 C 
BRANCH  11  12
ATOM     12  C   UNL     1       7.822  54.705  23.017  1.00  0.00    -0.000 C 
BRANCH  12  13
ATOM     13  C   UNL     1       7.210  54.684  21.610  1.00  0.00    -0.000 C 
BRANCH  13  14
ATOM     14  C   UNL     1       7.150  56.096  21.014  1.00  0.00    -0.000 C 
BRANCH  14  15
ATOM     15  C   UNL     1       7.927  56.170  19.694  1.00  0.00    -0.000 C 
BRANCH  15  16
ATOM     16  C   UNL     1       8.072  54.778  19.063  1.00  0.00    -0.000 C 
BRANCH  16  17
ATOM     17  C   UNL     1       6.963  54.473  18.044  1.00  0.00    -0.003 C 
ATOM     18  C   UNL     1       7.118  55.266  16.747  1.00  0.00     0.004 C 
ENDBRANCH  16  17
ENDBRANCH  15  16
ENDBRANCH  14  15
ENDBRANCH  13  14
ENDBRANCH  12  13
ENDBRANCH  11  12
ENDBRANCH   1  11
TORSDOF 14
ENDMDL
MODEL 2
REMARK VINA RESULT:    -4.857      6.641      9.941
REMARK INTER + INTRA:         -10.103
REMARK INTER:                  -8.983
REMARK INTRA:                  -1.120
REMARK UNBOUND:                -1.271
REMARK SMILES CCCCCCCCCCCCCCCC(=O)[O-]
REMARK SMILES IDX 9 1 10 2 11 3 12 4 13 5 14 6 15 7 16 8 17 9 18 10 8 11 7 12
REMARK SMILES IDX 6 13 5 14 4 15 3 16 2 17 1 18
REMARK H PARENT
REMARK Flexibility Score: inf
ROOT
ATOM      1  C   UNL     1       7.109  55.744  21.304  1.00  0.00     0.000 C 
ENDROOT
BRANCH   1   2
ATOM      2  C   UNL     1       6.311  56.990  20.868  1.00  0.00     0.000 C 
BRANCH   2   3
ATOM      3  C   UNL     1       4.973  57.206  21.599  1.00  0.00     0.000 C 
BRANCH   3   4
ATOM      4  C   UNL     1       4.067  58.231  20.896  1.00  0.00     0.000 C 
BRANCH   4   5
ATOM      5  C   UNL     1       3.484  59.279  21.862  1.00  0.00     0.000 C 
BRANCH   5   6
ATOM      6  C   UNL     1       2.774  60.468  21.191  1.00  0.00     0.006 C 
BRANCH   6   7
ATOM      7  C   UNL     1       1.477  60.066  20.477  1.00  0.00     0.053 C 
BRANCH   7   8
ATOM      8  C   UNL     1       1.513  60.500  19.046  1.00  0.00     0.041 C 
ATOM      9  O   UNL     1       0.609  61.249  18.587  1.00  0.00    -0.550 OA
ATOM     10  O   UNL     1       2.570  60.120  18.230  1.00  0.00    -0.550 OA
ENDBRANCH   7   8
ENDBRANCH   6   7
ENDBRANCH   5   6
ENDBRANCH   4   5
ENDBRANCH   3   4
ENDBRANCH   2   3
ENDBRANCH   1   2
BRANCH   1  11
ATOM     11  C   UNL     1       7.208  54.628  20.249  1.00  0.00     0.000 C 
BRANCH  11  12
ATOM     12  C   UNL     1       8.640  54.107  20.065  1.00  0.00    -0.000 C 
BRANCH  12  13
ATOM     13  C   UNL     1       9.567  54.652  21.159  1.00  0.00    -0.000 C 
BRANCH  13  14
ATOM     14  C   UNL     1      10.574  53.586  21.608  1.00  0.00    -0.000 C 
BRANCH  14  15
ATOM     15  C   UNL     1      10.808  53.653  23.122  1.00  0.00    -0.000 C 
BRANCH  15  16
ATOM     16  C   UNL     1      10.126  54.887  23.729  1.00  0.00    -0.000 C 
BRANCH  16  17
ATOM     17  C   UNL     1       9.091  54.521  24.805  1.00  0.00    -0.003 C 
ATOM     18  C   UNL     1       7.994  53.596  24.279  1.00  0.00     0.004 C 
ENDBRANCH  16  17
ENDBRANCH  15  16
ENDBRANCH  14  15
ENDBRANCH  13  14
ENDBRANCH  12  13
ENDBRANCH  11  12
ENDBRANCH   1  11
TORSDOF 14
ENDMDL
MODEL 3
REMARK VINA RESULT:    -4.846      6.281      9.713
REMARK INTER + INTRA:         -10.083
REMARK INTER:                  -9.377
REMARK INTRA:                  -0.706
REMARK UNBOUND:                -1.271
REMARK SMILES CCCCCCCCCCCCCCCC(=O)[O-]
REMARK SMILES IDX 9 1 10 2 11 3 12 4 13 5 14 6 15 7 16 8 17 9 18 10 8 11 7 12
REMARK SMILES IDX 6 13 5 14 4 15 3 16 2 17 1 18
REMARK H PARENT
REMARK Flexibility Score: inf
ROOT
ATOM      1  C   UNL     1       5.830  56.283  21.113  1.00  0.00     0.000 C 
ENDROOT
BRANCH   1   2
ATOM      2  C   UNL     1       4.843  57.347  21.634  1.00  0.00     0.000 C 
BRANCH   2   3
ATOM      3  C   UNL     1       4.313  58.332  20.575  1.00  0.00     0.000 C 
BRANCH   3   4
ATOM      4  C   UNL     1       2.866  58.778  20.845  1.00  0.00     0.000 C 
BRANCH   4   5
ATOM      5  C   UNL     1       2.777  60.192  21.447  1.00  0.00     0.000 C 
BRANCH   5   6
ATOM      6  C   UNL     1       1.706  60.375  22.538  1.00  0.00     0.006 C 
BRANCH   6   7
ATOM      7  C   UNL     1       0.365  59.726  22.175  1.00  0.00     0.053 C 
BRANCH   7   8
ATOM      8  C   UNL     1       0.132  58.507  23.011  1.00  0.00     0.041 C 
ATOM      9  O   UNL     1      -0.253  57.434  22.474  1.00  0.00    -0.550 OA
ATOM     10  O   UNL     1       0.387  58.540  24.375  1.00  0.00    -0.550 OA
ENDBRANCH   7   8
ENDBRANCH   6   7
ENDBRANCH   5   6
ENDBRANCH   4   5
ENDBRANCH   3   4
ENDBRANCH   2   3
ENDBRANCH   1   2
BRANCH   1  11
ATOM     11  C   UNL     1       7.077  56.839  20.403  1.00  0.00     0.000 C 
BRANCH  11  12
ATOM     12  C   UNL     1       8.131  55.760  20.118  1.00  0.00    -0.000 C 
BRANCH  12  13
ATOM     13  C   UNL     1       7.645  54.381  20.583  1.00  0.00    -0.000 C 
BRANCH  13  14
ATOM     14  C   UNL     1       8.505  53.856  21.739  1.00  0.00    -0.000 C 
BRANCH  14  15
ATOM     15  C   UNL     1       9.943  53.589  21.278  1.00  0.00    -0.000 C 
BRANCH  15  16
ATOM     16  C   UNL     1      10.931  53.738  22.444  1.00  0.00    -0.000 C 
BRANCH  16  17
ATOM     17  C   UNL     1      10.256  54.242  23.729  1.00  0.00    -0.003 C 
ATOM     18  C   UNL     1      11.262  54.647  24.805  1.00  0.00     0.004 C 
ENDBRANCH  16  17
ENDBRANCH  15  16
ENDBRANCH  14  15
ENDBRANCH  13  14
ENDBRANCH  12  13
ENDBRANCH  11  12
ENDBRANCH   1  11
TORSDOF 14
ENDMDL
MODEL 4
REMARK VINA RESULT:    -4.841      1.513      2.820
REMARK INTER + INTRA:         -10.074
REMARK INTER:                  -9.143
REMARK INTRA:                  -0.931
REMARK UNBOUND:                -1.271
REMARK SMILES CCCCCCCCCCCCCCCC(=O)[O-]
REMARK SMILES IDX 9 1 10 2 11 3 12 4 13 5 14 6 15 7 16 8 17 9 18 10 8 11 7 12
REMARK SMILES IDX 6 13 5 14 4 15 3 16 2 17 1 18
REMARK H PARENT
REMARK Flexibility Score: inf
ROOT
ATOM      1  C   UNL     1       9.879  52.392  22.853  1.00  0.00     0.000 C 
ENDROOT
BRANCH   1   2
ATOM      2  C   UNL     1      10.774  51.244  22.345  1.00  0.00     0.000 C 
BRANCH   2   3
ATOM      3  C   UNL     1      10.632  49.911  23.103  1.00  0.00     0.000 C 
BRANCH   3   4
ATOM      4  C   UNL     1      11.953  49.126  23.183  1.00  0.00     0.000 C 
BRANCH   4   5
ATOM      5  C   UNL     1      11.784  47.633  22.845  1.00  0.00     0.000 C 
BRANCH   5   6
ATOM      6  C   UNL     1      11.484  46.718  24.046  1.00  0.00     0.006 C 
BRANCH   6   7
ATOM      7  C   UNL     1      10.499  45.591  23.710  1.00  0.00     0.053 C 
BRANCH   7   8
ATOM      8  C   UNL     1       9.091  46.044  23.937  1.00  0.00     0.041 C 
ATOM      9  O   UNL     1       8.127  45.354  23.510  1.00  0.00    -0.550 OA
ATOM     10  O   UNL     1       8.841  47.201  24.662  1.00  0.00    -0.550 OA
ENDBRANCH   7   8
ENDBRANCH   6   7
ENDBRANCH   5   6
ENDBRANCH   4   5
ENDBRANCH   3   4
ENDBRANCH   2   3
ENDBRANCH   1   2
BRANCH   1  11
ATOM     11  C   UNL     1      10.457  53.806  22.661  1.00  0.00     0.000 C 
BRANCH  11  12
ATOM     12  C   UNL     1       9.369  54.882  22.533  1.00  0.00    -0.000 C 
BRANCH  12  13
ATOM     13  C   UNL     1       7.975  54.282  22.760  1.00  0.00    -0.000 C 
BRANCH  13  14
ATOM     14  C   UNL     1       6.909  55.052  21.970  1.00  0.00    -0.000 C 
BRANCH  14  15
ATOM     15  C   UNL     1       7.523  56.258  21.249  1.00  0.00    -0.000 C 
BRANCH  15  16
ATOM     16  C   UNL     1       7.276  56.178  19.736  1.00  0.00    -0.000 C 
BRANCH  16  17
ATOM     17  C   UNL     1       7.994  54.986  19.083  1.00  0.00    -0.003 C 
ATOM     18  C   UNL     1       7.131  54.276  18.041  1.00  0.00     0.004 C 
ENDBRANCH  16  17
ENDBRANCH  15  16
ENDBRANCH  14  15
ENDBRANCH  13  14
ENDBRANCH  12  13
ENDBRANCH  11  12
ENDBRANCH   1  11
TORSDOF 14
ENDMDL
MODEL 5
REMARK VINA RESULT:    -4.840      5.067      6.821
REMARK INTER + INTRA:         -10.073
REMARK INTER:                  -9.330
REMARK INTRA:                  -0.742
REMARK UNBOUND:                -1.271
REMARK SMILES CCCCCCCCCCCCCCCC(=O)[O-]
REMARK SMILES IDX 9 1 10 2 11 3 12 4 13 5 14 6 15 7 16 8 17 9 18 10 8 11 7 12
REMARK SMILES IDX 6 13 5 14 4 15 3 16 2 17 1 18
REMARK H PARENT
REMARK Flexibility Score: inf
ROOT
ATOM      1  C   UNL     1       5.902  57.198  20.529  1.00  0.00     0.000 C 
ENDROOT
BRANCH   1   2
ATOM      2  C   UNL     1       6.954  56.509  21.422  1.00  0.00     0.000 C 
BRANCH   2   3
ATOM      3  C   UNL     1       8.228  56.037  20.697  1.00  0.00     0.000 C 
BRANCH   3   4
ATOM      4  C   UNL     1       8.153  54.565  20.257  1.00  0.00     0.000 C 
BRANCH   4   5
ATOM      5  C   UNL     1       8.851  53.609  21.241  1.00  0.00     0.000 C 
BRANCH   5   6
ATOM      6  C   UNL     1      10.263  54.036  21.682  1.00  0.00     0.006 C 
BRANCH   6   7
ATOM      7  C   UNL     1      10.639  53.516  23.076  1.00  0.00     0.053 C 
BRANCH   7   8
ATOM      8  C   UNL     1      10.681  54.642  24.060  1.00  0.00     0.041 C 
ATOM      9  O   UNL     1      11.498  54.616  25.018  1.00  0.00    -0.550 OA
ATOM     10  O   UNL     1       9.852  55.744  23.891  1.00  0.00    -0.550 OA
ENDBRANCH   7   8
ENDBRANCH   6   7
ENDBRANCH   5   6
ENDBRANCH   4   5
ENDBRANCH   3   4
ENDBRANCH   2   3
ENDBRANCH   1   2
BRANCH   1  11
ATOM     11  C   UNL     1       4.663  57.731  21.270  1.00  0.00     0.000 C 
BRANCH  11  12
ATOM     12  C   UNL     1       3.887  58.778  20.458  1.00  0.00    -0.000 C 
BRANCH  12  13
ATOM     13  C   UNL     1       2.505  59.035  21.072  1.00  0.00    -0.000 C 
BRANCH  13  14
ATOM     14  C   UNL     1       2.585  60.085  22.187  1.00  0.00    -0.000 C 
BRANCH  14  15
ATOM     15  C   UNL     1       1.208  60.326  22.817  1.00  0.00    -0.000 C 
BRANCH  15  16
ATOM     16  C   UNL     1       0.247  59.173  22.494  1.00  0.00    -0.000 C 
BRANCH  16  17
ATOM     17  C   UNL     1      -0.017  58.266  23.707  1.00  0.00    -0.003 C 
ATOM     18  C   UNL     1       0.017  59.026  25.032  1.00  0.00     0.004 C 
ENDBRANCH  16  17
ENDBRANCH  15  16
ENDBRANCH  14  15
ENDBRANCH  13  14
ENDBRANCH  12  13
ENDBRANCH  11  12
ENDBRANCH   1  11
TORSDOF 14
ENDMDL
MODEL 6
REMARK VINA RESULT:    -4.836      6.989     10.450
REMARK INTER + INTRA:         -10.064
REMARK INTER:                  -9.169
REMARK INTRA:                  -0.895
REMARK UNBOUND:                -1.271
REMARK SMILES CCCCCCCCCCCCCCCC(=O)[O-]
REMARK SMILES IDX 9 1 10 2 11 3 12 4 13 5 14 6 15 7 16 8 17 9 18 10 8 11 7 12
REMARK SMILES IDX 6 13 5 14 4 15 3 16 2 17 1 18
REMARK H PARENT
REMARK Flexibility Score: inf
ROOT
ATOM      1  C   UNL     1       5.385  56.762  21.287  1.00  0.00     0.000 C 
ENDROOT
BRANCH   1   2
ATOM      2  C   UNL     1       4.843  58.054  20.641  1.00  0.00     0.000 C 
BRANCH   2   3
ATOM      3  C   UNL     1       3.435  58.479  21.095  1.00  0.00     0.000 C 
BRANCH   3   4
ATOM      4  C   UNL     1       3.291  60.003  21.245  1.00  0.00     0.000 C 
BRANCH   4   5
ATOM      5  C   UNL     1       2.213  60.598  20.319  1.00  0.00     0.000 C 
BRANCH   5   6
ATOM      6  C   UNL     1       2.563  60.598  18.820  1.00  0.00     0.006 C 
BRANCH   6   7
ATOM      7  C   UNL     1       1.326  60.529  17.916  1.00  0.00     0.053 C 
BRANCH   7   8
ATOM      8  C   UNL     1       1.684  59.947  16.585  1.00  0.00     0.041 C 
ATOM      9  O   UNL     1       0.906  59.134  16.018  1.00  0.00    -0.550 OA
ATOM     10  O   UNL     1       2.853  60.340  15.946  1.00  0.00    -0.550 OA
ENDBRANCH   7   8
ENDBRANCH   6   7
ENDBRANCH   5   6
ENDBRANCH   4   5
ENDBRANCH   3   4
ENDBRANCH   2   3
ENDBRANCH   1   2
BRANCH   1  11
ATOM     11  C   UNL     1       6.919  56.650  21.340  1.00  0.00     0.000 C 
BRANCH  11  12
ATOM     12  C   UNL     1       7.548  56.427  19.958  1.00  0.00    -0.000 C 
BRANCH  12  13
ATOM     13  C   UNL     1       7.979  54.965  19.781  1.00  0.00    -0.000 C 
BRANCH  13  14
ATOM     14  C   UNL     1       8.119  54.264  21.138  1.00  0.00    -0.000 C 
BRANCH  14  15
ATOM     15  C   UNL     1       9.484  53.578  21.265  1.00  0.00    -0.000 C 
BRANCH  15  16
ATOM     16  C   UNL     1      10.383  54.322  22.262  1.00  0.00    -0.000 C 
BRANCH  16  17
ATOM     17  C   UNL     1       9.592  54.928  23.432  1.00  0.00    -0.003 C 
ATOM     18  C   UNL     1      10.281  54.721  24.780  1.00  0.00     0.004 C 
ENDBRANCH  16  17
ENDBRANCH  15  16
ENDBRANCH  14  15
ENDBRANCH  13  14
ENDBRANCH  12  13
ENDBRANCH  11  12
ENDBRANCH   1  11
TORSDOF 14
ENDMDL
MODEL 7
REMARK VINA RESULT:    -4.801      6.706     10.011
REMARK INTER + INTRA:         -10.001
REMARK INTER:                  -9.113
REMARK INTRA:                  -0.889
REMARK UNBOUND:                -1.271
REMARK SMILES CCCCCCCCCCCCCCCC(=O)[O-]
REMARK SMILES IDX 9 1 10 2 11 3 12 4 13 5 14 6 15 7 16 8 17 9 18 10 8 11 7 12
REMARK SMILES IDX 6 13 5 14 4 15 3 16 2 17 1 18
REMARK H PARENT
REMARK Flexibility Score: inf
ROOT
ATOM      1  C   UNL     1       5.380  56.551  21.245  1.00  0.00     0.000 C 
ENDROOT
BRANCH   1   2
ATOM      2  C   UNL     1       4.690  57.884  21.603  1.00  0.00     0.000 C 
BRANCH   2   3
ATOM      3  C   UNL     1       3.948  58.575  20.445  1.00  0.00     0.000 C 
BRANCH   3   4
ATOM      4  C   UNL     1       3.084  59.759  20.911  1.00  0.00     0.000 C 
BRANCH   4   5
ATOM      5  C   UNL     1       2.593  59.607  22.363  1.00  0.00     0.000 C 
BRANCH   5   6
ATOM      6  C   UNL     1       1.088  59.322  22.521  1.00  0.00     0.006 C 
BRANCH   6   7
ATOM      7  C   UNL     1       0.402  60.260  23.523  1.00  0.00     0.053 C 
BRANCH   7   8
ATOM      8  C   UNL     1      -0.251  59.471  24.613  1.00  0.00     0.041 C 
ATOM      9  O   UNL     1      -1.443  59.711  24.942  1.00  0.00    -0.550 OA
ATOM     10  O   UNL     1       0.438  58.436  25.232  1.00  0.00    -0.550 OA
ENDBRANCH   7   8
ENDBRANCH   6   7
ENDBRANCH   5   6
ENDBRANCH   4   5
ENDBRANCH   3   4
ENDBRANCH   2   3
ENDBRANCH   1   2
BRANCH   1  11
ATOM     11  C   UNL     1       6.918  56.575  21.301  1.00  0.00     0.000 C 
BRANCH  11  12
ATOM     12  C   UNL     1       7.566  56.442  19.916  1.00  0.00    -0.000 C 
BRANCH  12  13
ATOM     13  C   UNL     1       8.036  55.003  19.665  1.00  0.00    -0.000 C 
BRANCH  13  14
ATOM     14  C   UNL     1       8.353  54.290  20.985  1.00  0.00    -0.000 C 
BRANCH  14  15
ATOM     15  C   UNL     1       9.866  54.147  21.184  1.00  0.00    -0.000 C 
BRANCH  15  16
ATOM     16  C   UNL     1      10.212  53.982  22.670  1.00  0.00    -0.000 C 
BRANCH  16  17
ATOM     17  C   UNL     1       9.706  55.152  23.528  1.00  0.00    -0.003 C 
ATOM     18  C   UNL     1       9.479  54.760  24.988  1.00  0.00     0.004 C 
ENDBRANCH  16  17
ENDBRANCH  15  16
ENDBRANCH  14  15
ENDBRANCH  13  14
ENDBRANCH  12  13
ENDBRANCH  11  12
ENDBRANCH   1  11
TORSDOF 14
ENDMDL
MODEL 8
REMARK VINA RESULT:    -4.760      1.970      3.641
REMARK INTER + INTRA:          -9.926
REMARK INTER:                  -8.896
REMARK INTRA:                  -1.030
REMARK UNBOUND:                -1.271
REMARK SMILES CCCCCCCCCCCCCCCC(=O)[O-]
REMARK SMILES IDX 9 1 10 2 11 3 12 4 13 5 14 6 15 7 16 8 17 9 18 10 8 11 7 12
REMARK SMILES IDX 6 13 5 14 4 15 3 16 2 17 1 18
REMARK H PARENT
REMARK Flexibility Score: inf
ROOT
ATOM      1  C   UNL     1      10.085  51.417  22.384  1.00  0.00     0.000 C 
ENDROOT
BRANCH   1   2
ATOM      2  C   UNL     1      11.077  50.379  22.949  1.00  0.00     0.000 C 
BRANCH   2   3
ATOM      3  C   UNL     1      10.670  48.906  22.762  1.00  0.00     0.000 C 
BRANCH   3   4
ATOM      4  C   UNL     1      11.787  47.924  23.153  1.00  0.00     0.000 C 
BRANCH   4   5
ATOM      5  C   UNL     1      11.529  47.230  24.504  1.00  0.00     0.000 C 
BRANCH   5   6
ATOM      6  C   UNL     1      11.778  48.103  25.748  1.00  0.00     0.006 C 
BRANCH   6   7
ATOM      7  C   UNL     1      13.226  48.033  26.249  1.00  0.00     0.053 C 
BRANCH   7   8
ATOM      8  C   UNL     1      13.353  48.718  27.573  1.00  0.00     0.041 C 
ATOM      9  O   UNL     1      12.557  48.441  28.510  1.00  0.00    -0.550 OA
ATOM     10  O   UNL     1      14.381  49.626  27.790  1.00  0.00    -0.550 OA
ENDBRANCH   7   8
ENDBRANCH   6   7
ENDBRANCH   5   6
ENDBRANCH   4   5
ENDBRANCH   3   4
ENDBRANCH   2   3
ENDBRANCH   1   2
BRANCH   1  11
ATOM     11  C   UNL     1      10.682  52.807  22.102  1.00  0.00     0.000 C 
BRANCH  11  12
ATOM     12  C   UNL     1      10.131  53.892  23.037  1.00  0.00    -0.000 C 
BRANCH  12  13
ATOM     13  C   UNL     1       8.663  53.621  23.389  1.00  0.00    -0.000 C 
BRANCH  13  14
ATOM     14  C   UNL     1       7.722  54.336  22.412  1.00  0.00    -0.000 C 
BRANCH  14  15
ATOM     15  C   UNL     1       8.328  55.660  21.933  1.00  0.00    -0.000 C 
BRANCH  15  16
ATOM     16  C   UNL     1       7.996  55.914  20.456  1.00  0.00    -0.000 C 
BRANCH  16  17
ATOM     17  C   UNL     1       8.265  54.687  19.570  1.00  0.00    -0.003 C 
ATOM     18  C   UNL     1       7.048  54.275  18.744  1.00  0.00     0.004 C 
ENDBRANCH  16  17
ENDBRANCH  15  16
ENDBRANCH  14  15
ENDBRANCH  13  14
ENDBRANCH  12  13
ENDBRANCH  11  12
ENDBRANCH   1  11
TORSDOF 14
ENDMDL
MODEL 9
REMARK VINA RESULT:    -4.667      6.426      8.545
REMARK INTER + INTRA:          -9.757
REMARK INTER:                  -8.832
REMARK INTRA:                  -0.924
REMARK UNBOUND:                -1.271
REMARK SMILES CCCCCCCCCCCCCCCC(=O)[O-]
REMARK SMILES IDX 9 1 10 2 11 3 12 4 13 5 14 6 15 7 16 8 17 9 18 10 8 11 7 12
REMARK SMILES IDX 6 13 5 14 4 15 3 16 2 17 1 18
REMARK H PARENT
REMARK Flexibility Score: inf
ROOT
ATOM      1  C   UNL     1       3.172  58.867  21.669  1.00  0.00     0.000 C 
ENDROOT
BRANCH   1   2
ATOM      2  C   UNL     1       4.292  58.220  20.827  1.00  0.00     0.000 C 
BRANCH   2   3
ATOM      3  C   UNL     1       4.977  56.999  21.467  1.00  0.00     0.000 C 
BRANCH   3   4
ATOM      4  C   UNL     1       6.478  56.917  21.139  1.00  0.00     0.000 C 
BRANCH   4   5
ATOM      5  C   UNL     1       7.026  55.478  21.197  1.00  0.00     0.000 C 
BRANCH   5   6
ATOM      6  C   UNL     1       7.914  55.066  20.009  1.00  0.00     0.006 C 
BRANCH   6   7
ATOM      7  C   UNL     1       7.666  55.911  18.753  1.00  0.00     0.053 C 
BRANCH   7   8
ATOM      8  C   UNL     1       7.228  55.041  17.617  1.00  0.00     0.041 C 
ATOM      9  O   UNL     1       6.936  55.553  16.504  1.00  0.00    -0.550 OA
ATOM     10  O   UNL     1       7.191  53.662  17.772  1.00  0.00    -0.550 OA
ENDBRANCH   7   8
ENDBRANCH   6   7
ENDBRANCH   5   6
ENDBRANCH   4   5
ENDBRANCH   3   4
ENDBRANCH   2   3
ENDBRANCH   1   2
BRANCH   1  11
ATOM     11  C   UNL     1       2.901  60.351  21.367  1.00  0.00     0.000 C 
BRANCH  11  12
ATOM     12  C   UNL     1       3.385  60.774  19.973  1.00  0.00    -0.000 C 
BRANCH  12  13
ATOM     13  C   UNL     1       2.199  61.073  19.046  1.00  0.00    -0.000 C 
BRANCH  13  14
ATOM     14  C   UNL     1       1.972  59.925  18.055  1.00  0.00    -0.000 C 
BRANCH  14  15
ATOM     15  C   UNL     1       2.428  60.317  16.645  1.00  0.00    -0.000 C 
BRANCH  15  16
ATOM     16  C   UNL     1       1.302  60.104  15.624  1.00  0.00    -0.000 C 
BRANCH  16  17
ATOM     17  C   UNL     1       0.444  61.363  15.420  1.00  0.00    -0.003 C 
ATOM     18  C   UNL     1      -0.933  61.252  16.072  1.00  0.00     0.004 C 
ENDBRANCH  16  17
ENDBRANCH  15  16
ENDBRANCH  14  15
ENDBRANCH  13  14
ENDBRANCH  12  13
ENDBRANCH  11  12
ENDBRANCH   1  11
TORSDOF 14
ENDMDL
