MODEL 1
REMARK VINA RESULT:    -6.112      0.000      0.000
REMARK INTER + INTRA:          -7.677
REMARK INTER:                  -7.362
REMARK INTRA:                  -0.315
REMARK UNBOUND:                -0.315
REMARK SMILES O=c1c(O)c(-c2ccc(O)c(O)c2)oc2cc(O)cc(O)c12
REMARK SMILES IDX 5 1 3 2 2 3 1 4 22 5 20 6 19 7 17 8 16 9 15 10 14 11 6 12
REMARK SMILES IDX 7 13 8 14 9 15 13 16 11 17 10 18 12 20 4 22 21 24 18 26
REMARK H PARENT 10 19 12 21 4 23 21 25 18 27
REMARK Flexibility Score: inf
ROOT
ATOM      1  C   UNL     1      -2.638 -11.758  98.946  1.00  0.00     0.180 A 
ATOM      2  C   UNL     1      -3.752 -10.979  98.586  1.00  0.00     0.208 A 
ATOM      3  C   UNL     1      -4.874 -10.966  99.430  1.00  0.00     0.238 A 
ATOM      4  O   UNL     1      -5.896 -10.327  99.064  1.00  0.00    -0.285 OA
ATOM      5  C   UNL     1      -4.849 -11.683 100.650  1.00  0.00     0.111 A 
ATOM      6  C   UNL     1      -5.911 -11.703 101.604  1.00  0.00     0.134 A 
ATOM      7  C   UNL     1      -5.815 -12.534 102.726  1.00  0.00     0.093 A 
ATOM      8  C   UNL     1      -4.669 -13.297 102.964  1.00  0.00     0.123 A 
ATOM      9  C   UNL     1      -3.605 -13.242 102.068  1.00  0.00     0.094 A 
ATOM     10  C   UNL     1      -3.685 -12.452 100.919  1.00  0.00     0.146 A 
ATOM     11  O   UNL     1      -2.656 -12.446 100.081  1.00  0.00    -0.452 OA
ENDROOT
BRANCH   1  12
ATOM     12  C   UNL     1      -1.424 -11.835  98.101  1.00  0.00     0.025 A 
ATOM     13  C   UNL     1      -1.305 -12.866  97.158  1.00  0.00     0.016 A 
ATOM     14  C   UNL     1      -0.180 -12.945  96.334  1.00  0.00     0.051 A 
ATOM     15  C   UNL     1       0.837 -11.986  96.431  1.00  0.00     0.157 A 
ATOM     16  C   UNL     1      -0.412 -10.861  98.182  1.00  0.00     0.062 A 
ATOM     17  C   UNL     1       0.716 -10.937  97.359  1.00  0.00     0.158 A 
BRANCH  15  18
ATOM     18  O   UNL     1       1.961 -12.070  95.611  1.00  0.00    -0.504 OA
ATOM     19  H   UNL     1       2.390 -11.242  95.214  1.00  0.00     0.293 HD
ENDBRANCH  15  18
BRANCH  17  20
ATOM     20  O   UNL     1       1.703  -9.958  97.470  1.00  0.00    -0.504 OA
ATOM     21  H   UNL     1       2.469  -9.887  96.809  1.00  0.00     0.293 HD
ENDBRANCH  17  20
ENDBRANCH   1  12
BRANCH   2  22
ATOM     22  O   UNL     1      -3.729 -10.218  97.414  1.00  0.00    -0.502 OA
ATOM     23  H   UNL     1      -3.814 -10.633  96.495  1.00  0.00     0.293 HD
ENDBRANCH   2  22
BRANCH   6  24
ATOM     24  O   UNL     1      -7.062 -10.914 101.510  1.00  0.00    -0.507 OA
ATOM     25  H   UNL     1      -7.961 -11.241 101.193  1.00  0.00     0.293 HD
ENDBRANCH   6  24
BRANCH   8  26
ATOM     26  O   UNL     1      -4.576 -14.108 104.093  1.00  0.00    -0.508 OA
ATOM     27  H   UNL     1      -5.132 -14.949 104.188  1.00  0.00     0.293 HD
ENDBRANCH   8  26
TORSDOF 6
ENDMDL
MODEL 2
REMARK VINA RESULT:    -5.779      9.334     11.356
REMARK INTER + INTRA:          -7.276
REMARK INTER:                  -6.967
REMARK INTRA:                  -0.309
REMARK UNBOUND:                -0.315
REMARK SMILES O=c1c(O)c(-c2ccc(O)c(O)c2)oc2cc(O)cc(O)c12
REMARK SMILES IDX 5 1 3 2 2 3 1 4 22 5 20 6 19 7 17 8 16 9 15 10 14 11 6 12
REMARK SMILES IDX 7 13 8 14 9 15 13 16 11 17 10 18 12 20 4 22 21 24 18 26
REMARK H PARENT 10 19 12 21 4 23 21 25 18 27
REMARK Flexibility Score: inf
ROOT
ATOM      1  C   UNL     1      -7.883  -7.374  91.560  1.00  0.00     0.180 A 
ATOM      2  C   UNL     1      -9.228  -7.245  91.947  1.00  0.00     0.208 A 
ATOM      3  C   UNL     1     -10.183  -8.108  91.386  1.00  0.00     0.238 A 
ATOM      4  O   UNL     1     -11.396  -7.938  91.680  1.00  0.00    -0.285 OA
ATOM      5  C   UNL     1      -9.775  -9.126  90.490  1.00  0.00     0.111 A 
ATOM      6  C   UNL     1     -10.651 -10.086  89.898  1.00  0.00     0.134 A 
ATOM      7  C   UNL     1     -10.150 -10.979  88.943  1.00  0.00     0.093 A 
ATOM      8  C   UNL     1      -8.794 -10.991  88.607  1.00  0.00     0.123 A 
ATOM      9  C   UNL     1      -7.922 -10.095  89.221  1.00  0.00     0.094 A 
ATOM     10  C   UNL     1      -8.397  -9.166  90.149  1.00  0.00     0.146 A 
ATOM     11  O   UNL     1      -7.535  -8.317  90.693  1.00  0.00    -0.452 OA
ENDROOT
BRANCH   1  12
ATOM     12  C   UNL     1      -6.821  -6.492  92.096  1.00  0.00     0.025 A 
ATOM     13  C   UNL     1      -6.446  -5.348  91.376  1.00  0.00     0.016 A 
ATOM     14  C   UNL     1      -5.463  -4.489  91.872  1.00  0.00     0.051 A 
ATOM     15  C   UNL     1      -4.849  -4.753  93.104  1.00  0.00     0.157 A 
ATOM     16  C   UNL     1      -6.219  -6.743  93.343  1.00  0.00     0.062 A 
ATOM     17  C   UNL     1      -5.234  -5.885  93.844  1.00  0.00     0.158 A 
BRANCH  15  18
ATOM     18  O   UNL     1      -3.866  -3.897  93.596  1.00  0.00    -0.504 OA
ATOM     19  H   UNL     1      -2.888  -4.162  93.604  1.00  0.00     0.293 HD
ENDBRANCH  15  18
BRANCH  17  20
ATOM     20  O   UNL     1      -4.655  -6.168  95.080  1.00  0.00    -0.504 OA
ATOM     21  H   UNL     1      -3.651  -6.156  95.220  1.00  0.00     0.293 HD
ENDBRANCH  17  20
ENDBRANCH   1  12
BRANCH   2  22
ATOM     22  O   UNL     1      -9.600  -6.283  92.891  1.00  0.00    -0.502 OA
ATOM     23  H   UNL     1      -9.111  -6.168  93.770  1.00  0.00     0.293 HD
ENDBRANCH   2  22
BRANCH   6  24
ATOM     24  O   UNL     1     -12.004 -10.220  90.226  1.00  0.00    -0.507 OA
ATOM     25  H   UNL     1     -12.390 -10.084  91.147  1.00  0.00     0.293 HD
ENDBRANCH   6  24
BRANCH   8  26
ATOM     26  O   UNL     1      -8.303 -11.896  87.669  1.00  0.00    -0.508 OA
ATOM     27  H   UNL     1      -7.479 -11.690  87.115  1.00  0.00     0.293 HD
ENDBRANCH   8  26
TORSDOF 6
ENDMDL
MODEL 3
REMARK VINA RESULT:    -5.739     12.527     14.485
REMARK INTER + INTRA:          -7.228
REMARK INTER:                  -6.907
REMARK INTRA:                  -0.322
REMARK UNBOUND:                -0.315
REMARK SMILES O=c1c(O)c(-c2ccc(O)c(O)c2)oc2cc(O)cc(O)c12
REMARK SMILES IDX 5 1 3 2 2 3 1 4 22 5 20 6 19 7 17 8 16 9 15 10 14 11 6 12
REMARK SMILES IDX 7 13 8 14 9 15 13 16 11 17 10 18 12 20 4 22 21 24 18 26
REMARK H PARENT 10 19 12 21 4 23 21 25 18 27
REMARK Flexibility Score: inf
ROOT
ATOM      1  C   UNL     1     -11.575  -8.552  89.784  1.00  0.00     0.180 A 
ATOM      2  C   UNL     1     -12.291  -8.714  90.983  1.00  0.00     0.208 A 
ATOM      3  C   UNL     1     -13.448  -7.947  91.194  1.00  0.00     0.238 A 
ATOM      4  O   UNL     1     -14.041  -8.043  92.301  1.00  0.00    -0.285 OA
ATOM      5  C   UNL     1     -13.908  -7.070  90.183  1.00  0.00     0.111 A 
ATOM      6  C   UNL     1     -15.093  -6.279  90.270  1.00  0.00     0.134 A 
ATOM      7  C   UNL     1     -15.391  -5.368  89.251  1.00  0.00     0.093 A 
ATOM      8  C   UNL     1     -14.583  -5.265  88.116  1.00  0.00     0.123 A 
ATOM      9  C   UNL     1     -13.454  -6.071  87.996  1.00  0.00     0.094 A 
ATOM     10  C   UNL     1     -13.109  -6.963  89.013  1.00  0.00     0.146 A 
ATOM     11  O   UNL     1     -12.013  -7.697  88.867  1.00  0.00    -0.452 OA
ENDROOT
BRANCH   1  12
ATOM     12  C   UNL     1     -10.338  -9.313  89.494  1.00  0.00     0.025 A 
ATOM     13  C   UNL     1      -9.097  -8.782  89.875  1.00  0.00     0.016 A 
ATOM     14  C   UNL     1      -7.919  -9.493  89.633  1.00  0.00     0.051 A 
ATOM     15  C   UNL     1      -7.965 -10.752  89.020  1.00  0.00     0.157 A 
ATOM     16  C   UNL     1     -10.384 -10.587  88.899  1.00  0.00     0.062 A 
ATOM     17  C   UNL     1      -9.207 -11.302  88.656  1.00  0.00     0.158 A 
BRANCH  15  18
ATOM     18  O   UNL     1      -6.789 -11.458  88.776  1.00  0.00    -0.504 OA
ATOM     19  H   UNL     1      -6.427 -11.578  87.837  1.00  0.00     0.293 HD
ENDBRANCH  15  18
BRANCH  17  20
ATOM     20  O   UNL     1      -9.289 -12.559  88.059  1.00  0.00    -0.504 OA
ATOM     21  H   UNL     1      -9.891 -13.290  88.422  1.00  0.00     0.293 HD
ENDBRANCH  17  20
ENDBRANCH   1  12
BRANCH   2  22
ATOM     22  O   UNL     1     -11.862  -9.641  91.938  1.00  0.00    -0.502 OA
ATOM     23  H   UNL     1     -12.016  -9.510  92.929  1.00  0.00     0.293 HD
ENDBRANCH   2  22
BRANCH   6  24
ATOM     24  O   UNL     1     -16.017  -6.366  91.316  1.00  0.00    -0.507 OA
ATOM     25  H   UNL     1     -16.353  -7.227  91.719  1.00  0.00     0.293 HD
ENDBRANCH   6  24
BRANCH   8  26
ATOM     26  O   UNL     1     -14.897  -4.366  87.098  1.00  0.00    -0.508 OA
ATOM     27  H   UNL     1     -14.380  -3.504  86.973  1.00  0.00     0.293 HD
ENDBRANCH   8  26
TORSDOF 6
ENDMDL
MODEL 4
REMARK VINA RESULT:    -5.518      9.649     12.584
REMARK INTER + INTRA:          -6.961
REMARK INTER:                  -6.627
REMARK INTRA:                  -0.334
REMARK UNBOUND:                -0.315
REMARK SMILES O=c1c(O)c(-c2ccc(O)c(O)c2)oc2cc(O)cc(O)c12
REMARK SMILES IDX 5 1 3 2 2 3 1 4 22 5 20 6 19 7 17 8 16 9 15 10 14 11 6 12
REMARK SMILES IDX 7 13 8 14 9 15 13 16 11 17 10 18 12 20 4 22 21 24 18 26
REMARK H PARENT 10 19 12 21 4 23 21 25 18 27
REMARK Flexibility Score: inf
ROOT
ATOM      1  C   UNL     1     -11.365  -9.575  93.507  1.00  0.00     0.180 A 
ATOM      2  C   UNL     1     -11.646 -10.243  92.302  1.00  0.00     0.208 A 
ATOM      3  C   UNL     1     -10.803 -10.037  91.197  1.00  0.00     0.238 A 
ATOM      4  O   UNL     1     -11.103 -10.579  90.101  1.00  0.00    -0.285 OA
ATOM      5  C   UNL     1      -9.660  -9.212  91.326  1.00  0.00     0.111 A 
ATOM      6  C   UNL     1      -8.712  -8.969  90.286  1.00  0.00     0.134 A 
ATOM      7  C   UNL     1      -7.677  -8.050  90.497  1.00  0.00     0.093 A 
ATOM      8  C   UNL     1      -7.517  -7.414  91.730  1.00  0.00     0.123 A 
ATOM      9  C   UNL     1      -8.405  -7.685  92.768  1.00  0.00     0.094 A 
ATOM     10  C   UNL     1      -9.469  -8.568  92.578  1.00  0.00     0.146 A 
ATOM     11  O   UNL     1     -10.304  -8.782  93.588  1.00  0.00    -0.452 OA
ENDROOT
BRANCH   1  12
ATOM     12  C   UNL     1     -12.214  -9.730  94.710  1.00  0.00     0.025 A 
ATOM     13  C   UNL     1     -11.866 -10.679  95.682  1.00  0.00     0.016 A 
ATOM     14  C   UNL     1     -12.639 -10.828  96.836  1.00  0.00     0.051 A 
ATOM     15  C   UNL     1     -13.764 -10.018  97.043  1.00  0.00     0.157 A 
ATOM     16  C   UNL     1     -13.331  -8.903  94.930  1.00  0.00     0.062 A 
ATOM     17  C   UNL     1     -14.108  -9.049  96.085  1.00  0.00     0.158 A 
BRANCH  15  18
ATOM     18  O   UNL     1     -14.537 -10.170  98.193  1.00  0.00    -0.504 OA
ATOM     19  H   UNL     1     -14.182  -9.915  99.107  1.00  0.00     0.293 HD
ENDBRANCH  15  18
BRANCH  17  20
ATOM     20  O   UNL     1     -15.212  -8.217  96.267  1.00  0.00    -0.504 OA
ATOM     21  H   UNL     1     -15.970  -8.457  96.896  1.00  0.00     0.293 HD
ENDBRANCH  17  20
ENDBRANCH   1  12
BRANCH   2  22
ATOM     22  O   UNL     1     -12.737 -11.113  92.217  1.00  0.00    -0.502 OA
ATOM     23  H   UNL     1     -13.396 -11.232  92.976  1.00  0.00     0.293 HD
ENDBRANCH   2  22
BRANCH   6  24
ATOM     24  O   UNL     1      -8.726  -9.617  89.047  1.00  0.00    -0.507 OA
ATOM     25  H   UNL     1      -8.930  -9.172  88.166  1.00  0.00     0.293 HD
ENDBRANCH   6  24
BRANCH   8  26
ATOM     26  O   UNL     1      -6.474  -6.513  91.936  1.00  0.00    -0.508 OA
ATOM     27  H   UNL     1      -5.814  -6.631  92.695  1.00  0.00     0.293 HD
ENDBRANCH   8  26
TORSDOF 6
ENDMDL
MODEL 5
REMARK VINA RESULT:    -5.448      9.699     12.956
REMARK INTER + INTRA:          -6.878
REMARK INTER:                  -6.559
REMARK INTRA:                  -0.319
REMARK UNBOUND:                -0.315
REMARK SMILES O=c1c(O)c(-c2ccc(O)c(O)c2)oc2cc(O)cc(O)c12
REMARK SMILES IDX 5 1 3 2 2 3 1 4 22 5 20 6 19 7 17 8 16 9 15 10 14 11 6 12
REMARK SMILES IDX 7 13 8 14 9 15 13 16 11 17 10 18 12 20 4 22 21 24 18 26
REMARK H PARENT 10 19 12 21 4 23 21 25 18 27
REMARK Flexibility Score: inf
ROOT
ATOM      1  C   UNL     1     -11.755  -9.442  94.047  1.00  0.00     0.180 A 
ATOM      2  C   UNL     1     -10.447  -9.000  94.312  1.00  0.00     0.208 A 
ATOM      3  C   UNL     1      -9.491  -9.050  93.284  1.00  0.00     0.238 A 
ATOM      4  O   UNL     1      -8.304  -8.724  93.548  1.00  0.00    -0.285 OA
ATOM      5  C   UNL     1      -9.868  -9.486  91.990  1.00  0.00     0.111 A 
ATOM      6  C   UNL     1      -8.993  -9.534  90.863  1.00  0.00     0.134 A 
ATOM      7  C   UNL     1      -9.450 -10.084  89.659  1.00  0.00     0.093 A 
ATOM      8  C   UNL     1     -10.767 -10.528  89.522  1.00  0.00     0.123 A 
ATOM      9  C   UNL     1     -11.643 -10.435  90.600  1.00  0.00     0.094 A 
ATOM     10  C   UNL     1     -11.208  -9.926  91.826  1.00  0.00     0.146 A 
ATOM     11  O   UNL     1     -12.070  -9.876  92.834  1.00  0.00    -0.452 OA
ENDROOT
BRANCH   1  12
ATOM     12  C   UNL     1     -12.814  -9.433  95.083  1.00  0.00     0.025 A 
ATOM     13  C   UNL     1     -12.929 -10.522  95.960  1.00  0.00     0.016 A 
ATOM     14  C   UNL     1     -13.905 -10.526  96.959  1.00  0.00     0.051 A 
ATOM     15  C   UNL     1     -14.772  -9.435  97.106  1.00  0.00     0.157 A 
ATOM     16  C   UNL     1     -13.671  -8.330  95.246  1.00  0.00     0.062 A 
ATOM     17  C   UNL     1     -14.650  -8.330  96.246  1.00  0.00     0.158 A 
BRANCH  15  18
ATOM     18  O   UNL     1     -15.747  -9.443  98.101  1.00  0.00    -0.504 OA
ATOM     19  H   UNL     1     -16.318  -8.627  98.291  1.00  0.00     0.293 HD
ENDBRANCH  15  18
BRANCH  17  20
ATOM     20  O   UNL     1     -15.486  -7.222  96.375  1.00  0.00    -0.504 OA
ATOM     21  H   UNL     1     -16.393  -7.281  96.823  1.00  0.00     0.293 HD
ENDBRANCH  17  20
ENDBRANCH   1  12
BRANCH   2  22
ATOM     22  O   UNL     1     -10.114  -8.502  95.575  1.00  0.00    -0.502 OA
ATOM     23  H   UNL     1      -9.906  -9.106  96.359  1.00  0.00     0.293 HD
ENDBRANCH   2  22
BRANCH   6  24
ATOM     24  O   UNL     1      -7.686  -9.036  90.863  1.00  0.00    -0.507 OA
ATOM     25  H   UNL     1      -7.073  -9.027  91.662  1.00  0.00     0.293 HD
ENDBRANCH   6  24
BRANCH   8  26
ATOM     26  O   UNL     1     -11.217 -11.058  88.315  1.00  0.00    -0.508 OA
ATOM     27  H   UNL     1     -10.658 -11.715  87.783  1.00  0.00     0.293 HD
ENDBRANCH   8  26
TORSDOF 6
ENDMDL
MODEL 6
REMARK VINA RESULT:    -5.378     10.030     13.132
REMARK INTER + INTRA:          -6.793
REMARK INTER:                  -6.495
REMARK INTRA:                  -0.298
REMARK UNBOUND:                -0.315
REMARK SMILES O=c1c(O)c(-c2ccc(O)c(O)c2)oc2cc(O)cc(O)c12
REMARK SMILES IDX 5 1 3 2 2 3 1 4 22 5 20 6 19 7 17 8 16 9 15 10 14 11 6 12
REMARK SMILES IDX 7 13 8 14 9 15 13 16 11 17 10 18 12 20 4 22 21 24 18 26
REMARK H PARENT 10 19 12 21 4 23 21 25 18 27
REMARK Flexibility Score: inf
ROOT
ATOM      1  C   UNL     1     -12.763 -10.289  93.980  1.00  0.00     0.180 A 
ATOM      2  C   UNL     1     -13.662 -10.628  92.953  1.00  0.00     0.208 A 
ATOM      3  C   UNL     1     -13.209 -10.623  91.624  1.00  0.00     0.238 A 
ATOM      4  O   UNL     1     -14.037 -10.854  90.704  1.00  0.00    -0.285 OA
ATOM      5  C   UNL     1     -11.852 -10.335  91.341  1.00  0.00     0.111 A 
ATOM      6  C   UNL     1     -11.273 -10.346  90.036  1.00  0.00     0.134 A 
ATOM      7  C   UNL     1      -9.944  -9.941  89.867  1.00  0.00     0.093 A 
ATOM      8  C   UNL     1      -9.152  -9.588  90.963  1.00  0.00     0.123 A 
ATOM      9  C   UNL     1      -9.692  -9.626  92.246  1.00  0.00     0.094 A 
ATOM     10  C   UNL     1     -11.026  -9.989  92.444  1.00  0.00     0.146 A 
ATOM     11  O   UNL     1     -11.505  -9.992  93.681  1.00  0.00    -0.452 OA
ENDROOT
BRANCH   1  12
ATOM     12  C   UNL     1     -13.169 -10.258  95.404  1.00  0.00     0.025 A 
ATOM     13  C   UNL     1     -12.769 -11.297  96.258  1.00  0.00     0.016 A 
ATOM     14  C   UNL     1     -13.121 -11.277  97.609  1.00  0.00     0.051 A 
ATOM     15  C   UNL     1     -13.866 -10.211  98.131  1.00  0.00     0.157 A 
ATOM     16  C   UNL     1     -13.898  -9.178  95.935  1.00  0.00     0.062 A 
ATOM     17  C   UNL     1     -14.252  -9.155  97.288  1.00  0.00     0.158 A 
BRANCH  15  18
ATOM     18  O   UNL     1     -14.219 -10.196  99.479  1.00  0.00    -0.504 OA
ATOM     19  H   UNL     1     -15.099  -9.803  99.792  1.00  0.00     0.293 HD
ENDBRANCH  15  18
BRANCH  17  20
ATOM     20  O   UNL     1     -14.980  -8.072  97.779  1.00  0.00    -0.504 OA
ATOM     21  H   UNL     1     -14.761  -7.632  98.665  1.00  0.00     0.293 HD
ENDBRANCH  17  20
ENDBRANCH   1  12
BRANCH   2  22
ATOM     22  O   UNL     1     -14.979 -10.983  93.259  1.00  0.00    -0.502 OA
ATOM     23  H   UNL     1     -15.259 -11.282  94.184  1.00  0.00     0.293 HD
ENDBRANCH   2  22
BRANCH   6  24
ATOM     24  O   UNL     1     -11.947 -10.766  88.884  1.00  0.00    -0.507 OA
ATOM     25  H   UNL     1     -12.052 -10.218  88.045  1.00  0.00     0.293 HD
ENDBRANCH   6  24
BRANCH   8  26
ATOM     26  O   UNL     1      -7.825  -9.203  90.786  1.00  0.00    -0.508 OA
ATOM     27  H   UNL     1      -7.534  -8.658  89.983  1.00  0.00     0.293 HD
ENDBRANCH   8  26
TORSDOF 6
ENDMDL
MODEL 7
REMARK VINA RESULT:    -5.373     10.181     12.171
REMARK INTER + INTRA:          -6.787
REMARK INTER:                  -6.458
REMARK INTRA:                  -0.329
REMARK UNBOUND:                -0.315
REMARK SMILES O=c1c(O)c(-c2ccc(O)c(O)c2)oc2cc(O)cc(O)c12
REMARK SMILES IDX 5 1 3 2 2 3 1 4 22 5 20 6 19 7 17 8 16 9 15 10 14 11 6 12
REMARK SMILES IDX 7 13 8 14 9 15 13 16 11 17 10 18 12 20 4 22 21 24 18 26
REMARK H PARENT 10 19 12 21 4 23 21 25 18 27
REMARK Flexibility Score: inf
ROOT
ATOM      1  C   UNL     1      -9.076  -8.512  90.937  1.00  0.00     0.180 A 
ATOM      2  C   UNL     1      -8.829  -9.605  90.088  1.00  0.00     0.208 A 
ATOM      3  C   UNL     1      -9.916 -10.249  89.475  1.00  0.00     0.238 A 
ATOM      4  O   UNL     1      -9.694 -11.272  88.776  1.00  0.00    -0.285 OA
ATOM      5  C   UNL     1     -11.229  -9.758  89.671  1.00  0.00     0.111 A 
ATOM      6  C   UNL     1     -12.400 -10.304  89.062  1.00  0.00     0.134 A 
ATOM      7  C   UNL     1     -13.658  -9.801  89.413  1.00  0.00     0.093 A 
ATOM      8  C   UNL     1     -13.786  -8.731  90.302  1.00  0.00     0.123 A 
ATOM      9  C   UNL     1     -12.646  -8.156  90.859  1.00  0.00     0.094 A 
ATOM     10  C   UNL     1     -11.379  -8.659  90.558  1.00  0.00     0.146 A 
ATOM     11  O   UNL     1     -10.321  -8.095  91.128  1.00  0.00    -0.452 OA
ENDROOT
BRANCH   1  12
ATOM     12  C   UNL     1      -7.984  -7.791  91.632  1.00  0.00     0.025 A 
ATOM     13  C   UNL     1      -7.477  -6.607  91.076  1.00  0.00     0.016 A 
ATOM     14  C   UNL     1      -6.463  -5.898  91.724  1.00  0.00     0.051 A 
ATOM     15  C   UNL     1      -5.951  -6.354  92.946  1.00  0.00     0.157 A 
ATOM     16  C   UNL     1      -7.484  -8.235  92.869  1.00  0.00     0.062 A 
ATOM     17  C   UNL     1      -6.468  -7.527  93.522  1.00  0.00     0.158 A 
BRANCH  15  18
ATOM     18  O   UNL     1      -4.936  -5.647  93.589  1.00  0.00    -0.504 OA
ATOM     19  H   UNL     1      -4.547  -4.800  93.193  1.00  0.00     0.293 HD
ENDBRANCH  15  18
BRANCH  17  20
ATOM     20  O   UNL     1      -5.992  -7.999  94.744  1.00  0.00    -0.504 OA
ATOM     21  H   UNL     1      -5.622  -8.937  94.853  1.00  0.00     0.293 HD
ENDBRANCH  17  20
ENDBRANCH   1  12
BRANCH   2  22
ATOM     22  O   UNL     1      -7.518 -10.027  89.848  1.00  0.00    -0.502 OA
ATOM     23  H   UNL     1      -6.898 -10.321  90.591  1.00  0.00     0.293 HD
ENDBRANCH   2  22
BRANCH   6  24
ATOM     24  O   UNL     1     -12.382 -11.314  88.096  1.00  0.00    -0.507 OA
ATOM     25  H   UNL     1     -13.143 -11.530  87.471  1.00  0.00     0.293 HD
ENDBRANCH   6  24
BRANCH   8  26
ATOM     26  O   UNL     1     -15.042  -8.227  90.633  1.00  0.00    -0.508 OA
ATOM     27  H   UNL     1     -15.893  -8.713  90.376  1.00  0.00     0.293 HD
ENDBRANCH   8  26
TORSDOF 6
ENDMDL
MODEL 8
REMARK VINA RESULT:    -5.311     10.971     11.926
REMARK INTER + INTRA:          -6.712
REMARK INTER:                  -6.436
REMARK INTRA:                  -0.276
REMARK UNBOUND:                -0.315
REMARK SMILES O=c1c(O)c(-c2ccc(O)c(O)c2)oc2cc(O)cc(O)c12
REMARK SMILES IDX 5 1 3 2 2 3 1 4 22 5 20 6 19 7 17 8 16 9 15 10 14 11 6 12
REMARK SMILES IDX 7 13 8 14 9 15 13 16 11 17 10 18 12 20 4 22 21 24 18 26
REMARK H PARENT 10 19 12 21 4 23 21 25 18 27
REMARK Flexibility Score: inf
ROOT
ATOM      1  C   UNL     1     -13.739  -9.489  95.984  1.00  0.00     0.180 A 
ATOM      2  C   UNL     1     -14.266  -8.250  96.388  1.00  0.00     0.208 A 
ATOM      3  C   UNL     1     -14.548  -8.042  97.748  1.00  0.00     0.238 A 
ATOM      4  O   UNL     1     -15.089  -6.959  98.093  1.00  0.00    -0.285 OA
ATOM      5  C   UNL     1     -14.248  -9.052  98.694  1.00  0.00     0.111 A 
ATOM      6  C   UNL     1     -14.449  -8.932 100.102  1.00  0.00     0.134 A 
ATOM      7  C   UNL     1     -14.215 -10.037 100.929  1.00  0.00     0.093 A 
ATOM      8  C   UNL     1     -13.725 -11.237 100.408  1.00  0.00     0.123 A 
ATOM      9  C   UNL     1     -13.473 -11.346  99.043  1.00  0.00     0.094 A 
ATOM     10  C   UNL     1     -13.733 -10.274  98.186  1.00  0.00     0.146 A 
ATOM     11  O   UNL     1     -13.499 -10.429  96.889  1.00  0.00    -0.452 OA
ENDROOT
BRANCH   1  12
ATOM     12  C   UNL     1     -13.429  -9.789  94.567  1.00  0.00     0.025 A 
ATOM     13  C   UNL     1     -12.255  -9.277  93.995  1.00  0.00     0.016 A 
ATOM     14  C   UNL     1     -11.930  -9.565  92.667  1.00  0.00     0.051 A 
ATOM     15  C   UNL     1     -12.768 -10.382  91.895  1.00  0.00     0.157 A 
ATOM     16  C   UNL     1     -14.257 -10.626  93.797  1.00  0.00     0.062 A 
ATOM     17  C   UNL     1     -13.935 -10.917  92.467  1.00  0.00     0.158 A 
BRANCH  15  18
ATOM     18  O   UNL     1     -12.444 -10.665  90.569  1.00  0.00    -0.504 OA
ATOM     19  H   UNL     1     -12.079 -11.569  90.294  1.00  0.00     0.293 HD
ENDBRANCH  15  18
BRANCH  17  20
ATOM     20  O   UNL     1     -14.781 -11.746  91.731  1.00  0.00    -0.504 OA
ATOM     21  H   UNL     1     -14.434 -12.539  91.204  1.00  0.00     0.293 HD
ENDBRANCH  17  20
ENDBRANCH   1  12
BRANCH   2  22
ATOM     22  O   UNL     1     -14.484  -7.238  95.449  1.00  0.00    -0.502 OA
ATOM     23  H   UNL     1     -14.742  -7.433  94.490  1.00  0.00     0.293 HD
ENDBRANCH   2  22
BRANCH   6  24
ATOM     24  O   UNL     1     -14.852  -7.754 100.739  1.00  0.00    -0.507 OA
ATOM     25  H   UNL     1     -15.024  -7.662 101.727  1.00  0.00     0.293 HD
ENDBRANCH   6  24
BRANCH   8  26
ATOM     26  O   UNL     1     -13.478 -12.326 101.242  1.00  0.00    -0.508 OA
ATOM     27  H   UNL     1     -12.539 -12.675 101.394  1.00  0.00     0.293 HD
ENDBRANCH   8  26
TORSDOF 6
ENDMDL
MODEL 9
REMARK VINA RESULT:    -5.254     11.573     14.562
REMARK INTER + INTRA:          -6.644
REMARK INTER:                  -6.430
REMARK INTRA:                  -0.213
REMARK UNBOUND:                -0.315
REMARK SMILES O=c1c(O)c(-c2ccc(O)c(O)c2)oc2cc(O)cc(O)c12
REMARK SMILES IDX 5 1 3 2 2 3 1 4 22 5 20 6 19 7 17 8 16 9 15 10 14 11 6 12
REMARK SMILES IDX 7 13 8 14 9 15 13 16 11 17 10 18 12 20 4 22 21 24 18 26
REMARK H PARENT 10 19 12 21 4 23 21 25 18 27
REMARK Flexibility Score: inf
ROOT
ATOM      1  C   UNL     1     -12.947 -10.350  92.196  1.00  0.00     0.180 A 
ATOM      2  C   UNL     1     -11.619 -10.233  91.747  1.00  0.00     0.208 A 
ATOM      3  C   UNL     1     -11.360 -10.291  90.368  1.00  0.00     0.238 A 
ATOM      4  O   UNL     1     -10.163 -10.261  89.978  1.00  0.00    -0.285 OA
ATOM      5  C   UNL     1     -12.433 -10.408  89.452  1.00  0.00     0.111 A 
ATOM      6  C   UNL     1     -12.291 -10.430  88.031  1.00  0.00     0.134 A 
ATOM      7  C   UNL     1     -13.415 -10.657  87.229  1.00  0.00     0.093 A 
ATOM      8  C   UNL     1     -14.687 -10.797  87.791  1.00  0.00     0.123 A 
ATOM      9  C   UNL     1     -14.844 -10.722  89.172  1.00  0.00     0.094 A 
ATOM     10  C   UNL     1     -13.736 -10.535  90.003  1.00  0.00     0.146 A 
ATOM     11  O   UNL     1     -13.929 -10.491  91.315  1.00  0.00    -0.452 OA
ENDROOT
BRANCH   1  12
ATOM     12  C   UNL     1     -13.298 -10.312  93.634  1.00  0.00     0.025 A 
ATOM     13  C   UNL     1     -12.930 -11.384  94.462  1.00  0.00     0.016 A 
ATOM     14  C   UNL     1     -13.231 -11.360  95.826  1.00  0.00     0.051 A 
ATOM     15  C   UNL     1     -13.890 -10.258  96.386  1.00  0.00     0.157 A 
ATOM     16  C   UNL     1     -13.940  -9.197  94.203  1.00  0.00     0.062 A 
ATOM     17  C   UNL     1     -14.243  -9.170  95.569  1.00  0.00     0.158 A 
BRANCH  15  18
ATOM     18  O   UNL     1     -14.193 -10.238  97.746  1.00  0.00    -0.504 OA
ATOM     19  H   UNL     1     -13.471 -10.332  98.451  1.00  0.00     0.293 HD
ENDBRANCH  15  18
BRANCH  17  20
ATOM     20  O   UNL     1     -14.886  -8.052  96.097  1.00  0.00    -0.504 OA
ATOM     21  H   UNL     1     -14.841  -7.820  97.083  1.00  0.00     0.293 HD
ENDBRANCH  17  20
ENDBRANCH   1  12
BRANCH   2  22
ATOM     22  O   UNL     1     -10.581 -10.042  92.663  1.00  0.00    -0.502 OA
ATOM     23  H   UNL     1      -9.707  -9.599  92.408  1.00  0.00     0.293 HD
ENDBRANCH   2  22
BRANCH   6  24
ATOM     24  O   UNL     1     -11.082 -10.213  87.362  1.00  0.00    -0.507 OA
ATOM     25  H   UNL     1     -10.227  -9.910  87.800  1.00  0.00     0.293 HD
ENDBRANCH   6  24
BRANCH   8  26
ATOM     26  O   UNL     1     -15.802 -11.006  86.982  1.00  0.00    -0.508 OA
ATOM     27  H   UNL     1     -15.709 -11.265  86.007  1.00  0.00     0.293 HD
ENDBRANCH   8  26
TORSDOF 6
ENDMDL
