MODEL 1
REMARK VINA RESULT:    -6.357      0.000      0.000
REMARK INTER + INTRA:         -10.848
REMARK INTER:                  -9.330
REMARK INTRA:                  -1.517
REMARK UNBOUND:                -1.517
REMARK SMILES O=c1c(O[C@H]2O[C@@H](CO)[C@H](O)[C@@H](O)[C@H]2O)c(-c2ccc(O)c(O)c2)oc2cc(O)cc(O)c12
REMARK SMILES IDX 4 1 3 2 16 3 25 4 2 5 26 6 1 7 33 8 27 9 31 10 28 11 30 12
REMARK SMILES IDX 17 13 18 14 19 15 20 16 24 17 22 18 21 19 23 21 32 23 29 25
REMARK SMILES IDX 5 27 14 28 6 29 12 30 7 31 10 32 15 33 13 35 8 37 9 38 11 40
REMARK H PARENT 21 20 23 22 32 24 29 26 15 34 13 36 9 39 11 41
REMARK Flexibility Score: inf
ROOT
ATOM      1  O   UNL     1      15.506  -5.802 -13.690  1.00  0.00    -0.454 OA
ENDROOT
BRANCH   1   2
ATOM      2  C   UNL     1      15.682  -5.023 -12.531  1.00  0.00     0.214 A 
ATOM      3  C   UNL     1      14.970  -5.216 -11.359  1.00  0.00     0.180 A 
ATOM      4  O   UNL     1      15.505  -4.678 -10.260  1.00  0.00    -0.452 OA
ATOM      5  C   UNL     1      16.532  -3.942 -12.669  1.00  0.00     0.239 A 
ATOM      6  C   UNL     1      16.462  -3.659 -10.304  1.00  0.00     0.146 A 
ATOM      7  O   UNL     1      16.223  -3.109 -13.610  1.00  0.00    -0.285 OA
ATOM      8  C   UNL     1      17.135  -3.444 -11.519  1.00  0.00     0.111 A 
ATOM      9  C   UNL     1      16.210  -2.443  -9.492  1.00  0.00     0.094 A 
ATOM     10  C   UNL     1      17.888  -2.218 -11.673  1.00  0.00     0.134 A 
ATOM     11  C   UNL     1      16.252  -1.191 -10.213  1.00  0.00     0.123 A 
ATOM     12  C   UNL     1      17.320  -1.018 -11.062  1.00  0.00     0.093 A 
BRANCH   3  13
ATOM     13  C   UNL     1      13.669  -6.048 -11.343  1.00  0.00     0.025 A 
ATOM     14  C   UNL     1      13.547  -7.353 -11.904  1.00  0.00     0.016 A 
ATOM     15  C   UNL     1      12.334  -8.049 -11.644  1.00  0.00     0.051 A 
ATOM     16  C   UNL     1      11.178  -7.340 -11.623  1.00  0.00     0.157 A 
ATOM     17  C   UNL     1      12.464  -5.406 -10.811  1.00  0.00     0.062 A 
ATOM     18  C   UNL     1      11.223  -6.036 -11.052  1.00  0.00     0.158 A 
BRANCH  16  19
ATOM     19  O   UNL     1       9.974  -7.850 -12.271  1.00  0.00    -0.504 OA
ATOM     20  H   UNL     1       9.763  -8.845 -12.059  1.00  0.00     0.293 HD
ENDBRANCH  16  19
BRANCH  18  21
ATOM     21  O   UNL     1      10.140  -5.374 -10.542  1.00  0.00    -0.504 OA
ATOM     22  H   UNL     1       9.987  -4.356 -10.803  1.00  0.00     0.293 HD
ENDBRANCH  18  21
ENDBRANCH   3  13
BRANCH  10  23
ATOM     23  O   UNL     1      18.811  -2.069 -12.733  1.00  0.00    -0.507 OA
ATOM     24  H   UNL     1      19.713  -1.549 -12.603  1.00  0.00     0.293 HD
ENDBRANCH  10  23
BRANCH  11  25
ATOM     25  O   UNL     1      15.370  -0.126  -9.991  1.00  0.00    -0.508 OA
ATOM     26  H   UNL     1      14.730   0.210 -10.737  1.00  0.00     0.293 HD
ENDBRANCH  11  25
ENDBRANCH   1   2
BRANCH   1  27
ATOM     27  C   UNL     1      16.518  -6.529 -14.337  1.00  0.00     0.339 C 
ATOM     28  C   UNL     1      16.953  -6.025 -15.755  1.00  0.00     0.214 C 
ATOM     29  O   UNL     1      16.201  -7.959 -14.302  1.00  0.00    -0.332 OA
ATOM     30  C   UNL     1      15.882  -6.430 -16.778  1.00  0.00     0.180 C 
ATOM     31  C   UNL     1      15.752  -8.652 -15.494  1.00  0.00     0.179 C 
ATOM     32  C   UNL     1      15.911  -8.006 -16.885  1.00  0.00     0.177 C 
BRANCH  28  33
ATOM     33  O   UNL     1      17.397  -4.671 -15.873  1.00  0.00    -0.384 OA
ATOM     34  H   UNL     1      17.828  -4.632 -16.809  1.00  0.00     0.211 HD
ENDBRANCH  28  33
BRANCH  30  35
ATOM     35  O   UNL     1      14.642  -5.917 -16.409  1.00  0.00    -0.387 OA
ATOM     36  H   UNL     1      14.812  -4.947 -16.189  1.00  0.00     0.211 HD
ENDBRANCH  30  35
BRANCH  31  37
ATOM     37  C   UNL     1      14.274  -9.113 -15.190  1.00  0.00     0.191 C 
BRANCH  37  38
ATOM     38  O   UNL     1      13.314  -8.820 -16.177  1.00  0.00    -0.394 OA
ATOM     39  H   UNL     1      12.454  -8.625 -15.765  1.00  0.00     0.210 HD
ENDBRANCH  37  38
ENDBRANCH  31  37
BRANCH  32  40
ATOM     40  O   UNL     1      17.133  -8.513 -17.502  1.00  0.00    -0.387 OA
ATOM     41  H   UNL     1      17.910  -7.952 -17.147  1.00  0.00     0.211 HD
ENDBRANCH  32  40
ENDBRANCH   1  27
TORSDOF 12
ENDMDL
MODEL 2
REMARK VINA RESULT:    -6.273      2.953      4.914
REMARK INTER + INTRA:         -10.724
REMARK INTER:                  -8.762
REMARK INTRA:                  -1.962
REMARK UNBOUND:                -1.517
REMARK SMILES O=c1c(O[C@H]2O[C@@H](CO)[C@H](O)[C@@H](O)[C@H]2O)c(-c2ccc(O)c(O)c2)oc2cc(O)cc(O)c12
REMARK SMILES IDX 4 1 3 2 16 3 25 4 2 5 26 6 1 7 33 8 27 9 31 10 28 11 30 12
REMARK SMILES IDX 17 13 18 14 19 15 20 16 24 17 22 18 21 19 23 21 32 23 29 25
REMARK SMILES IDX 5 27 14 28 6 29 12 30 7 31 10 32 15 33 13 35 8 37 9 38 11 40
REMARK H PARENT 21 20 23 22 32 24 29 26 15 34 13 36 9 39 11 41
REMARK Flexibility Score: inf
ROOT
ATOM      1  O   UNL     1      18.648  -6.749 -13.661  1.00  0.00    -0.454 OA
ENDROOT
BRANCH   1   2
ATOM      2  C   UNL     1      17.527  -6.101 -13.110  1.00  0.00     0.214 A 
ATOM      3  C   UNL     1      16.221  -6.377 -13.479  1.00  0.00     0.180 A 
ATOM      4  O   UNL     1      15.279  -5.979 -12.618  1.00  0.00    -0.452 OA
ATOM      5  C   UNL     1      17.811  -5.054 -12.253  1.00  0.00     0.239 A 
ATOM      6  C   UNL     1      15.510  -5.010 -11.638  1.00  0.00     0.146 A 
ATOM      7  O   UNL     1      18.552  -4.116 -12.749  1.00  0.00    -0.285 OA
ATOM      8  C   UNL     1      16.844  -4.706 -11.317  1.00  0.00     0.111 A 
ATOM      9  C   UNL     1      14.561  -3.872 -11.560  1.00  0.00     0.094 A 
ATOM     10  C   UNL     1      17.103  -3.508 -10.546  1.00  0.00     0.134 A 
ATOM     11  C   UNL     1      15.157  -2.556 -11.627  1.00  0.00     0.123 A 
ATOM     12  C   UNL     1      16.258  -2.351 -10.829  1.00  0.00     0.093 A 
BRANCH   3  13
ATOM     13  C   UNL     1      15.904  -7.141 -14.782  1.00  0.00     0.025 A 
ATOM     14  C   UNL     1      15.959  -8.560 -14.911  1.00  0.00     0.016 A 
ATOM     15  C   UNL     1      15.463  -9.111 -16.125  1.00  0.00     0.051 A 
ATOM     16  C   UNL     1      15.696  -8.436 -17.278  1.00  0.00     0.157 A 
ATOM     17  C   UNL     1      15.635  -6.346 -15.983  1.00  0.00     0.062 A 
ATOM     18  C   UNL     1      15.631  -7.015 -17.227  1.00  0.00     0.158 A 
BRANCH  16  19
ATOM     19  O   UNL     1      16.114  -9.140 -18.487  1.00  0.00    -0.504 OA
ATOM     20  H   UNL     1      16.061 -10.175 -18.419  1.00  0.00     0.293 HD
ENDBRANCH  16  19
BRANCH  18  21
ATOM     21  O   UNL     1      15.390  -6.208 -18.305  1.00  0.00    -0.504 OA
ATOM     22  H   UNL     1      14.722  -5.389 -18.199  1.00  0.00     0.293 HD
ENDBRANCH  18  21
ENDBRANCH   3  13
BRANCH  10  23
ATOM     23  O   UNL     1      18.366  -3.298  -9.947  1.00  0.00    -0.507 OA
ATOM     24  H   UNL     1      18.568  -3.620  -8.970  1.00  0.00     0.293 HD
ENDBRANCH  10  23
BRANCH  11  25
ATOM     25  O   UNL     1      14.605  -1.478 -12.328  1.00  0.00    -0.508 OA
ATOM     26  H   UNL     1      14.274  -0.625 -11.836  1.00  0.00     0.293 HD
ENDBRANCH  11  25
ENDBRANCH   1   2
BRANCH   1  27
ATOM     27  C   UNL     1      19.379  -7.772 -13.036  1.00  0.00     0.339 C 
ATOM     28  C   UNL     1      20.908  -7.513 -12.814  1.00  0.00     0.214 C 
ATOM     29  O   UNL     1      19.097  -9.052 -13.689  1.00  0.00    -0.332 OA
ATOM     30  C   UNL     1      21.642  -7.682 -14.151  1.00  0.00     0.180 C 
ATOM     31  C   UNL     1      20.078  -9.681 -14.553  1.00  0.00     0.179 C 
ATOM     32  C   UNL     1      21.546  -9.208 -14.549  1.00  0.00     0.177 C 
BRANCH  28  33
ATOM     33  O   UNL     1      21.286  -6.347 -12.078  1.00  0.00    -0.384 OA
ATOM     34  H   UNL     1      21.707  -6.724 -11.215  1.00  0.00     0.211 HD
ENDBRANCH  28  33
BRANCH  30  35
ATOM     35  O   UNL     1      21.109  -6.822 -15.107  1.00  0.00    -0.387 OA
ATOM     36  H   UNL     1      20.171  -6.625 -14.792  1.00  0.00     0.211 HD
ENDBRANCH  30  35
BRANCH  31  37
ATOM     37  C   UNL     1      19.435  -9.693 -15.994  1.00  0.00     0.191 C 
BRANCH  37  38
ATOM     38  O   UNL     1      19.058  -8.443 -16.518  1.00  0.00    -0.394 OA
ATOM     39  H   UNL     1      19.846  -7.908 -16.719  1.00  0.00     0.210 HD
ENDBRANCH  37  38
ENDBRANCH  31  37
BRANCH  32  40
ATOM     40  O   UNL     1      22.316 -10.076 -13.663  1.00  0.00    -0.387 OA
ATOM     41  H   UNL     1      21.867 -10.994 -13.667  1.00  0.00     0.211 HD
ENDBRANCH  32  40
ENDBRANCH   1  27
TORSDOF 12
ENDMDL
MODEL 3
REMARK VINA RESULT:    -6.142      2.066      6.638
REMARK INTER + INTRA:         -10.531
REMARK INTER:                  -9.486
REMARK INTRA:                  -1.046
REMARK UNBOUND:                -1.517
REMARK SMILES O=c1c(O[C@H]2O[C@@H](CO)[C@H](O)[C@@H](O)[C@H]2O)c(-c2ccc(O)c(O)c2)oc2cc(O)cc(O)c12
REMARK SMILES IDX 4 1 3 2 16 3 25 4 2 5 26 6 1 7 33 8 27 9 31 10 28 11 30 12
REMARK SMILES IDX 17 13 18 14 19 15 20 16 24 17 22 18 21 19 23 21 32 23 29 25
REMARK SMILES IDX 5 27 14 28 6 29 12 30 7 31 10 32 15 33 13 35 8 37 9 38 11 40
REMARK H PARENT 21 20 23 22 32 24 29 26 15 34 13 36 9 39 11 41
REMARK Flexibility Score: inf
ROOT
ATOM      1  O   UNL     1      14.209  -6.169 -12.050  1.00  0.00    -0.454 OA
ENDROOT
BRANCH   1   2
ATOM      2  C   UNL     1      13.269  -7.099 -11.572  1.00  0.00     0.214 A 
ATOM      3  C   UNL     1      13.143  -8.389 -12.064  1.00  0.00     0.180 A 
ATOM      4  O   UNL     1      12.499  -9.251 -11.273  1.00  0.00    -0.452 OA
ATOM      5  C   UNL     1      12.365  -6.606 -10.650  1.00  0.00     0.239 A 
ATOM      6  C   UNL     1      11.654  -8.842 -10.236  1.00  0.00     0.146 A 
ATOM      7  O   UNL     1      11.678  -5.580 -11.040  1.00  0.00    -0.285 OA
ATOM      8  C   UNL     1      11.761  -7.514  -9.787  1.00  0.00     0.111 A 
ATOM      9  C   UNL     1      10.289  -9.421 -10.193  1.00  0.00     0.094 A 
ATOM     10  C   UNL     1      10.704  -6.992  -8.947  1.00  0.00     0.134 A 
ATOM     11  C   UNL     1       9.206  -8.464 -10.153  1.00  0.00     0.123 A 
ATOM     12  C   UNL     1       9.345  -7.433  -9.254  1.00  0.00     0.093 A 
BRANCH   3  13
ATOM     13  C   UNL     1      13.761  -8.789 -13.420  1.00  0.00     0.025 A 
ATOM     14  C   UNL     1      15.151  -8.693 -13.726  1.00  0.00     0.016 A 
ATOM     15  C   UNL     1      15.576  -9.272 -14.954  1.00  0.00     0.051 A 
ATOM     16  C   UNL     1      14.759  -9.164 -16.031  1.00  0.00     0.157 A 
ATOM     17  C   UNL     1      12.842  -9.189 -14.489  1.00  0.00     0.062 A 
ATOM     18  C   UNL     1      13.358  -9.276 -15.801  1.00  0.00     0.158 A 
BRANCH  16  19
ATOM     19  O   UNL     1      15.293  -8.827 -17.347  1.00  0.00    -0.504 OA
ATOM     20  H   UNL     1      15.964  -9.523 -17.727  1.00  0.00     0.293 HD
ENDBRANCH  16  19
BRANCH  18  21
ATOM     21  O   UNL     1      12.441  -9.639 -16.749  1.00  0.00    -0.504 OA
ATOM     22  H   UNL     1      11.861  -8.886 -17.223  1.00  0.00     0.293 HD
ENDBRANCH  18  21
ENDBRANCH   3  13
BRANCH  10  23
ATOM     23  O   UNL     1      10.883  -5.786  -8.233  1.00  0.00    -0.507 OA
ATOM     24  H   UNL     1      10.385  -4.907  -8.513  1.00  0.00     0.293 HD
ENDBRANCH  10  23
BRANCH  11  25
ATOM     25  O   UNL     1       8.003  -8.608 -10.853  1.00  0.00    -0.508 OA
ATOM     26  H   UNL     1       7.567  -9.540 -10.993  1.00  0.00     0.293 HD
ENDBRANCH  11  25
ENDBRANCH   1   2
BRANCH   1  27
ATOM     27  C   UNL     1      14.668  -5.046 -11.342  1.00  0.00     0.339 C 
ATOM     28  C   UNL     1      14.336  -3.643 -11.954  1.00  0.00     0.214 C 
ATOM     29  O   UNL     1      16.085  -5.214 -11.010  1.00  0.00    -0.332 OA
ATOM     30  C   UNL     1      15.269  -3.385 -13.146  1.00  0.00     0.180 C 
ATOM     31  C   UNL     1      17.109  -4.460 -11.708  1.00  0.00     0.179 C 
ATOM     32  C   UNL     1      16.733  -3.238 -12.571  1.00  0.00     0.177 C 
BRANCH  28  33
ATOM     33  O   UNL     1      12.963  -3.332 -12.204  1.00  0.00    -0.384 OA
ATOM     34  H   UNL     1      12.488  -3.586 -11.325  1.00  0.00     0.211 HD
ENDBRANCH  28  33
BRANCH  30  35
ATOM     35  O   UNL     1      15.140  -4.400 -14.089  1.00  0.00    -0.387 OA
ATOM     36  H   UNL     1      16.073  -4.558 -14.438  1.00  0.00     0.211 HD
ENDBRANCH  30  35
BRANCH  31  37
ATOM     37  C   UNL     1      17.968  -5.529 -12.489  1.00  0.00     0.191 C 
BRANCH  37  38
ATOM     38  O   UNL     1      19.357  -5.302 -12.530  1.00  0.00    -0.394 OA
ATOM     39  H   UNL     1      19.570  -4.434 -12.144  1.00  0.00     0.210 HD
ENDBRANCH  37  38
ENDBRANCH  31  37
BRANCH  32  40
ATOM     40  O   UNL     1      16.913  -2.028 -11.773  1.00  0.00    -0.387 OA
ATOM     41  H   UNL     1      16.951  -2.312 -10.792  1.00  0.00     0.211 HD
ENDBRANCH  32  40
ENDBRANCH   1  27
TORSDOF 12
ENDMDL
MODEL 4
REMARK VINA RESULT:    -6.115      3.095      8.227
REMARK INTER + INTRA:         -10.492
REMARK INTER:                  -8.457
REMARK INTRA:                  -2.036
REMARK UNBOUND:                -1.517
REMARK SMILES O=c1c(O[C@H]2O[C@@H](CO)[C@H](O)[C@@H](O)[C@H]2O)c(-c2ccc(O)c(O)c2)oc2cc(O)cc(O)c12
REMARK SMILES IDX 4 1 3 2 16 3 25 4 2 5 26 6 1 7 33 8 27 9 31 10 28 11 30 12
REMARK SMILES IDX 17 13 18 14 19 15 20 16 24 17 22 18 21 19 23 21 32 23 29 25
REMARK SMILES IDX 5 27 14 28 6 29 12 30 7 31 10 32 15 33 13 35 8 37 9 38 11 40
REMARK H PARENT 21 20 23 22 32 24 29 26 15 34 13 36 9 39 11 41
REMARK Flexibility Score: inf
ROOT
ATOM      1  O   UNL     1      17.181  -2.481 -12.238  1.00  0.00    -0.454 OA
ENDROOT
BRANCH   1   2
ATOM      2  C   UNL     1      17.244  -3.159 -13.469  1.00  0.00     0.214 A 
ATOM      3  C   UNL     1      17.601  -2.555 -14.664  1.00  0.00     0.180 A 
ATOM      4  O   UNL     1      17.985  -3.383 -15.639  1.00  0.00    -0.452 OA
ATOM      5  C   UNL     1      16.793  -4.466 -13.447  1.00  0.00     0.239 A 
ATOM      6  C   UNL     1      17.676  -4.746 -15.642  1.00  0.00     0.146 A 
ATOM      7  O   UNL     1      15.583  -4.628 -13.017  1.00  0.00    -0.285 OA
ATOM      8  C   UNL     1      17.264  -5.328 -14.431  1.00  0.00     0.111 A 
ATOM      9  C   UNL     1      17.046  -5.306 -16.864  1.00  0.00     0.094 A 
ATOM     10  C   UNL     1      16.652  -6.639 -14.479  1.00  0.00     0.134 A 
ATOM     11  C   UNL     1      15.801  -6.012 -16.657  1.00  0.00     0.123 A 
ATOM     12  C   UNL     1      15.785  -6.917 -15.622  1.00  0.00     0.093 A 
BRANCH   3  13
ATOM     13  C   UNL     1      17.593  -1.019 -14.814  1.00  0.00     0.025 A 
ATOM     14  C   UNL     1      18.770  -0.218 -14.899  1.00  0.00     0.016 A 
ATOM     15  C   UNL     1      18.585   1.157 -15.216  1.00  0.00     0.051 A 
ATOM     16  C   UNL     1      17.510   1.797 -14.695  1.00  0.00     0.157 A 
ATOM     17  C   UNL     1      16.295  -0.342 -14.759  1.00  0.00     0.062 A 
ATOM     18  C   UNL     1      16.293   1.063 -14.604  1.00  0.00     0.158 A 
BRANCH  16  19
ATOM     19  O   UNL     1      17.635   3.141 -14.139  1.00  0.00    -0.504 OA
ATOM     20  H   UNL     1      18.601   3.399 -13.857  1.00  0.00     0.293 HD
ENDBRANCH  16  19
BRANCH  18  21
ATOM     21  O   UNL     1      15.048   1.626 -14.544  1.00  0.00    -0.504 OA
ATOM     22  H   UNL     1      14.373   1.308 -13.788  1.00  0.00     0.293 HD
ENDBRANCH  18  21
ENDBRANCH   3  13
BRANCH  10  23
ATOM     23  O   UNL     1      16.483  -7.396 -13.298  1.00  0.00    -0.507 OA
ATOM     24  H   UNL     1      15.529  -7.608 -12.917  1.00  0.00     0.293 HD
ENDBRANCH  10  23
BRANCH  11  25
ATOM     25  O   UNL     1      14.698  -5.929 -17.516  1.00  0.00    -0.508 OA
ATOM     26  H   UNL     1      14.145  -6.770 -17.768  1.00  0.00     0.293 HD
ENDBRANCH  11  25
ENDBRANCH   1   2
BRANCH   1  27
ATOM     27  C   UNL     1      17.843  -2.873 -11.064  1.00  0.00     0.339 C 
ATOM     28  C   UNL     1      16.942  -3.258  -9.842  1.00  0.00     0.214 C 
ATOM     29  O   UNL     1      18.884  -1.898 -10.731  1.00  0.00    -0.332 OA
ATOM     30  C   UNL     1      16.386  -1.976  -9.208  1.00  0.00     0.180 C 
ATOM     31  C   UNL     1      18.715  -0.973  -9.627  1.00  0.00     0.179 C 
ATOM     32  C   UNL     1      17.608  -1.198  -8.577  1.00  0.00     0.177 C 
BRANCH  28  33
ATOM     33  O   UNL     1      15.971  -4.291 -10.029  1.00  0.00    -0.384 OA
ATOM     34  H   UNL     1      15.498  -4.356  -9.115  1.00  0.00     0.211 HD
ENDBRANCH  28  33
BRANCH  30  35
ATOM     35  O   UNL     1      15.681  -1.236 -10.152  1.00  0.00    -0.387 OA
ATOM     36  H   UNL     1      15.792  -0.273  -9.871  1.00  0.00     0.211 HD
ENDBRANCH  30  35
BRANCH  31  37
ATOM     37  C   UNL     1      18.668   0.465 -10.277  1.00  0.00     0.191 C 
BRANCH  37  38
ATOM     38  O   UNL     1      17.823   0.618 -11.392  1.00  0.00    -0.394 OA
ATOM     39  H   UNL     1      17.914  -0.143 -11.992  1.00  0.00     0.210 HD
ENDBRANCH  37  38
ENDBRANCH  31  37
BRANCH  32  40
ATOM     40  O   UNL     1      18.187  -1.884  -7.426  1.00  0.00    -0.387 OA
ATOM     41  H   UNL     1      18.880  -2.545  -7.780  1.00  0.00     0.211 HD
ENDBRANCH  32  40
ENDBRANCH   1  27
TORSDOF 12
ENDMDL
MODEL 5
REMARK VINA RESULT:    -6.043     10.208     12.691
REMARK INTER + INTRA:         -10.387
REMARK INTER:                  -8.822
REMARK INTRA:                  -1.565
REMARK UNBOUND:                -1.517
REMARK SMILES O=c1c(O[C@H]2O[C@@H](CO)[C@H](O)[C@@H](O)[C@H]2O)c(-c2ccc(O)c(O)c2)oc2cc(O)cc(O)c12
REMARK SMILES IDX 4 1 3 2 16 3 25 4 2 5 26 6 1 7 33 8 27 9 31 10 28 11 30 12
REMARK SMILES IDX 17 13 18 14 19 15 20 16 24 17 22 18 21 19 23 21 32 23 29 25
REMARK SMILES IDX 5 27 14 28 6 29 12 30 7 31 10 32 15 33 13 35 8 37 9 38 11 40
REMARK H PARENT 21 20 23 22 32 24 29 26 15 34 13 36 9 39 11 41
REMARK Flexibility Score: inf
ROOT
ATOM      1  O   UNL     1       7.849   3.509 -14.270  1.00  0.00    -0.454 OA
ENDROOT
BRANCH   1   2
ATOM      2  C   UNL     1       8.873   3.502 -15.235  1.00  0.00     0.214 A 
ATOM      3  C   UNL     1       8.686   3.116 -16.553  1.00  0.00     0.180 A 
ATOM      4  O   UNL     1       9.622   3.524 -17.414  1.00  0.00    -0.452 OA
ATOM      5  C   UNL     1      10.139   3.782 -14.756  1.00  0.00     0.239 A 
ATOM      6  C   UNL     1      10.894   3.940 -17.010  1.00  0.00     0.146 A 
ATOM      7  O   UNL     1      10.552   3.016 -13.798  1.00  0.00    -0.285 OA
ATOM      8  C   UNL     1      11.076   4.275 -15.657  1.00  0.00     0.111 A 
ATOM      9  C   UNL     1      12.065   3.315 -17.674  1.00  0.00     0.094 A 
ATOM     10  C   UNL     1      12.430   4.405 -15.164  1.00  0.00     0.134 A 
ATOM     11  C   UNL     1      13.039   2.716 -16.789  1.00  0.00     0.123 A 
ATOM     12  C   UNL     1      13.418   3.475 -15.706  1.00  0.00     0.093 A 
BRANCH   3  13
ATOM     13  C   UNL     1       7.441   2.310 -16.979  1.00  0.00     0.025 A 
ATOM     14  C   UNL     1       6.914   1.204 -16.249  1.00  0.00     0.016 A 
ATOM     15  C   UNL     1       5.661   0.690 -16.683  1.00  0.00     0.051 A 
ATOM     16  C   UNL     1       5.411   0.649 -18.015  1.00  0.00     0.157 A 
ATOM     17  C   UNL     1       6.833   2.641 -18.271  1.00  0.00     0.062 A 
ATOM     18  C   UNL     1       5.887   1.736 -18.803  1.00  0.00     0.158 A 
BRANCH  16  19
ATOM     19  O   UNL     1       4.788  -0.522 -18.625  1.00  0.00    -0.504 OA
ATOM     20  H   UNL     1       5.197  -1.428 -18.325  1.00  0.00     0.293 HD
ENDBRANCH  16  19
BRANCH  18  21
ATOM     21  O   UNL     1       5.373   2.099 -20.017  1.00  0.00    -0.504 OA
ATOM     22  H   UNL     1       4.806   1.393 -20.571  1.00  0.00     0.293 HD
ENDBRANCH  18  21
ENDBRANCH   3  13
BRANCH  10  23
ATOM     23  O   UNL     1      12.685   5.014 -13.914  1.00  0.00    -0.507 OA
ATOM     24  H   UNL     1      13.299   5.860 -13.833  1.00  0.00     0.293 HD
ENDBRANCH  10  23
BRANCH  11  25
ATOM     25  O   UNL     1      13.697   1.508 -17.046  1.00  0.00    -0.508 OA
ATOM     26  H   UNL     1      14.149   1.323 -17.963  1.00  0.00     0.293 HD
ENDBRANCH  11  25
ENDBRANCH   1   2
BRANCH   1  27
ATOM     27  C   UNL     1       7.606   4.546 -13.356  1.00  0.00     0.339 C 
ATOM     28  C   UNL     1       7.709   4.185 -11.835  1.00  0.00     0.214 C 
ATOM     29  O   UNL     1       6.361   5.234 -13.706  1.00  0.00    -0.332 OA
ATOM     30  C   UNL     1       6.452   3.406 -11.422  1.00  0.00     0.180 C 
ATOM     31  C   UNL     1       5.159   5.049 -12.916  1.00  0.00     0.179 C 
ATOM     32  C   UNL     1       5.230   4.403 -11.517  1.00  0.00     0.177 C 
BRANCH  28  33
ATOM     33  O   UNL     1       8.934   3.618 -11.366  1.00  0.00    -0.384 OA
ATOM     34  H   UNL     1       9.632   4.356 -11.542  1.00  0.00     0.211 HD
ENDBRANCH  28  33
BRANCH  30  35
ATOM     35  O   UNL     1       6.308   2.268 -12.211  1.00  0.00    -0.387 OA
ATOM     36  H   UNL     1       7.157   2.213 -12.753  1.00  0.00     0.211 HD
ENDBRANCH  30  35
BRANCH  31  37
ATOM     37  C   UNL     1       4.123   4.342 -13.873  1.00  0.00     0.191 C 
BRANCH  37  38
ATOM     38  O   UNL     1       4.250   2.946 -14.007  1.00  0.00    -0.394 OA
ATOM     39  H   UNL     1       3.625   2.491 -13.415  1.00  0.00     0.210 HD
ENDBRANCH  37  38
ENDBRANCH  31  37
BRANCH  32  40
ATOM     40  O   UNL     1       5.279   5.461 -10.513  1.00  0.00    -0.387 OA
ATOM     41  H   UNL     1       5.883   6.201 -10.878  1.00  0.00     0.211 HD
ENDBRANCH  32  40
ENDBRANCH   1  27
TORSDOF 12
ENDMDL
MODEL 6
REMARK VINA RESULT:    -5.986      3.138      8.308
REMARK INTER + INTRA:         -10.303
REMARK INTER:                  -8.574
REMARK INTRA:                  -1.729
REMARK UNBOUND:                -1.517
REMARK SMILES O=c1c(O[C@H]2O[C@@H](CO)[C@H](O)[C@@H](O)[C@H]2O)c(-c2ccc(O)c(O)c2)oc2cc(O)cc(O)c12
REMARK SMILES IDX 4 1 3 2 16 3 25 4 2 5 26 6 1 7 33 8 27 9 31 10 28 11 30 12
REMARK SMILES IDX 17 13 18 14 19 15 20 16 24 17 22 18 21 19 23 21 32 23 29 25
REMARK SMILES IDX 5 27 14 28 6 29 12 30 7 31 10 32 15 33 13 35 8 37 9 38 11 40
REMARK H PARENT 21 20 23 22 32 24 29 26 15 34 13 36 9 39 11 41
REMARK Flexibility Score: inf
ROOT
ATOM      1  O   UNL     1      16.979  -2.890 -11.896  1.00  0.00    -0.454 OA
ENDROOT
BRANCH   1   2
ATOM      2  C   UNL     1      17.091  -3.401 -13.202  1.00  0.00     0.214 A 
ATOM      3  C   UNL     1      17.349  -2.619 -14.316  1.00  0.00     0.180 A 
ATOM      4  O   UNL     1      17.803  -3.271 -15.390  1.00  0.00    -0.452 OA
ATOM      5  C   UNL     1      16.792  -4.744 -13.339  1.00  0.00     0.239 A 
ATOM      6  C   UNL     1      17.652  -4.650 -15.559  1.00  0.00     0.146 A 
ATOM      7  O   UNL     1      15.619  -5.097 -12.921  1.00  0.00    -0.285 OA
ATOM      8  C   UNL     1      17.337  -5.419 -14.425  1.00  0.00     0.111 A 
ATOM      9  C   UNL     1      17.062  -5.126 -16.835  1.00  0.00     0.094 A 
ATOM     10  C   UNL     1      16.877  -6.777 -14.629  1.00  0.00     0.134 A 
ATOM     11  C   UNL     1      15.911  -5.992 -16.707  1.00  0.00     0.123 A 
ATOM     12  C   UNL     1      16.022  -7.012 -15.791  1.00  0.00     0.093 A 
BRANCH   3  13
ATOM     13  C   UNL     1      17.163  -1.087 -14.275  1.00  0.00     0.025 A 
ATOM     14  C   UNL     1      15.902  -0.437 -14.128  1.00  0.00     0.016 A 
ATOM     15  C   UNL     1      15.929   0.971 -13.929  1.00  0.00     0.051 A 
ATOM     16  C   UNL     1      16.856   1.697 -14.601  1.00  0.00     0.157 A 
ATOM     17  C   UNL     1      18.348  -0.257 -14.510  1.00  0.00     0.062 A 
ATOM     18  C   UNL     1      18.147   1.119 -14.763  1.00  0.00     0.158 A 
BRANCH  16  19
ATOM     19  O   UNL     1      16.501   2.963 -15.234  1.00  0.00    -0.504 OA
ATOM     20  H   UNL     1      15.815   2.876 -16.010  1.00  0.00     0.293 HD
ENDBRANCH  16  19
BRANCH  18  21
ATOM     21  O   UNL     1      19.294   1.828 -14.989  1.00  0.00    -0.504 OA
ATOM     22  H   UNL     1      19.226   2.800 -15.412  1.00  0.00     0.293 HD
ENDBRANCH  18  21
ENDBRANCH   3  13
BRANCH  10  23
ATOM     23  O   UNL     1      16.822  -7.687 -13.550  1.00  0.00    -0.507 OA
ATOM     24  H   UNL     1      17.289  -8.625 -13.602  1.00  0.00     0.293 HD
ENDBRANCH  10  23
BRANCH  11  25
ATOM     25  O   UNL     1      14.787  -5.933 -17.539  1.00  0.00    -0.508 OA
ATOM     26  H   UNL     1      14.427  -6.779 -18.020  1.00  0.00     0.293 HD
ENDBRANCH  11  25
ENDBRANCH   1   2
BRANCH   1  27
ATOM     27  C   UNL     1      17.998  -2.908 -10.930  1.00  0.00     0.339 C 
ATOM     28  C   UNL     1      17.568  -3.227  -9.458  1.00  0.00     0.214 C 
ATOM     29  O   UNL     1      18.814  -1.698 -11.046  1.00  0.00    -0.332 OA
ATOM     30  C   UNL     1      16.895  -1.987  -8.855  1.00  0.00     0.180 C 
ATOM     31  C   UNL     1      18.712  -0.632 -10.067  1.00  0.00     0.179 C 
ATOM     32  C   UNL     1      18.006  -0.872  -8.717  1.00  0.00     0.177 C 
BRANCH  28  33
ATOM     33  O   UNL     1      16.869  -4.451  -9.218  1.00  0.00    -0.384 OA
ATOM     34  H   UNL     1      16.184  -4.206  -8.488  1.00  0.00     0.211 HD
ENDBRANCH  28  33
BRANCH  30  35
ATOM     35  O   UNL     1      15.809  -1.599  -9.634  1.00  0.00    -0.387 OA
ATOM     36  H   UNL     1      16.022  -0.660  -9.936  1.00  0.00     0.211 HD
ENDBRANCH  30  35
BRANCH  31  37
ATOM     37  C   UNL     1      18.144   0.615 -10.850  1.00  0.00     0.191 C 
BRANCH  37  38
ATOM     38  O   UNL     1      16.855   1.046 -10.486  1.00  0.00    -0.394 OA
ATOM     39  H   UNL     1      16.333   0.299 -10.144  1.00  0.00     0.210 HD
ENDBRANCH  37  38
ENDBRANCH  31  37
BRANCH  32  40
ATOM     40  O   UNL     1      19.015  -1.194  -7.712  1.00  0.00    -0.387 OA
ATOM     41  H   UNL     1      18.838  -0.599  -6.900  1.00  0.00     0.211 HD
ENDBRANCH  32  40
ENDBRANCH   1  27
TORSDOF 12
ENDMDL
MODEL 7
REMARK VINA RESULT:    -5.910     11.740     13.881
REMARK INTER + INTRA:         -10.192
REMARK INTER:                  -8.384
REMARK INTRA:                  -1.808
REMARK UNBOUND:                -1.517
REMARK SMILES O=c1c(O[C@H]2O[C@@H](CO)[C@H](O)[C@@H](O)[C@H]2O)c(-c2ccc(O)c(O)c2)oc2cc(O)cc(O)c12
REMARK SMILES IDX 4 1 3 2 16 3 25 4 2 5 26 6 1 7 33 8 27 9 31 10 28 11 30 12
REMARK SMILES IDX 17 13 18 14 19 15 20 16 24 17 22 18 21 19 23 21 32 23 29 25
REMARK SMILES IDX 5 27 14 28 6 29 12 30 7 31 10 32 15 33 13 35 8 37 9 38 11 40
REMARK H PARENT 21 20 23 22 32 24 29 26 15 34 13 36 9 39 11 41
REMARK Flexibility Score: inf
ROOT
ATOM      1  O   UNL     1       7.539   5.050 -15.931  1.00  0.00    -0.454 OA
ENDROOT
BRANCH   1   2
ATOM      2  C   UNL     1       8.559   4.497 -16.726  1.00  0.00     0.214 A 
ATOM      3  C   UNL     1       8.350   3.496 -17.661  1.00  0.00     0.180 A 
ATOM      4  O   UNL     1       9.305   3.356 -18.584  1.00  0.00    -0.452 OA
ATOM      5  C   UNL     1       9.840   4.923 -16.426  1.00  0.00     0.239 A 
ATOM      6  C   UNL     1      10.599   3.859 -18.418  1.00  0.00     0.146 A 
ATOM      7  O   UNL     1      10.212   4.742 -15.199  1.00  0.00    -0.285 OA
ATOM      8  C   UNL     1      10.801   4.835 -17.426  1.00  0.00     0.111 A 
ATOM      9  C   UNL     1      11.733   2.926 -18.633  1.00  0.00     0.094 A 
ATOM     10  C   UNL     1      12.161   5.136 -17.034  1.00  0.00     0.134 A 
ATOM     11  C   UNL     1      12.673   2.823 -17.540  1.00  0.00     0.123 A 
ATOM     12  C   UNL     1      13.095   4.013 -16.993  1.00  0.00     0.093 A 
BRANCH   3  13
ATOM     13  C   UNL     1       7.062   2.646 -17.645  1.00  0.00     0.025 A 
ATOM     14  C   UNL     1       6.824   1.570 -16.740  1.00  0.00     0.016 A 
ATOM     15  C   UNL     1       5.516   1.011 -16.742  1.00  0.00     0.051 A 
ATOM     16  C   UNL     1       4.868   0.897 -17.927  1.00  0.00     0.157 A 
ATOM     17  C   UNL     1       6.073   2.899 -18.696  1.00  0.00     0.062 A 
ATOM     18  C   UNL     1       5.040   1.951 -18.869  1.00  0.00     0.158 A 
BRANCH  16  19
ATOM     19  O   UNL     1       4.126  -0.314 -18.262  1.00  0.00    -0.504 OA
ATOM     20  H   UNL     1       4.622  -0.953 -18.914  1.00  0.00     0.293 HD
ENDBRANCH  16  19
BRANCH  18  21
ATOM     21  O   UNL     1       4.163   2.243 -19.878  1.00  0.00    -0.504 OA
ATOM     22  H   UNL     1       3.350   2.897 -19.683  1.00  0.00     0.293 HD
ENDBRANCH  18  21
ENDBRANCH   3  13
BRANCH  10  23
ATOM     23  O   UNL     1      12.451   6.289 -16.270  1.00  0.00    -0.507 OA
ATOM     24  H   UNL     1      13.421   6.484 -15.922  1.00  0.00     0.293 HD
ENDBRANCH  10  23
BRANCH  11  25
ATOM     25  O   UNL     1      13.263   1.626 -17.120  1.00  0.00    -0.508 OA
ATOM     26  H   UNL     1      14.190   1.325 -17.479  1.00  0.00     0.293 HD
ENDBRANCH  11  25
ENDBRANCH   1   2
BRANCH   1  27
ATOM     27  C   UNL     1       6.701   6.110 -16.312  1.00  0.00     0.339 C 
ATOM     28  C   UNL     1       6.779   7.415 -15.449  1.00  0.00     0.214 C 
ATOM     29  O   UNL     1       5.334   5.619 -16.499  1.00  0.00    -0.332 OA
ATOM     30  C   UNL     1       6.035   7.183 -14.127  1.00  0.00     0.180 C 
ATOM     31  C   UNL     1       4.295   5.920 -15.534  1.00  0.00     0.179 C 
ATOM     32  C   UNL     1       4.502   7.021 -14.474  1.00  0.00     0.177 C 
BRANCH  28  33
ATOM     33  O   UNL     1       8.055   8.044 -15.304  1.00  0.00    -0.384 OA
ATOM     34  H   UNL     1       7.828   9.044 -15.200  1.00  0.00     0.211 HD
ENDBRANCH  28  33
BRANCH  30  35
ATOM     35  O   UNL     1       6.573   6.091 -13.454  1.00  0.00    -0.387 OA
ATOM     36  H   UNL     1       6.138   6.100 -12.543  1.00  0.00     0.211 HD
ENDBRANCH  30  35
BRANCH  31  37
ATOM     37  C   UNL     1       3.875   4.532 -14.911  1.00  0.00     0.191 C 
BRANCH  37  38
ATOM     38  O   UNL     1       4.923   3.717 -14.442  1.00  0.00    -0.394 OA
ATOM     39  H   UNL     1       5.770   4.000 -14.828  1.00  0.00     0.210 HD
ENDBRANCH  37  38
ENDBRANCH  31  37
BRANCH  32  40
ATOM     40  O   UNL     1       3.894   8.257 -14.957  1.00  0.00    -0.387 OA
ATOM     41  H   UNL     1       4.217   8.404 -15.915  1.00  0.00     0.211 HD
ENDBRANCH  32  40
ENDBRANCH   1  27
TORSDOF 12
ENDMDL
MODEL 8
REMARK VINA RESULT:    -5.869     10.337     12.897
REMARK INTER + INTRA:         -10.132
REMARK INTER:                  -8.137
REMARK INTRA:                  -1.994
REMARK UNBOUND:                -1.517
REMARK SMILES O=c1c(O[C@H]2O[C@@H](CO)[C@H](O)[C@@H](O)[C@H]2O)c(-c2ccc(O)c(O)c2)oc2cc(O)cc(O)c12
REMARK SMILES IDX 4 1 3 2 16 3 25 4 2 5 26 6 1 7 33 8 27 9 31 10 28 11 30 12
REMARK SMILES IDX 17 13 18 14 19 15 20 16 24 17 22 18 21 19 23 21 32 23 29 25
REMARK SMILES IDX 5 27 14 28 6 29 12 30 7 31 10 32 15 33 13 35 8 37 9 38 11 40
REMARK H PARENT 21 20 23 22 32 24 29 26 15 34 13 36 9 39 11 41
REMARK Flexibility Score: inf
ROOT
ATOM      1  O   UNL     1       7.750   3.791 -13.871  1.00  0.00    -0.454 OA
ENDROOT
BRANCH   1   2
ATOM      2  C   UNL     1       8.123   3.645 -15.219  1.00  0.00     0.214 A 
ATOM      3  C   UNL     1       7.428   2.867 -16.131  1.00  0.00     0.180 A 
ATOM      4  O   UNL     1       7.664   3.131 -17.418  1.00  0.00    -0.452 OA
ATOM      5  C   UNL     1       9.327   4.230 -15.567  1.00  0.00     0.239 A 
ATOM      6  C   UNL     1       8.799   3.823 -17.854  1.00  0.00     0.146 A 
ATOM      7  O   UNL     1      10.351   3.847 -14.874  1.00  0.00    -0.285 OA
ATOM      8  C   UNL     1       9.521   4.564 -16.903  1.00  0.00     0.111 A 
ATOM      9  C   UNL     1       9.612   3.203 -18.929  1.00  0.00     0.094 A 
ATOM     10  C   UNL     1      10.846   5.023 -17.260  1.00  0.00     0.134 A 
ATOM     11  C   UNL     1      11.016   3.034 -18.631  1.00  0.00     0.123 A 
ATOM     12  C   UNL     1      11.652   4.124 -18.083  1.00  0.00     0.093 A 
BRANCH   3  13
ATOM     13  C   UNL     1       6.413   1.804 -15.661  1.00  0.00     0.025 A 
ATOM     14  C   UNL     1       5.024   2.056 -15.459  1.00  0.00     0.016 A 
ATOM     15  C   UNL     1       4.200   0.926 -15.200  1.00  0.00     0.051 A 
ATOM     16  C   UNL     1       4.702  -0.072 -14.433  1.00  0.00     0.157 A 
ATOM     17  C   UNL     1       6.937   0.484 -15.299  1.00  0.00     0.062 A 
ATOM     18  C   UNL     1       6.079  -0.395 -14.601  1.00  0.00     0.158 A 
BRANCH  16  19
ATOM     19  O   UNL     1       3.891  -0.701 -13.395  1.00  0.00    -0.504 OA
ATOM     20  H   UNL     1       4.416  -0.952 -12.535  1.00  0.00     0.293 HD
ENDBRANCH  16  19
BRANCH  18  21
ATOM     21  O   UNL     1       6.639  -1.602 -14.282  1.00  0.00    -0.504 OA
ATOM     22  H   UNL     1       6.398  -2.054 -13.352  1.00  0.00     0.293 HD
ENDBRANCH  18  21
ENDBRANCH   3  13
BRANCH  10  23
ATOM     23  O   UNL     1      11.502   6.002 -16.480  1.00  0.00    -0.507 OA
ATOM     24  H   UNL     1      12.464   6.341 -16.725  1.00  0.00     0.293 HD
ENDBRANCH  10  23
BRANCH  11  25
ATOM     25  O   UNL     1      11.767   1.910 -18.992  1.00  0.00    -0.508 OA
ATOM     26  H   UNL     1      12.708   2.003 -19.421  1.00  0.00     0.293 HD
ENDBRANCH  11  25
ENDBRANCH   1   2
BRANCH   1  27
ATOM     27  C   UNL     1       7.062   4.892 -13.337  1.00  0.00     0.339 C 
ATOM     28  C   UNL     1       7.803   5.717 -12.229  1.00  0.00     0.214 C 
ATOM     29  O   UNL     1       5.707   4.492 -12.952  1.00  0.00    -0.332 OA
ATOM     30  C   UNL     1       7.757   4.934 -10.910  1.00  0.00     0.180 C 
ATOM     31  C   UNL     1       5.343   4.334 -11.557  1.00  0.00     0.179 C 
ATOM     32  C   UNL     1       6.249   4.894 -10.441  1.00  0.00     0.177 C 
BRANCH  28  33
ATOM     33  O   UNL     1       9.087   6.258 -12.548  1.00  0.00    -0.384 OA
ATOM     34  H   UNL     1       9.153   6.154 -13.572  1.00  0.00     0.211 HD
ENDBRANCH  28  33
BRANCH  30  35
ATOM     35  O   UNL     1       8.324   3.673 -11.076  1.00  0.00    -0.387 OA
ATOM     36  H   UNL     1       7.628   3.024 -10.741  1.00  0.00     0.211 HD
ENDBRANCH  30  35
BRANCH  31  37
ATOM     37  C   UNL     1       5.009   2.803 -11.373  1.00  0.00     0.191 C 
BRANCH  37  38
ATOM     38  O   UNL     1       5.915   1.893 -11.949  1.00  0.00    -0.394 OA
ATOM     39  H   UNL     1       6.814   2.051 -11.611  1.00  0.00     0.210 HD
ENDBRANCH  37  38
ENDBRANCH  31  37
BRANCH  32  40
ATOM     40  O   UNL     1       5.743   6.203 -10.039  1.00  0.00    -0.387 OA
ATOM     41  H   UNL     1       6.379   6.907 -10.418  1.00  0.00     0.211 HD
ENDBRANCH  32  40
ENDBRANCH   1  27
TORSDOF 12
ENDMDL
MODEL 9
REMARK VINA RESULT:    -5.859      3.116      7.779
REMARK INTER + INTRA:         -10.116
REMARK INTER:                  -8.259
REMARK INTRA:                  -1.857
REMARK UNBOUND:                -1.517
REMARK SMILES O=c1c(O[C@H]2O[C@@H](CO)[C@H](O)[C@@H](O)[C@H]2O)c(-c2ccc(O)c(O)c2)oc2cc(O)cc(O)c12
REMARK SMILES IDX 4 1 3 2 16 3 25 4 2 5 26 6 1 7 33 8 27 9 31 10 28 11 30 12
REMARK SMILES IDX 17 13 18 14 19 15 20 16 24 17 22 18 21 19 23 21 32 23 29 25
REMARK SMILES IDX 5 27 14 28 6 29 12 30 7 31 10 32 15 33 13 35 8 37 9 38 11 40
REMARK H PARENT 21 20 23 22 32 24 29 26 15 34 13 36 9 39 11 41
REMARK Flexibility Score: inf
ROOT
ATOM      1  O   UNL     1      17.406  -2.503 -11.149  1.00  0.00    -0.454 OA
ENDROOT
BRANCH   1   2
ATOM      2  C   UNL     1      17.203  -3.246 -12.325  1.00  0.00     0.214 A 
ATOM      3  C   UNL     1      16.628  -2.728 -13.474  1.00  0.00     0.180 A 
ATOM      4  O   UNL     1      16.855  -3.415 -14.597  1.00  0.00    -0.452 OA
ATOM      5  C   UNL     1      17.495  -4.594 -12.231  1.00  0.00     0.239 A 
ATOM      6  C   UNL     1      17.269  -4.751 -14.598  1.00  0.00     0.146 A 
ATOM      7  O   UNL     1      16.868  -5.234 -11.297  1.00  0.00    -0.285 OA
ATOM      8  C   UNL     1      17.800  -5.273 -13.406  1.00  0.00     0.111 A 
ATOM      9  C   UNL     1      16.496  -5.710 -15.425  1.00  0.00     0.094 A 
ATOM     10  C   UNL     1      17.941  -6.709 -13.296  1.00  0.00     0.134 A 
ATOM     11  C   UNL     1      15.996  -6.874 -14.728  1.00  0.00     0.123 A 
ATOM     12  C   UNL     1      16.894  -7.521 -13.912  1.00  0.00     0.093 A 
BRANCH   3  13
ATOM     13  C   UNL     1      15.824  -1.411 -13.439  1.00  0.00     0.025 A 
ATOM     14  C   UNL     1      16.236  -0.204 -14.077  1.00  0.00     0.016 A 
ATOM     15  C   UNL     1      15.294   0.862 -14.098  1.00  0.00     0.051 A 
ATOM     16  C   UNL     1      14.510   1.047 -13.008  1.00  0.00     0.157 A 
ATOM     17  C   UNL     1      14.617  -1.378 -12.608  1.00  0.00     0.062 A 
ATOM     18  C   UNL     1      14.040  -0.118 -12.336  1.00  0.00     0.158 A 
BRANCH  16  19
ATOM     19  O   UNL     1      14.263   2.385 -12.481  1.00  0.00    -0.504 OA
ATOM     20  H   UNL     1      13.691   2.404 -11.614  1.00  0.00     0.293 HD
ENDBRANCH  16  19
BRANCH  18  21
ATOM     21  O   UNL     1      12.927  -0.162 -11.542  1.00  0.00    -0.504 OA
ATOM     22  H   UNL     1      12.209   0.617 -11.615  1.00  0.00     0.293 HD
ENDBRANCH  18  21
ENDBRANCH   3  13
BRANCH  10  23
ATOM     23  O   UNL     1      18.723  -7.277 -12.264  1.00  0.00    -0.507 OA
ATOM     24  H   UNL     1      18.879  -6.775 -11.357  1.00  0.00     0.293 HD
ENDBRANCH  10  23
BRANCH  11  25
ATOM     25  O   UNL     1      14.733  -7.438 -14.944  1.00  0.00    -0.508 OA
ATOM     26  H   UNL     1      14.341  -8.150 -14.299  1.00  0.00     0.293 HD
ENDBRANCH  11  25
ENDBRANCH   1   2
BRANCH   1  27
ATOM     27  C   UNL     1      18.539  -2.587 -10.324  1.00  0.00     0.339 C 
ATOM     28  C   UNL     1      18.288  -2.903  -8.810  1.00  0.00     0.214 C 
ATOM     29  O   UNL     1      19.397  -1.420 -10.538  1.00  0.00    -0.332 OA
ATOM     30  C   UNL     1      17.766  -1.637  -8.117  1.00  0.00     0.180 C 
ATOM     31  C   UNL     1      19.480  -0.364  -9.547  1.00  0.00     0.179 C 
ATOM     32  C   UNL     1      18.944  -0.584  -8.118  1.00  0.00     0.177 C 
BRANCH  28  33
ATOM     33  O   UNL     1      17.561  -4.091  -8.489  1.00  0.00    -0.384 OA
ATOM     34  H   UNL     1      17.524  -4.089  -7.459  1.00  0.00     0.211 HD
ENDBRANCH  28  33
BRANCH  30  35
ATOM     35  O   UNL     1      16.610  -1.182  -8.745  1.00  0.00    -0.387 OA
ATOM     36  H   UNL     1      16.829  -1.179  -9.731  1.00  0.00     0.211 HD
ENDBRANCH  30  35
BRANCH  31  37
ATOM     37  C   UNL     1      18.884   0.922 -10.242  1.00  0.00     0.191 C 
BRANCH  37  38
ATOM     38  O   UNL     1      17.654   0.757 -10.906  1.00  0.00    -0.394 OA
ATOM     39  H   UNL     1      17.744   0.987 -11.848  1.00  0.00     0.210 HD
ENDBRANCH  37  38
ENDBRANCH  31  37
BRANCH  32  40
ATOM     40  O   UNL     1      20.055  -0.971  -7.255  1.00  0.00    -0.387 OA
ATOM     41  H   UNL     1      20.034  -0.361  -6.435  1.00  0.00     0.211 HD
ENDBRANCH  32  40
ENDBRANCH   1  27
TORSDOF 12
ENDMDL
