MODEL 1
REMARK VINA RESULT:    -5.684      0.000      0.000
REMARK INTER + INTRA:          -6.324
REMARK INTER:                  -6.847
REMARK INTRA:                   0.524
REMARK UNBOUND:                 0.524
REMARK SMILES O=c1c(O)c(-c2ccc(O)c(O)c2)oc2cc(O)cc(O)c12
REMARK SMILES IDX 5 1 3 2 2 3 1 4 22 5 20 6 19 7 17 8 16 9 15 10 14 11 6 12
REMARK SMILES IDX 7 13 8 14 9 15 13 16 11 17 10 18 12 20 4 22 21 24 18 26
REMARK H PARENT 10 19 12 21 4 23 21 25 18 27
REMARK Flexibility Score: inf
ROOT
ATOM      1  C   UNL     1     170.891 172.616 156.197  1.00  0.00     0.180 A 
ATOM      2  C   UNL     1     171.566 171.380 156.211  1.00  0.00     0.208 A 
ATOM      3  C   UNL     1     170.813 170.196 156.184  1.00  0.00     0.238 A 
ATOM      4  O   UNL     1     171.407 169.083 156.186  1.00  0.00    -0.285 OA
ATOM      5  C   UNL     1     169.404 170.265 156.162  1.00  0.00     0.111 A 
ATOM      6  C   UNL     1     168.573 169.120 156.137  1.00  0.00     0.134 A 
ATOM      7  C   UNL     1     167.178 169.272 156.126  1.00  0.00     0.093 A 
ATOM      8  C   UNL     1     166.601 170.544 156.140  1.00  0.00     0.123 A 
ATOM      9  C   UNL     1     167.417 171.680 156.164  1.00  0.00     0.094 A 
ATOM     10  C   UNL     1     168.809 171.548 156.174  1.00  0.00     0.146 A 
ATOM     11  O   UNL     1     169.561 172.643 156.192  1.00  0.00    -0.452 OA
ENDROOT
BRANCH   1  12
ATOM     12  C   UNL     1     171.614 173.908 156.205  1.00  0.00     0.025 A 
ATOM     13  C   UNL     1     170.940 175.123 156.412  1.00  0.00     0.016 A 
ATOM     14  C   UNL     1     171.648 176.329 156.439  1.00  0.00     0.051 A 
ATOM     15  C   UNL     1     173.039 176.335 156.273  1.00  0.00     0.157 A 
ATOM     16  C   UNL     1     173.012 173.918 156.060  1.00  0.00     0.062 A 
ATOM     17  C   UNL     1     173.724 175.123 156.086  1.00  0.00     0.158 A 
BRANCH  15  18
ATOM     18  O   UNL     1     173.741 177.539 156.298  1.00  0.00    -0.504 OA
ATOM     19  H   UNL     1     173.338 178.381 156.692  1.00  0.00     0.293 HD
ENDBRANCH  15  18
BRANCH  17  20
ATOM     20  O   UNL     1     175.109 175.095 155.925  1.00  0.00    -0.504 OA
ATOM     21  H   UNL     1     175.743 175.180 156.709  1.00  0.00     0.293 HD
ENDBRANCH  17  20
ENDBRANCH   1  12
BRANCH   2  22
ATOM     22  O   UNL     1     172.960 171.339 156.283  1.00  0.00    -0.502 OA
ATOM     23  H   UNL     1     173.453 171.118 157.140  1.00  0.00     0.293 HD
ENDBRANCH   2  22
BRANCH   6  24
ATOM     24  O   UNL     1     169.119 167.836 156.124  1.00  0.00    -0.507 OA
ATOM     25  H   UNL     1     169.982 167.628 155.633  1.00  0.00     0.293 HD
ENDBRANCH   6  24
BRANCH   8  26
ATOM     26  O   UNL     1     165.213 170.669 156.129  1.00  0.00    -0.508 OA
ATOM     27  H   UNL     1     164.745 171.431 156.605  1.00  0.00     0.293 HD
ENDBRANCH   8  26
TORSDOF 6
ENDMDL
MODEL 2
REMARK VINA RESULT:    -5.640      2.202      6.145
REMARK INTER + INTRA:          -6.271
REMARK INTER:                  -6.721
REMARK INTRA:                   0.450
REMARK UNBOUND:                 0.524
REMARK SMILES O=c1c(O)c(-c2ccc(O)c(O)c2)oc2cc(O)cc(O)c12
REMARK SMILES IDX 5 1 3 2 2 3 1 4 22 5 20 6 19 7 17 8 16 9 15 10 14 11 6 12
REMARK SMILES IDX 7 13 8 14 9 15 13 16 11 17 10 18 12 20 4 22 21 24 18 26
REMARK H PARENT 10 19 12 21 4 23 21 25 18 27
REMARK Flexibility Score: inf
ROOT
ATOM      1  C   UNL     1     171.357 171.468 156.436  1.00  0.00     0.180 A 
ATOM      2  C   UNL     1     172.551 172.194 156.606  1.00  0.00     0.208 A 
ATOM      3  C   UNL     1     172.497 173.596 156.619  1.00  0.00     0.238 A 
ATOM      4  O   UNL     1     173.560 174.257 156.780  1.00  0.00    -0.285 OA
ATOM      5  C   UNL     1     171.259 174.248 156.443  1.00  0.00     0.111 A 
ATOM      6  C   UNL     1     171.120 175.657 156.439  1.00  0.00     0.134 A 
ATOM      7  C   UNL     1     169.853 176.230 156.250  1.00  0.00     0.093 A 
ATOM      8  C   UNL     1     168.727 175.424 156.062  1.00  0.00     0.123 A 
ATOM      9  C   UNL     1     168.859 174.032 156.065  1.00  0.00     0.094 A 
ATOM     10  C   UNL     1     170.112 173.441 156.255  1.00  0.00     0.146 A 
ATOM     11  O   UNL     1     170.209 172.117 156.259  1.00  0.00    -0.452 OA
ENDROOT
BRANCH   1  12
ATOM     12  C   UNL     1     171.329 169.988 156.431  1.00  0.00     0.025 A 
ATOM     13  C   UNL     1     170.132 169.277 156.629  1.00  0.00     0.016 A 
ATOM     14  C   UNL     1     170.126 167.880 156.596  1.00  0.00     0.051 A 
ATOM     15  C   UNL     1     171.311 167.174 156.352  1.00  0.00     0.157 A 
ATOM     16  C   UNL     1     172.510 169.275 156.166  1.00  0.00     0.062 A 
ATOM     17  C   UNL     1     172.508 167.876 156.133  1.00  0.00     0.158 A 
BRANCH  15  18
ATOM     18  O   UNL     1     171.302 165.780 156.322  1.00  0.00    -0.504 OA
ATOM     19  H   UNL     1     172.126 165.248 156.071  1.00  0.00     0.293 HD
ENDBRANCH  15  18
BRANCH  17  20
ATOM     20  O   UNL     1     173.703 167.203 155.881  1.00  0.00    -0.504 OA
ATOM     21  H   UNL     1     174.113 167.162 154.956  1.00  0.00     0.293 HD
ENDBRANCH  17  20
ENDBRANCH   1  12
BRANCH   2  22
ATOM     22  O   UNL     1     173.771 171.524 156.728  1.00  0.00    -0.502 OA
ATOM     23  H   UNL     1     174.501 171.595 156.029  1.00  0.00     0.293 HD
ENDBRANCH   2  22
BRANCH   6  24
ATOM     24  O   UNL     1     172.225 176.489 156.623  1.00  0.00    -0.507 OA
ATOM     25  H   UNL     1     172.188 177.478 156.407  1.00  0.00     0.293 HD
ENDBRANCH   6  24
BRANCH   8  26
ATOM     26  O   UNL     1     167.481 176.018 155.875  1.00  0.00    -0.508 OA
ATOM     27  H   UNL     1     166.931 175.845 155.042  1.00  0.00     0.293 HD
ENDBRANCH   8  26
TORSDOF 6
ENDMDL
MODEL 3
REMARK VINA RESULT:    -5.640      2.654      6.760
REMARK INTER + INTRA:          -6.270
REMARK INTER:                  -6.711
REMARK INTRA:                   0.441
REMARK UNBOUND:                 0.524
REMARK SMILES O=c1c(O)c(-c2ccc(O)c(O)c2)oc2cc(O)cc(O)c12
REMARK SMILES IDX 5 1 3 2 2 3 1 4 22 5 20 6 19 7 17 8 16 9 15 10 14 11 6 12
REMARK SMILES IDX 7 13 8 14 9 15 13 16 11 17 10 18 12 20 4 22 21 24 18 26
REMARK H PARENT 10 19 12 21 4 23 21 25 18 27
REMARK Flexibility Score: inf
ROOT
ATOM      1  C   UNL     1     172.625 170.697 156.499  1.00  0.00     0.180 A 
ATOM      2  C   UNL     1     173.964 171.128 156.564  1.00  0.00     0.208 A 
ATOM      3  C   UNL     1     174.236 172.505 156.540  1.00  0.00     0.238 A 
ATOM      4  O   UNL     1     175.431 172.903 156.608  1.00  0.00    -0.285 OA
ATOM      5  C   UNL     1     173.171 173.424 156.431  1.00  0.00     0.111 A 
ATOM      6  C   UNL     1     173.360 174.827 156.397  1.00  0.00     0.134 A 
ATOM      7  C   UNL     1     172.249 175.676 156.279  1.00  0.00     0.093 A 
ATOM      8  C   UNL     1     170.957 175.150 156.194  1.00  0.00     0.123 A 
ATOM      9  C   UNL     1     170.764 173.766 156.228  1.00  0.00     0.094 A 
ATOM     10  C   UNL     1     171.859 172.903 156.348  1.00  0.00     0.146 A 
ATOM     11  O   UNL     1     171.647 171.592 156.383  1.00  0.00    -0.452 OA
ENDROOT
BRANCH   1  12
ATOM     12  C   UNL     1     172.257 169.264 156.539  1.00  0.00     0.025 A 
ATOM     13  C   UNL     1     170.951 168.852 156.856  1.00  0.00     0.016 A 
ATOM     14  C   UNL     1     170.620 167.494 156.864  1.00  0.00     0.051 A 
ATOM     15  C   UNL     1     171.585 166.530 156.544  1.00  0.00     0.157 A 
ATOM     16  C   UNL     1     173.215 168.294 156.198  1.00  0.00     0.062 A 
ATOM     17  C   UNL     1     172.888 166.934 156.206  1.00  0.00     0.158 A 
BRANCH  15  18
ATOM     18  O   UNL     1     171.253 165.176 156.555  1.00  0.00    -0.504 OA
ATOM     19  H   UNL     1     171.712 164.511 155.945  1.00  0.00     0.293 HD
ENDBRANCH  15  18
BRANCH  17  20
ATOM     20  O   UNL     1     173.869 165.999 155.875  1.00  0.00    -0.504 OA
ATOM     21  H   UNL     1     173.944 165.108 156.349  1.00  0.00     0.293 HD
ENDBRANCH  17  20
ENDBRANCH   1  12
BRANCH   2  22
ATOM     22  O   UNL     1     175.003 170.196 156.621  1.00  0.00    -0.502 OA
ATOM     23  H   UNL     1     175.052 169.482 157.338  1.00  0.00     0.293 HD
ENDBRANCH   2  22
BRANCH   6  24
ATOM     24  O   UNL     1     174.638 175.382 156.478  1.00  0.00    -0.507 OA
ATOM     25  H   UNL     1     174.787 176.384 156.435  1.00  0.00     0.293 HD
ENDBRANCH   6  24
BRANCH   8  26
ATOM     26  O   UNL     1     169.871 176.014 156.077  1.00  0.00    -0.508 OA
ATOM     27  H   UNL     1     169.939 176.991 156.337  1.00  0.00     0.293 HD
ENDBRANCH   8  26
TORSDOF 6
ENDMDL
MODEL 4
REMARK VINA RESULT:    -5.576      2.969      7.563
REMARK INTER + INTRA:          -6.193
REMARK INTER:                  -6.717
REMARK INTRA:                   0.524
REMARK UNBOUND:                 0.524
REMARK SMILES O=c1c(O)c(-c2ccc(O)c(O)c2)oc2cc(O)cc(O)c12
REMARK SMILES IDX 5 1 3 2 2 3 1 4 22 5 20 6 19 7 17 8 16 9 15 10 14 11 6 12
REMARK SMILES IDX 7 13 8 14 9 15 13 16 11 17 10 18 12 20 4 22 21 24 18 26
REMARK H PARENT 10 19 12 21 4 23 21 25 18 27
REMARK Flexibility Score: inf
ROOT
ATOM      1  C   UNL     1     172.646 170.794 156.234  1.00  0.00     0.180 A 
ATOM      2  C   UNL     1     172.834 172.189 156.253  1.00  0.00     0.208 A 
ATOM      3  C   UNL     1     174.142 172.697 156.246  1.00  0.00     0.238 A 
ATOM      4  O   UNL     1     174.323 173.946 156.253  1.00  0.00    -0.285 OA
ATOM      5  C   UNL     1     175.236 171.808 156.240  1.00  0.00     0.111 A 
ATOM      6  C   UNL     1     176.585 172.238 156.237  1.00  0.00     0.134 A 
ATOM      7  C   UNL     1     177.619 171.289 156.240  1.00  0.00     0.093 A 
ATOM      8  C   UNL     1     177.331 169.923 156.247  1.00  0.00     0.123 A 
ATOM      9  C   UNL     1     176.000 169.491 156.250  1.00  0.00     0.094 A 
ATOM     10  C   UNL     1     174.956 170.421 156.245  1.00  0.00     0.146 A 
ATOM     11  O   UNL     1     173.702 169.984 156.243  1.00  0.00    -0.452 OA
ENDROOT
BRANCH   1  12
ATOM     12  C   UNL     1     171.298 170.181 156.220  1.00  0.00     0.025 A 
ATOM     13  C   UNL     1     171.119 168.802 156.421  1.00  0.00     0.016 A 
ATOM     14  C   UNL     1     169.834 168.250 156.427  1.00  0.00     0.051 A 
ATOM     15  C   UNL     1     168.712 169.069 156.246  1.00  0.00     0.157 A 
ATOM     16  C   UNL     1     170.168 171.001 156.059  1.00  0.00     0.062 A 
ATOM     17  C   UNL     1     168.881 170.452 156.064  1.00  0.00     0.158 A 
BRANCH  15  18
ATOM     18  O   UNL     1     167.433 168.514 156.250  1.00  0.00    -0.504 OA
ATOM     19  H   UNL     1     166.650 168.981 155.810  1.00  0.00     0.293 HD
ENDBRANCH  15  18
BRANCH  17  20
ATOM     20  O   UNL     1     167.784 171.295 155.888  1.00  0.00    -0.504 OA
ATOM     21  H   UNL     1     167.868 172.200 155.442  1.00  0.00     0.293 HD
ENDBRANCH  17  20
ENDBRANCH   1  12
BRANCH   2  22
ATOM     22  O   UNL     1     171.734 173.048 156.309  1.00  0.00    -0.502 OA
ATOM     23  H   UNL     1     171.322 173.457 155.478  1.00  0.00     0.293 HD
ENDBRANCH   2  22
BRANCH   6  24
ATOM     24  O   UNL     1     176.905 173.596 156.230  1.00  0.00    -0.507 OA
ATOM     25  H   UNL     1     177.316 174.043 155.418  1.00  0.00     0.293 HD
ENDBRANCH   6  24
BRANCH   8  26
ATOM     26  O   UNL     1     178.375 169.000 156.251  1.00  0.00    -0.508 OA
ATOM     27  H   UNL     1     179.072 168.985 155.516  1.00  0.00     0.293 HD
ENDBRANCH   8  26
TORSDOF 6
ENDMDL
MODEL 5
REMARK VINA RESULT:    -5.573      2.015      3.058
REMARK INTER + INTRA:          -6.190
REMARK INTER:                  -6.651
REMARK INTRA:                   0.461
REMARK UNBOUND:                 0.524
REMARK SMILES O=c1c(O)c(-c2ccc(O)c(O)c2)oc2cc(O)cc(O)c12
REMARK SMILES IDX 5 1 3 2 2 3 1 4 22 5 20 6 19 7 17 8 16 9 15 10 14 11 6 12
REMARK SMILES IDX 7 13 8 14 9 15 13 16 11 17 10 18 12 20 4 22 21 24 18 26
REMARK H PARENT 10 19 12 21 4 23 21 25 18 27
REMARK Flexibility Score: inf
ROOT
ATOM      1  C   UNL     1     173.480 171.388 156.333  1.00  0.00     0.180 A 
ATOM      2  C   UNL     1     174.238 170.202 156.355  1.00  0.00     0.208 A 
ATOM      3  C   UNL     1     173.570 168.968 156.312  1.00  0.00     0.238 A 
ATOM      4  O   UNL     1     174.239 167.899 156.321  1.00  0.00    -0.285 OA
ATOM      5  C   UNL     1     172.161 168.940 156.269  1.00  0.00     0.111 A 
ATOM      6  C   UNL     1     171.411 167.740 156.228  1.00  0.00     0.134 A 
ATOM      7  C   UNL     1     170.009 167.795 156.195  1.00  0.00     0.093 A 
ATOM      8  C   UNL     1     169.345 169.024 156.203  1.00  0.00     0.123 A 
ATOM      9  C   UNL     1     170.080 170.213 156.243  1.00  0.00     0.094 A 
ATOM     10  C   UNL     1     171.478 170.179 156.274  1.00  0.00     0.146 A 
ATOM     11  O   UNL     1     172.152 171.323 156.306  1.00  0.00    -0.452 OA
ENDROOT
BRANCH   1  12
ATOM     12  C   UNL     1     174.112 172.726 156.356  1.00  0.00     0.025 A 
ATOM     13  C   UNL     1     175.509 172.876 156.366  1.00  0.00     0.016 A 
ATOM     14  C   UNL     1     176.083 174.151 156.364  1.00  0.00     0.051 A 
ATOM     15  C   UNL     1     175.271 175.292 156.337  1.00  0.00     0.157 A 
ATOM     16  C   UNL     1     173.302 173.874 156.307  1.00  0.00     0.062 A 
ATOM     17  C   UNL     1     173.873 175.151 156.306  1.00  0.00     0.158 A 
BRANCH  15  18
ATOM     18  O   UNL     1     175.847 176.561 156.337  1.00  0.00    -0.504 OA
ATOM     19  H   UNL     1     176.436 176.878 157.097  1.00  0.00     0.293 HD
ENDBRANCH  15  18
BRANCH  17  20
ATOM     20  O   UNL     1     173.037 176.267 156.271  1.00  0.00    -0.504 OA
ATOM     21  H   UNL     1     172.048 176.204 156.478  1.00  0.00     0.293 HD
ENDBRANCH  17  20
ENDBRANCH   1  12
BRANCH   2  22
ATOM     22  O   UNL     1     175.631 170.256 156.448  1.00  0.00    -0.502 OA
ATOM     23  H   UNL     1     176.108 170.478 157.314  1.00  0.00     0.293 HD
ENDBRANCH   2  22
BRANCH   6  24
ATOM     24  O   UNL     1     172.045 166.496 156.220  1.00  0.00    -0.507 OA
ATOM     25  H   UNL     1     173.048 166.410 156.102  1.00  0.00     0.293 HD
ENDBRANCH   6  24
BRANCH   8  26
ATOM     26  O   UNL     1     167.953 169.052 156.170  1.00  0.00    -0.508 OA
ATOM     27  H   UNL     1     167.414 168.272 155.812  1.00  0.00     0.293 HD
ENDBRANCH   8  26
TORSDOF 6
ENDMDL
MODEL 6
REMARK VINA RESULT:    -5.566      1.850      6.654
REMARK INTER + INTRA:          -6.182
REMARK INTER:                  -6.643
REMARK INTRA:                   0.461
REMARK UNBOUND:                 0.524
REMARK SMILES O=c1c(O)c(-c2ccc(O)c(O)c2)oc2cc(O)cc(O)c12
REMARK SMILES IDX 5 1 3 2 2 3 1 4 22 5 20 6 19 7 17 8 16 9 15 10 14 11 6 12
REMARK SMILES IDX 7 13 8 14 9 15 13 16 11 17 10 18 12 20 4 22 21 24 18 26
REMARK H PARENT 10 19 12 21 4 23 21 25 18 27
REMARK Flexibility Score: inf
ROOT
ATOM      1  C   UNL     1     170.577 171.546 156.309  1.00  0.00     0.180 A 
ATOM      2  C   UNL     1     169.263 172.049 156.328  1.00  0.00     0.208 A 
ATOM      3  C   UNL     1     169.067 173.439 156.302  1.00  0.00     0.238 A 
ATOM      4  O   UNL     1     167.893 173.901 156.308  1.00  0.00    -0.285 OA
ATOM      5  C   UNL     1     170.183 174.300 156.278  1.00  0.00     0.111 A 
ATOM      6  C   UNL     1     170.073 175.711 156.254  1.00  0.00     0.134 A 
ATOM      7  C   UNL     1     171.233 176.500 156.240  1.00  0.00     0.093 A 
ATOM      8  C   UNL     1     172.498 175.907 156.249  1.00  0.00     0.123 A 
ATOM      9  C   UNL     1     172.614 174.513 156.272  1.00  0.00     0.094 A 
ATOM     10  C   UNL     1     171.469 173.710 156.284  1.00  0.00     0.146 A 
ATOM     11  O   UNL     1     171.607 172.389 156.300  1.00  0.00    -0.452 OA
ENDROOT
BRANCH   1  12
ATOM     12  C   UNL     1     170.865 170.094 156.314  1.00  0.00     0.025 A 
ATOM     13  C   UNL     1     169.831 169.143 156.304  1.00  0.00     0.016 A 
ATOM     14  C   UNL     1     170.127 167.777 156.286  1.00  0.00     0.051 A 
ATOM     15  C   UNL     1     171.459 167.343 156.264  1.00  0.00     0.157 A 
ATOM     16  C   UNL     1     172.199 169.654 156.271  1.00  0.00     0.062 A 
ATOM     17  C   UNL     1     172.499 168.287 156.253  1.00  0.00     0.158 A 
BRANCH  15  18
ATOM     18  O   UNL     1     171.751 165.980 156.248  1.00  0.00    -0.504 OA
ATOM     19  H   UNL     1     171.093 165.300 155.887  1.00  0.00     0.293 HD
ENDBRANCH  15  18
BRANCH  17  20
ATOM     20  O   UNL     1     173.835 167.887 156.224  1.00  0.00    -0.504 OA
ATOM     21  H   UNL     1     174.106 166.930 156.038  1.00  0.00     0.293 HD
ENDBRANCH  17  20
ENDBRANCH   1  12
BRANCH   2  22
ATOM     22  O   UNL     1     168.174 171.176 156.402  1.00  0.00    -0.502 OA
ATOM     23  H   UNL     1     167.226 171.473 156.206  1.00  0.00     0.293 HD
ENDBRANCH   2  22
BRANCH   6  24
ATOM     24  O   UNL     1     168.824 176.334 156.245  1.00  0.00    -0.507 OA
ATOM     25  H   UNL     1     168.321 176.531 157.103  1.00  0.00     0.293 HD
ENDBRANCH   6  24
BRANCH   8  26
ATOM     26  O   UNL     1     173.634 176.712 156.235  1.00  0.00    -0.508 OA
ATOM     27  H   UNL     1     174.240 176.760 155.425  1.00  0.00     0.293 HD
ENDBRANCH   8  26
TORSDOF 6
ENDMDL
MODEL 7
REMARK VINA RESULT:    -5.559      2.568      4.385
REMARK INTER + INTRA:          -6.173
REMARK INTER:                  -6.634
REMARK INTRA:                   0.461
REMARK UNBOUND:                 0.524
REMARK SMILES O=c1c(O)c(-c2ccc(O)c(O)c2)oc2cc(O)cc(O)c12
REMARK SMILES IDX 5 1 3 2 2 3 1 4 22 5 20 6 19 7 17 8 16 9 15 10 14 11 6 12
REMARK SMILES IDX 7 13 8 14 9 15 13 16 11 17 10 18 12 20 4 22 21 24 18 26
REMARK H PARENT 10 19 12 21 4 23 21 25 18 27
REMARK Flexibility Score: inf
ROOT
ATOM      1  C   UNL     1     171.931 170.321 156.311  1.00  0.00     0.180 A 
ATOM      2  C   UNL     1     171.024 169.244 156.321  1.00  0.00     0.208 A 
ATOM      3  C   UNL     1     169.647 169.514 156.284  1.00  0.00     0.238 A 
ATOM      4  O   UNL     1     168.826 168.557 156.282  1.00  0.00    -0.285 OA
ATOM      5  C   UNL     1     169.200 170.851 156.257  1.00  0.00     0.111 A 
ATOM      6  C   UNL     1     167.831 171.209 156.223  1.00  0.00     0.134 A 
ATOM      7  C   UNL     1     167.466 172.564 156.206  1.00  0.00     0.093 A 
ATOM      8  C   UNL     1     168.441 173.565 156.224  1.00  0.00     0.123 A 
ATOM      9  C   UNL     1     169.796 173.217 156.258  1.00  0.00     0.094 A 
ATOM     10  C   UNL     1     170.179 171.872 156.273  1.00  0.00     0.146 A 
ATOM     11  O   UNL     1     171.472 171.570 156.299  1.00  0.00    -0.452 OA
ENDROOT
BRANCH   1  12
ATOM     12  C   UNL     1     173.397 170.117 156.328  1.00  0.00     0.025 A 
ATOM     13  C   UNL     1     173.956 168.827 156.336  1.00  0.00     0.016 A 
ATOM     14  C   UNL     1     175.344 168.659 156.329  1.00  0.00     0.051 A 
ATOM     15  C   UNL     1     176.191 169.775 156.301  1.00  0.00     0.157 A 
ATOM     16  C   UNL     1     174.250 171.231 156.279  1.00  0.00     0.062 A 
ATOM     17  C   UNL     1     175.640 171.067 156.273  1.00  0.00     0.158 A 
BRANCH  15  18
ATOM     18  O   UNL     1     177.574 169.603 156.296  1.00  0.00    -0.504 OA
ATOM     19  H   UNL     1     178.182 170.172 156.872  1.00  0.00     0.293 HD
ENDBRANCH  15  18
BRANCH  17  20
ATOM     20  O   UNL     1     176.456 172.198 156.237  1.00  0.00    -0.504 OA
ATOM     21  H   UNL     1     176.636 172.757 157.062  1.00  0.00     0.293 HD
ENDBRANCH  17  20
ENDBRANCH   1  12
BRANCH   2  22
ATOM     22  O   UNL     1     171.492 167.929 156.398  1.00  0.00    -0.502 OA
ATOM     23  H   UNL     1     172.153 167.549 155.731  1.00  0.00     0.293 HD
ENDBRANCH   2  22
BRANCH   6  24
ATOM     24  O   UNL     1     166.834 170.234 156.204  1.00  0.00    -0.507 OA
ATOM     25  H   UNL     1     166.980 169.314 156.605  1.00  0.00     0.293 HD
ENDBRANCH   6  24
BRANCH   8  26
ATOM     26  O   UNL     1     168.053 174.902 156.209  1.00  0.00    -0.508 OA
ATOM     27  H   UNL     1     167.270 175.234 156.759  1.00  0.00     0.293 HD
ENDBRANCH   8  26
TORSDOF 6
ENDMDL
MODEL 8
REMARK VINA RESULT:    -5.559      3.063      5.503
REMARK INTER + INTRA:          -6.172
REMARK INTER:                  -6.633
REMARK INTRA:                   0.461
REMARK UNBOUND:                 0.524
REMARK SMILES O=c1c(O)c(-c2ccc(O)c(O)c2)oc2cc(O)cc(O)c12
REMARK SMILES IDX 5 1 3 2 2 3 1 4 22 5 20 6 19 7 17 8 16 9 15 10 14 11 6 12
REMARK SMILES IDX 7 13 8 14 9 15 13 16 11 17 10 18 12 20 4 22 21 24 18 26
REMARK H PARENT 10 19 12 21 4 23 21 25 18 27
REMARK Flexibility Score: inf
ROOT
ATOM      1  C   UNL     1     173.196 173.210 156.317  1.00  0.00     0.180 A 
ATOM      2  C   UNL     1     174.557 173.573 156.308  1.00  0.00     0.208 A 
ATOM      3  C   UNL     1     175.529 172.562 156.271  1.00  0.00     0.238 A 
ATOM      4  O   UNL     1     176.751 172.875 156.252  1.00  0.00    -0.285 OA
ATOM      5  C   UNL     1     175.129 171.209 156.265  1.00  0.00     0.111 A 
ATOM      6  C   UNL     1     176.045 170.131 156.232  1.00  0.00     0.134 A 
ATOM      7  C   UNL     1     175.567 168.811 156.236  1.00  0.00     0.093 A 
ATOM      8  C   UNL     1     174.196 168.551 156.274  1.00  0.00     0.123 A 
ATOM      9  C   UNL     1     173.285 169.612 156.306  1.00  0.00     0.094 A 
ATOM     10  C   UNL     1     173.742 170.934 156.300  1.00  0.00     0.146 A 
ATOM     11  O   UNL     1     172.856 171.924 156.325  1.00  0.00    -0.452 OA
ENDROOT
BRANCH   1  12
ATOM     12  C   UNL     1     172.113 174.218 156.336  1.00  0.00     0.025 A 
ATOM     13  C   UNL     1     172.393 175.595 156.328  1.00  0.00     0.016 A 
ATOM     14  C   UNL     1     171.352 176.528 156.323  1.00  0.00     0.051 A 
ATOM     15  C   UNL     1     170.019 176.099 156.311  1.00  0.00     0.157 A 
ATOM     16  C   UNL     1     170.774 173.794 156.303  1.00  0.00     0.062 A 
ATOM     17  C   UNL     1     169.729 174.725 156.297  1.00  0.00     0.158 A 
BRANCH  15  18
ATOM     18  O   UNL     1     168.984 177.033 156.307  1.00  0.00    -0.504 OA
ATOM     19  H   UNL     1     168.123 176.874 156.816  1.00  0.00     0.293 HD
ENDBRANCH  15  18
BRANCH  17  20
ATOM     20  O   UNL     1     168.412 174.266 156.278  1.00  0.00    -0.504 OA
ATOM     21  H   UNL     1     168.127 173.431 156.774  1.00  0.00     0.293 HD
ENDBRANCH  17  20
ENDBRANCH   1  12
BRANCH   2  22
ATOM     22  O   UNL     1     174.928 174.919 156.365  1.00  0.00    -0.502 OA
ATOM     23  H   UNL     1     175.886 175.223 156.237  1.00  0.00     0.293 HD
ENDBRANCH   2  22
BRANCH   6  24
ATOM     24  O   UNL     1     177.421 170.358 156.195  1.00  0.00    -0.507 OA
ATOM     25  H   UNL     1     177.930 170.409 155.320  1.00  0.00     0.293 HD
ENDBRANCH   6  24
BRANCH   8  26
ATOM     26  O   UNL     1     173.746 167.232 156.278  1.00  0.00    -0.508 OA
ATOM     27  H   UNL     1     173.972 166.592 155.526  1.00  0.00     0.293 HD
ENDBRANCH   8  26
TORSDOF 6
ENDMDL
MODEL 9
REMARK VINA RESULT:    -5.529      1.737      7.160
REMARK INTER + INTRA:          -6.136
REMARK INTER:                  -6.597
REMARK INTRA:                   0.461
REMARK UNBOUND:                 0.524
REMARK SMILES O=c1c(O)c(-c2ccc(O)c(O)c2)oc2cc(O)cc(O)c12
REMARK SMILES IDX 5 1 3 2 2 3 1 4 22 5 20 6 19 7 17 8 16 9 15 10 14 11 6 12
REMARK SMILES IDX 7 13 8 14 9 15 13 16 11 17 10 18 12 20 4 22 21 24 18 26
REMARK H PARENT 10 19 12 21 4 23 21 25 18 27
REMARK Flexibility Score: inf
ROOT
ATOM      1  C   UNL     1     171.220 173.549 156.291  1.00  0.00     0.180 A 
ATOM      2  C   UNL     1     171.321 174.954 156.289  1.00  0.00     0.208 A 
ATOM      3  C   UNL     1     172.594 175.543 156.259  1.00  0.00     0.238 A 
ATOM      4  O   UNL     1     172.696 176.801 156.246  1.00  0.00    -0.285 OA
ATOM      5  C   UNL     1     173.742 174.724 156.251  1.00  0.00     0.111 A 
ATOM      6  C   UNL     1     175.060 175.239 156.224  1.00  0.00     0.134 A 
ATOM      7  C   UNL     1     176.152 174.357 156.227  1.00  0.00     0.093 A 
ATOM      8  C   UNL     1     175.951 172.975 156.257  1.00  0.00     0.123 A 
ATOM      9  C   UNL     1     174.650 172.460 156.283  1.00  0.00     0.094 A 
ATOM     10  C   UNL     1     173.549 173.323 156.279  1.00  0.00     0.146 A 
ATOM     11  O   UNL     1     172.325 172.808 156.298  1.00  0.00    -0.452 OA
ENDROOT
BRANCH   1  12
ATOM     12  C   UNL     1     169.914 172.853 156.303  1.00  0.00     0.025 A 
ATOM     13  C   UNL     1     168.704 173.567 156.264  1.00  0.00     0.016 A 
ATOM     14  C   UNL     1     167.482 172.887 156.252  1.00  0.00     0.051 A 
ATOM     15  C   UNL     1     167.454 171.486 156.266  1.00  0.00     0.157 A 
ATOM     16  C   UNL     1     169.879 171.449 156.296  1.00  0.00     0.062 A 
ATOM     17  C   UNL     1     168.659 170.764 156.285  1.00  0.00     0.158 A 
BRANCH  15  18
ATOM     18  O   UNL     1     166.234 170.811 156.256  1.00  0.00    -0.504 OA
ATOM     19  H   UNL     1     165.444 171.148 155.719  1.00  0.00     0.293 HD
ENDBRANCH  15  18
BRANCH  17  20
ATOM     20  O   UNL     1     168.664 169.370 156.292  1.00  0.00    -0.504 OA
ATOM     21  H   UNL     1     168.967 168.829 155.492  1.00  0.00     0.293 HD
ENDBRANCH  17  20
ENDBRANCH   1  12
BRANCH   2  22
ATOM     22  O   UNL     1     170.169 175.743 156.347  1.00  0.00    -0.502 OA
ATOM     23  H   UNL     1     170.206 176.748 156.472  1.00  0.00     0.293 HD
ENDBRANCH   2  22
BRANCH   6  24
ATOM     24  O   UNL     1     175.294 176.614 156.195  1.00  0.00    -0.507 OA
ATOM     25  H   UNL     1     176.162 177.000 155.840  1.00  0.00     0.293 HD
ENDBRANCH   6  24
BRANCH   8  26
ATOM     26  O   UNL     1     177.051 172.120 156.260  1.00  0.00    -0.508 OA
ATOM     27  H   UNL     1     177.545 171.895 157.115  1.00  0.00     0.293 HD
ENDBRANCH   8  26
TORSDOF 6
ENDMDL
