MODEL 1
REMARK VINA RESULT:    -3.409      0.000      0.000
REMARK INTER + INTRA:         -11.769
REMARK INTER:                  -7.793
REMARK INTRA:                  -3.976
REMARK UNBOUND:                -3.976
REMARK SMILES CCCCCCCCCCCCCCCCCCCCCCCC(=O)[O-]
REMARK SMILES IDX 13 1 14 2 15 3 16 4 17 5 18 6 19 7 20 8 21 9 22 10 23 11
REMARK SMILES IDX 24 12 25 13 26 14 12 15 11 16 10 17 9 18 8 19 7 20 6 21 5 22
REMARK SMILES IDX 4 23 3 24 2 25 1 26
REMARK H PARENT
REMARK Flexibility Score: inf
ROOT
ATOM      1  C   UNL     1    -119.033  15.092  22.447  1.00  0.00     0.000 C 
ENDROOT
BRANCH   1   2
ATOM      2  C   UNL     1    -118.614  14.704  21.014  1.00  0.00     0.000 C 
BRANCH   2   3
ATOM      3  C   UNL     1    -117.828  13.383  20.899  1.00  0.00     0.000 C 
BRANCH   3   4
ATOM      4  C   UNL     1    -118.701  12.126  20.712  1.00  0.00     0.000 C 
BRANCH   4   5
ATOM      5  C   UNL     1    -117.998  10.940  20.019  1.00  0.00     0.000 C 
BRANCH   5   6
ATOM      6  C   UNL     1    -116.547  11.204  19.578  1.00  0.00     0.000 C 
BRANCH   6   7
ATOM      7  C   UNL     1    -116.354  11.090  18.056  1.00  0.00     0.000 C 
BRANCH   7   8
ATOM      8  C   UNL     1    -116.817  12.352  17.305  1.00  0.00     0.000 C 
BRANCH   8   9
ATOM      9  C   UNL     1    -117.894  12.095  16.234  1.00  0.00     0.000 C 
BRANCH   9  10
ATOM     10  C   UNL     1    -119.234  12.802  16.532  1.00  0.00     0.006 C 
BRANCH  10  11
ATOM     11  C   UNL     1    -119.050  14.018  17.454  1.00  0.00     0.053 C 
BRANCH  11  12
ATOM     12  C   UNL     1    -118.955  15.298  16.677  1.00  0.00     0.041 C 
ATOM     13  O   UNL     1    -119.989  15.849  16.212  1.00  0.00    -0.550 OA
ATOM     14  O   UNL     1    -117.711  15.862  16.428  1.00  0.00    -0.550 OA
ENDBRANCH  11  12
ENDBRANCH  10  11
ENDBRANCH   9  10
ENDBRANCH   8   9
ENDBRANCH   7   8
ENDBRANCH   6   7
ENDBRANCH   5   6
ENDBRANCH   4   5
ENDBRANCH   3   4
ENDBRANCH   2   3
ENDBRANCH   1   2
BRANCH   1  15
ATOM     15  C   UNL     1    -118.216  14.435  23.576  1.00  0.00     0.000 C 
BRANCH  15  16
ATOM     16  C   UNL     1    -119.098  13.760  24.641  1.00  0.00     0.000 C 
BRANCH  16  17
ATOM     17  C   UNL     1    -119.278  12.250  24.400  1.00  0.00     0.000 C 
BRANCH  17  18
ATOM     18  C   UNL     1    -118.914  11.350  25.594  1.00  0.00    -0.000 C 
BRANCH  18  19
ATOM     19  C   UNL     1    -118.010  10.171  25.204  1.00  0.00    -0.000 C 
BRANCH  19  20
ATOM     20  C   UNL     1    -117.707  10.185  23.699  1.00  0.00    -0.000 C 
BRANCH  20  21
ATOM     21  C   UNL     1    -116.200  10.272  23.391  1.00  0.00    -0.000 C 
BRANCH  21  22
ATOM     22  C   UNL     1    -115.657  11.700  23.191  1.00  0.00    -0.000 C 
BRANCH  22  23
ATOM     23  C   UNL     1    -115.217  12.420  24.481  1.00  0.00    -0.000 C 
BRANCH  23  24
ATOM     24  C   UNL     1    -114.141  11.658  25.285  1.00  0.00    -0.000 C 
BRANCH  24  25
ATOM     25  C   UNL     1    -112.713  12.021  24.849  1.00  0.00    -0.003 C 
ATOM     26  C   UNL     1    -112.055  10.864  24.099  1.00  0.00     0.004 C 
ENDBRANCH  24  25
ENDBRANCH  23  24
ENDBRANCH  22  23
ENDBRANCH  21  22
ENDBRANCH  20  21
ENDBRANCH  19  20
ENDBRANCH  18  19
ENDBRANCH  17  18
ENDBRANCH  16  17
ENDBRANCH  15  16
ENDBRANCH   1  15
TORSDOF 22
ENDMDL
MODEL 2
REMARK VINA RESULT:    -3.383      3.422      7.073
REMARK INTER + INTRA:         -11.709
REMARK INTER:                  -7.587
REMARK INTRA:                  -4.123
REMARK UNBOUND:                -3.976
REMARK SMILES CCCCCCCCCCCCCCCCCCCCCCCC(=O)[O-]
REMARK SMILES IDX 13 1 14 2 15 3 16 4 17 5 18 6 19 7 20 8 21 9 22 10 23 11
REMARK SMILES IDX 24 12 25 13 26 14 12 15 11 16 10 17 9 18 8 19 7 20 6 21 5 22
REMARK SMILES IDX 4 23 3 24 2 25 1 26
REMARK H PARENT
REMARK Flexibility Score: inf
ROOT
ATOM      1  C   UNL     1    -118.545  14.916  23.108  1.00  0.00     0.000 C 
ENDROOT
BRANCH   1   2
ATOM      2  C   UNL     1    -118.559  13.822  24.195  1.00  0.00     0.000 C 
BRANCH   2   3
ATOM      3  C   UNL     1    -119.951  13.256  24.535  1.00  0.00     0.000 C 
BRANCH   3   4
ATOM      4  C   UNL     1    -120.112  11.742  24.289  1.00  0.00     0.000 C 
BRANCH   4   5
ATOM      5  C   UNL     1    -120.015  11.306  22.813  1.00  0.00     0.000 C 
BRANCH   5   6
ATOM      6  C   UNL     1    -119.166  10.048  22.555  1.00  0.00     0.000 C 
BRANCH   6   7
ATOM      7  C   UNL     1    -118.496   9.507  23.829  1.00  0.00     0.000 C 
BRANCH   7   8
ATOM      8  C   UNL     1    -116.976   9.753  23.847  1.00  0.00     0.000 C 
BRANCH   8   9
ATOM      9  C   UNL     1    -116.509  10.771  24.904  1.00  0.00     0.000 C 
BRANCH   9  10
ATOM     10  C   UNL     1    -115.511  11.812  24.352  1.00  0.00     0.006 C 
BRANCH  10  11
ATOM     11  C   UNL     1    -114.192  11.163  23.907  1.00  0.00     0.053 C 
BRANCH  11  12
ATOM     12  C   UNL     1    -113.145  11.230  24.980  1.00  0.00     0.041 C 
ATOM     13  O   UNL     1    -112.642  12.334  25.321  1.00  0.00    -0.550 OA
ATOM     14  O   UNL     1    -112.692  10.060  25.575  1.00  0.00    -0.550 OA
ENDBRANCH  11  12
ENDBRANCH  10  11
ENDBRANCH   9  10
ENDBRANCH   8   9
ENDBRANCH   7   8
ENDBRANCH   6   7
ENDBRANCH   5   6
ENDBRANCH   4   5
ENDBRANCH   3   4
ENDBRANCH   2   3
ENDBRANCH   1   2
BRANCH   1  15
ATOM     15  C   UNL     1    -119.856  15.076  22.314  1.00  0.00     0.000 C 
BRANCH  15  16
ATOM     16  C   UNL     1    -119.725  14.637  20.845  1.00  0.00     0.000 C 
BRANCH  16  17
ATOM     17  C   UNL     1    -118.267  14.372  20.427  1.00  0.00     0.000 C 
BRANCH  17  18
ATOM     18  C   UNL     1    -117.931  12.901  20.120  1.00  0.00    -0.000 C 
BRANCH  18  19
ATOM     19  C   UNL     1    -116.934  12.293  21.118  1.00  0.00    -0.000 C 
BRANCH  19  20
ATOM     20  C   UNL     1    -116.105  11.181  20.458  1.00  0.00    -0.000 C 
BRANCH  20  21
ATOM     21  C   UNL     1    -116.682  10.726  19.104  1.00  0.00    -0.000 C 
BRANCH  21  22
ATOM     22  C   UNL     1    -115.655  10.615  17.961  1.00  0.00    -0.000 C 
BRANCH  22  23
ATOM     23  C   UNL     1    -115.878  11.582  16.783  1.00  0.00    -0.000 C 
BRANCH  23  24
ATOM     24  C   UNL     1    -117.359  11.957  16.555  1.00  0.00    -0.000 C 
BRANCH  24  25
ATOM     25  C   UNL     1    -117.526  13.365  15.962  1.00  0.00    -0.003 C 
ATOM     26  C   UNL     1    -116.948  14.427  16.895  1.00  0.00     0.004 C 
ENDBRANCH  24  25
ENDBRANCH  23  24
ENDBRANCH  22  23
ENDBRANCH  21  22
ENDBRANCH  20  21
ENDBRANCH  19  20
ENDBRANCH  18  19
ENDBRANCH  17  18
ENDBRANCH  16  17
ENDBRANCH  15  16
ENDBRANCH   1  15
TORSDOF 22
ENDMDL
MODEL 3
REMARK VINA RESULT:    -3.307      2.236      3.232
REMARK INTER + INTRA:         -11.537
REMARK INTER:                  -8.119
REMARK INTRA:                  -3.418
REMARK UNBOUND:                -3.976
REMARK SMILES CCCCCCCCCCCCCCCCCCCCCCCC(=O)[O-]
REMARK SMILES IDX 13 1 14 2 15 3 16 4 17 5 18 6 19 7 20 8 21 9 22 10 23 11
REMARK SMILES IDX 24 12 25 13 26 14 12 15 11 16 10 17 9 18 8 19 7 20 6 21 5 22
REMARK SMILES IDX 4 23 3 24 2 25 1 26
REMARK H PARENT
REMARK Flexibility Score: inf
ROOT
ATOM      1  C   UNL     1    -118.462  14.315  22.116  1.00  0.00     0.000 C 
ENDROOT
BRANCH   1   2
ATOM      2  C   UNL     1    -117.669  13.353  21.208  1.00  0.00     0.000 C 
BRANCH   2   3
ATOM      3  C   UNL     1    -118.177  13.256  19.757  1.00  0.00     0.000 C 
BRANCH   3   4
ATOM      4  C   UNL     1    -118.575  14.602  19.119  1.00  0.00     0.000 C 
BRANCH   4   5
ATOM      5  C   UNL     1    -117.525  15.210  18.167  1.00  0.00     0.000 C 
BRANCH   5   6
ATOM      6  C   UNL     1    -117.579  14.696  16.716  1.00  0.00     0.000 C 
BRANCH   6   7
ATOM      7  C   UNL     1    -116.207  14.238  16.193  1.00  0.00     0.000 C 
BRANCH   7   8
ATOM      8  C   UNL     1    -116.119  12.710  16.027  1.00  0.00     0.000 C 
BRANCH   8   9
ATOM      9  C   UNL     1    -117.417  11.956  16.371  1.00  0.00     0.000 C 
BRANCH   9  10
ATOM     10  C   UNL     1    -117.188  10.721  17.268  1.00  0.00     0.006 C 
BRANCH  10  11
ATOM     11  C   UNL     1    -115.870  10.817  18.053  1.00  0.00     0.053 C 
BRANCH  11  12
ATOM     12  C   UNL     1    -115.970  10.156  19.396  1.00  0.00     0.041 C 
ATOM     13  O   UNL     1    -114.933   9.822  20.029  1.00  0.00    -0.550 OA
ATOM     14  O   UNL     1    -117.218   9.867  19.931  1.00  0.00    -0.550 OA
ENDBRANCH  11  12
ENDBRANCH  10  11
ENDBRANCH   9  10
ENDBRANCH   8   9
ENDBRANCH   7   8
ENDBRANCH   6   7
ENDBRANCH   5   6
ENDBRANCH   4   5
ENDBRANCH   3   4
ENDBRANCH   2   3
ENDBRANCH   1   2
BRANCH   1  15
ATOM     15  C   UNL     1    -117.933  14.453  23.556  1.00  0.00     0.000 C 
BRANCH  15  16
ATOM     16  C   UNL     1    -118.956  14.009  24.617  1.00  0.00     0.000 C 
BRANCH  16  17
ATOM     17  C   UNL     1    -119.462  12.572  24.395  1.00  0.00     0.000 C 
BRANCH  17  18
ATOM     18  C   UNL     1    -119.189  11.596  25.554  1.00  0.00    -0.000 C 
BRANCH  18  19
ATOM     19  C   UNL     1    -118.264  10.436  25.156  1.00  0.00    -0.000 C 
BRANCH  19  20
ATOM     20  C   UNL     1    -117.899  10.510  23.667  1.00  0.00    -0.000 C 
BRANCH  20  21
ATOM     21  C   UNL     1    -116.425  10.156  23.392  1.00  0.00    -0.000 C 
BRANCH  21  22
ATOM     22  C   UNL     1    -115.493  11.363  23.173  1.00  0.00    -0.000 C 
BRANCH  22  23
ATOM     23  C   UNL     1    -115.207  12.206  24.431  1.00  0.00    -0.000 C 
BRANCH  23  24
ATOM     24  C   UNL     1    -114.085  11.633  25.324  1.00  0.00    -0.000 C 
BRANCH  24  25
ATOM     25  C   UNL     1    -112.683  12.027  24.833  1.00  0.00    -0.003 C 
ATOM     26  C   UNL     1    -112.005  10.864  24.112  1.00  0.00     0.004 C 
ENDBRANCH  24  25
ENDBRANCH  23  24
ENDBRANCH  22  23
ENDBRANCH  21  22
ENDBRANCH  20  21
ENDBRANCH  19  20
ENDBRANCH  18  19
ENDBRANCH  17  18
ENDBRANCH  16  17
ENDBRANCH  15  16
ENDBRANCH   1  15
TORSDOF 22
ENDMDL
MODEL 4
REMARK VINA RESULT:    -3.241      2.710      6.889
REMARK INTER + INTRA:         -11.386
REMARK INTER:                  -8.091
REMARK INTRA:                  -3.295
REMARK UNBOUND:                -3.976
REMARK SMILES CCCCCCCCCCCCCCCCCCCCCCCC(=O)[O-]
REMARK SMILES IDX 13 1 14 2 15 3 16 4 17 5 18 6 19 7 20 8 21 9 22 10 23 11
REMARK SMILES IDX 24 12 25 13 26 14 12 15 11 16 10 17 9 18 8 19 7 20 6 21 5 22
REMARK SMILES IDX 4 23 3 24 2 25 1 26
REMARK H PARENT
REMARK Flexibility Score: inf
ROOT
ATOM      1  C   UNL     1    -112.420  10.525  24.643  1.00  0.00     0.000 C 
ENDROOT
BRANCH   1   2
ATOM      2  C   UNL     1    -112.915  11.934  25.024  1.00  0.00     0.000 C 
BRANCH   2   3
ATOM      3  C   UNL     1    -114.375  12.242  24.637  1.00  0.00     0.000 C 
BRANCH   3   4
ATOM      4  C   UNL     1    -115.369  11.092  24.897  1.00  0.00     0.000 C 
BRANCH   4   5
ATOM      5  C   UNL     1    -116.827  11.384  24.486  1.00  0.00     0.000 C 
BRANCH   5   6
ATOM      6  C   UNL     1    -117.647  10.153  24.058  1.00  0.00     0.000 C 
BRANCH   6   7
ATOM      7  C   UNL     1    -119.022  10.523  23.476  1.00  0.00     0.000 C 
BRANCH   7   8
ATOM      8  C   UNL     1    -118.947  10.924  21.992  1.00  0.00     0.000 C 
BRANCH   8   9
ATOM      9  C   UNL     1    -119.404  12.365  21.698  1.00  0.00     0.000 C 
BRANCH   9  10
ATOM     10  C   UNL     1    -118.254  13.394  21.752  1.00  0.00     0.006 C 
BRANCH  10  11
ATOM     11  C   UNL     1    -118.668  14.683  22.477  1.00  0.00     0.053 C 
BRANCH  11  12
ATOM     12  C   UNL     1    -118.331  14.635  23.938  1.00  0.00     0.041 C 
ATOM     13  O   UNL     1    -117.211  15.035  24.355  1.00  0.00    -0.550 OA
ATOM     14  O   UNL     1    -119.245  14.104  24.839  1.00  0.00    -0.550 OA
ENDBRANCH  11  12
ENDBRANCH  10  11
ENDBRANCH   9  10
ENDBRANCH   8   9
ENDBRANCH   7   8
ENDBRANCH   6   7
ENDBRANCH   5   6
ENDBRANCH   4   5
ENDBRANCH   3   4
ENDBRANCH   2   3
ENDBRANCH   1   2
BRANCH   1  15
ATOM     15  C   UNL     1    -111.481  10.461  23.423  1.00  0.00     0.000 C 
BRANCH  15  16
ATOM     16  C   UNL     1    -111.943   9.448  22.361  1.00  0.00     0.000 C 
BRANCH  16  17
ATOM     17  C   UNL     1    -113.458   9.177  22.411  1.00  0.00     0.000 C 
BRANCH  17  18
ATOM     18  C   UNL     1    -114.194   9.327  21.068  1.00  0.00    -0.000 C 
BRANCH  18  19
ATOM     19  C   UNL     1    -115.333  10.357  21.119  1.00  0.00    -0.000 C 
BRANCH  19  20
ATOM     20  C   UNL     1    -116.267  10.205  19.911  1.00  0.00    -0.000 C 
BRANCH  20  21
ATOM     21  C   UNL     1    -116.505  11.531  19.165  1.00  0.00    -0.000 C 
BRANCH  21  22
ATOM     22  C   UNL     1    -116.694  11.399  17.642  1.00  0.00    -0.000 C 
BRANCH  22  23
ATOM     23  C   UNL     1    -117.548  12.504  16.989  1.00  0.00    -0.000 C 
BRANCH  23  24
ATOM     24  C   UNL     1    -118.143  13.510  17.998  1.00  0.00    -0.000 C 
BRANCH  24  25
ATOM     25  C   UNL     1    -117.524  14.911  17.867  1.00  0.00    -0.003 C 
ATOM     26  C   UNL     1    -118.054  15.633  16.629  1.00  0.00     0.004 C 
ENDBRANCH  24  25
ENDBRANCH  23  24
ENDBRANCH  22  23
ENDBRANCH  21  22
ENDBRANCH  20  21
ENDBRANCH  19  20
ENDBRANCH  18  19
ENDBRANCH  17  18
ENDBRANCH  16  17
ENDBRANCH  15  16
ENDBRANCH   1  15
TORSDOF 22
ENDMDL
MODEL 5
REMARK VINA RESULT:    -3.100      1.246      2.402
REMARK INTER + INTRA:         -11.062
REMARK INTER:                  -7.390
REMARK INTRA:                  -3.672
REMARK UNBOUND:                -3.976
REMARK SMILES CCCCCCCCCCCCCCCCCCCCCCCC(=O)[O-]
REMARK SMILES IDX 13 1 14 2 15 3 16 4 17 5 18 6 19 7 20 8 21 9 22 10 23 11
REMARK SMILES IDX 24 12 25 13 26 14 12 15 11 16 10 17 9 18 8 19 7 20 6 21 5 22
REMARK SMILES IDX 4 23 3 24 2 25 1 26
REMARK H PARENT
REMARK Flexibility Score: inf
ROOT
ATOM      1  C   UNL     1    -119.353  13.334  24.515  1.00  0.00     0.000 C 
ENDROOT
BRANCH   1   2
ATOM      2  C   UNL     1    -118.122  14.168  24.103  1.00  0.00     0.000 C 
BRANCH   2   3
ATOM      3  C   UNL     1    -118.203  14.803  22.701  1.00  0.00     0.000 C 
BRANCH   3   4
ATOM      4  C   UNL     1    -119.149  14.085  21.718  1.00  0.00     0.000 C 
BRANCH   4   5
ATOM      5  C   UNL     1    -118.529  13.741  20.348  1.00  0.00     0.000 C 
BRANCH   5   6
ATOM      6  C   UNL     1    -119.433  12.928  19.404  1.00  0.00     0.000 C 
BRANCH   6   7
ATOM      7  C   UNL     1    -118.685  11.786  18.695  1.00  0.00     0.000 C 
BRANCH   7   8
ATOM      8  C   UNL     1    -117.186  12.085  18.513  1.00  0.00     0.000 C 
BRANCH   8   9
ATOM      9  C   UNL     1    -116.690  11.990  17.059  1.00  0.00     0.000 C 
BRANCH   9  10
ATOM     10  C   UNL     1    -116.400  13.366  16.421  1.00  0.00     0.006 C 
BRANCH  10  11
ATOM     11  C   UNL     1    -117.675  14.031  15.882  1.00  0.00     0.053 C 
BRANCH  11  12
ATOM     12  C   UNL     1    -118.117  15.176  16.745  1.00  0.00     0.041 C 
ATOM     13  O   UNL     1    -119.291  15.628  16.666  1.00  0.00    -0.550 OA
ATOM     14  O   UNL     1    -117.212  15.776  17.610  1.00  0.00    -0.550 OA
ENDBRANCH  11  12
ENDBRANCH  10  11
ENDBRANCH   9  10
ENDBRANCH   8   9
ENDBRANCH   7   8
ENDBRANCH   6   7
ENDBRANCH   5   6
ENDBRANCH   4   5
ENDBRANCH   3   4
ENDBRANCH   2   3
ENDBRANCH   1   2
BRANCH   1  15
ATOM     15  C   UNL     1    -119.065  11.865  24.877  1.00  0.00     0.000 C 
BRANCH  15  16
ATOM     16  C   UNL     1    -119.904  10.868  24.057  1.00  0.00     0.000 C 
BRANCH  16  17
ATOM     17  C   UNL     1    -119.366  10.665  22.629  1.00  0.00     0.000 C 
BRANCH  17  18
ATOM     18  C   UNL     1    -117.948  10.071  22.543  1.00  0.00    -0.000 C 
BRANCH  18  19
ATOM     19  C   UNL     1    -116.934  11.029  21.902  1.00  0.00    -0.000 C 
BRANCH  19  20
ATOM     20  C   UNL     1    -115.565  10.923  22.590  1.00  0.00    -0.000 C 
BRANCH  20  21
ATOM     21  C   UNL     1    -115.645  11.111  24.117  1.00  0.00    -0.000 C 
BRANCH  21  22
ATOM     22  C   UNL     1    -114.835  12.300  24.670  1.00  0.00    -0.000 C 
BRANCH  22  23
ATOM     23  C   UNL     1    -113.531  11.921  25.400  1.00  0.00    -0.000 C 
BRANCH  23  24
ATOM     24  C   UNL     1    -112.343  11.651  24.452  1.00  0.00    -0.000 C 
BRANCH  24  25
ATOM     25  C   UNL     1    -111.957  10.164  24.399  1.00  0.00    -0.003 C 
ATOM     26  C   UNL     1    -112.612   9.385  25.538  1.00  0.00     0.004 C 
ENDBRANCH  24  25
ENDBRANCH  23  24
ENDBRANCH  22  23
ENDBRANCH  21  22
ENDBRANCH  20  21
ENDBRANCH  19  20
ENDBRANCH  18  19
ENDBRANCH  17  18
ENDBRANCH  16  17
ENDBRANCH  15  16
ENDBRANCH   1  15
TORSDOF 22
ENDMDL
MODEL 6
REMARK VINA RESULT:    -3.066     16.766     19.111
REMARK INTER + INTRA:         -10.986
REMARK INTER:                  -7.392
REMARK INTRA:                  -3.594
REMARK UNBOUND:                -3.976
REMARK SMILES CCCCCCCCCCCCCCCCCCCCCCCC(=O)[O-]
REMARK SMILES IDX 13 1 14 2 15 3 16 4 17 5 18 6 19 7 20 8 21 9 22 10 23 11
REMARK SMILES IDX 24 12 25 13 26 14 12 15 11 16 10 17 9 18 8 19 7 20 6 21 5 22
REMARK SMILES IDX 4 23 3 24 2 25 1 26
REMARK H PARENT
REMARK Flexibility Score: inf
ROOT
ATOM      1  C   UNL     1    -106.404  28.410  19.409  1.00  0.00     0.000 C 
ENDROOT
BRANCH   1   2
ATOM      2  C   UNL     1    -106.702  27.494  20.613  1.00  0.00     0.000 C 
BRANCH   2   3
ATOM      3  C   UNL     1    -106.193  28.013  21.972  1.00  0.00     0.000 C 
BRANCH   3   4
ATOM      4  C   UNL     1    -104.808  28.689  21.928  1.00  0.00     0.000 C 
BRANCH   4   5
ATOM      5  C   UNL     1    -103.621  27.732  21.697  1.00  0.00     0.000 C 
BRANCH   5   6
ATOM      6  C   UNL     1    -102.550  28.241  20.714  1.00  0.00     0.000 C 
BRANCH   6   7
ATOM      7  C   UNL     1    -102.266  27.249  19.573  1.00  0.00     0.000 C 
BRANCH   7   8
ATOM      8  C   UNL     1    -102.332  25.782  20.035  1.00  0.00     0.000 C 
BRANCH   8   9
ATOM      9  C   UNL     1    -101.078  24.952  19.701  1.00  0.00     0.000 C 
BRANCH   9  10
ATOM     10  C   UNL     1    -101.319  23.897  18.601  1.00  0.00     0.006 C 
BRANCH  10  11
ATOM     11  C   UNL     1    -102.766  23.924  18.084  1.00  0.00     0.053 C 
BRANCH  11  12
ATOM     12  C   UNL     1    -103.471  22.622  18.327  1.00  0.00     0.041 C 
ATOM     13  O   UNL     1    -104.352  22.208  17.527  1.00  0.00    -0.550 OA
ATOM     14  O   UNL     1    -103.184  21.885  19.468  1.00  0.00    -0.550 OA
ENDBRANCH  11  12
ENDBRANCH  10  11
ENDBRANCH   9  10
ENDBRANCH   8   9
ENDBRANCH   7   8
ENDBRANCH   6   7
ENDBRANCH   5   6
ENDBRANCH   4   5
ENDBRANCH   3   4
ENDBRANCH   2   3
ENDBRANCH   1   2
BRANCH   1  15
ATOM     15  C   UNL     1    -105.740  27.721  18.202  1.00  0.00     0.000 C 
BRANCH  15  16
ATOM     16  C   UNL     1    -105.616  26.197  18.374  1.00  0.00     0.000 C 
BRANCH  16  17
ATOM     17  C   UNL     1    -106.636  25.415  17.526  1.00  0.00     0.000 C 
BRANCH  17  18
ATOM     18  C   UNL     1    -107.359  26.240  16.447  1.00  0.00    -0.000 C 
BRANCH  18  19
ATOM     19  C   UNL     1    -108.889  26.173  16.564  1.00  0.00    -0.000 C 
BRANCH  19  20
ATOM     20  C   UNL     1    -109.431  27.364  17.369  1.00  0.00    -0.000 C 
BRANCH  20  21
ATOM     21  C   UNL     1    -109.883  26.972  18.788  1.00  0.00    -0.000 C 
BRANCH  21  22
ATOM     22  C   UNL     1    -110.237  28.155  19.710  1.00  0.00    -0.000 C 
BRANCH  22  23
ATOM     23  C   UNL     1    -110.947  27.773  21.023  1.00  0.00    -0.000 C 
BRANCH  23  24
ATOM     24  C   UNL     1    -110.282  28.362  22.286  1.00  0.00    -0.000 C 
BRANCH  24  25
ATOM     25  C   UNL     1    -110.531  27.505  23.538  1.00  0.00    -0.003 C 
ATOM     26  C   UNL     1    -110.277  26.026  23.252  1.00  0.00     0.004 C 
ENDBRANCH  24  25
ENDBRANCH  23  24
ENDBRANCH  22  23
ENDBRANCH  21  22
ENDBRANCH  20  21
ENDBRANCH  19  20
ENDBRANCH  18  19
ENDBRANCH  17  18
ENDBRANCH  16  17
ENDBRANCH  15  16
ENDBRANCH   1  15
TORSDOF 22
ENDMDL
MODEL 7
REMARK VINA RESULT:    -3.001     16.754     18.746
REMARK INTER + INTRA:         -10.837
REMARK INTER:                  -7.434
REMARK INTRA:                  -3.403
REMARK UNBOUND:                -3.976
REMARK SMILES CCCCCCCCCCCCCCCCCCCCCCCC(=O)[O-]
REMARK SMILES IDX 13 1 14 2 15 3 16 4 17 5 18 6 19 7 20 8 21 9 22 10 23 11
REMARK SMILES IDX 24 12 25 13 26 14 12 15 11 16 10 17 9 18 8 19 7 20 6 21 5 22
REMARK SMILES IDX 4 23 3 24 2 25 1 26
REMARK H PARENT
REMARK Flexibility Score: inf
ROOT
ATOM      1  C   UNL     1    -106.386  28.926  20.457  1.00  0.00     0.000 C 
ENDROOT
BRANCH   1   2
ATOM      2  C   UNL     1    -106.248  28.280  19.064  1.00  0.00     0.000 C 
BRANCH   2   3
ATOM      3  C   UNL     1    -106.086  26.748  19.067  1.00  0.00     0.000 C 
BRANCH   3   4
ATOM      4  C   UNL     1    -107.036  25.995  18.114  1.00  0.00     0.000 C 
BRANCH   4   5
ATOM      5  C   UNL     1    -107.575  26.831  16.935  1.00  0.00     0.000 C 
BRANCH   5   6
ATOM      6  C   UNL     1    -109.101  26.775  16.735  1.00  0.00     0.000 C 
BRANCH   6   7
ATOM      7  C   UNL     1    -109.816  28.045  17.228  1.00  0.00     0.000 C 
BRANCH   7   8
ATOM      8  C   UNL     1    -110.636  27.801  18.508  1.00  0.00     0.000 C 
BRANCH   8   9
ATOM      9  C   UNL     1    -109.891  28.135  19.814  1.00  0.00     0.000 C 
BRANCH   9  10
ATOM     10  C   UNL     1    -109.565  26.891  20.668  1.00  0.00     0.006 C 
BRANCH  10  11
ATOM     11  C   UNL     1    -110.727  26.512  21.599  1.00  0.00     0.053 C 
BRANCH  11  12
ATOM     12  C   UNL     1    -110.456  26.907  23.021  1.00  0.00     0.041 C 
ATOM     13  O   UNL     1    -110.320  26.032  23.918  1.00  0.00    -0.550 OA
ATOM     14  O   UNL     1    -110.397  28.251  23.365  1.00  0.00    -0.550 OA
ENDBRANCH  11  12
ENDBRANCH  10  11
ENDBRANCH   9  10
ENDBRANCH   8   9
ENDBRANCH   7   8
ENDBRANCH   6   7
ENDBRANCH   5   6
ENDBRANCH   4   5
ENDBRANCH   3   4
ENDBRANCH   2   3
ENDBRANCH   1   2
BRANCH   1  15
ATOM     15  C   UNL     1    -105.987  28.030  21.645  1.00  0.00     0.000 C 
BRANCH  15  16
ATOM     16  C   UNL     1    -104.605  28.380  22.225  1.00  0.00     0.000 C 
BRANCH  16  17
ATOM     17  C   UNL     1    -103.464  27.570  21.582  1.00  0.00     0.000 C 
BRANCH  17  18
ATOM     18  C   UNL     1    -102.695  28.297  20.465  1.00  0.00    -0.000 C 
BRANCH  18  19
ATOM     19  C   UNL     1    -102.251  27.358  19.333  1.00  0.00    -0.000 C 
BRANCH  19  20
ATOM     20  C   UNL     1    -102.588  25.897  19.666  1.00  0.00    -0.000 C 
BRANCH  20  21
ATOM     21  C   UNL     1    -101.335  25.025  19.873  1.00  0.00    -0.000 C 
BRANCH  21  22
ATOM     22  C   UNL     1    -100.988  24.092  18.697  1.00  0.00    -0.000 C 
BRANCH  22  23
ATOM     23  C   UNL     1    -102.159  23.771  17.748  1.00  0.00    -0.000 C 
BRANCH  23  24
ATOM     24  C   UNL     1    -102.597  22.291  17.778  1.00  0.00    -0.000 C 
BRANCH  24  25
ATOM     25  C   UNL     1    -104.051  22.116  18.244  1.00  0.00    -0.003 C 
ATOM     26  C   UNL     1    -105.008  22.935  17.380  1.00  0.00     0.004 C 
ENDBRANCH  24  25
ENDBRANCH  23  24
ENDBRANCH  22  23
ENDBRANCH  21  22
ENDBRANCH  20  21
ENDBRANCH  19  20
ENDBRANCH  18  19
ENDBRANCH  17  18
ENDBRANCH  16  17
ENDBRANCH  15  16
ENDBRANCH   1  15
TORSDOF 22
ENDMDL
MODEL 8
REMARK VINA RESULT:    -2.970     16.380     18.637
REMARK INTER + INTRA:         -10.765
REMARK INTER:                  -7.786
REMARK INTRA:                  -2.979
REMARK UNBOUND:                -3.976
REMARK SMILES CCCCCCCCCCCCCCCCCCCCCCCC(=O)[O-]
REMARK SMILES IDX 13 1 14 2 15 3 16 4 17 5 18 6 19 7 20 8 21 9 22 10 23 11
REMARK SMILES IDX 24 12 25 13 26 14 12 15 11 16 10 17 9 18 8 19 7 20 6 21 5 22
REMARK SMILES IDX 4 23 3 24 2 25 1 26
REMARK H PARENT
REMARK Flexibility Score: inf
ROOT
ATOM      1  C   UNL     1    -107.227  29.068  21.868  1.00  0.00     0.000 C 
ENDROOT
BRANCH   1   2
ATOM      2  C   UNL     1    -106.234  27.933  22.189  1.00  0.00     0.000 C 
BRANCH   2   3
ATOM      3  C   UNL     1    -104.752  28.355  22.237  1.00  0.00     0.000 C 
BRANCH   3   4
ATOM      4  C   UNL     1    -103.931  27.979  20.988  1.00  0.00     0.000 C 
BRANCH   4   5
ATOM      5  C   UNL     1    -104.657  27.062  19.981  1.00  0.00     0.000 C 
BRANCH   5   6
ATOM      6  C   UNL     1    -103.746  26.103  19.193  1.00  0.00     0.000 C 
BRANCH   6   7
ATOM      7  C   UNL     1    -102.428  25.794  19.924  1.00  0.00     0.000 C 
BRANCH   7   8
ATOM      8  C   UNL     1    -101.238  25.647  18.958  1.00  0.00     0.000 C 
BRANCH   8   9
ATOM      9  C   UNL     1    -100.768  24.196  18.743  1.00  0.00     0.000 C 
BRANCH   9  10
ATOM     10  C   UNL     1    -101.210  23.605  17.387  1.00  0.00     0.006 C 
BRANCH  10  11
ATOM     11  C   UNL     1    -102.048  22.329  17.562  1.00  0.00     0.053 C 
BRANCH  11  12
ATOM     12  C   UNL     1    -103.518  22.626  17.600  1.00  0.00     0.041 C 
ATOM     13  O   UNL     1    -104.007  23.553  16.900  1.00  0.00    -0.550 OA
ATOM     14  O   UNL     1    -104.345  21.903  18.449  1.00  0.00    -0.550 OA
ENDBRANCH  11  12
ENDBRANCH  10  11
ENDBRANCH   9  10
ENDBRANCH   8   9
ENDBRANCH   7   8
ENDBRANCH   6   7
ENDBRANCH   5   6
ENDBRANCH   4   5
ENDBRANCH   3   4
ENDBRANCH   2   3
ENDBRANCH   1   2
BRANCH   1  15
ATOM     15  C   UNL     1    -107.957  28.945  20.517  1.00  0.00     0.000 C 
BRANCH  15  16
ATOM     16  C   UNL     1    -108.205  27.484  20.099  1.00  0.00     0.000 C 
BRANCH  16  17
ATOM     17  C   UNL     1    -108.130  27.277  18.575  1.00  0.00     0.000 C 
BRANCH  17  18
ATOM     18  C   UNL     1    -109.455  26.872  17.904  1.00  0.00    -0.000 C 
BRANCH  18  19
ATOM     19  C   UNL     1    -110.483  28.013  17.870  1.00  0.00    -0.000 C 
BRANCH  19  20
ATOM     20  C   UNL     1    -111.880  27.507  18.260  1.00  0.00    -0.000 C 
BRANCH  20  21
ATOM     21  C   UNL     1    -111.863  26.070  18.815  1.00  0.00    -0.000 C 
BRANCH  21  22
ATOM     22  C   UNL     1    -112.282  25.937  20.292  1.00  0.00    -0.000 C 
BRANCH  22  23
ATOM     23  C   UNL     1    -111.657  26.973  21.246  1.00  0.00    -0.000 C 
BRANCH  23  24
ATOM     24  C   UNL     1    -110.816  26.348  22.381  1.00  0.00    -0.000 C 
BRANCH  24  25
ATOM     25  C   UNL     1    -110.316  27.396  23.388  1.00  0.00    -0.003 C 
ATOM     26  C   UNL     1    -111.005  28.741  23.171  1.00  0.00     0.004 C 
ENDBRANCH  24  25
ENDBRANCH  23  24
ENDBRANCH  22  23
ENDBRANCH  21  22
ENDBRANCH  20  21
ENDBRANCH  19  20
ENDBRANCH  18  19
ENDBRANCH  17  18
ENDBRANCH  16  17
ENDBRANCH  15  16
ENDBRANCH   1  15
TORSDOF 22
ENDMDL
MODEL 9
REMARK VINA RESULT:    -2.942      3.379      7.360
REMARK INTER + INTRA:         -10.701
REMARK INTER:                  -7.442
REMARK INTRA:                  -3.260
REMARK UNBOUND:                -3.976
REMARK SMILES CCCCCCCCCCCCCCCCCCCCCCCC(=O)[O-]
REMARK SMILES IDX 13 1 14 2 15 3 16 4 17 5 18 6 19 7 20 8 21 9 22 10 23 11
REMARK SMILES IDX 24 12 25 13 26 14 12 15 11 16 10 17 9 18 8 19 7 20 6 21 5 22
REMARK SMILES IDX 4 23 3 24 2 25 1 26
REMARK H PARENT
REMARK Flexibility Score: inf
ROOT
ATOM      1  C   UNL     1    -112.109  10.038  24.157  1.00  0.00     0.000 C 
ENDROOT
BRANCH   1   2
ATOM      2  C   UNL     1    -112.385  11.516  24.499  1.00  0.00     0.000 C 
BRANCH   2   3
ATOM      3  C   UNL     1    -113.448  11.748  25.590  1.00  0.00     0.000 C 
BRANCH   3   4
ATOM      4  C   UNL     1    -114.875  11.306  25.207  1.00  0.00     0.000 C 
BRANCH   4   5
ATOM      5  C   UNL     1    -115.443  11.966  23.933  1.00  0.00     0.000 C 
BRANCH   5   6
ATOM      6  C   UNL     1    -116.017  13.381  24.128  1.00  0.00     0.000 C 
BRANCH   6   7
ATOM      7  C   UNL     1    -117.506  13.480  23.752  1.00  0.00     0.000 C 
BRANCH   7   8
ATOM      8  C   UNL     1    -117.772  13.086  22.288  1.00  0.00     0.000 C 
BRANCH   8   9
ATOM      9  C   UNL     1    -119.027  12.218  22.080  1.00  0.00     0.000 C 
BRANCH   9  10
ATOM     10  C   UNL     1    -118.759  10.707  22.247  1.00  0.00     0.006 C 
BRANCH  10  11
ATOM     11  C   UNL     1    -119.313  10.167  23.575  1.00  0.00     0.053 C 
BRANCH  11  12
ATOM     12  C   UNL     1    -118.228   9.608  24.447  1.00  0.00     0.041 C 
ATOM     13  O   UNL     1    -118.229   9.815  25.690  1.00  0.00    -0.550 OA
ATOM     14  O   UNL     1    -117.185   8.891  23.876  1.00  0.00    -0.550 OA
ENDBRANCH  11  12
ENDBRANCH  10  11
ENDBRANCH   9  10
ENDBRANCH   8   9
ENDBRANCH   7   8
ENDBRANCH   6   7
ENDBRANCH   5   6
ENDBRANCH   4   5
ENDBRANCH   3   4
ENDBRANCH   2   3
ENDBRANCH   1   2
BRANCH   1  15
ATOM     15  C   UNL     1    -111.509   9.782  22.762  1.00  0.00     0.000 C 
BRANCH  15  16
ATOM     16  C   UNL     1    -112.483   9.064  21.811  1.00  0.00     0.000 C 
BRANCH  16  17
ATOM     17  C   UNL     1    -113.949   9.156  22.274  1.00  0.00     0.000 C 
BRANCH  17  18
ATOM     18  C   UNL     1    -114.943   9.645  21.206  1.00  0.00    -0.000 C 
BRANCH  18  19
ATOM     19  C   UNL     1    -114.458   9.387  19.771  1.00  0.00    -0.000 C 
BRANCH  19  20
ATOM     20  C   UNL     1    -115.574   9.666  18.755  1.00  0.00    -0.000 C 
BRANCH  20  21
ATOM     21  C   UNL     1    -116.479  10.843  19.165  1.00  0.00    -0.000 C 
BRANCH  21  22
ATOM     22  C   UNL     1    -117.797  10.959  18.377  1.00  0.00    -0.000 C 
BRANCH  22  23
ATOM     23  C   UNL     1    -118.569  12.278  18.580  1.00  0.00    -0.000 C 
BRANCH  23  24
ATOM     24  C   UNL     1    -117.661  13.524  18.666  1.00  0.00    -0.000 C 
BRANCH  24  25
ATOM     25  C   UNL     1    -118.269  14.746  17.959  1.00  0.00    -0.003 C 
ATOM     26  C   UNL     1    -117.180  15.713  17.498  1.00  0.00     0.004 C 
ENDBRANCH  24  25
ENDBRANCH  23  24
ENDBRANCH  22  23
ENDBRANCH  21  22
ENDBRANCH  20  21
ENDBRANCH  19  20
ENDBRANCH  18  19
ENDBRANCH  17  18
ENDBRANCH  16  17
ENDBRANCH  15  16
ENDBRANCH   1  15
TORSDOF 22
ENDMDL
