MODEL 1
REMARK VINA RESULT:    -6.184      0.000      0.000
REMARK INTER + INTRA:          -6.546
REMARK INTER:                  -6.546
REMARK INTRA:                   0.000
REMARK UNBOUND:                 0.000
REMARK SMILES O=c1ccc2cc(O)c(O)cc2o1
REMARK SMILES IDX 4 1 3 2 2 3 1 4 13 5 12 6 11 7 9 8 7 9 6 10 5 11 8 12 10 14
REMARK H PARENT 8 13 10 15
REMARK Flexibility Score: inf
ROOT
ATOM      1  C   UNL     1      27.367  24.217  46.910  1.00  0.00     0.019 A 
ATOM      2  C   UNL     1      28.381  24.873  46.211  1.00  0.00     0.094 A 
ATOM      3  C   UNL     1      29.701  24.749  46.658  1.00  0.00     0.336 A 
ATOM      4  O   UNL     1      30.630  25.334  46.041  1.00  0.00    -0.246 OA
ATOM      5  O   UNL     1      29.983  24.018  47.733  1.00  0.00    -0.423 OA
ATOM      6  C   UNL     1      29.046  23.376  48.427  1.00  0.00     0.142 A 
ATOM      7  C   UNL     1      29.403  22.621  49.550  1.00  0.00     0.098 A 
ATOM      8  C   UNL     1      28.419  21.943  50.285  1.00  0.00     0.161 A 
ATOM      9  C   UNL     1      27.074  22.021  49.896  1.00  0.00     0.158 A 
ATOM     10  C   UNL     1      26.711  22.776  48.771  1.00  0.00     0.062 A 
ATOM     11  C   UNL     1      27.693  23.455  48.035  1.00  0.00     0.022 A 
ENDROOT
BRANCH   9  12
ATOM     12  O   UNL     1      26.103  21.343  50.632  1.00  0.00    -0.504 OA
ATOM     13  H   UNL     1      25.609  21.790  51.396  1.00  0.00     0.293 HD
ENDBRANCH   9  12
BRANCH   8  14
ATOM     14  O   UNL     1      28.771  21.190  51.403  1.00  0.00    -0.504 OA
ATOM     15  H   UNL     1      29.649  21.338  51.888  1.00  0.00     0.293 HD
ENDBRANCH   8  14
TORSDOF 2
ENDMDL
MODEL 2
REMARK VINA RESULT:    -6.049      2.125      2.758
REMARK INTER + INTRA:          -6.403
REMARK INTER:                  -6.403
REMARK INTRA:                   0.000
REMARK UNBOUND:                 0.000
REMARK SMILES O=c1ccc2cc(O)c(O)cc2o1
REMARK SMILES IDX 4 1 3 2 2 3 1 4 13 5 12 6 11 7 9 8 7 9 6 10 5 11 8 12 10 14
REMARK H PARENT 8 13 10 15
REMARK Flexibility Score: inf
ROOT
ATOM      1  C   UNL     1      28.726  25.077  48.394  1.00  0.00     0.019 A 
ATOM      2  C   UNL     1      28.224  24.875  47.109  1.00  0.00     0.094 A 
ATOM      3  C   UNL     1      27.283  23.861  46.900  1.00  0.00     0.336 A 
ATOM      4  O   UNL     1      26.818  23.664  45.747  1.00  0.00    -0.246 OA
ATOM      5  O   UNL     1      26.875  23.101  47.914  1.00  0.00    -0.423 OA
ATOM      6  C   UNL     1      27.329  23.261  49.155  1.00  0.00     0.142 A 
ATOM      7  C   UNL     1      26.863  22.431  50.181  1.00  0.00     0.098 A 
ATOM      8  C   UNL     1      27.338  22.595  51.491  1.00  0.00     0.161 A 
ATOM      9  C   UNL     1      28.283  23.592  51.775  1.00  0.00     0.158 A 
ATOM     10  C   UNL     1      28.753  24.426  50.750  1.00  0.00     0.062 A 
ATOM     11  C   UNL     1      28.280  24.264  49.440  1.00  0.00     0.022 A 
ENDROOT
BRANCH   9  12
ATOM     12  O   UNL     1      28.749  23.748  53.079  1.00  0.00    -0.504 OA
ATOM     13  H   UNL     1      28.885  22.953  53.692  1.00  0.00     0.293 HD
ENDBRANCH   9  12
BRANCH   8  14
ATOM     14  O   UNL     1      26.875  21.771  52.515  1.00  0.00    -0.504 OA
ATOM     15  H   UNL     1      25.986  21.289  52.447  1.00  0.00     0.293 HD
ENDBRANCH   8  14
TORSDOF 2
ENDMDL
MODEL 3
REMARK VINA RESULT:    -6.012      2.290      3.044
REMARK INTER + INTRA:          -6.363
REMARK INTER:                  -6.363
REMARK INTRA:                   0.000
REMARK UNBOUND:                 0.000
REMARK SMILES O=c1ccc2cc(O)c(O)cc2o1
REMARK SMILES IDX 4 1 3 2 2 3 1 4 13 5 12 6 11 7 9 8 7 9 6 10 5 11 8 12 10 14
REMARK H PARENT 8 13 10 15
REMARK Flexibility Score: inf
ROOT
ATOM      1  C   UNL     1      29.267  24.791  46.309  1.00  0.00     0.019 A 
ATOM      2  C   UNL     1      28.395  24.933  45.230  1.00  0.00     0.094 A 
ATOM      3  C   UNL     1      27.018  24.815  45.452  1.00  0.00     0.336 A 
ATOM      4  O   UNL     1      26.215  24.939  44.491  1.00  0.00    -0.246 OA
ATOM      5  O   UNL     1      26.551  24.571  46.674  1.00  0.00    -0.423 OA
ATOM      6  C   UNL     1      27.349  24.430  47.730  1.00  0.00     0.142 A 
ATOM      7  C   UNL     1      26.800  24.175  48.991  1.00  0.00     0.098 A 
ATOM      8  C   UNL     1      27.636  24.026  50.107  1.00  0.00     0.161 A 
ATOM      9  C   UNL     1      29.027  24.131  49.961  1.00  0.00     0.158 A 
ATOM     10  C   UNL     1      29.583  24.387  48.698  1.00  0.00     0.062 A 
ATOM     11  C   UNL     1      28.748  24.536  47.582  1.00  0.00     0.022 A 
ENDROOT
BRANCH   9  12
ATOM     12  O   UNL     1      29.850  23.982  51.075  1.00  0.00    -0.504 OA
ATOM     13  H   UNL     1      30.601  24.632  51.271  1.00  0.00     0.293 HD
ENDBRANCH   9  12
BRANCH   8  14
ATOM     14  O   UNL     1      27.092  23.773  51.365  1.00  0.00    -0.504 OA
ATOM     15  H   UNL     1      26.997  22.829  51.722  1.00  0.00     0.293 HD
ENDBRANCH   8  14
TORSDOF 2
ENDMDL
MODEL 4
REMARK VINA RESULT:    -6.006      1.258      2.395
REMARK INTER + INTRA:          -6.357
REMARK INTER:                  -6.357
REMARK INTRA:                   0.000
REMARK UNBOUND:                 0.000
REMARK SMILES O=c1ccc2cc(O)c(O)cc2o1
REMARK SMILES IDX 4 1 3 2 2 3 1 4 13 5 12 6 11 7 9 8 7 9 6 10 5 11 8 12 10 14
REMARK H PARENT 8 13 10 15
REMARK Flexibility Score: inf
ROOT
ATOM      1  C   UNL     1      31.080  23.142  48.032  1.00  0.00     0.019 A 
ATOM      2  C   UNL     1      31.473  23.994  46.999  1.00  0.00     0.094 A 
ATOM      3  C   UNL     1      30.510  24.801  46.383  1.00  0.00     0.336 A 
ATOM      4  O   UNL     1      30.845  25.575  45.449  1.00  0.00    -0.246 OA
ATOM      5  O   UNL     1      29.240  24.755  46.778  1.00  0.00    -0.423 OA
ATOM      6  C   UNL     1      28.824  23.958  47.759  1.00  0.00     0.142 A 
ATOM      7  C   UNL     1      27.476  23.953  48.130  1.00  0.00     0.098 A 
ATOM      8  C   UNL     1      27.032  23.114  49.164  1.00  0.00     0.161 A 
ATOM      9  C   UNL     1      27.941  22.277  49.827  1.00  0.00     0.158 A 
ATOM     10  C   UNL     1      29.294  22.278  49.458  1.00  0.00     0.062 A 
ATOM     11  C   UNL     1      29.739  23.115  48.426  1.00  0.00     0.022 A 
ENDROOT
BRANCH   9  12
ATOM     12  O   UNL     1      27.491  21.448  50.853  1.00  0.00    -0.504 OA
ATOM     13  H   UNL     1      28.097  20.758  51.282  1.00  0.00     0.293 HD
ENDBRANCH   9  12
BRANCH   8  14
ATOM     14  O   UNL     1      25.689  23.108  49.537  1.00  0.00    -0.504 OA
ATOM     15  H   UNL     1      25.326  23.760  50.222  1.00  0.00     0.293 HD
ENDBRANCH   8  14
TORSDOF 2
ENDMDL
MODEL 5
REMARK VINA RESULT:    -5.901      1.766      4.574
REMARK INTER + INTRA:          -6.246
REMARK INTER:                  -6.246
REMARK INTRA:                   0.000
REMARK UNBOUND:                 0.000
REMARK SMILES O=c1ccc2cc(O)c(O)cc2o1
REMARK SMILES IDX 4 1 3 2 2 3 1 4 13 5 12 6 11 7 9 8 7 9 6 10 5 11 8 12 10 14
REMARK H PARENT 8 13 10 15
REMARK Flexibility Score: inf
ROOT
ATOM      1  C   UNL     1      26.754  23.769  48.933  1.00  0.00     0.019 A 
ATOM      2  C   UNL     1      27.235  23.632  50.235  1.00  0.00     0.094 A 
ATOM      3  C   UNL     1      28.587  23.889  50.488  1.00  0.00     0.336 A 
ATOM      4  O   UNL     1      29.039  23.771  51.657  1.00  0.00    -0.246 OA
ATOM      5  O   UNL     1      29.399  24.256  49.501  1.00  0.00    -0.423 OA
ATOM      6  C   UNL     1      28.981  24.398  48.246  1.00  0.00     0.142 A 
ATOM      7  C   UNL     1      29.882  24.788  47.249  1.00  0.00     0.098 A 
ATOM      8  C   UNL     1      29.446  24.939  45.924  1.00  0.00     0.161 A 
ATOM      9  C   UNL     1      28.104  24.699  45.595  1.00  0.00     0.158 A 
ATOM     10  C   UNL     1      27.196  24.309  46.591  1.00  0.00     0.062 A 
ATOM     11  C   UNL     1      27.630  24.157  47.915  1.00  0.00     0.022 A 
ENDROOT
BRANCH   9  12
ATOM     12  O   UNL     1      27.679  24.853  44.277  1.00  0.00    -0.504 OA
ATOM     13  H   UNL     1      27.603  24.061  43.648  1.00  0.00     0.293 HD
ENDBRANCH   9  12
BRANCH   8  14
ATOM     14  O   UNL     1      30.341  25.328  44.929  1.00  0.00    -0.504 OA
ATOM     15  H   UNL     1      30.370  26.280  44.584  1.00  0.00     0.293 HD
ENDBRANCH   8  14
TORSDOF 2
ENDMDL
MODEL 6
REMARK VINA RESULT:    -5.765      1.326      5.085
REMARK INTER + INTRA:          -6.102
REMARK INTER:                  -6.102
REMARK INTRA:                   0.000
REMARK UNBOUND:                 0.000
REMARK SMILES O=c1ccc2cc(O)c(O)cc2o1
REMARK SMILES IDX 4 1 3 2 2 3 1 4 13 5 12 6 11 7 9 8 7 9 6 10 5 11 8 12 10 14
REMARK H PARENT 8 13 10 15
REMARK Flexibility Score: inf
ROOT
ATOM      1  C   UNL     1      28.816  23.386  49.766  1.00  0.00     0.019 A 
ATOM      2  C   UNL     1      27.815  22.665  50.418  1.00  0.00     0.094 A 
ATOM      3  C   UNL     1      26.643  22.350  49.721  1.00  0.00     0.336 A 
ATOM      4  O   UNL     1      25.729  21.701  50.292  1.00  0.00    -0.246 OA
ATOM      5  O   UNL     1      26.488  22.733  48.456  1.00  0.00    -0.423 OA
ATOM      6  C   UNL     1      27.418  23.421  47.797  1.00  0.00     0.142 A 
ATOM      7  C   UNL     1      27.199  23.796  46.468  1.00  0.00     0.098 A 
ATOM      8  C   UNL     1      28.176  24.521  45.769  1.00  0.00     0.161 A 
ATOM      9  C   UNL     1      29.377  24.872  46.404  1.00  0.00     0.158 A 
ATOM     10  C   UNL     1      29.601  24.499  47.737  1.00  0.00     0.062 A 
ATOM     11  C   UNL     1      28.626  23.774  48.437  1.00  0.00     0.022 A 
ENDROOT
BRANCH   9  12
ATOM     12  O   UNL     1      30.342  25.592  45.702  1.00  0.00    -0.504 OA
ATOM     13  H   UNL     1      30.352  26.605  45.701  1.00  0.00     0.293 HD
ENDBRANCH   9  12
BRANCH   8  14
ATOM     14  O   UNL     1      27.961  24.895  44.444  1.00  0.00    -0.504 OA
ATOM     15  H   UNL     1      28.475  24.467  43.682  1.00  0.00     0.293 HD
ENDBRANCH   8  14
TORSDOF 2
ENDMDL
MODEL 7
REMARK VINA RESULT:    -5.724     11.191     12.521
REMARK INTER + INTRA:          -6.058
REMARK INTER:                  -6.058
REMARK INTRA:                   0.000
REMARK UNBOUND:                 0.000
REMARK SMILES O=c1ccc2cc(O)c(O)cc2o1
REMARK SMILES IDX 4 1 3 2 2 3 1 4 13 5 12 6 11 7 9 8 7 9 6 10 5 11 8 12 10 14
REMARK H PARENT 8 13 10 15
REMARK Flexibility Score: inf
ROOT
ATOM      1  C   UNL     1      15.986  25.570  43.897  1.00  0.00     0.019 A 
ATOM      2  C   UNL     1      16.119  24.576  42.928  1.00  0.00     0.094 A 
ATOM      3  C   UNL     1      17.319  24.478  42.217  1.00  0.00     0.336 A 
ATOM      4  O   UNL     1      17.457  23.587  41.339  1.00  0.00    -0.246 OA
ATOM      5  O   UNL     1      18.319  25.322  42.463  1.00  0.00    -0.423 OA
ATOM      6  C   UNL     1      18.234  26.283  43.378  1.00  0.00     0.142 A 
ATOM      7  C   UNL     1      19.318  27.141  43.593  1.00  0.00     0.098 A 
ATOM      8  C   UNL     1      19.234  28.157  44.557  1.00  0.00     0.161 A 
ATOM      9  C   UNL     1      18.061  28.315  45.308  1.00  0.00     0.158 A 
ATOM     10  C   UNL     1      16.971  27.458  45.097  1.00  0.00     0.062 A 
ATOM     11  C   UNL     1      17.053  26.442  44.135  1.00  0.00     0.022 A 
ENDROOT
BRANCH   9  12
ATOM     12  O   UNL     1      17.986  29.327  46.264  1.00  0.00    -0.504 OA
ATOM     13  H   UNL     1      18.537  30.174  46.185  1.00  0.00     0.293 HD
ENDBRANCH   9  12
BRANCH   8  14
ATOM     14  O   UNL     1      20.313  29.012  44.773  1.00  0.00    -0.504 OA
ATOM     15  H   UNL     1      21.265  28.727  44.572  1.00  0.00     0.293 HD
ENDBRANCH   8  14
TORSDOF 2
ENDMDL
MODEL 8
REMARK VINA RESULT:    -5.690      2.676      4.461
REMARK INTER + INTRA:          -6.022
REMARK INTER:                  -6.022
REMARK INTRA:                   0.000
REMARK UNBOUND:                 0.000
REMARK SMILES O=c1ccc2cc(O)c(O)cc2o1
REMARK SMILES IDX 4 1 3 2 2 3 1 4 13 5 12 6 11 7 9 8 7 9 6 10 5 11 8 12 10 14
REMARK H PARENT 8 13 10 15
REMARK Flexibility Score: inf
ROOT
ATOM      1  C   UNL     1      29.139  21.590  52.318  1.00  0.00     0.019 A 
ATOM      2  C   UNL     1      30.389  21.994  52.787  1.00  0.00     0.094 A 
ATOM      3  C   UNL     1      30.950  23.176  52.290  1.00  0.00     0.336 A 
ATOM      4  O   UNL     1      32.077  23.556  52.700  1.00  0.00    -0.246 OA
ATOM      5  O   UNL     1      30.299  23.901  51.384  1.00  0.00    -0.423 OA
ATOM      6  C   UNL     1      29.105  23.553  50.911  1.00  0.00     0.142 A 
ATOM      7  C   UNL     1      28.469  24.356  49.959  1.00  0.00     0.098 A 
ATOM      8  C   UNL     1      27.210  23.993  49.457  1.00  0.00     0.161 A 
ATOM      9  C   UNL     1      26.586  22.821  49.910  1.00  0.00     0.158 A 
ATOM     10  C   UNL     1      27.220  22.011  50.864  1.00  0.00     0.062 A 
ATOM     11  C   UNL     1      28.478  22.373  51.367  1.00  0.00     0.022 A 
ENDROOT
BRANCH   9  12
ATOM     12  O   UNL     1      25.335  22.468  49.406  1.00  0.00    -0.504 OA
ATOM     13  H   UNL     1      25.239  21.849  48.610  1.00  0.00     0.293 HD
ENDBRANCH   9  12
BRANCH   8  14
ATOM     14  O   UNL     1      26.573  24.792  48.510  1.00  0.00    -0.504 OA
ATOM     15  H   UNL     1      27.093  25.428  47.916  1.00  0.00     0.293 HD
ENDBRANCH   8  14
TORSDOF 2
ENDMDL
MODEL 9
REMARK VINA RESULT:    -5.297      1.969      4.600
REMARK INTER + INTRA:          -5.607
REMARK INTER:                  -5.607
REMARK INTRA:                   0.000
REMARK UNBOUND:                 0.000
REMARK SMILES O=c1ccc2cc(O)c(O)cc2o1
REMARK SMILES IDX 4 1 3 2 2 3 1 4 13 5 12 6 11 7 9 8 7 9 6 10 5 11 8 12 10 14
REMARK H PARENT 8 13 10 15
REMARK Flexibility Score: inf
ROOT
ATOM      1  C   UNL     1      28.051  22.505  51.978  1.00  0.00     0.019 A 
ATOM      2  C   UNL     1      29.069  21.802  52.621  1.00  0.00     0.094 A 
ATOM      3  C   UNL     1      30.294  21.634  51.967  1.00  0.00     0.336 A 
ATOM      4  O   UNL     1      31.225  21.002  52.531  1.00  0.00    -0.246 OA
ATOM      5  O   UNL     1      30.483  22.138  50.750  1.00  0.00    -0.423 OA
ATOM      6  C   UNL     1      29.538  22.815  50.102  1.00  0.00     0.142 A 
ATOM      7  C   UNL     1      29.795  23.323  48.824  1.00  0.00     0.098 A 
ATOM      8  C   UNL     1      28.802  24.038  48.136  1.00  0.00     0.161 A 
ATOM      9  C   UNL     1      27.549  24.245  48.731  1.00  0.00     0.158 A 
ATOM     10  C   UNL     1      27.287  23.739  50.012  1.00  0.00     0.062 A 
ATOM     11  C   UNL     1      28.277  23.024  50.700  1.00  0.00     0.022 A 
ENDROOT
BRANCH   9  12
ATOM     12  O   UNL     1      26.569  24.957  48.041  1.00  0.00    -0.504 OA
ATOM     13  H   UNL     1      26.247  24.666  47.125  1.00  0.00     0.293 HD
ENDBRANCH   9  12
BRANCH   8  14
ATOM     14  O   UNL     1      29.055  24.544  46.863  1.00  0.00    -0.504 OA
ATOM     15  H   UNL     1      29.281  25.521  46.716  1.00  0.00     0.293 HD
ENDBRANCH   8  14
TORSDOF 2
ENDMDL
