MODEL 1
REMARK VINA RESULT:    -7.569      0.000      0.000
REMARK INTER + INTRA:          -8.425
REMARK INTER:                  -8.232
REMARK INTRA:                  -0.192
REMARK UNBOUND:                -0.192
REMARK SMILES CC1(C)CC[C@]2(C(=O)[O-])CC[C@]3(C)C(=CC[C@@H]4[C@]5(C)CC[C@@H](O)C(C)(C)[C@@H]5CC[C@@]43C)[C@@H]2C1
REMARK SMILES IDX 6 1 5 2 10 3 32 4 4 5 11 6 14 7 33 8 2 9 12 10 15 11 1 12
REMARK SMILES IDX 3 13 13 14 30 15 16 16 17 17 29 18 31 19 18 20 28 21 27 22
REMARK SMILES IDX 20 23 19 24 24 25 21 26 22 27 25 28 26 29 7 30 8 31 9 32
REMARK SMILES IDX 23 33
REMARK H PARENT 23 34
REMARK Flexibility Score: inf
ROOT
ATOM      1  C   UNL     1       9.949   8.369  35.906  1.00  0.00     0.017 C 
ATOM      2  C   UNL     1      11.370   8.167  35.274  1.00  0.00     0.014 C 
ATOM      3  C   UNL     1      10.094   9.332  37.107  1.00  0.00     0.014 C 
ATOM      4  C   UNL     1       9.360   7.003  36.402  1.00  0.00     0.028 C 
ATOM      5  C   UNL     1      11.565   6.760  34.693  1.00  0.00     0.007 C 
ATOM      6  C   UNL     1       8.764   9.578  37.826  1.00  0.00     0.013 C 
ATOM      7  C   UNL     1       8.203   7.126  37.398  1.00  0.00    -0.064 C 
ATOM      8  C   UNL     1      10.472   6.070  36.930  1.00  0.00     0.015 C 
ATOM      9  C   UNL     1      11.460   5.653  35.792  1.00  0.00    -0.035 C 
ATOM     10  C   UNL     1       8.077   8.286  38.395  1.00  0.00    -0.006 C 
ATOM     11  C   UNL     1       7.358   6.079  37.465  1.00  0.00    -0.027 C 
ATOM     12  C   UNL     1      12.853   5.394  36.404  1.00  0.00     0.011 C 
ATOM     13  C   UNL     1      10.972   4.343  35.133  1.00  0.00     0.011 C 
ATOM     14  C   UNL     1       8.869   7.859  39.668  1.00  0.00     0.017 C 
ATOM     15  C   UNL     1       6.524   8.562  38.735  1.00  0.00    -0.020 C 
ATOM     16  C   UNL     1       6.070   6.058  38.232  1.00  0.00     0.032 C 
ATOM     17  C   UNL     1       5.826   7.231  39.231  1.00  0.00     0.006 C 
ATOM     18  C   UNL     1       5.758   9.094  37.471  1.00  0.00     0.008 C 
ATOM     19  C   UNL     1       6.438   9.661  39.842  1.00  0.00     0.012 C 
ATOM     20  C   UNL     1       4.278   7.407  39.640  1.00  0.00    -0.025 C 
ATOM     21  C   UNL     1       4.294   8.633  37.316  1.00  0.00     0.005 C 
ATOM     22  C   UNL     1       3.528   8.404  38.646  1.00  0.00     0.003 C 
ATOM     23  C   UNL     1       3.543   6.024  39.670  1.00  0.00     0.010 C 
ATOM     24  C   UNL     1       4.224   7.948  41.125  1.00  0.00     0.012 C 
ATOM     25  C   UNL     1       1.982   8.102  38.394  1.00  0.00    -0.006 C 
ATOM     26  C   UNL     1       2.037   6.086  40.013  1.00  0.00     0.033 C 
ATOM     27  C   UNL     1       1.340   7.413  39.633  1.00  0.00     0.120 C 
ATOM     28  C   UNL     1       1.720   7.217  37.138  1.00  0.00     0.014 C 
ATOM     29  C   UNL     1       1.226   9.438  38.148  1.00  0.00     0.014 C 
ENDROOT
BRANCH   1  30
ATOM     30  C   UNL     1       9.045   9.012  34.855  1.00  0.00     0.048 C 
ATOM     31  O   UNL     1       9.107  10.244  34.597  1.00  0.00    -0.550 OA
ATOM     32  O   UNL     1       8.095   8.241  34.194  1.00  0.00    -0.550 OA
ENDBRANCH   1  30
BRANCH  27  33
ATOM     33  O   UNL     1       1.331   8.297  40.727  1.00  0.00    -0.393 OA
ATOM     34  H   UNL     1       1.707   9.161  40.412  1.00  0.00     0.210 HD
ENDBRANCH  27  33
TORSDOF 2
ENDMDL
MODEL 2
REMARK VINA RESULT:    -6.807     12.056     16.297
REMARK INTER + INTRA:          -7.596
REMARK INTER:                  -7.367
REMARK INTRA:                  -0.229
REMARK UNBOUND:                -0.192
REMARK SMILES CC1(C)CC[C@]2(C(=O)[O-])CC[C@]3(C)C(=CC[C@@H]4[C@]5(C)CC[C@@H](O)C(C)(C)[C@@H]5CC[C@@]43C)[C@@H]2C1
REMARK SMILES IDX 6 1 5 2 10 3 32 4 4 5 11 6 14 7 33 8 2 9 12 10 15 11 1 12
REMARK SMILES IDX 3 13 13 14 30 15 16 16 17 17 29 18 31 19 18 20 28 21 27 22
REMARK SMILES IDX 20 23 19 24 24 25 21 26 22 27 25 28 26 29 7 30 8 31 9 32
REMARK SMILES IDX 23 33
REMARK H PARENT 23 34
REMARK Flexibility Score: inf
ROOT
ATOM      1  C   UNL     1      10.303  16.091  22.189  1.00  0.00     0.017 C 
ATOM      2  C   UNL     1       9.499  17.113  21.312  1.00  0.00     0.014 C 
ATOM      3  C   UNL     1      11.067  15.143  21.237  1.00  0.00     0.014 C 
ATOM      4  C   UNL     1       9.336  15.251  23.095  1.00  0.00     0.028 C 
ATOM      5  C   UNL     1       8.170  17.529  21.956  1.00  0.00     0.007 C 
ATOM      6  C   UNL     1      11.867  14.076  21.989  1.00  0.00     0.013 C 
ATOM      7  C   UNL     1       9.941  13.963  23.659  1.00  0.00    -0.064 C 
ATOM      8  C   UNL     1       7.989  14.988  22.385  1.00  0.00     0.015 C 
ATOM      9  C   UNL     1       7.202  16.315  22.137  1.00  0.00    -0.035 C 
ATOM     10  C   UNL     1      11.009  13.145  22.918  1.00  0.00    -0.006 C 
ATOM     11  C   UNL     1       9.385  13.487  24.789  1.00  0.00    -0.027 C 
ATOM     12  C   UNL     1       6.328  16.154  20.875  1.00  0.00     0.011 C 
ATOM     13  C   UNL     1       6.268  16.599  23.336  1.00  0.00     0.011 C 
ATOM     14  C   UNL     1      10.238  12.149  21.999  1.00  0.00     0.017 C 
ATOM     15  C   UNL     1      11.945  12.365  23.976  1.00  0.00    -0.020 C 
ATOM     16  C   UNL     1       9.926  12.351  25.604  1.00  0.00     0.032 C 
ATOM     17  C   UNL     1      11.058  11.495  24.957  1.00  0.00     0.006 C 
ATOM     18  C   UNL     1      12.796  13.375  24.825  1.00  0.00     0.008 C 
ATOM     19  C   UNL     1      12.937  11.449  23.190  1.00  0.00     0.012 C 
ATOM     20  C   UNL     1      11.902  10.638  26.028  1.00  0.00    -0.025 C 
ATOM     21  C   UNL     1      13.047  12.988  26.297  1.00  0.00     0.005 C 
ATOM     22  C   UNL     1      13.154  11.464  26.571  1.00  0.00     0.003 C 
ATOM     23  C   UNL     1      10.996  10.186  27.224  1.00  0.00     0.010 C 
ATOM     24  C   UNL     1      12.371   9.302  25.324  1.00  0.00     0.012 C 
ATOM     25  C   UNL     1      13.586  11.162  28.076  1.00  0.00    -0.006 C 
ATOM     26  C   UNL     1      11.721   9.389  28.333  1.00  0.00     0.033 C 
ATOM     27  C   UNL     1      13.228   9.701  28.476  1.00  0.00     0.120 C 
ATOM     28  C   UNL     1      12.945  12.134  29.112  1.00  0.00     0.014 C 
ATOM     29  C   UNL     1      15.125  11.330  28.218  1.00  0.00     0.014 C 
ENDROOT
BRANCH   1  30
ATOM     30  C   UNL     1      11.310  16.872  23.032  1.00  0.00     0.048 C 
ATOM     31  O   UNL     1      11.103  17.114  24.252  1.00  0.00    -0.550 OA
ATOM     32  O   UNL     1      12.465  17.375  22.441  1.00  0.00    -0.550 OA
ENDBRANCH   1  30
BRANCH  27  33
ATOM     33  O   UNL     1      13.994   8.793  27.723  1.00  0.00    -0.393 OA
ATOM     34  H   UNL     1      13.726   7.877  28.000  1.00  0.00     0.210 HD
ENDBRANCH  27  33
TORSDOF 2
ENDMDL
MODEL 3
REMARK VINA RESULT:    -6.724      4.195      9.072
REMARK INTER + INTRA:          -7.507
REMARK INTER:                  -7.396
REMARK INTRA:                  -0.111
REMARK UNBOUND:                -0.192
REMARK SMILES CC1(C)CC[C@]2(C(=O)[O-])CC[C@]3(C)C(=CC[C@@H]4[C@]5(C)CC[C@@H](O)C(C)(C)[C@@H]5CC[C@@]43C)[C@@H]2C1
REMARK SMILES IDX 6 1 5 2 10 3 32 4 4 5 11 6 14 7 33 8 2 9 12 10 15 11 1 12
REMARK SMILES IDX 3 13 13 14 30 15 16 16 17 17 29 18 31 19 18 20 28 21 27 22
REMARK SMILES IDX 20 23 19 24 24 25 21 26 22 27 25 28 26 29 7 30 8 31 9 32
REMARK SMILES IDX 23 33
REMARK H PARENT 23 34
REMARK Flexibility Score: inf
ROOT
ATOM      1  C   UNL     1       1.395  14.586  36.812  1.00  0.00     0.017 C 
ATOM      2  C   UNL     1       0.682  15.959  36.555  1.00  0.00     0.014 C 
ATOM      3  C   UNL     1       1.771  13.979  35.441  1.00  0.00     0.014 C 
ATOM      4  C   UNL     1       0.445  13.599  37.576  1.00  0.00     0.028 C 
ATOM      5  C   UNL     1      -0.401  16.268  37.597  1.00  0.00     0.007 C 
ATOM      6  C   UNL     1       2.449  12.612  35.569  1.00  0.00     0.013 C 
ATOM      7  C   UNL     1       0.858  12.126  37.504  1.00  0.00    -0.064 C 
ATOM      8  C   UNL     1      -1.029  13.801  37.158  1.00  0.00     0.015 C 
ATOM      9  C   UNL     1      -1.554  15.213  37.574  1.00  0.00    -0.035 C 
ATOM     10  C   UNL     1       1.589  11.519  36.298  1.00  0.00    -0.006 C 
ATOM     11  C   UNL     1       0.417  11.333  38.500  1.00  0.00    -0.027 C 
ATOM     12  C   UNL     1      -2.646  15.658  36.578  1.00  0.00     0.011 C 
ATOM     13  C   UNL     1      -2.188  15.139  38.982  1.00  0.00     0.011 C 
ATOM     14  C   UNL     1       0.482  11.055  35.302  1.00  0.00     0.017 C 
ATOM     15  C   UNL     1       2.510  10.282  36.771  1.00  0.00    -0.020 C 
ATOM     16  C   UNL     1       0.843   9.913  38.723  1.00  0.00     0.032 C 
ATOM     17  C   UNL     1       1.644   9.228  37.574  1.00  0.00     0.006 C 
ATOM     18  C   UNL     1       3.685  10.774  37.688  1.00  0.00     0.008 C 
ATOM     19  C   UNL     1       3.140   9.612  35.508  1.00  0.00     0.012 C 
ATOM     20  C   UNL     1       2.463   7.927  38.055  1.00  0.00    -0.025 C 
ATOM     21  C   UNL     1       4.099   9.829  38.834  1.00  0.00     0.005 C 
ATOM     22  C   UNL     1       3.933   8.315  38.536  1.00  0.00     0.003 C 
ATOM     23  C   UNL     1       1.703   7.176  39.201  1.00  0.00     0.010 C 
ATOM     24  C   UNL     1       2.517   6.909  36.846  1.00  0.00     0.012 C 
ATOM     25  C   UNL     1       4.545   7.411  39.698  1.00  0.00    -0.006 C 
ATOM     26  C   UNL     1       2.425   5.932  39.765  1.00  0.00     0.033 C 
ATOM     27  C   UNL     1       3.966   5.968  39.646  1.00  0.00     0.120 C 
ATOM     28  C   UNL     1       4.309   7.992  41.125  1.00  0.00     0.014 C 
ATOM     29  C   UNL     1       6.087   7.312  39.521  1.00  0.00     0.014 C 
ENDROOT
BRANCH   1  30
ATOM     30  C   UNL     1       2.672  14.851  37.609  1.00  0.00     0.048 C 
ATOM     31  O   UNL     1       2.666  14.899  38.868  1.00  0.00    -0.550 OA
ATOM     32  O   UNL     1       3.867  15.094  36.939  1.00  0.00    -0.550 OA
ENDBRANCH   1  30
BRANCH  27  33
ATOM     33  O   UNL     1       4.386   5.322  38.468  1.00  0.00    -0.393 OA
ATOM     34  H   UNL     1       5.037   5.922  38.017  1.00  0.00     0.210 HD
ENDBRANCH  27  33
TORSDOF 2
ENDMDL
MODEL 4
REMARK VINA RESULT:    -6.660     11.312     15.507
REMARK INTER + INTRA:          -7.436
REMARK INTER:                  -7.186
REMARK INTRA:                  -0.250
REMARK UNBOUND:                -0.192
REMARK SMILES CC1(C)CC[C@]2(C(=O)[O-])CC[C@]3(C)C(=CC[C@@H]4[C@]5(C)CC[C@@H](O)C(C)(C)[C@@H]5CC[C@@]43C)[C@@H]2C1
REMARK SMILES IDX 6 1 5 2 10 3 32 4 4 5 11 6 14 7 33 8 2 9 12 10 15 11 1 12
REMARK SMILES IDX 3 13 13 14 30 15 16 16 17 17 29 18 31 19 18 20 28 21 27 22
REMARK SMILES IDX 20 23 19 24 24 25 21 26 22 27 25 28 26 29 7 30 8 31 9 32
REMARK SMILES IDX 23 33
REMARK H PARENT 23 34
REMARK Flexibility Score: inf
ROOT
ATOM      1  C   UNL     1      11.533  14.106  21.931  1.00  0.00     0.017 C 
ATOM      2  C   UNL     1      11.104  15.184  20.875  1.00  0.00     0.014 C 
ATOM      3  C   UNL     1      11.226  12.711  21.339  1.00  0.00     0.014 C 
ATOM      4  C   UNL     1      10.737  14.289  23.270  1.00  0.00     0.028 C 
ATOM      5  C   UNL     1      10.585  16.474  21.525  1.00  0.00     0.007 C 
ATOM      6  C   UNL     1      11.576  11.574  22.302  1.00  0.00     0.013 C 
ATOM      7  C   UNL     1      10.751  13.070  24.197  1.00  0.00    -0.064 C 
ATOM      8  C   UNL     1       9.300  14.791  23.006  1.00  0.00     0.015 C 
ATOM      9  C   UNL     1       9.299  16.223  22.378  1.00  0.00    -0.035 C 
ATOM     10  C   UNL     1      10.825  11.627  23.681  1.00  0.00    -0.006 C 
ATOM     11  C   UNL     1      10.544  13.313  25.506  1.00  0.00    -0.027 C 
ATOM     12  C   UNL     1       8.047  16.383  21.491  1.00  0.00     0.011 C 
ATOM     13  C   UNL     1       9.233  17.284  23.500  1.00  0.00     0.011 C 
ATOM     14  C   UNL     1       9.354  11.174  23.429  1.00  0.00     0.017 C 
ATOM     15  C   UNL     1      11.552  10.683  24.770  1.00  0.00    -0.020 C 
ATOM     16  C   UNL     1      10.690  12.302  26.604  1.00  0.00     0.032 C 
ATOM     17  C   UNL     1      10.832  10.810  26.173  1.00  0.00     0.006 C 
ATOM     18  C   UNL     1      13.062  11.079  24.938  1.00  0.00     0.008 C 
ATOM     19  C   UNL     1      11.500   9.204  24.269  1.00  0.00     0.012 C 
ATOM     20  C   UNL     1      11.454   9.871  27.324  1.00  0.00    -0.025 C 
ATOM     21  C   UNL     1      13.647  10.951  26.360  1.00  0.00     0.005 C 
ATOM     22  C   UNL     1      13.045   9.810  27.222  1.00  0.00     0.003 C 
ATOM     23  C   UNL     1      11.025  10.366  28.747  1.00  0.00     0.010 C 
ATOM     24  C   UNL     1      10.825   8.428  27.171  1.00  0.00     0.012 C 
ATOM     25  C   UNL     1      13.824   9.638  28.603  1.00  0.00    -0.006 C 
ATOM     26  C   UNL     1      11.605   9.556  29.929  1.00  0.00     0.033 C 
ATOM     27  C   UNL     1      12.957   8.865  29.639  1.00  0.00     0.120 C 
ATOM     28  C   UNL     1      14.270  10.990  29.236  1.00  0.00     0.014 C 
ATOM     29  C   UNL     1      15.125   8.820  28.367  1.00  0.00     0.014 C 
ENDROOT
BRANCH   1  30
ATOM     30  C   UNL     1      13.038  14.232  22.160  1.00  0.00     0.048 C 
ATOM     31  O   UNL     1      13.506  14.638  23.258  1.00  0.00    -0.550 OA
ATOM     32  O   UNL     1      13.922  13.939  21.127  1.00  0.00    -0.550 OA
ENDBRANCH   1  30
BRANCH  27  33
ATOM     33  O   UNL     1      12.754   7.542  29.207  1.00  0.00    -0.393 OA
ATOM     34  H   UNL     1      13.475   6.985  29.605  1.00  0.00     0.210 HD
ENDBRANCH  27  33
TORSDOF 2
ENDMDL
MODEL 5
REMARK VINA RESULT:    -6.642      9.733     14.132
REMARK INTER + INTRA:          -7.417
REMARK INTER:                  -7.171
REMARK INTRA:                  -0.246
REMARK UNBOUND:                -0.192
REMARK SMILES CC1(C)CC[C@]2(C(=O)[O-])CC[C@]3(C)C(=CC[C@@H]4[C@]5(C)CC[C@@H](O)C(C)(C)[C@@H]5CC[C@@]43C)[C@@H]2C1
REMARK SMILES IDX 6 1 5 2 10 3 32 4 4 5 11 6 14 7 33 8 2 9 12 10 15 11 1 12
REMARK SMILES IDX 3 13 13 14 30 15 16 16 17 17 29 18 31 19 18 20 28 21 27 22
REMARK SMILES IDX 20 23 19 24 24 25 21 26 22 27 25 28 26 29 7 30 8 31 9 32
REMARK SMILES IDX 23 33
REMARK H PARENT 23 34
REMARK Flexibility Score: inf
ROOT
ATOM      1  C   UNL     1      12.942   8.720  29.246  1.00  0.00     0.017 C 
ATOM      2  C   UNL     1      12.857   7.759  30.483  1.00  0.00     0.014 C 
ATOM      3  C   UNL     1      13.688  10.000  29.689  1.00  0.00     0.014 C 
ATOM      4  C   UNL     1      11.509   9.103  28.737  1.00  0.00     0.028 C 
ATOM      5  C   UNL     1      11.569   6.924  30.495  1.00  0.00     0.007 C 
ATOM      6  C   UNL     1      13.803  11.032  28.563  1.00  0.00     0.013 C 
ATOM      7  C   UNL     1      11.456  10.341  27.838  1.00  0.00    -0.064 C 
ATOM      8  C   UNL     1      10.505   9.203  29.907  1.00  0.00     0.015 C 
ATOM      9  C   UNL     1      10.292   7.818  30.601  1.00  0.00    -0.035 C 
ATOM     10  C   UNL     1      12.430  11.519  27.977  1.00  0.00    -0.006 C 
ATOM     11  C   UNL     1      10.409  10.423  26.994  1.00  0.00    -0.027 C 
ATOM     12  C   UNL     1       9.939   8.047  32.085  1.00  0.00     0.011 C 
ATOM     13  C   UNL     1       9.110   7.078  29.933  1.00  0.00     0.011 C 
ATOM     14  C   UNL     1      11.796  12.491  29.020  1.00  0.00     0.017 C 
ATOM     15  C   UNL     1      12.637  12.242  26.550  1.00  0.00    -0.020 C 
ATOM     16  C   UNL     1      10.252  11.447  25.911  1.00  0.00     0.032 C 
ATOM     17  C   UNL     1      11.237  12.656  25.936  1.00  0.00     0.006 C 
ATOM     18  C   UNL     1      13.372  11.292  25.540  1.00  0.00     0.008 C 
ATOM     19  C   UNL     1      13.532  13.507  26.751  1.00  0.00     0.012 C 
ATOM     20  C   UNL     1      11.335  13.428  24.526  1.00  0.00    -0.025 C 
ATOM     21  C   UNL     1      12.937  11.397  24.063  1.00  0.00     0.005 C 
ATOM     22  C   UNL     1      12.482  12.809  23.606  1.00  0.00     0.003 C 
ATOM     23  C   UNL     1       9.963  13.393  23.770  1.00  0.00     0.010 C 
ATOM     24  C   UNL     1      11.616  14.955  24.824  1.00  0.00     0.012 C 
ATOM     25  C   UNL     1      12.220  12.867  22.034  1.00  0.00    -0.006 C 
ATOM     26  C   UNL     1       9.959  14.073  22.382  1.00  0.00     0.033 C 
ATOM     27  C   UNL     1      11.328  14.087  21.663  1.00  0.00     0.120 C 
ATOM     28  C   UNL     1      11.560  11.574  21.468  1.00  0.00     0.014 C 
ATOM     29  C   UNL     1      13.575  13.024  21.288  1.00  0.00     0.014 C 
ENDROOT
BRANCH   1  30
ATOM     30  C   UNL     1      13.750   8.023  28.152  1.00  0.00     0.048 C 
ATOM     31  O   UNL     1      13.228   7.702  27.051  1.00  0.00    -0.550 OA
ATOM     32  O   UNL     1      15.080   7.688  28.381  1.00  0.00    -0.550 OA
ENDBRANCH   1  30
BRANCH  27  33
ATOM     33  O   UNL     1      12.014  15.286  21.929  1.00  0.00    -0.393 OA
ATOM     34  H   UNL     1      12.692  15.090  22.628  1.00  0.00     0.210 HD
ENDBRANCH  27  33
TORSDOF 2
ENDMDL
MODEL 6
REMARK VINA RESULT:    -6.637      2.623      8.056
REMARK INTER + INTRA:          -7.411
REMARK INTER:                  -7.258
REMARK INTRA:                  -0.153
REMARK UNBOUND:                -0.192
REMARK SMILES CC1(C)CC[C@]2(C(=O)[O-])CC[C@]3(C)C(=CC[C@@H]4[C@]5(C)CC[C@@H](O)C(C)(C)[C@@H]5CC[C@@]43C)[C@@H]2C1
REMARK SMILES IDX 6 1 5 2 10 3 32 4 4 5 11 6 14 7 33 8 2 9 12 10 15 11 1 12
REMARK SMILES IDX 3 13 13 14 30 15 16 16 17 17 29 18 31 19 18 20 28 21 27 22
REMARK SMILES IDX 20 23 19 24 24 25 21 26 22 27 25 28 26 29 7 30 8 31 9 32
REMARK SMILES IDX 23 33
REMARK H PARENT 23 34
REMARK Flexibility Score: inf
ROOT
ATOM      1  C   UNL     1       7.925   8.692  39.611  1.00  0.00     0.017 C 
ATOM      2  C   UNL     1       6.968   9.054  40.800  1.00  0.00     0.014 C 
ATOM      3  C   UNL     1       8.235   9.993  38.836  1.00  0.00     0.014 C 
ATOM      4  C   UNL     1       7.249   7.658  38.645  1.00  0.00     0.028 C 
ATOM      5  C   UNL     1       5.977   7.928  41.125  1.00  0.00     0.007 C 
ATOM      6  C   UNL     1       9.142   9.754  37.625  1.00  0.00     0.013 C 
ATOM      7  C   UNL     1       7.891   7.561  37.258  1.00  0.00    -0.064 C 
ATOM      8  C   UNL     1       5.724   7.888  38.554  1.00  0.00     0.015 C 
ATOM      9  C   UNL     1       5.022   7.624  39.926  1.00  0.00    -0.035 C 
ATOM     10  C   UNL     1       8.568   8.750  36.563  1.00  0.00    -0.006 C 
ATOM     11  C   UNL     1       7.708   6.402  36.595  1.00  0.00    -0.027 C 
ATOM     12  C   UNL     1       3.762   8.511  40.026  1.00  0.00     0.011 C 
ATOM     13  C   UNL     1       4.577   6.146  40.007  1.00  0.00     0.011 C 
ATOM     14  C   UNL     1       7.446   9.495  35.776  1.00  0.00     0.017 C 
ATOM     15  C   UNL     1       9.732   8.228  35.575  1.00  0.00    -0.020 C 
ATOM     16  C   UNL     1       8.388   6.025  35.314  1.00  0.00     0.032 C 
ATOM     17  C   UNL     1       9.153   7.158  34.562  1.00  0.00     0.006 C 
ATOM     18  C   UNL     1      10.906   7.575  36.386  1.00  0.00     0.008 C 
ATOM     19  C   UNL     1      10.314   9.450  34.793  1.00  0.00     0.012 C 
ATOM     20  C   UNL     1      10.228   6.604  33.498  1.00  0.00    -0.025 C 
ATOM     21  C   UNL     1      11.603   6.368  35.725  1.00  0.00     0.005 C 
ATOM     22  C   UNL     1      11.659   6.403  34.174  1.00  0.00     0.003 C 
ATOM     23  C   UNL     1       9.743   5.260  32.857  1.00  0.00     0.010 C 
ATOM     24  C   UNL     1      10.310   7.637  32.304  1.00  0.00     0.012 C 
ATOM     25  C   UNL     1      12.544   5.214  33.587  1.00  0.00    -0.006 C 
ATOM     26  C   UNL     1      10.724   4.620  31.849  1.00  0.00     0.033 C 
ATOM     27  C   UNL     1      12.213   4.961  32.087  1.00  0.00     0.120 C 
ATOM     28  C   UNL     1      12.381   3.875  34.367  1.00  0.00     0.014 C 
ATOM     29  C   UNL     1      14.050   5.591  33.683  1.00  0.00     0.014 C 
ENDROOT
BRANCH   1  30
ATOM     30  C   UNL     1       9.224   8.136  40.194  1.00  0.00     0.048 C 
ATOM     31  O   UNL     1       9.844   8.736  41.112  1.00  0.00    -0.550 OA
ATOM     32  O   UNL     1       9.769   6.966  39.677  1.00  0.00    -0.550 OA
ENDBRANCH   1  30
BRANCH  27  33
ATOM     33  O   UNL     1      12.595   6.072  31.314  1.00  0.00    -0.393 OA
ATOM     34  H   UNL     1      13.464   6.396  31.670  1.00  0.00     0.210 HD
ENDBRANCH  27  33
TORSDOF 2
ENDMDL
MODEL 7
REMARK VINA RESULT:    -6.546      1.792      7.915
REMARK INTER + INTRA:          -7.313
REMARK INTER:                  -7.095
REMARK INTRA:                  -0.218
REMARK UNBOUND:                -0.192
REMARK SMILES CC1(C)CC[C@]2(C(=O)[O-])CC[C@]3(C)C(=CC[C@@H]4[C@]5(C)CC[C@@H](O)C(C)(C)[C@@H]5CC[C@@]43C)[C@@H]2C1
REMARK SMILES IDX 6 1 5 2 10 3 32 4 4 5 11 6 14 7 33 8 2 9 12 10 15 11 1 12
REMARK SMILES IDX 3 13 13 14 30 15 16 16 17 17 29 18 31 19 18 20 28 21 27 22
REMARK SMILES IDX 20 23 19 24 24 25 21 26 22 27 25 28 26 29 7 30 8 31 9 32
REMARK SMILES IDX 23 33
REMARK H PARENT 23 34
REMARK Flexibility Score: inf
ROOT
ATOM      1  C   UNL     1       3.289   7.870  39.712  1.00  0.00     0.017 C 
ATOM      2  C   UNL     1       1.856   8.350  40.131  1.00  0.00     0.014 C 
ATOM      3  C   UNL     1       4.257   8.191  40.875  1.00  0.00     0.014 C 
ATOM      4  C   UNL     1       3.769   8.611  38.416  1.00  0.00     0.028 C 
ATOM      5  C   UNL     1       1.029   8.852  38.939  1.00  0.00     0.007 C 
ATOM      6  C   UNL     1       5.702   7.793  40.563  1.00  0.00     0.013 C 
ATOM      7  C   UNL     1       5.278   8.550  38.163  1.00  0.00    -0.064 C 
ATOM      8  C   UNL     1       3.239  10.062  38.369  1.00  0.00     0.015 C 
ATOM      9  C   UNL     1       1.680  10.099  38.259  1.00  0.00    -0.035 C 
ATOM     10  C   UNL     1       6.315   8.486  39.294  1.00  0.00    -0.006 C 
ATOM     11  C   UNL     1       5.677   8.705  36.886  1.00  0.00    -0.027 C 
ATOM     12  C   UNL     1       1.159  11.389  38.927  1.00  0.00     0.011 C 
ATOM     13  C   UNL     1       1.264  10.127  36.770  1.00  0.00     0.011 C 
ATOM     14  C   UNL     1       6.636   9.963  39.679  1.00  0.00     0.017 C 
ATOM     15  C   UNL     1       7.637   7.708  38.793  1.00  0.00    -0.020 C 
ATOM     16  C   UNL     1       7.077   8.506  36.390  1.00  0.00     0.032 C 
ATOM     17  C   UNL     1       8.195   8.371  37.469  1.00  0.00     0.006 C 
ATOM     18  C   UNL     1       7.325   6.196  38.510  1.00  0.00     0.008 C 
ATOM     19  C   UNL     1       8.714   7.769  39.923  1.00  0.00     0.012 C 
ATOM     20  C   UNL     1       9.545   7.695  36.908  1.00  0.00    -0.025 C 
ATOM     21  C   UNL     1       8.084   5.552  37.331  1.00  0.00     0.005 C 
ATOM     22  C   UNL     1       9.510   6.109  37.079  1.00  0.00     0.003 C 
ATOM     23  C   UNL     1       9.778   8.068  35.405  1.00  0.00     0.010 C 
ATOM     24  C   UNL     1      10.767   8.318  37.694  1.00  0.00     0.012 C 
ATOM     25  C   UNL     1      10.284   5.272  35.963  1.00  0.00    -0.006 C 
ATOM     26  C   UNL     1      11.030   7.434  34.756  1.00  0.00     0.033 C 
ATOM     27  C   UNL     1      11.472   6.089  35.378  1.00  0.00     0.120 C 
ATOM     28  C   UNL     1       9.369   4.810  34.789  1.00  0.00     0.014 C 
ATOM     29  C   UNL     1      10.864   3.976  36.596  1.00  0.00     0.014 C 
ENDROOT
BRANCH   1  30
ATOM     30  C   UNL     1       3.245   6.358  39.501  1.00  0.00     0.048 C 
ATOM     31  O   UNL     1       3.119   5.560  40.468  1.00  0.00    -0.550 OA
ATOM     32  O   UNL     1       3.394   5.834  38.221  1.00  0.00    -0.550 OA
ENDBRANCH   1  30
BRANCH  27  33
ATOM     33  O   UNL     1      12.447   6.301  36.369  1.00  0.00    -0.393 OA
ATOM     34  H   UNL     1      13.196   6.800  35.947  1.00  0.00     0.210 HD
ENDBRANCH  27  33
TORSDOF 2
ENDMDL
MODEL 8
REMARK VINA RESULT:    -6.530     12.695     16.279
REMARK INTER + INTRA:          -7.296
REMARK INTER:                  -7.061
REMARK INTRA:                  -0.235
REMARK UNBOUND:                -0.192
REMARK SMILES CC1(C)CC[C@]2(C(=O)[O-])CC[C@]3(C)C(=CC[C@@H]4[C@]5(C)CC[C@@H](O)C(C)(C)[C@@H]5CC[C@@]43C)[C@@H]2C1
REMARK SMILES IDX 6 1 5 2 10 3 32 4 4 5 11 6 14 7 33 8 2 9 12 10 15 11 1 12
REMARK SMILES IDX 3 13 13 14 30 15 16 16 17 17 29 18 31 19 18 20 28 21 27 22
REMARK SMILES IDX 20 23 19 24 24 25 21 26 22 27 25 28 26 29 7 30 8 31 9 32
REMARK SMILES IDX 23 33
REMARK H PARENT 23 34
REMARK Flexibility Score: inf
ROOT
ATOM      1  C   UNL     1      12.100  11.068  24.818  1.00  0.00     0.017 C 
ATOM      2  C   UNL     1      13.030  10.054  25.571  1.00  0.00     0.014 C 
ATOM      3  C   UNL     1      12.738  11.367  23.442  1.00  0.00     0.014 C 
ATOM      4  C   UNL     1      11.958  12.403  25.628  1.00  0.00     0.028 C 
ATOM      5  C   UNL     1      13.033  10.270  27.090  1.00  0.00     0.007 C 
ATOM      6  C   UNL     1      11.926  12.378  22.626  1.00  0.00     0.013 C 
ATOM      7  C   UNL     1      11.444  13.595  24.816  1.00  0.00    -0.064 C 
ATOM      8  C   UNL     1      13.263  12.744  26.382  1.00  0.00     0.015 C 
ATOM      9  C   UNL     1      13.586  11.679  27.480  1.00  0.00    -0.035 C 
ATOM     10  C   UNL     1      11.729  13.773  23.318  1.00  0.00    -0.006 C 
ATOM     11  C   UNL     1      10.840  14.577  25.513  1.00  0.00    -0.027 C 
ATOM     12  C   UNL     1      15.115  11.603  27.674  1.00  0.00     0.011 C 
ATOM     13  C   UNL     1      12.952  12.108  28.823  1.00  0.00     0.011 C 
ATOM     14  C   UNL     1      13.084  14.540  23.218  1.00  0.00     0.017 C 
ATOM     15  C   UNL     1      10.533  14.600  22.619  1.00  0.00    -0.020 C 
ATOM     16  C   UNL     1      10.112  15.740  24.910  1.00  0.00     0.032 C 
ATOM     17  C   UNL     1      10.294  15.968  23.378  1.00  0.00     0.006 C 
ATOM     18  C   UNL     1       9.198  13.775  22.631  1.00  0.00     0.008 C 
ATOM     19  C   UNL     1      10.913  14.871  21.128  1.00  0.00     0.012 C 
ATOM     20  C   UNL     1       9.146  16.894  22.730  1.00  0.00    -0.025 C 
ATOM     21  C   UNL     1       7.897  14.584  22.817  1.00  0.00     0.005 C 
ATOM     22  C   UNL     1       7.917  16.016  22.218  1.00  0.00     0.003 C 
ATOM     23  C   UNL     1       8.649  17.971  23.753  1.00  0.00     0.010 C 
ATOM     24  C   UNL     1       9.791  17.709  21.538  1.00  0.00     0.012 C 
ATOM     25  C   UNL     1       6.484  16.711  22.300  1.00  0.00    -0.006 C 
ATOM     26  C   UNL     1       7.514  18.888  23.243  1.00  0.00     0.033 C 
ATOM     27  C   UNL     1       6.607  18.257  22.162  1.00  0.00     0.120 C 
ATOM     28  C   UNL     1       5.711  16.387  23.613  1.00  0.00     0.014 C 
ATOM     29  C   UNL     1       5.592  16.200  21.134  1.00  0.00     0.014 C 
ENDROOT
BRANCH   1  30
ATOM     30  C   UNL     1      10.741  10.403  24.605  1.00  0.00     0.048 C 
ATOM     31  O   UNL     1       9.689  10.877  25.111  1.00  0.00    -0.550 OA
ATOM     32  O   UNL     1      10.655   9.221  23.877  1.00  0.00    -0.550 OA
ENDBRANCH   1  30
BRANCH  27  33
ATOM     33  O   UNL     1       7.065  18.592  20.875  1.00  0.00    -0.393 OA
ATOM     34  H   UNL     1       7.980  18.968  20.975  1.00  0.00     0.210 HD
ENDBRANCH  27  33
TORSDOF 2
ENDMDL
MODEL 9
REMARK VINA RESULT:    -6.362      2.444      4.306
REMARK INTER + INTRA:          -7.112
REMARK INTER:                  -6.976
REMARK INTRA:                  -0.137
REMARK UNBOUND:                -0.192
REMARK SMILES CC1(C)CC[C@]2(C(=O)[O-])CC[C@]3(C)C(=CC[C@@H]4[C@]5(C)CC[C@@H](O)C(C)(C)[C@@H]5CC[C@@]43C)[C@@H]2C1
REMARK SMILES IDX 6 1 5 2 10 3 32 4 4 5 11 6 14 7 33 8 2 9 12 10 15 11 1 12
REMARK SMILES IDX 3 13 13 14 30 15 16 16 17 17 29 18 31 19 18 20 28 21 27 22
REMARK SMILES IDX 20 23 19 24 24 25 21 26 22 27 25 28 26 29 7 30 8 31 9 32
REMARK SMILES IDX 23 33
REMARK H PARENT 23 34
REMARK Flexibility Score: inf
ROOT
ATOM      1  C   UNL     1       6.807   9.420  38.741  1.00  0.00     0.017 C 
ATOM      2  C   UNL     1       8.236   9.869  39.206  1.00  0.00     0.014 C 
ATOM      3  C   UNL     1       5.862   9.502  39.962  1.00  0.00     0.014 C 
ATOM      4  C   UNL     1       6.833   7.948  38.200  1.00  0.00     0.028 C 
ATOM      5  C   UNL     1       9.358   9.128  38.466  1.00  0.00     0.007 C 
ATOM      6  C   UNL     1       4.436   9.052  39.632  1.00  0.00     0.013 C 
ATOM      7  C   UNL     1       5.463   7.267  38.125  1.00  0.00    -0.064 C 
ATOM      8  C   UNL     1       7.859   7.085  38.968  1.00  0.00     0.015 C 
ATOM      9  C   UNL     1       9.321   7.589  38.735  1.00  0.00    -0.035 C 
ATOM     10  C   UNL     1       4.319   7.579  39.099  1.00  0.00    -0.006 C 
ATOM     11  C   UNL     1       5.346   6.257  37.242  1.00  0.00    -0.027 C 
ATOM     12  C   UNL     1      10.172   7.257  39.979  1.00  0.00     0.011 C 
ATOM     13  C   UNL     1       9.936   6.857  37.521  1.00  0.00     0.011 C 
ATOM     14  C   UNL     1       4.508   6.626  40.318  1.00  0.00     0.017 C 
ATOM     15  C   UNL     1       2.895   7.338  38.379  1.00  0.00    -0.020 C 
ATOM     16  C   UNL     1       4.062   5.574  36.878  1.00  0.00     0.032 C 
ATOM     17  C   UNL     1       2.824   5.875  37.778  1.00  0.00     0.006 C 
ATOM     18  C   UNL     1       2.668   8.373  37.221  1.00  0.00     0.008 C 
ATOM     19  C   UNL     1       1.758   7.544  39.431  1.00  0.00     0.012 C 
ATOM     20  C   UNL     1       1.421   5.516  37.074  1.00  0.00    -0.025 C 
ATOM     21  C   UNL     1       1.912   7.854  35.980  1.00  0.00     0.005 C 
ATOM     22  C   UNL     1       0.845   6.763  36.264  1.00  0.00     0.003 C 
ATOM     23  C   UNL     1       1.570   4.279  36.123  1.00  0.00     0.010 C 
ATOM     24  C   UNL     1       0.410   5.063  38.202  1.00  0.00     0.012 C 
ATOM     25  C   UNL     1      -0.004   6.413  34.960  1.00  0.00    -0.006 C 
ATOM     26  C   UNL     1       0.286   3.875  35.364  1.00  0.00     0.033 C 
ATOM     27  C   UNL     1      -0.707   5.032  35.107  1.00  0.00     0.120 C 
ATOM     28  C   UNL     1       0.842   6.405  33.652  1.00  0.00     0.014 C 
ATOM     29  C   UNL     1      -1.108   7.489  34.756  1.00  0.00     0.014 C 
ENDROOT
BRANCH   1  30
ATOM     30  C   UNL     1       6.324  10.394  37.668  1.00  0.00     0.048 C 
ATOM     31  O   UNL     1       6.405  11.642  37.826  1.00  0.00    -0.550 OA
ATOM     32  O   UNL     1       5.736   9.908  36.505  1.00  0.00    -0.550 OA
ENDBRANCH   1  30
BRANCH  27  33
ATOM     33  O   UNL     1      -1.674   5.089  36.128  1.00  0.00    -0.393 OA
ATOM     34  H   UNL     1      -1.420   4.416  36.814  1.00  0.00     0.210 HD
ENDBRANCH  27  33
TORSDOF 2
ENDMDL
