MODEL 1
REMARK VINA RESULT:    -6.021      0.000      0.000
REMARK INTER + INTRA:          -7.670
REMARK INTER:                  -7.252
REMARK INTRA:                  -0.417
REMARK UNBOUND:                -0.417
REMARK SMILES O=c1c(O)c(-c2ccc(O)cc2O)oc2cc(O)cc(O)c12
REMARK SMILES IDX 5 1 3 2 2 3 1 4 22 5 20 6 19 7 17 8 16 9 15 10 14 11 6 12
REMARK SMILES IDX 8 13 7 14 9 15 11 16 12 17 10 18 13 20 4 22 21 24 18 26
REMARK H PARENT 10 19 13 21 4 23 21 25 18 27
REMARK Flexibility Score: inf
ROOT
ATOM      1  C   UNL     1       5.897  -2.593  -1.802  1.00  0.00     0.184 A 
ATOM      2  C   UNL     1       7.154  -2.216  -2.310  1.00  0.00     0.208 A 
ATOM      3  C   UNL     1       7.385  -2.319  -3.690  1.00  0.00     0.238 A 
ATOM      4  O   UNL     1       8.504  -1.973  -4.158  1.00  0.00    -0.285 OA
ATOM      5  C   UNL     1       6.367  -2.811  -4.532  1.00  0.00     0.111 A 
ATOM      6  C   UNL     1       6.519  -2.948  -5.932  1.00  0.00     0.134 A 
ATOM      7  C   UNL     1       5.461  -3.454  -6.701  1.00  0.00     0.093 A 
ATOM      8  C   UNL     1       4.255  -3.827  -6.097  1.00  0.00     0.123 A 
ATOM      9  C   UNL     1       4.100  -3.693  -4.716  1.00  0.00     0.094 A 
ATOM     10  C   UNL     1       5.142  -3.188  -3.933  1.00  0.00     0.146 A 
ATOM     11  O   UNL     1       4.964  -3.067  -2.622  1.00  0.00    -0.451 OA
ENDROOT
BRANCH   1  12
ATOM     12  C   UNL     1       5.583  -2.500  -0.361  1.00  0.00     0.063 A 
ATOM     13  C   UNL     1       5.051  -1.112   1.563  1.00  0.00     0.047 A 
ATOM     14  C   UNL     1       5.346  -1.236   0.203  1.00  0.00     0.020 A 
ATOM     15  C   UNL     1       5.003  -2.249   2.379  1.00  0.00     0.119 A 
ATOM     16  C   UNL     1       5.262  -3.508   1.831  1.00  0.00     0.093 A 
ATOM     17  C   UNL     1       5.564  -3.641   0.467  1.00  0.00     0.130 A 
BRANCH  15  18
ATOM     18  O   UNL     1       4.707  -2.138   3.736  1.00  0.00    -0.508 OA
ATOM     19  H   UNL     1       4.802  -2.928   4.364  1.00  0.00     0.293 HD
ENDBRANCH  15  18
BRANCH  17  20
ATOM     20  O   UNL     1       5.867  -4.898  -0.057  1.00  0.00    -0.507 OA
ATOM     21  H   UNL     1       5.141  -5.555  -0.317  1.00  0.00     0.293 HD
ENDBRANCH  17  20
ENDBRANCH   1  12
BRANCH   2  22
ATOM     22  O   UNL     1       8.157  -1.775  -1.443  1.00  0.00    -0.502 OA
ATOM     23  H   UNL     1       8.284  -2.166  -0.517  1.00  0.00     0.293 HD
ENDBRANCH   2  22
BRANCH   6  24
ATOM     24  O   UNL     1       7.711  -2.585  -6.564  1.00  0.00    -0.507 OA
ATOM     25  H   UNL     1       7.719  -2.164  -7.485  1.00  0.00     0.293 HD
ENDBRANCH   6  24
BRANCH   8  26
ATOM     26  O   UNL     1       3.205  -4.332  -6.860  1.00  0.00    -0.508 OA
ATOM     27  H   UNL     1       2.304  -4.542  -6.449  1.00  0.00     0.293 HD
ENDBRANCH   8  26
TORSDOF 6
ENDMDL
MODEL 2
REMARK VINA RESULT:    -5.876      0.861      1.531
REMARK INTER + INTRA:          -7.495
REMARK INTER:                  -7.096
REMARK INTRA:                  -0.399
REMARK UNBOUND:                -0.417
REMARK SMILES O=c1c(O)c(-c2ccc(O)cc2O)oc2cc(O)cc(O)c12
REMARK SMILES IDX 5 1 3 2 2 3 1 4 22 5 20 6 19 7 17 8 16 9 15 10 14 11 6 12
REMARK SMILES IDX 8 13 7 14 9 15 11 16 12 17 10 18 13 20 4 22 21 24 18 26
REMARK H PARENT 10 19 13 21 4 23 21 25 18 27
REMARK Flexibility Score: inf
ROOT
ATOM      1  C   UNL     1       5.908  -2.644  -2.198  1.00  0.00     0.184 A 
ATOM      2  C   UNL     1       7.162  -2.324  -2.749  1.00  0.00     0.208 A 
ATOM      3  C   UNL     1       7.359  -2.492  -4.128  1.00  0.00     0.238 A 
ATOM      4  O   UNL     1       8.475  -2.197  -4.635  1.00  0.00    -0.285 OA
ATOM      5  C   UNL     1       6.309  -2.994  -4.925  1.00  0.00     0.111 A 
ATOM      6  C   UNL     1       6.426  -3.196  -6.321  1.00  0.00     0.134 A 
ATOM      7  C   UNL     1       5.338  -3.708  -7.043  1.00  0.00     0.093 A 
ATOM      8  C   UNL     1       4.137  -4.022  -6.397  1.00  0.00     0.123 A 
ATOM      9  C   UNL     1       4.017  -3.824  -5.020  1.00  0.00     0.094 A 
ATOM     10  C   UNL     1       5.089  -3.313  -4.283  1.00  0.00     0.146 A 
ATOM     11  O   UNL     1       4.945  -3.130  -2.975  1.00  0.00    -0.451 OA
ENDROOT
BRANCH   1  12
ATOM     12  C   UNL     1       5.630  -2.480  -0.756  1.00  0.00     0.063 A 
ATOM     13  C   UNL     1       5.437  -3.485   1.450  1.00  0.00     0.047 A 
ATOM     14  C   UNL     1       5.699  -3.604   0.082  1.00  0.00     0.020 A 
ATOM     15  C   UNL     1       5.089  -2.243   1.993  1.00  0.00     0.119 A 
ATOM     16  C   UNL     1       4.994  -1.123   1.162  1.00  0.00     0.093 A 
ATOM     17  C   UNL     1       5.251  -1.235  -0.213  1.00  0.00     0.130 A 
BRANCH  15  18
ATOM     18  O   UNL     1       4.828  -2.111   3.355  1.00  0.00    -0.508 OA
ATOM     19  H   UNL     1       5.578  -2.081   4.037  1.00  0.00     0.293 HD
ENDBRANCH  15  18
BRANCH  17  20
ATOM     20  O   UNL     1       5.105  -0.120  -1.038  1.00  0.00    -0.507 OA
ATOM     21  H   UNL     1       5.803   0.123  -1.731  1.00  0.00     0.293 HD
ENDBRANCH  17  20
ENDBRANCH   1  12
BRANCH   2  22
ATOM     22  O   UNL     1       8.196  -1.871  -1.925  1.00  0.00    -0.502 OA
ATOM     23  H   UNL     1       9.002  -1.378  -2.289  1.00  0.00     0.293 HD
ENDBRANCH   2  22
BRANCH   6  24
ATOM     24  O   UNL     1       7.611  -2.893  -6.995  1.00  0.00    -0.507 OA
ATOM     25  H   UNL     1       8.182  -2.097  -6.737  1.00  0.00     0.293 HD
ENDBRANCH   6  24
BRANCH   8  26
ATOM     26  O   UNL     1       3.058  -4.532  -7.113  1.00  0.00    -0.508 OA
ATOM     27  H   UNL     1       2.554  -5.355  -6.801  1.00  0.00     0.293 HD
ENDBRANCH   8  26
TORSDOF 6
ENDMDL
MODEL 3
REMARK VINA RESULT:    -5.506      2.252      6.871
REMARK INTER + INTRA:          -7.050
REMARK INTER:                  -7.026
REMARK INTRA:                  -0.024
REMARK UNBOUND:                -0.417
REMARK SMILES O=c1c(O)c(-c2ccc(O)cc2O)oc2cc(O)cc(O)c12
REMARK SMILES IDX 5 1 3 2 2 3 1 4 22 5 20 6 19 7 17 8 16 9 15 10 14 11 6 12
REMARK SMILES IDX 8 13 7 14 9 15 11 16 12 17 10 18 13 20 4 22 21 24 18 26
REMARK H PARENT 10 19 13 21 4 23 21 25 18 27
REMARK Flexibility Score: inf
ROOT
ATOM      1  C   UNL     1       4.749  -3.686  -3.896  1.00  0.00     0.184 A 
ATOM      2  C   UNL     1       5.051  -4.537  -2.818  1.00  0.00     0.208 A 
ATOM      3  C   UNL     1       5.182  -3.985  -1.535  1.00  0.00     0.238 A 
ATOM      4  O   UNL     1       5.441  -4.741  -0.559  1.00  0.00    -0.285 OA
ATOM      5  C   UNL     1       5.030  -2.595  -1.356  1.00  0.00     0.111 A 
ATOM      6  C   UNL     1       5.150  -1.958  -0.098  1.00  0.00     0.134 A 
ATOM      7  C   UNL     1       4.993  -0.568  -0.003  1.00  0.00     0.093 A 
ATOM      8  C   UNL     1       4.720   0.198  -1.142  1.00  0.00     0.123 A 
ATOM      9  C   UNL     1       4.600  -0.425  -2.386  1.00  0.00     0.094 A 
ATOM     10  C   UNL     1       4.751  -1.810  -2.501  1.00  0.00     0.146 A 
ATOM     11  O   UNL     1       4.628  -2.377  -3.696  1.00  0.00    -0.451 OA
ENDROOT
BRANCH   1  12
ATOM     12  C   UNL     1       4.586  -4.202  -5.271  1.00  0.00     0.063 A 
ATOM     13  C   UNL     1       5.346  -5.697  -7.032  1.00  0.00     0.047 A 
ATOM     14  C   UNL     1       5.469  -5.190  -5.735  1.00  0.00     0.020 A 
ATOM     15  C   UNL     1       4.347  -5.212  -7.885  1.00  0.00     0.119 A 
ATOM     16  C   UNL     1       3.479  -4.212  -7.438  1.00  0.00     0.093 A 
ATOM     17  C   UNL     1       3.599  -3.694  -6.140  1.00  0.00     0.130 A 
BRANCH  15  18
ATOM     18  O   UNL     1       4.212  -5.713  -9.178  1.00  0.00    -0.508 OA
ATOM     19  H   UNL     1       4.069  -6.701  -9.350  1.00  0.00     0.293 HD
ENDBRANCH  15  18
BRANCH  17  20
ATOM     20  O   UNL     1       2.757  -2.662  -5.724  1.00  0.00    -0.507 OA
ATOM     21  H   UNL     1       1.972  -2.832  -5.107  1.00  0.00     0.293 HD
ENDBRANCH  17  20
ENDBRANCH   1  12
BRANCH   2  22
ATOM     22  O   UNL     1       5.241  -5.904  -3.036  1.00  0.00    -0.502 OA
ATOM     23  H   UNL     1       5.261  -6.576  -2.278  1.00  0.00     0.293 HD
ENDBRANCH   2  22
BRANCH   6  24
ATOM     24  O   UNL     1       5.422  -2.695   1.057  1.00  0.00    -0.507 OA
ATOM     25  H   UNL     1       5.523  -2.250   1.962  1.00  0.00     0.293 HD
ENDBRANCH   6  24
BRANCH   8  26
ATOM     26  O   UNL     1       4.566   1.579  -1.049  1.00  0.00    -0.508 OA
ATOM     27  H   UNL     1       5.059   2.122  -0.349  1.00  0.00     0.293 HD
ENDBRANCH   8  26
TORSDOF 6
ENDMDL
MODEL 4
REMARK VINA RESULT:    -5.403      2.599      6.407
REMARK INTER + INTRA:          -6.926
REMARK INTER:                  -6.575
REMARK INTRA:                  -0.351
REMARK UNBOUND:                -0.417
REMARK SMILES O=c1c(O)c(-c2ccc(O)cc2O)oc2cc(O)cc(O)c12
REMARK SMILES IDX 5 1 3 2 2 3 1 4 22 5 20 6 19 7 17 8 16 9 15 10 14 11 6 12
REMARK SMILES IDX 8 13 7 14 9 15 11 16 12 17 10 18 13 20 4 22 21 24 18 26
REMARK H PARENT 10 19 13 21 4 23 21 25 18 27
REMARK Flexibility Score: inf
ROOT
ATOM      1  C   UNL     1       6.158  -4.263  -2.110  1.00  0.00     0.184 A 
ATOM      2  C   UNL     1       6.189  -4.671  -0.764  1.00  0.00     0.208 A 
ATOM      3  C   UNL     1       5.840  -3.747   0.232  1.00  0.00     0.238 A 
ATOM      4  O   UNL     1       5.853  -4.105   1.441  1.00  0.00    -0.285 OA
ATOM      5  C   UNL     1       5.487  -2.432  -0.132  1.00  0.00     0.111 A 
ATOM      6  C   UNL     1       5.125  -1.439   0.810  1.00  0.00     0.134 A 
ATOM      7  C   UNL     1       4.794  -0.149   0.369  1.00  0.00     0.093 A 
ATOM      8  C   UNL     1       4.819   0.167  -0.994  1.00  0.00     0.123 A 
ATOM      9  C   UNL     1       5.175  -0.809  -1.927  1.00  0.00     0.094 A 
ATOM     10  C   UNL     1       5.506  -2.101  -1.508  1.00  0.00     0.146 A 
ATOM     11  O   UNL     1       5.836  -3.011  -2.417  1.00  0.00    -0.451 OA
ENDROOT
BRANCH   1  12
ATOM     12  C   UNL     1       6.503  -5.189  -3.210  1.00  0.00     0.063 A 
ATOM     13  C   UNL     1       8.166  -6.583  -4.306  1.00  0.00     0.047 A 
ATOM     14  C   UNL     1       7.804  -5.709  -3.277  1.00  0.00     0.020 A 
ATOM     15  C   UNL     1       7.233  -6.936  -5.289  1.00  0.00     0.119 A 
ATOM     16  C   UNL     1       5.941  -6.403  -5.243  1.00  0.00     0.093 A 
ATOM     17  C   UNL     1       5.573  -5.521  -4.215  1.00  0.00     0.130 A 
BRANCH  15  18
ATOM     18  O   UNL     1       7.580  -7.808  -6.318  1.00  0.00    -0.508 OA
ATOM     19  H   UNL     1       8.522  -7.837  -6.691  1.00  0.00     0.293 HD
ENDBRANCH  15  18
BRANCH  17  20
ATOM     20  O   UNL     1       4.296  -4.959  -4.209  1.00  0.00    -0.507 OA
ATOM     21  H   UNL     1       3.885  -4.581  -3.364  1.00  0.00     0.293 HD
ENDBRANCH  17  20
ENDBRANCH   1  12
BRANCH   2  22
ATOM     22  O   UNL     1       6.588  -5.969  -0.434  1.00  0.00    -0.502 OA
ATOM     23  H   UNL     1       5.963  -6.631   0.010  1.00  0.00     0.293 HD
ENDBRANCH   2  22
BRANCH   6  24
ATOM     24  O   UNL     1       5.091  -1.723   2.177  1.00  0.00    -0.507 OA
ATOM     25  H   UNL     1       4.593  -2.526   2.542  1.00  0.00     0.293 HD
ENDBRANCH   6  24
BRANCH   8  26
ATOM     26  O   UNL     1       4.493   1.448  -1.432  1.00  0.00    -0.508 OA
ATOM     27  H   UNL     1       4.378   2.218  -0.782  1.00  0.00     0.293 HD
ENDBRANCH   8  26
TORSDOF 6
ENDMDL
MODEL 5
REMARK VINA RESULT:    -5.382      1.549      3.300
REMARK INTER + INTRA:          -6.901
REMARK INTER:                  -6.491
REMARK INTRA:                  -0.410
REMARK UNBOUND:                -0.417
REMARK SMILES O=c1c(O)c(-c2ccc(O)cc2O)oc2cc(O)cc(O)c12
REMARK SMILES IDX 5 1 3 2 2 3 1 4 22 5 20 6 19 7 17 8 16 9 15 10 14 11 6 12
REMARK SMILES IDX 8 13 7 14 9 15 11 16 12 17 10 18 13 20 4 22 21 24 18 26
REMARK H PARENT 10 19 13 21 4 23 21 25 18 27
REMARK Flexibility Score: inf
ROOT
ATOM      1  C   UNL     1       5.526  -3.130  -2.633  1.00  0.00     0.184 A 
ATOM      2  C   UNL     1       4.496  -3.834  -3.283  1.00  0.00     0.208 A 
ATOM      3  C   UNL     1       4.659  -4.177  -4.634  1.00  0.00     0.238 A 
ATOM      4  O   UNL     1       3.748  -4.818  -5.225  1.00  0.00    -0.285 OA
ATOM      5  C   UNL     1       5.835  -3.796  -5.313  1.00  0.00     0.111 A 
ATOM      6  C   UNL     1       6.076  -4.100  -6.674  1.00  0.00     0.134 A 
ATOM      7  C   UNL     1       7.268  -3.678  -7.280  1.00  0.00     0.093 A 
ATOM      8  C   UNL     1       8.222  -2.958  -6.553  1.00  0.00     0.123 A 
ATOM      9  C   UNL     1       7.989  -2.656  -5.209  1.00  0.00     0.094 A 
ATOM     10  C   UNL     1       6.808  -3.069  -4.586  1.00  0.00     0.146 A 
ATOM     11  O   UNL     1       6.615  -2.773  -3.306  1.00  0.00    -0.451 OA
ENDROOT
BRANCH   1  12
ATOM     12  C   UNL     1       5.424  -2.747  -1.209  1.00  0.00     0.063 A 
ATOM     13  C   UNL     1       5.597  -3.385   1.131  1.00  0.00     0.047 A 
ATOM     14  C   UNL     1       5.689  -3.712  -0.225  1.00  0.00     0.020 A 
ATOM     15  C   UNL     1       5.226  -2.092   1.519  1.00  0.00     0.119 A 
ATOM     16  C   UNL     1       4.938  -1.132   0.545  1.00  0.00     0.093 A 
ATOM     17  C   UNL     1       5.023  -1.454  -0.818  1.00  0.00     0.130 A 
BRANCH  15  18
ATOM     18  O   UNL     1       5.135  -1.754   2.867  1.00  0.00    -0.508 OA
ATOM     19  H   UNL     1       5.519  -0.885   3.221  1.00  0.00     0.293 HD
ENDBRANCH  15  18
BRANCH  17  20
ATOM     20  O   UNL     1       4.685  -0.499  -1.778  1.00  0.00    -0.507 OA
ATOM     21  H   UNL     1       4.237   0.374  -1.525  1.00  0.00     0.293 HD
ENDBRANCH  17  20
ENDBRANCH   1  12
BRANCH   2  22
ATOM     22  O   UNL     1       3.324  -4.157  -2.595  1.00  0.00    -0.502 OA
ATOM     23  H   UNL     1       3.108  -5.104  -2.309  1.00  0.00     0.293 HD
ENDBRANCH   2  22
BRANCH   6  24
ATOM     24  O   UNL     1       5.144  -4.816  -7.426  1.00  0.00    -0.507 OA
ATOM     25  H   UNL     1       4.793  -5.718  -7.124  1.00  0.00     0.293 HD
ENDBRANCH   6  24
BRANCH   8  26
ATOM     26  O   UNL     1       9.405  -2.536  -7.155  1.00  0.00    -0.508 OA
ATOM     27  H   UNL     1       9.769  -1.601  -7.014  1.00  0.00     0.293 HD
ENDBRANCH   8  26
TORSDOF 6
ENDMDL
MODEL 6
REMARK VINA RESULT:    -5.085      2.035      6.935
REMARK INTER + INTRA:          -6.543
REMARK INTER:                  -6.145
REMARK INTRA:                  -0.399
REMARK UNBOUND:                -0.417
REMARK SMILES O=c1c(O)c(-c2ccc(O)cc2O)oc2cc(O)cc(O)c12
REMARK SMILES IDX 5 1 3 2 2 3 1 4 22 5 20 6 19 7 17 8 16 9 15 10 14 11 6 12
REMARK SMILES IDX 8 13 7 14 9 15 11 16 12 17 10 18 13 20 4 22 21 24 18 26
REMARK H PARENT 10 19 13 21 4 23 21 25 18 27
REMARK Flexibility Score: inf
ROOT
ATOM      1  C   UNL     1       5.053  -3.577  -4.400  1.00  0.00     0.184 A 
ATOM      2  C   UNL     1       5.481  -4.840  -3.952  1.00  0.00     0.208 A 
ATOM      3  C   UNL     1       5.689  -5.037  -2.578  1.00  0.00     0.238 A 
ATOM      4  O   UNL     1       6.061  -6.169  -2.164  1.00  0.00    -0.285 OA
ATOM      5  C   UNL     1       5.485  -3.968  -1.683  1.00  0.00     0.111 A 
ATOM      6  C   UNL     1       5.675  -4.082  -0.285  1.00  0.00     0.134 A 
ATOM      7  C   UNL     1       5.459  -2.968   0.540  1.00  0.00     0.093 A 
ATOM      8  C   UNL     1       5.059  -1.743  -0.006  1.00  0.00     0.123 A 
ATOM      9  C   UNL     1       4.870  -1.626  -1.385  1.00  0.00     0.094 A 
ATOM     10  C   UNL     1       5.077  -2.725  -2.223  1.00  0.00     0.146 A 
ATOM     11  O   UNL     1       4.885  -2.586  -3.530  1.00  0.00    -0.451 OA
ENDROOT
BRANCH   1  12
ATOM     12  C   UNL     1       4.805  -3.305  -5.831  1.00  0.00     0.063 A 
ATOM     13  C   UNL     1       5.675  -2.623  -7.997  1.00  0.00     0.047 A 
ATOM     14  C   UNL     1       5.875  -2.895  -6.640  1.00  0.00     0.020 A 
ATOM     15  C   UNL     1       4.397  -2.746  -8.556  1.00  0.00     0.119 A 
ATOM     16  C   UNL     1       3.321  -3.130  -7.752  1.00  0.00     0.093 A 
ATOM     17  C   UNL     1       3.513  -3.400  -6.388  1.00  0.00     0.130 A 
BRANCH  15  18
ATOM     18  O   UNL     1       4.185  -2.482  -9.908  1.00  0.00    -0.508 OA
ATOM     19  H   UNL     1       3.568  -3.058 -10.469  1.00  0.00     0.293 HD
ENDBRANCH  15  18
BRANCH  17  20
ATOM     20  O   UNL     1       2.422  -3.735  -5.587  1.00  0.00    -0.507 OA
ATOM     21  H   UNL     1       2.542  -4.145  -4.668  1.00  0.00     0.293 HD
ENDBRANCH  17  20
ENDBRANCH   1  12
BRANCH   2  22
ATOM     22  O   UNL     1       5.718  -5.867  -4.870  1.00  0.00    -0.502 OA
ATOM     23  H   UNL     1       5.374  -5.833  -5.822  1.00  0.00     0.293 HD
ENDBRANCH   2  22
BRANCH   6  24
ATOM     24  O   UNL     1       6.074  -5.290   0.290  1.00  0.00    -0.507 OA
ATOM     25  H   UNL     1       5.438  -6.073   0.381  1.00  0.00     0.293 HD
ENDBRANCH   6  24
BRANCH   8  26
ATOM     26  O   UNL     1       4.847  -0.636   0.812  1.00  0.00    -0.508 OA
ATOM     27  H   UNL     1       4.641  -0.738   1.799  1.00  0.00     0.293 HD
ENDBRANCH   8  26
TORSDOF 6
ENDMDL
MODEL 7
REMARK VINA RESULT:    -4.945      2.048      2.646
REMARK INTER + INTRA:          -6.374
REMARK INTER:                  -6.478
REMARK INTRA:                   0.103
REMARK UNBOUND:                -0.417
REMARK SMILES O=c1c(O)c(-c2ccc(O)cc2O)oc2cc(O)cc(O)c12
REMARK SMILES IDX 5 1 3 2 2 3 1 4 22 5 20 6 19 7 17 8 16 9 15 10 14 11 6 12
REMARK SMILES IDX 8 13 7 14 9 15 11 16 12 17 10 18 13 20 4 22 21 24 18 26
REMARK H PARENT 10 19 13 21 4 23 21 25 18 27
REMARK Flexibility Score: inf
ROOT
ATOM      1  C   UNL     1       5.102  -3.598  -2.184  1.00  0.00     0.184 A 
ATOM      2  C   UNL     1       5.730  -4.810  -2.526  1.00  0.00     0.208 A 
ATOM      3  C   UNL     1       5.641  -5.269  -3.849  1.00  0.00     0.238 A 
ATOM      4  O   UNL     1       6.209  -6.348  -4.170  1.00  0.00    -0.285 OA
ATOM      5  C   UNL     1       4.913  -4.522  -4.798  1.00  0.00     0.111 A 
ATOM      6  C   UNL     1       4.772  -4.916  -6.150  1.00  0.00     0.134 A 
ATOM      7  C   UNL     1       4.024  -4.122  -7.032  1.00  0.00     0.093 A 
ATOM      8  C   UNL     1       3.414  -2.944  -6.588  1.00  0.00     0.123 A 
ATOM      9  C   UNL     1       3.551  -2.550  -5.255  1.00  0.00     0.094 A 
ATOM     10  C   UNL     1       4.294  -3.327  -4.361  1.00  0.00     0.146 A 
ATOM     11  O   UNL     1       4.411  -2.927  -3.100  1.00  0.00    -0.451 OA
ENDROOT
BRANCH   1  12
ATOM     12  C   UNL     1       5.166  -3.051  -0.813  1.00  0.00     0.063 A 
ATOM     13  C   UNL     1       5.240  -3.457   1.583  1.00  0.00     0.047 A 
ATOM     14  C   UNL     1       5.185  -3.940   0.273  1.00  0.00     0.020 A 
ATOM     15  C   UNL     1       5.262  -2.078   1.824  1.00  0.00     0.119 A 
ATOM     16  C   UNL     1       5.219  -1.185   0.749  1.00  0.00     0.093 A 
ATOM     17  C   UNL     1       5.159  -1.663  -0.569  1.00  0.00     0.130 A 
BRANCH  15  18
ATOM     18  O   UNL     1       5.320  -1.584   3.125  1.00  0.00    -0.508 OA
ATOM     19  H   UNL     1       5.943  -1.987   3.816  1.00  0.00     0.293 HD
ENDBRANCH  15  18
BRANCH  17  20
ATOM     20  O   UNL     1       5.068  -0.761  -1.630  1.00  0.00    -0.507 OA
ATOM     21  H   UNL     1       5.725  -0.777  -2.400  1.00  0.00     0.293 HD
ENDBRANCH  17  20
ENDBRANCH   1  12
BRANCH   2  22
ATOM     22  O   UNL     1       6.405  -5.550  -1.552  1.00  0.00    -0.502 OA
ATOM     23  H   UNL     1       6.846  -5.115  -0.751  1.00  0.00     0.293 HD
ENDBRANCH   2  22
BRANCH   6  24
ATOM     24  O   UNL     1       5.368  -6.087  -6.623  1.00  0.00    -0.507 OA
ATOM     25  H   UNL     1       6.374  -6.207  -6.633  1.00  0.00     0.293 HD
ENDBRANCH   6  24
BRANCH   8  26
ATOM     26  O   UNL     1       2.670  -2.156  -7.462  1.00  0.00    -0.508 OA
ATOM     27  H   UNL     1       2.199  -1.315  -7.149  1.00  0.00     0.293 HD
ENDBRANCH   8  26
TORSDOF 6
ENDMDL
MODEL 8
REMARK VINA RESULT:    -4.931      2.177      6.697
REMARK INTER + INTRA:          -6.358
REMARK INTER:                  -5.949
REMARK INTRA:                  -0.409
REMARK UNBOUND:                -0.417
REMARK SMILES O=c1c(O)c(-c2ccc(O)cc2O)oc2cc(O)cc(O)c12
REMARK SMILES IDX 5 1 3 2 2 3 1 4 22 5 20 6 19 7 17 8 16 9 15 10 14 11 6 12
REMARK SMILES IDX 8 13 7 14 9 15 11 16 12 17 10 18 13 20 4 22 21 24 18 26
REMARK H PARENT 10 19 13 21 4 23 21 25 18 27
REMARK Flexibility Score: inf
ROOT
ATOM      1  C   UNL     1       6.139  -2.921  -5.259  1.00  0.00     0.184 A 
ATOM      2  C   UNL     1       7.534  -2.956  -5.080  1.00  0.00     0.208 A 
ATOM      3  C   UNL     1       8.071  -2.519  -3.860  1.00  0.00     0.238 A 
ATOM      4  O   UNL     1       9.319  -2.556  -3.684  1.00  0.00    -0.285 OA
ATOM      5  C   UNL     1       7.210  -2.039  -2.852  1.00  0.00     0.111 A 
ATOM      6  C   UNL     1       7.671  -1.578  -1.595  1.00  0.00     0.134 A 
ATOM      7  C   UNL     1       6.751  -1.108  -0.647  1.00  0.00     0.093 A 
ATOM      8  C   UNL     1       5.381  -1.089  -0.931  1.00  0.00     0.123 A 
ATOM      9  C   UNL     1       4.921  -1.543  -2.168  1.00  0.00     0.094 A 
ATOM     10  C   UNL     1       5.822  -2.018  -3.126  1.00  0.00     0.146 A 
ATOM     11  O   UNL     1       5.357  -2.448  -4.294  1.00  0.00    -0.451 OA
ENDROOT
BRANCH   1  12
ATOM     12  C   UNL     1       5.506  -3.377  -6.514  1.00  0.00     0.063 A 
ATOM     13  C   UNL     1       5.079  -3.005  -8.879  1.00  0.00     0.047 A 
ATOM     14  C   UNL     1       5.668  -2.606  -7.676  1.00  0.00     0.020 A 
ATOM     15  C   UNL     1       4.309  -4.173  -8.931  1.00  0.00     0.119 A 
ATOM     16  C   UNL     1       4.123  -4.934  -7.774  1.00  0.00     0.093 A 
ATOM     17  C   UNL     1       4.706  -4.537  -6.561  1.00  0.00     0.130 A 
BRANCH  15  18
ATOM     18  O   UNL     1       3.720  -4.582 -10.125  1.00  0.00    -0.508 OA
ATOM     19  H   UNL     1       2.731  -4.446 -10.301  1.00  0.00     0.293 HD
ENDBRANCH  15  18
BRANCH  17  20
ATOM     20  O   UNL     1       4.472  -5.280  -5.403  1.00  0.00    -0.507 OA
ATOM     21  H   UNL     1       4.734  -4.934  -4.487  1.00  0.00     0.293 HD
ENDBRANCH  17  20
ENDBRANCH   1  12
BRANCH   2  22
ATOM     22  O   UNL     1       8.363  -3.394  -6.116  1.00  0.00    -0.502 OA
ATOM     23  H   UNL     1       7.999  -3.837  -6.951  1.00  0.00     0.293 HD
ENDBRANCH   2  22
BRANCH   6  24
ATOM     24  O   UNL     1       9.031  -1.584  -1.282  1.00  0.00    -0.507 OA
ATOM     25  H   UNL     1       9.366  -1.357  -0.353  1.00  0.00     0.293 HD
ENDBRANCH   6  24
BRANCH   8  26
ATOM     26  O   UNL     1       4.467  -0.620   0.010  1.00  0.00    -0.508 OA
ATOM     27  H   UNL     1       4.458   0.351   0.303  1.00  0.00     0.293 HD
ENDBRANCH   8  26
TORSDOF 6
ENDMDL
MODEL 9
REMARK VINA RESULT:    -4.925      3.317      6.241
REMARK INTER + INTRA:          -6.350
REMARK INTER:                  -6.017
REMARK INTRA:                  -0.333
REMARK UNBOUND:                -0.417
REMARK SMILES O=c1c(O)c(-c2ccc(O)cc2O)oc2cc(O)cc(O)c12
REMARK SMILES IDX 5 1 3 2 2 3 1 4 22 5 20 6 19 7 17 8 16 9 15 10 14 11 6 12
REMARK SMILES IDX 8 13 7 14 9 15 11 16 12 17 10 18 13 20 4 22 21 24 18 26
REMARK H PARENT 10 19 13 21 4 23 21 25 18 27
REMARK Flexibility Score: inf
ROOT
ATOM      1  C   UNL     1       6.731  -4.737  -1.796  1.00  0.00     0.184 A 
ATOM      2  C   UNL     1       6.571  -3.695  -2.727  1.00  0.00     0.208 A 
ATOM      3  C   UNL     1       6.104  -2.450  -2.278  1.00  0.00     0.238 A 
ATOM      4  O   UNL     1       5.968  -1.506  -3.103  1.00  0.00    -0.285 OA
ATOM      5  C   UNL     1       5.787  -2.276  -0.915  1.00  0.00     0.111 A 
ATOM      6  C   UNL     1       5.308  -1.056  -0.382  1.00  0.00     0.134 A 
ATOM      7  C   UNL     1       5.007  -0.964   0.985  1.00  0.00     0.093 A 
ATOM      8  C   UNL     1       5.175  -2.069   1.827  1.00  0.00     0.123 A 
ATOM      9  C   UNL     1       5.648  -3.275   1.306  1.00  0.00     0.094 A 
ATOM     10  C   UNL     1       5.955  -3.385  -0.053  1.00  0.00     0.146 A 
ATOM     11  O   UNL     1       6.408  -4.543  -0.521  1.00  0.00    -0.451 OA
ENDROOT
BRANCH   1  12
ATOM     12  C   UNL     1       7.229  -6.068  -2.199  1.00  0.00     0.063 A 
ATOM     13  C   UNL     1       9.042  -7.688  -2.221  1.00  0.00     0.047 A 
ATOM     14  C   UNL     1       8.537  -6.438  -1.851  1.00  0.00     0.020 A 
ATOM     15  C   UNL     1       8.249  -8.577  -2.955  1.00  0.00     0.119 A 
ATOM     16  C   UNL     1       6.953  -8.207  -3.327  1.00  0.00     0.093 A 
ATOM     17  C   UNL     1       6.441  -6.952  -2.964  1.00  0.00     0.130 A 
BRANCH  15  18
ATOM     18  O   UNL     1       8.740  -9.827  -3.327  1.00  0.00    -0.508 OA
ATOM     19  H   UNL     1       8.127 -10.629  -3.423  1.00  0.00     0.293 HD
ENDBRANCH  15  18
BRANCH  17  20
ATOM     20  O   UNL     1       5.164  -6.577  -3.383  1.00  0.00    -0.507 OA
ATOM     21  H   UNL     1       4.753  -6.947  -4.232  1.00  0.00     0.293 HD
ENDBRANCH  17  20
ENDBRANCH   1  12
BRANCH   2  22
ATOM     22  O   UNL     1       6.850  -3.913  -4.079  1.00  0.00    -0.502 OA
ATOM     23  H   UNL     1       6.120  -4.022  -4.772  1.00  0.00     0.293 HD
ENDBRANCH   2  22
BRANCH   6  24
ATOM     24  O   UNL     1       5.129   0.064  -1.197  1.00  0.00    -0.507 OA
ATOM     25  H   UNL     1       5.219   0.010  -2.205  1.00  0.00     0.293 HD
ENDBRANCH   6  24
BRANCH   8  26
ATOM     26  O   UNL     1       4.874  -1.979   3.184  1.00  0.00    -0.508 OA
ATOM     27  H   UNL     1       4.617  -1.098   3.613  1.00  0.00     0.293 HD
ENDBRANCH   8  26
TORSDOF 6
ENDMDL
