MODEL 1
REMARK VINA RESULT:    -3.169      0.000      0.000
REMARK INTER + INTRA:         -11.397
REMARK INTER:                  -7.245
REMARK INTRA:                  -4.151
REMARK UNBOUND:                -4.151
REMARK SMILES CCCCCCCCCCCCCCCCCCCCCCCC(=O)[O-]
REMARK SMILES IDX 13 1 14 2 15 3 16 4 17 5 18 6 19 7 20 8 21 9 22 10 23 11
REMARK SMILES IDX 24 12 25 13 26 14 12 15 11 16 10 17 9 18 8 19 7 20 6 21 5 22
REMARK SMILES IDX 4 23 3 24 2 25 1 26
REMARK H PARENT
REMARK Flexibility Score: inf
ROOT
ATOM      1  C   UNL     1      42.706  35.223  49.637  1.00  0.00     0.000 C 
ENDROOT
BRANCH   1   2
ATOM      2  C   UNL     1      41.730  34.565  48.647  1.00  0.00     0.000 C 
BRANCH   2   3
ATOM      3  C   UNL     1      40.848  35.585  47.903  1.00  0.00     0.000 C 
BRANCH   3   4
ATOM      4  C   UNL     1      40.786  35.411  46.374  1.00  0.00     0.000 C 
BRANCH   4   5
ATOM      5  C   UNL     1      41.205  34.008  45.911  1.00  0.00     0.000 C 
BRANCH   5   6
ATOM      6  C   UNL     1      42.443  34.072  45.009  1.00  0.00     0.000 C 
BRANCH   6   7
ATOM      7  C   UNL     1      43.646  33.394  45.676  1.00  0.00     0.000 C 
BRANCH   7   8
ATOM      8  C   UNL     1      44.680  34.430  46.136  1.00  0.00     0.000 C 
BRANCH   8   9
ATOM      9  C   UNL     1      44.351  35.856  45.663  1.00  0.00     0.000 C 
BRANCH   9  10
ATOM     10  C   UNL     1      44.389  36.906  46.793  1.00  0.00     0.006 C 
BRANCH  10  11
ATOM     11  C   UNL     1      45.573  36.691  47.746  1.00  0.00     0.053 C 
BRANCH  11  12
ATOM     12  C   UNL     1      45.627  37.781  48.769  1.00  0.00     0.041 C 
ATOM     13  O   UNL     1      46.738  38.234  49.152  1.00  0.00    -0.550 OA
ATOM     14  O   UNL     1      44.454  38.261  49.336  1.00  0.00    -0.550 OA
ENDBRANCH  11  12
ENDBRANCH  10  11
ENDBRANCH   9  10
ENDBRANCH   8   9
ENDBRANCH   7   8
ENDBRANCH   6   7
ENDBRANCH   5   6
ENDBRANCH   4   5
ENDBRANCH   3   4
ENDBRANCH   2   3
ENDBRANCH   1   2
BRANCH   1  15
ATOM     15  C   UNL     1      43.909  34.326  49.980  1.00  0.00     0.000 C 
BRANCH  15  16
ATOM     16  C   UNL     1      43.862  32.909  49.379  1.00  0.00     0.000 C 
BRANCH  16  17
ATOM     17  C   UNL     1      45.197  32.158  49.514  1.00  0.00     0.000 C 
BRANCH  17  18
ATOM     18  C   UNL     1      46.388  32.977  48.990  1.00  0.00    -0.000 C 
BRANCH  18  19
ATOM     19  C   UNL     1      47.711  32.596  49.676  1.00  0.00    -0.000 C 
BRANCH  19  20
ATOM     20  C   UNL     1      47.709  31.151  50.197  1.00  0.00    -0.000 C 
BRANCH  20  21
ATOM     21  C   UNL     1      48.393  30.173  49.225  1.00  0.00    -0.000 C 
BRANCH  21  22
ATOM     22  C   UNL     1      47.442  29.073  48.727  1.00  0.00    -0.000 C 
BRANCH  22  23
ATOM     23  C   UNL     1      46.898  29.358  47.316  1.00  0.00    -0.000 C 
BRANCH  23  24
ATOM     24  C   UNL     1      45.355  29.396  47.284  1.00  0.00    -0.000 C 
BRANCH  24  25
ATOM     25  C   UNL     1      44.698  28.640  48.450  1.00  0.00    -0.003 C 
ATOM     26  C   UNL     1      44.274  27.220  48.081  1.00  0.00     0.004 C 
ENDBRANCH  24  25
ENDBRANCH  23  24
ENDBRANCH  22  23
ENDBRANCH  21  22
ENDBRANCH  20  21
ENDBRANCH  19  20
ENDBRANCH  18  19
ENDBRANCH  17  18
ENDBRANCH  16  17
ENDBRANCH  15  16
ENDBRANCH   1  15
TORSDOF 22
ENDMDL
MODEL 2
REMARK VINA RESULT:    -3.166      2.163      4.636
REMARK INTER + INTRA:         -11.389
REMARK INTER:                  -7.795
REMARK INTRA:                  -3.594
REMARK UNBOUND:                -4.151
REMARK SMILES CCCCCCCCCCCCCCCCCCCCCCCC(=O)[O-]
REMARK SMILES IDX 13 1 14 2 15 3 16 4 17 5 18 6 19 7 20 8 21 9 22 10 23 11
REMARK SMILES IDX 24 12 25 13 26 14 12 15 11 16 10 17 9 18 8 19 7 20 6 21 5 22
REMARK SMILES IDX 4 23 3 24 2 25 1 26
REMARK H PARENT
REMARK Flexibility Score: inf
ROOT
ATOM      1  C   UNL     1      42.546  34.232  45.387  1.00  0.00     0.000 C 
ENDROOT
BRANCH   1   2
ATOM      2  C   UNL     1      43.756  33.356  45.753  1.00  0.00     0.000 C 
BRANCH   2   3
ATOM      3  C   UNL     1      45.017  34.178  46.077  1.00  0.00     0.000 C 
BRANCH   3   4
ATOM      4  C   UNL     1      44.926  35.680  45.750  1.00  0.00     0.000 C 
BRANCH   4   5
ATOM      5  C   UNL     1      44.864  36.566  47.003  1.00  0.00     0.000 C 
BRANCH   5   6
ATOM      6  C   UNL     1      43.728  37.590  46.898  1.00  0.00     0.000 C 
BRANCH   6   7
ATOM      7  C   UNL     1      43.613  38.419  48.183  1.00  0.00     0.000 C 
BRANCH   7   8
ATOM      8  C   UNL     1      44.700  38.027  49.193  1.00  0.00     0.000 C 
BRANCH   8   9
ATOM      9  C   UNL     1      44.672  38.887  50.467  1.00  0.00     0.000 C 
BRANCH   9  10
ATOM     10  C   UNL     1      44.292  38.099  51.737  1.00  0.00     0.006 C 
BRANCH  10  11
ATOM     11  C   UNL     1      44.423  38.948  53.009  1.00  0.00     0.053 C 
BRANCH  11  12
ATOM     12  C   UNL     1      44.294  40.402  52.684  1.00  0.00     0.041 C 
ATOM     13  O   UNL     1      43.162  40.901  52.450  1.00  0.00    -0.550 OA
ATOM     14  O   UNL     1      45.430  41.196  52.591  1.00  0.00    -0.550 OA
ENDBRANCH  11  12
ENDBRANCH  10  11
ENDBRANCH   9  10
ENDBRANCH   8   9
ENDBRANCH   7   8
ENDBRANCH   6   7
ENDBRANCH   5   6
ENDBRANCH   4   5
ENDBRANCH   3   4
ENDBRANCH   2   3
ENDBRANCH   1   2
BRANCH   1  15
ATOM     15  C   UNL     1      41.341  34.011  46.320  1.00  0.00     0.000 C 
BRANCH  15  16
ATOM     16  C   UNL     1      40.646  35.295  46.807  1.00  0.00     0.000 C 
BRANCH  16  17
ATOM     17  C   UNL     1      40.980  35.639  48.269  1.00  0.00     0.000 C 
BRANCH  17  18
ATOM     18  C   UNL     1      41.787  34.530  48.963  1.00  0.00    -0.000 C 
BRANCH  18  19
ATOM     19  C   UNL     1      42.861  35.090  49.912  1.00  0.00    -0.000 C 
BRANCH  19  20
ATOM     20  C   UNL     1      44.175  34.296  49.846  1.00  0.00    -0.000 C 
BRANCH  20  21
ATOM     21  C   UNL     1      43.963  32.843  49.386  1.00  0.00    -0.000 C 
BRANCH  21  22
ATOM     22  C   UNL     1      45.285  32.081  49.209  1.00  0.00    -0.000 C 
BRANCH  22  23
ATOM     23  C   UNL     1      45.160  30.902  48.228  1.00  0.00    -0.000 C 
BRANCH  23  24
ATOM     24  C   UNL     1      45.466  29.547  48.903  1.00  0.00    -0.000 C 
BRANCH  24  25
ATOM     25  C   UNL     1      45.913  29.679  50.368  1.00  0.00    -0.003 C 
ATOM     26  C   UNL     1      47.357  29.238  50.596  1.00  0.00     0.004 C 
ENDBRANCH  24  25
ENDBRANCH  23  24
ENDBRANCH  22  23
ENDBRANCH  21  22
ENDBRANCH  20  21
ENDBRANCH  19  20
ENDBRANCH  18  19
ENDBRANCH  17  18
ENDBRANCH  16  17
ENDBRANCH  15  16
ENDBRANCH   1  15
TORSDOF 22
ENDMDL
MODEL 3
REMARK VINA RESULT:    -3.163      1.280      2.696
REMARK INTER + INTRA:         -11.382
REMARK INTER:                  -6.800
REMARK INTRA:                  -4.582
REMARK UNBOUND:                -4.151
REMARK SMILES CCCCCCCCCCCCCCCCCCCCCCCC(=O)[O-]
REMARK SMILES IDX 13 1 14 2 15 3 16 4 17 5 18 6 19 7 20 8 21 9 22 10 23 11
REMARK SMILES IDX 24 12 25 13 26 14 12 15 11 16 10 17 9 18 8 19 7 20 6 21 5 22
REMARK SMILES IDX 4 23 3 24 2 25 1 26
REMARK H PARENT
REMARK Flexibility Score: inf
ROOT
ATOM      1  C   UNL     1      44.447  34.566  49.605  1.00  0.00     0.000 C 
ENDROOT
BRANCH   1   2
ATOM      2  C   UNL     1      43.411  35.672  49.872  1.00  0.00     0.000 C 
BRANCH   2   3
ATOM      3  C   UNL     1      42.013  35.331  49.326  1.00  0.00     0.000 C 
BRANCH   3   4
ATOM      4  C   UNL     1      41.753  35.759  47.869  1.00  0.00     0.000 C 
BRANCH   4   5
ATOM      5  C   UNL     1      40.816  34.801  47.119  1.00  0.00     0.000 C 
BRANCH   5   6
ATOM      6  C   UNL     1      41.523  34.167  45.916  1.00  0.00     0.000 C 
BRANCH   6   7
ATOM      7  C   UNL     1      42.928  33.684  46.296  1.00  0.00     0.000 C 
BRANCH   7   8
ATOM      8  C   UNL     1      43.818  33.539  45.055  1.00  0.00     0.000 C 
BRANCH   8   9
ATOM      9  C   UNL     1      44.791  34.716  44.875  1.00  0.00     0.000 C 
BRANCH   9  10
ATOM     10  C   UNL     1      45.028  35.526  46.167  1.00  0.00     0.006 C 
BRANCH  10  11
ATOM     11  C   UNL     1      46.502  35.521  46.593  1.00  0.00     0.053 C 
BRANCH  11  12
ATOM     12  C   UNL     1      46.830  36.761  47.364  1.00  0.00     0.041 C 
ATOM     13  O   UNL     1      47.122  36.688  48.587  1.00  0.00    -0.550 OA
ATOM     14  O   UNL     1      46.763  38.002  46.744  1.00  0.00    -0.550 OA
ENDBRANCH  11  12
ENDBRANCH  10  11
ENDBRANCH   9  10
ENDBRANCH   8   9
ENDBRANCH   7   8
ENDBRANCH   6   7
ENDBRANCH   5   6
ENDBRANCH   4   5
ENDBRANCH   3   4
ENDBRANCH   2   3
ENDBRANCH   1   2
BRANCH   1  15
ATOM     15  C   UNL     1      43.877  33.149  49.807  1.00  0.00     0.000 C 
BRANCH  15  16
ATOM     16  C   UNL     1      44.691  32.017  49.155  1.00  0.00     0.000 C 
BRANCH  16  17
ATOM     17  C   UNL     1      46.055  32.491  48.624  1.00  0.00     0.000 C 
BRANCH  17  18
ATOM     18  C   UNL     1      46.466  31.766  47.332  1.00  0.00    -0.000 C 
BRANCH  18  19
ATOM     19  C   UNL     1      45.410  30.748  46.867  1.00  0.00    -0.000 C 
BRANCH  19  20
ATOM     20  C   UNL     1      45.854  29.294  47.093  1.00  0.00    -0.000 C 
BRANCH  20  21
ATOM     21  C   UNL     1      44.778  28.453  47.802  1.00  0.00    -0.000 C 
BRANCH  21  22
ATOM     22  C   UNL     1      45.054  28.286  49.305  1.00  0.00    -0.000 C 
BRANCH  22  23
ATOM     23  C   UNL     1      46.542  28.458  49.654  1.00  0.00    -0.000 C 
BRANCH  23  24
ATOM     24  C   UNL     1      46.749  29.347  50.900  1.00  0.00    -0.000 C 
BRANCH  24  25
ATOM     25  C   UNL     1      47.945  30.306  50.777  1.00  0.00    -0.003 C 
ATOM     26  C   UNL     1      48.865  29.969  49.606  1.00  0.00     0.004 C 
ENDBRANCH  24  25
ENDBRANCH  23  24
ENDBRANCH  22  23
ENDBRANCH  21  22
ENDBRANCH  20  21
ENDBRANCH  19  20
ENDBRANCH  18  19
ENDBRANCH  17  18
ENDBRANCH  16  17
ENDBRANCH  15  16
ENDBRANCH   1  15
TORSDOF 22
ENDMDL
MODEL 4
REMARK VINA RESULT:    -3.126      1.412      3.039
REMARK INTER + INTRA:         -11.299
REMARK INTER:                  -7.114
REMARK INTRA:                  -4.185
REMARK UNBOUND:                -4.151
REMARK SMILES CCCCCCCCCCCCCCCCCCCCCCCC(=O)[O-]
REMARK SMILES IDX 13 1 14 2 15 3 16 4 17 5 18 6 19 7 20 8 21 9 22 10 23 11
REMARK SMILES IDX 24 12 25 13 26 14 12 15 11 16 10 17 9 18 8 19 7 20 6 21 5 22
REMARK SMILES IDX 4 23 3 24 2 25 1 26
REMARK H PARENT
REMARK Flexibility Score: inf
ROOT
ATOM      1  C   UNL     1      41.329  34.779  48.657  1.00  0.00     0.000 C 
ENDROOT
BRANCH   1   2
ATOM      2  C   UNL     1      41.048  35.901  47.643  1.00  0.00     0.000 C 
BRANCH   2   3
ATOM      3  C   UNL     1      41.407  35.510  46.198  1.00  0.00     0.000 C 
BRANCH   3   4
ATOM      4  C   UNL     1      41.691  34.012  45.973  1.00  0.00     0.000 C 
BRANCH   4   5
ATOM      5  C   UNL     1      43.149  33.728  45.582  1.00  0.00     0.000 C 
BRANCH   5   6
ATOM      6  C   UNL     1      43.973  35.021  45.554  1.00  0.00     0.000 C 
BRANCH   6   7
ATOM      7  C   UNL     1      45.332  34.821  46.234  1.00  0.00     0.000 C 
BRANCH   7   8
ATOM      8  C   UNL     1      45.539  35.836  47.367  1.00  0.00     0.000 C 
BRANCH   8   9
ATOM      9  C   UNL     1      44.633  37.072  47.236  1.00  0.00     0.000 C 
BRANCH   9  10
ATOM     10  C   UNL     1      44.315  37.750  48.585  1.00  0.00     0.006 C 
BRANCH  10  11
ATOM     11  C   UNL     1      43.670  39.130  48.403  1.00  0.00     0.053 C 
BRANCH  11  12
ATOM     12  C   UNL     1      44.286  40.124  49.337  1.00  0.00     0.041 C 
ATOM     13  O   UNL     1      45.297  40.785  48.981  1.00  0.00    -0.550 OA
ATOM     14  O   UNL     1      43.773  40.285  50.617  1.00  0.00    -0.550 OA
ENDBRANCH  11  12
ENDBRANCH  10  11
ENDBRANCH   9  10
ENDBRANCH   8   9
ENDBRANCH   7   8
ENDBRANCH   6   7
ENDBRANCH   5   6
ENDBRANCH   4   5
ENDBRANCH   3   4
ENDBRANCH   2   3
ENDBRANCH   1   2
BRANCH   1  15
ATOM     15  C   UNL     1      42.231  35.232  49.819  1.00  0.00     0.000 C 
BRANCH  15  16
ATOM     16  C   UNL     1      43.419  34.303  50.127  1.00  0.00     0.000 C 
BRANCH  16  17
ATOM     17  C   UNL     1      43.636  33.232  49.044  1.00  0.00     0.000 C 
BRANCH  17  18
ATOM     18  C   UNL     1      44.659  32.166  49.469  1.00  0.00    -0.000 C 
BRANCH  18  19
ATOM     19  C   UNL     1      45.087  31.262  48.300  1.00  0.00    -0.000 C 
BRANCH  19  20
ATOM     20  C   UNL     1      45.483  29.851  48.762  1.00  0.00    -0.000 C 
BRANCH  20  21
ATOM     21  C   UNL     1      45.806  29.793  50.266  1.00  0.00    -0.000 C 
BRANCH  21  22
ATOM     22  C   UNL     1      47.301  29.566  50.540  1.00  0.00    -0.000 C 
BRANCH  22  23
ATOM     23  C   UNL     1      48.020  30.850  50.989  1.00  0.00    -0.000 C 
BRANCH  23  24
ATOM     24  C   UNL     1      49.127  31.274  49.999  1.00  0.00    -0.000 C 
BRANCH  24  25
ATOM     25  C   UNL     1      48.630  32.214  48.889  1.00  0.00    -0.003 C 
ATOM     26  C   UNL     1      47.993  33.494  49.427  1.00  0.00     0.004 C 
ENDBRANCH  24  25
ENDBRANCH  23  24
ENDBRANCH  22  23
ENDBRANCH  21  22
ENDBRANCH  20  21
ENDBRANCH  19  20
ENDBRANCH  18  19
ENDBRANCH  17  18
ENDBRANCH  16  17
ENDBRANCH  15  16
ENDBRANCH   1  15
TORSDOF 22
ENDMDL
MODEL 5
REMARK VINA RESULT:    -3.124      2.147      4.204
REMARK INTER + INTRA:         -11.294
REMARK INTER:                  -7.841
REMARK INTRA:                  -3.453
REMARK UNBOUND:                -4.151
REMARK SMILES CCCCCCCCCCCCCCCCCCCCCCCC(=O)[O-]
REMARK SMILES IDX 13 1 14 2 15 3 16 4 17 5 18 6 19 7 20 8 21 9 22 10 23 11
REMARK SMILES IDX 24 12 25 13 26 14 12 15 11 16 10 17 9 18 8 19 7 20 6 21 5 22
REMARK SMILES IDX 4 23 3 24 2 25 1 26
REMARK H PARENT
REMARK Flexibility Score: inf
ROOT
ATOM      1  C   UNL     1      40.858  35.398  47.172  1.00  0.00     0.000 C 
ENDROOT
BRANCH   1   2
ATOM      2  C   UNL     1      41.173  35.246  48.670  1.00  0.00     0.000 C 
BRANCH   2   3
ATOM      3  C   UNL     1      42.354  34.297  48.942  1.00  0.00     0.000 C 
BRANCH   3   4
ATOM      4  C   UNL     1      43.124  34.563  50.249  1.00  0.00     0.000 C 
BRANCH   4   5
ATOM      5  C   UNL     1      44.046  35.788  50.166  1.00  0.00     0.000 C 
BRANCH   5   6
ATOM      6  C   UNL     1      44.912  35.741  48.902  1.00  0.00     0.000 C 
BRANCH   6   7
ATOM      7  C   UNL     1      44.717  37.004  48.054  1.00  0.00     0.000 C 
BRANCH   7   8
ATOM      8  C   UNL     1      43.978  38.092  48.844  1.00  0.00     0.000 C 
BRANCH   8   9
ATOM      9  C   UNL     1      44.931  39.085  49.531  1.00  0.00     0.000 C 
BRANCH   9  10
ATOM     10  C   UNL     1      44.310  39.793  50.753  1.00  0.00     0.006 C 
BRANCH  10  11
ATOM     11  C   UNL     1      44.510  38.996  52.049  1.00  0.00     0.053 C 
BRANCH  11  12
ATOM     12  C   UNL     1      45.414  39.734  52.985  1.00  0.00     0.041 C 
ATOM     13  O   UNL     1      46.664  39.631  52.870  1.00  0.00    -0.550 OA
ATOM     14  O   UNL     1      44.877  40.495  54.014  1.00  0.00    -0.550 OA
ENDBRANCH  11  12
ENDBRANCH  10  11
ENDBRANCH   9  10
ENDBRANCH   8   9
ENDBRANCH   7   8
ENDBRANCH   6   7
ENDBRANCH   5   6
ENDBRANCH   4   5
ENDBRANCH   3   4
ENDBRANCH   2   3
ENDBRANCH   1   2
BRANCH   1  15
ATOM     15  C   UNL     1      41.356  34.209  46.330  1.00  0.00     0.000 C 
BRANCH  15  16
ATOM     16  C   UNL     1      42.353  34.570  45.214  1.00  0.00     0.000 C 
BRANCH  16  17
ATOM     17  C   UNL     1      43.816  34.303  45.610  1.00  0.00     0.000 C 
BRANCH  17  18
ATOM     18  C   UNL     1      44.068  32.829  45.966  1.00  0.00    -0.000 C 
BRANCH  18  19
ATOM     19  C   UNL     1      45.226  32.655  46.964  1.00  0.00    -0.000 C 
BRANCH  19  20
ATOM     20  C   UNL     1      44.959  31.538  47.986  1.00  0.00    -0.000 C 
BRANCH  20  21
ATOM     21  C   UNL     1      45.396  31.926  49.410  1.00  0.00    -0.000 C 
BRANCH  21  22
ATOM     22  C   UNL     1      46.809  32.526  49.451  1.00  0.00    -0.000 C 
BRANCH  22  23
ATOM     23  C   UNL     1      47.803  31.645  50.227  1.00  0.00    -0.000 C 
BRANCH  23  24
ATOM     24  C   UNL     1      48.167  30.358  49.455  1.00  0.00    -0.000 C 
BRANCH  24  25
ATOM     25  C   UNL     1      48.021  29.077  50.293  1.00  0.00    -0.003 C 
ATOM     26  C   UNL     1      46.665  28.965  50.985  1.00  0.00     0.004 C 
ENDBRANCH  24  25
ENDBRANCH  23  24
ENDBRANCH  22  23
ENDBRANCH  21  22
ENDBRANCH  20  21
ENDBRANCH  19  20
ENDBRANCH  18  19
ENDBRANCH  17  18
ENDBRANCH  16  17
ENDBRANCH  15  16
ENDBRANCH   1  15
TORSDOF 22
ENDMDL
MODEL 6
REMARK VINA RESULT:    -3.087      1.317      3.310
REMARK INTER + INTRA:         -11.208
REMARK INTER:                  -6.798
REMARK INTRA:                  -4.409
REMARK UNBOUND:                -4.151
REMARK SMILES CCCCCCCCCCCCCCCCCCCCCCCC(=O)[O-]
REMARK SMILES IDX 13 1 14 2 15 3 16 4 17 5 18 6 19 7 20 8 21 9 22 10 23 11
REMARK SMILES IDX 24 12 25 13 26 14 12 15 11 16 10 17 9 18 8 19 7 20 6 21 5 22
REMARK SMILES IDX 4 23 3 24 2 25 1 26
REMARK H PARENT
REMARK Flexibility Score: inf
ROOT
ATOM      1  C   UNL     1      45.339  33.430  49.031  1.00  0.00     0.000 C 
ENDROOT
BRANCH   1   2
ATOM      2  C   UNL     1      43.851  33.284  49.394  1.00  0.00     0.000 C 
BRANCH   2   3
ATOM      3  C   UNL     1      43.255  34.563  50.010  1.00  0.00     0.000 C 
BRANCH   3   4
ATOM      4  C   UNL     1      42.079  35.183  49.231  1.00  0.00     0.000 C 
BRANCH   4   5
ATOM      5  C   UNL     1      41.399  34.189  48.278  1.00  0.00     0.000 C 
BRANCH   5   6
ATOM      6  C   UNL     1      41.322  34.755  46.855  1.00  0.00     0.000 C 
BRANCH   6   7
ATOM      7  C   UNL     1      40.873  36.221  46.870  1.00  0.00     0.000 C 
BRANCH   7   8
ATOM      8  C   UNL     1      41.830  37.101  46.054  1.00  0.00     0.000 C 
BRANCH   8   9
ATOM      9  C   UNL     1      43.245  36.510  45.950  1.00  0.00     0.000 C 
BRANCH   9  10
ATOM     10  C   UNL     1      44.354  37.474  46.420  1.00  0.00     0.006 C 
BRANCH  10  11
ATOM     11  C   UNL     1      44.862  37.133  47.828  1.00  0.00     0.053 C 
BRANCH  11  12
ATOM     12  C   UNL     1      44.299  38.087  48.834  1.00  0.00     0.041 C 
ATOM     13  O   UNL     1      43.575  39.047  48.461  1.00  0.00    -0.550 OA
ATOM     14  O   UNL     1      44.616  37.944  50.178  1.00  0.00    -0.550 OA
ENDBRANCH  11  12
ENDBRANCH  10  11
ENDBRANCH   9  10
ENDBRANCH   8   9
ENDBRANCH   7   8
ENDBRANCH   6   7
ENDBRANCH   5   6
ENDBRANCH   4   5
ENDBRANCH   3   4
ENDBRANCH   2   3
ENDBRANCH   1   2
BRANCH   1  15
ATOM     15  C   UNL     1      45.580  33.525  47.513  1.00  0.00     0.000 C 
BRANCH  15  16
ATOM     16  C   UNL     1      44.486  32.891  46.635  1.00  0.00     0.000 C 
BRANCH  16  17
ATOM     17  C   UNL     1      44.978  31.653  45.867  1.00  0.00     0.000 C 
BRANCH  17  18
ATOM     18  C   UNL     1      46.264  31.062  46.467  1.00  0.00    -0.000 C 
BRANCH  18  19
ATOM     19  C   UNL     1      46.265  29.524  46.456  1.00  0.00    -0.000 C 
BRANCH  19  20
ATOM     20  C   UNL     1      46.289  28.926  47.871  1.00  0.00    -0.000 C 
BRANCH  20  21
ATOM     21  C   UNL     1      45.134  29.441  48.748  1.00  0.00    -0.000 C 
BRANCH  21  22
ATOM     22  C   UNL     1      45.603  29.887  50.142  1.00  0.00    -0.000 C 
BRANCH  22  23
ATOM     23  C   UNL     1      47.063  29.494  50.426  1.00  0.00    -0.000 C 
BRANCH  23  24
ATOM     24  C   UNL     1      47.922  30.707  50.844  1.00  0.00    -0.000 C 
BRANCH  24  25
ATOM     25  C   UNL     1      48.303  31.623  49.669  1.00  0.00    -0.003 C 
ATOM     26  C   UNL     1      49.289  30.975  48.699  1.00  0.00     0.004 C 
ENDBRANCH  24  25
ENDBRANCH  23  24
ENDBRANCH  22  23
ENDBRANCH  21  22
ENDBRANCH  20  21
ENDBRANCH  19  20
ENDBRANCH  18  19
ENDBRANCH  17  18
ENDBRANCH  16  17
ENDBRANCH  15  16
ENDBRANCH   1  15
TORSDOF 22
ENDMDL
MODEL 7
REMARK VINA RESULT:    -3.085      3.186      7.502
REMARK INTER + INTRA:         -11.204
REMARK INTER:                  -7.711
REMARK INTRA:                  -3.493
REMARK UNBOUND:                -4.151
REMARK SMILES CCCCCCCCCCCCCCCCCCCCCCCC(=O)[O-]
REMARK SMILES IDX 13 1 14 2 15 3 16 4 17 5 18 6 19 7 20 8 21 9 22 10 23 11
REMARK SMILES IDX 24 12 25 13 26 14 12 15 11 16 10 17 9 18 8 19 7 20 6 21 5 22
REMARK SMILES IDX 4 23 3 24 2 25 1 26
REMARK H PARENT
REMARK Flexibility Score: inf
ROOT
ATOM      1  C   UNL     1      40.923  35.894  47.778  1.00  0.00     0.000 C 
ENDROOT
BRANCH   1   2
ATOM      2  C   UNL     1      41.435  34.763  48.687  1.00  0.00     0.000 C 
BRANCH   2   3
ATOM      3  C   UNL     1      42.463  35.245  49.726  1.00  0.00     0.000 C 
BRANCH   3   4
ATOM      4  C   UNL     1      43.633  34.279  49.991  1.00  0.00     0.000 C 
BRANCH   4   5
ATOM      5  C   UNL     1      43.682  33.106  49.001  1.00  0.00     0.000 C 
BRANCH   5   6
ATOM      6  C   UNL     1      45.126  32.667  48.736  1.00  0.00     0.000 C 
BRANCH   6   7
ATOM      7  C   UNL     1      45.531  31.517  49.666  1.00  0.00     0.000 C 
BRANCH   7   8
ATOM      8  C   UNL     1      47.057  31.406  49.777  1.00  0.00     0.000 C 
BRANCH   8   9
ATOM      9  C   UNL     1      47.522  30.036  50.299  1.00  0.00     0.000 C 
BRANCH   9  10
ATOM     10  C   UNL     1      46.373  29.157  50.836  1.00  0.00     0.006 C 
BRANCH  10  11
ATOM     11  C   UNL     1      46.253  27.830  50.075  1.00  0.00     0.053 C 
BRANCH  11  12
ATOM     12  C   UNL     1      45.729  28.063  48.693  1.00  0.00     0.041 C 
ATOM     13  O   UNL     1      44.496  28.232  48.504  1.00  0.00    -0.550 OA
ATOM     14  O   UNL     1      46.596  28.043  47.609  1.00  0.00    -0.550 OA
ENDBRANCH  11  12
ENDBRANCH  10  11
ENDBRANCH   9  10
ENDBRANCH   8   9
ENDBRANCH   7   8
ENDBRANCH   6   7
ENDBRANCH   5   6
ENDBRANCH   4   5
ENDBRANCH   3   4
ENDBRANCH   2   3
ENDBRANCH   1   2
BRANCH   1  15
ATOM     15  C   UNL     1      40.900  35.504  46.289  1.00  0.00     0.000 C 
BRANCH  15  16
ATOM     16  C   UNL     1      41.228  34.029  45.993  1.00  0.00     0.000 C 
BRANCH  16  17
ATOM     17  C   UNL     1      42.602  33.844  45.327  1.00  0.00     0.000 C 
BRANCH  17  18
ATOM     18  C   UNL     1      43.399  35.156  45.250  1.00  0.00    -0.000 C 
BRANCH  18  19
ATOM     19  C   UNL     1      44.783  35.045  45.914  1.00  0.00    -0.000 C 
BRANCH  19  20
ATOM     20  C   UNL     1      44.969  36.053  47.058  1.00  0.00    -0.000 C 
BRANCH  20  21
ATOM     21  C   UNL     1      44.389  37.439  46.722  1.00  0.00    -0.000 C 
BRANCH  21  22
ATOM     22  C   UNL     1      43.781  38.138  47.947  1.00  0.00    -0.000 C 
BRANCH  22  23
ATOM     23  C   UNL     1      44.850  38.758  48.864  1.00  0.00    -0.000 C 
BRANCH  23  24
ATOM     24  C   UNL     1      44.785  38.193  50.299  1.00  0.00    -0.000 C 
BRANCH  24  25
ATOM     25  C   UNL     1      44.410  39.245  51.356  1.00  0.00    -0.003 C 
ATOM     26  C   UNL     1      44.164  38.645  52.738  1.00  0.00     0.004 C 
ENDBRANCH  24  25
ENDBRANCH  23  24
ENDBRANCH  22  23
ENDBRANCH  21  22
ENDBRANCH  20  21
ENDBRANCH  19  20
ENDBRANCH  18  19
ENDBRANCH  17  18
ENDBRANCH  16  17
ENDBRANCH  15  16
ENDBRANCH   1  15
TORSDOF 22
ENDMDL
MODEL 8
REMARK VINA RESULT:    -3.042      2.414      6.950
REMARK INTER + INTRA:         -11.107
REMARK INTER:                  -6.972
REMARK INTRA:                  -4.135
REMARK UNBOUND:                -4.151
REMARK SMILES CCCCCCCCCCCCCCCCCCCCCCCC(=O)[O-]
REMARK SMILES IDX 13 1 14 2 15 3 16 4 17 5 18 6 19 7 20 8 21 9 22 10 23 11
REMARK SMILES IDX 24 12 25 13 26 14 12 15 11 16 10 17 9 18 8 19 7 20 6 21 5 22
REMARK SMILES IDX 4 23 3 24 2 25 1 26
REMARK H PARENT
REMARK Flexibility Score: inf
ROOT
ATOM      1  C   UNL     1      45.389  34.626  47.956  1.00  0.00     0.000 C 
ENDROOT
BRANCH   1   2
ATOM      2  C   UNL     1      45.739  33.877  46.659  1.00  0.00     0.000 C 
BRANCH   2   3
ATOM      3  C   UNL     1      44.605  32.958  46.171  1.00  0.00     0.000 C 
BRANCH   3   4
ATOM      4  C   UNL     1      44.936  31.453  46.161  1.00  0.00     0.000 C 
BRANCH   4   5
ATOM      5  C   UNL     1      46.378  31.151  46.594  1.00  0.00     0.000 C 
BRANCH   5   6
ATOM      6  C   UNL     1      46.424  29.971  47.572  1.00  0.00     0.000 C 
BRANCH   6   7
ATOM      7  C   UNL     1      45.227  30.003  48.529  1.00  0.00     0.000 C 
BRANCH   7   8
ATOM      8  C   UNL     1      45.689  29.999  49.992  1.00  0.00     0.000 C 
BRANCH   8   9
ATOM      9  C   UNL     1      47.215  30.115  50.140  1.00  0.00     0.000 C 
BRANCH   9  10
ATOM     10  C   UNL     1      47.701  31.552  50.423  1.00  0.00     0.006 C 
BRANCH  10  11
ATOM     11  C   UNL     1      49.231  31.665  50.387  1.00  0.00     0.053 C 
BRANCH  11  12
ATOM     12  C   UNL     1      49.726  32.455  51.557  1.00  0.00     0.041 C 
ATOM     13  O   UNL     1      49.621  31.992  52.723  1.00  0.00    -0.550 OA
ATOM     14  O   UNL     1      50.259  33.723  51.364  1.00  0.00    -0.550 OA
ENDBRANCH  11  12
ENDBRANCH  10  11
ENDBRANCH   9  10
ENDBRANCH   8   9
ENDBRANCH   7   8
ENDBRANCH   6   7
ENDBRANCH   5   6
ENDBRANCH   4   5
ENDBRANCH   3   4
ENDBRANCH   2   3
ENDBRANCH   1   2
BRANCH   1  15
ATOM     15  C   UNL     1      45.286  33.695  49.178  1.00  0.00     0.000 C 
BRANCH  15  16
ATOM     16  C   UNL     1      43.860  33.470  49.712  1.00  0.00     0.000 C 
BRANCH  16  17
ATOM     17  C   UNL     1      43.176  34.773  50.158  1.00  0.00     0.000 C 
BRANCH  17  18
ATOM     18  C   UNL     1      42.026  35.184  49.225  1.00  0.00    -0.000 C 
BRANCH  18  19
ATOM     19  C   UNL     1      41.649  34.070  48.232  1.00  0.00    -0.000 C 
BRANCH  19  20
ATOM     20  C   UNL     1      41.306  34.618  46.838  1.00  0.00    -0.000 C 
BRANCH  20  21
ATOM     21  C   UNL     1      40.637  36.003  46.897  1.00  0.00    -0.000 C 
BRANCH  21  22
ATOM     22  C   UNL     1      41.430  37.074  46.133  1.00  0.00    -0.000 C 
BRANCH  22  23
ATOM     23  C   UNL     1      42.862  36.623  45.799  1.00  0.00    -0.000 C 
BRANCH  23  24
ATOM     24  C   UNL     1      43.925  37.560  46.413  1.00  0.00    -0.000 C 
BRANCH  24  25
ATOM     25  C   UNL     1      43.448  38.279  47.686  1.00  0.00    -0.003 C 
ATOM     26  C   UNL     1      44.386  38.080  48.874  1.00  0.00     0.004 C 
ENDBRANCH  24  25
ENDBRANCH  23  24
ENDBRANCH  22  23
ENDBRANCH  21  22
ENDBRANCH  20  21
ENDBRANCH  19  20
ENDBRANCH  18  19
ENDBRANCH  17  18
ENDBRANCH  16  17
ENDBRANCH  15  16
ENDBRANCH   1  15
TORSDOF 22
ENDMDL
