MODEL 1
REMARK VINA RESULT:     0.549      0.000      0.000
REMARK INTER + INTRA:           0.037
REMARK INTER:                   1.448
REMARK INTRA:                  -1.410
REMARK UNBOUND:                -1.410
REMARK SMILES CCCCCCCCCCCCCCCCCCCCCCCCCCCCCC(=O)[O-]
REMARK SMILES IDX 16 1 17 2 18 3 19 4 20 5 21 6 22 7 23 8 24 9 25 10 26 11
REMARK SMILES IDX 27 12 28 13 29 14 30 15 31 16 32 17 15 18 14 19 13 20 12 21
REMARK SMILES IDX 11 22 10 23 9 24 8 25 7 26 6 27 5 28 4 29 3 30 2 31 1 32
REMARK H PARENT
REMARK Flexibility Score: inf
ROOT
ATOM      1  C   UNL     1      44.222  22.005  17.016  1.00  0.00     0.000 C 
ENDROOT
BRANCH   1   2
ATOM      2  C   UNL     1      43.609  23.103  16.127  1.00  0.00     0.000 C 
BRANCH   2   3
ATOM      3  C   UNL     1      42.504  22.565  15.203  1.00  0.00     0.000 C 
BRANCH   3   4
ATOM      4  C   UNL     1      41.113  23.124  15.546  1.00  0.00     0.000 C 
BRANCH   4   5
ATOM      5  C   UNL     1      39.972  22.298  14.928  1.00  0.00     0.000 C 
BRANCH   5   6
ATOM      6  C   UNL     1      38.796  23.121  14.369  1.00  0.00     0.000 C 
BRANCH   6   7
ATOM      7  C   UNL     1      37.543  22.280  14.043  1.00  0.00     0.000 C 
BRANCH   7   8
ATOM      8  C   UNL     1      36.279  22.802  14.752  1.00  0.00     0.000 C 
BRANCH   8   9
ATOM      9  C   UNL     1      35.047  21.922  14.490  1.00  0.00     0.000 C 
BRANCH   9  10
ATOM     10  C   UNL     1      35.353  20.420  14.600  1.00  0.00     0.000 C 
BRANCH  10  11
ATOM     11  C   UNL     1      34.240  19.586  13.945  1.00  0.00     0.000 C 
BRANCH  11  12
ATOM     12  C   UNL     1      33.982  19.989  12.482  1.00  0.00     0.000 C 
BRANCH  12  13
ATOM     13  C   UNL     1      35.191  20.651  11.794  1.00  0.00     0.006 C 
BRANCH  13  14
ATOM     14  C   UNL     1      34.818  21.303  10.456  1.00  0.00     0.053 C 
BRANCH  14  15
ATOM     15  C   UNL     1      35.992  22.035   9.886  1.00  0.00     0.041 C 
ATOM     16  O   UNL     1      36.641  22.847  10.597  1.00  0.00    -0.550 OA
ATOM     17  O   UNL     1      36.396  21.791   8.578  1.00  0.00    -0.550 OA
ENDBRANCH  14  15
ENDBRANCH  13  14
ENDBRANCH  12  13
ENDBRANCH  11  12
ENDBRANCH  10  11
ENDBRANCH   9  10
ENDBRANCH   8   9
ENDBRANCH   7   8
ENDBRANCH   6   7
ENDBRANCH   5   6
ENDBRANCH   4   5
ENDBRANCH   3   4
ENDBRANCH   2   3
ENDBRANCH   1   2
BRANCH   1  18
ATOM     18  C   UNL     1      44.754  20.812  16.203  1.00  0.00     0.000 C 
BRANCH  18  19
ATOM     19  C   UNL     1      46.269  20.907  15.950  1.00  0.00     0.000 C 
BRANCH  19  20
ATOM     20  C   UNL     1      46.937  22.048  16.738  1.00  0.00     0.000 C 
BRANCH  20  21
ATOM     21  C   UNL     1      48.082  22.770  15.998  1.00  0.00     0.000 C 
BRANCH  21  22
ATOM     22  C   UNL     1      49.485  22.162  16.197  1.00  0.00     0.000 C 
BRANCH  22  23
ATOM     23  C   UNL     1      50.131  21.565  14.932  1.00  0.00     0.000 C 
BRANCH  23  24
ATOM     24  C   UNL     1      51.068  20.384  15.237  1.00  0.00    -0.000 C 
BRANCH  24  25
ATOM     25  C   UNL     1      52.464  20.832  15.708  1.00  0.00    -0.000 C 
BRANCH  25  26
ATOM     26  C   UNL     1      52.730  22.346  15.612  1.00  0.00    -0.000 C 
BRANCH  26  27
ATOM     27  C   UNL     1      53.124  22.970  16.962  1.00  0.00    -0.000 C 
BRANCH  27  28
ATOM     28  C   UNL     1      52.861  22.033  18.154  1.00  0.00    -0.000 C 
BRANCH  28  29
ATOM     29  C   UNL     1      51.630  22.401  19.003  1.00  0.00    -0.000 C 
BRANCH  29  30
ATOM     30  C   UNL     1      51.800  22.039  20.489  1.00  0.00    -0.000 C 
BRANCH  30  31
ATOM     31  C   UNL     1      52.736  20.839  20.699  1.00  0.00    -0.003 C 
ATOM     32  C   UNL     1      53.098  20.626  22.170  1.00  0.00     0.004 C 
ENDBRANCH  30  31
ENDBRANCH  29  30
ENDBRANCH  28  29
ENDBRANCH  27  28
ENDBRANCH  26  27
ENDBRANCH  25  26
ENDBRANCH  24  25
ENDBRANCH  23  24
ENDBRANCH  22  23
ENDBRANCH  21  22
ENDBRANCH  20  21
ENDBRANCH  19  20
ENDBRANCH  18  19
ENDBRANCH   1  18
TORSDOF 28
ENDMDL
MODEL 2
REMARK VINA RESULT:     0.828      4.758     15.282
REMARK INTER + INTRA:           0.772
REMARK INTER:                   1.596
REMARK INTRA:                  -0.824
REMARK UNBOUND:                -1.410
REMARK SMILES CCCCCCCCCCCCCCCCCCCCCCCCCCCCCC(=O)[O-]
REMARK SMILES IDX 16 1 17 2 18 3 19 4 20 5 21 6 22 7 23 8 24 9 25 10 26 11
REMARK SMILES IDX 27 12 28 13 29 14 30 15 31 16 32 17 15 18 14 19 13 20 12 21
REMARK SMILES IDX 11 22 10 23 9 24 8 25 7 26 6 27 5 28 4 29 3 30 2 31 1 32
REMARK H PARENT
REMARK Flexibility Score: inf
ROOT
ATOM      1  C   UNL     1      42.768  23.095  17.100  1.00  0.00     0.000 C 
ENDROOT
BRANCH   1   2
ATOM      2  C   UNL     1      44.269  22.747  17.142  1.00  0.00     0.000 C 
BRANCH   2   3
ATOM      3  C   UNL     1      44.640  21.621  16.163  1.00  0.00     0.000 C 
BRANCH   3   4
ATOM      4  C   UNL     1      46.066  21.762  15.604  1.00  0.00     0.000 C 
BRANCH   4   5
ATOM      5  C   UNL     1      47.130  21.153  16.532  1.00  0.00     0.000 C 
BRANCH   5   6
ATOM      6  C   UNL     1      48.108  22.165  17.161  1.00  0.00     0.000 C 
BRANCH   6   7
ATOM      7  C   UNL     1      49.434  22.317  16.387  1.00  0.00     0.000 C 
BRANCH   7   8
ATOM      8  C   UNL     1      49.413  21.591  15.029  1.00  0.00     0.000 C 
BRANCH   8   9
ATOM      9  C   UNL     1      50.552  20.570  14.885  1.00  0.00     0.000 C 
BRANCH   9  10
ATOM     10  C   UNL     1      51.744  20.873  15.805  1.00  0.00     0.000 C 
BRANCH  10  11
ATOM     11  C   UNL     1      52.298  22.281  15.535  1.00  0.00     0.000 C 
BRANCH  11  12
ATOM     12  C   UNL     1      53.125  22.827  16.714  1.00  0.00     0.000 C 
BRANCH  12  13
ATOM     13  C   UNL     1      52.364  22.848  18.053  1.00  0.00     0.006 C 
BRANCH  13  14
ATOM     14  C   UNL     1      52.901  21.810  19.048  1.00  0.00     0.053 C 
BRANCH  14  15
ATOM     15  C   UNL     1      52.238  21.969  20.380  1.00  0.00     0.041 C 
ATOM     16  O   UNL     1      51.248  21.253  20.686  1.00  0.00    -0.550 OA
ATOM     17  O   UNL     1      52.739  22.880  21.302  1.00  0.00    -0.550 OA
ENDBRANCH  14  15
ENDBRANCH  13  14
ENDBRANCH  12  13
ENDBRANCH  11  12
ENDBRANCH  10  11
ENDBRANCH   9  10
ENDBRANCH   8   9
ENDBRANCH   7   8
ENDBRANCH   6   7
ENDBRANCH   5   6
ENDBRANCH   4   5
ENDBRANCH   3   4
ENDBRANCH   2   3
ENDBRANCH   1   2
BRANCH   1  18
ATOM     18  C   UNL     1      42.174  22.987  15.686  1.00  0.00     0.000 C 
BRANCH  18  19
ATOM     19  C   UNL     1      40.642  23.125  15.684  1.00  0.00     0.000 C 
BRANCH  19  20
ATOM     20  C   UNL     1      40.010  22.775  14.325  1.00  0.00     0.000 C 
BRANCH  20  21
ATOM     21  C   UNL     1      38.468  22.764  14.304  1.00  0.00     0.000 C 
BRANCH  21  22
ATOM     22  C   UNL     1      37.805  21.562  15.006  1.00  0.00     0.000 C 
BRANCH  22  23
ATOM     23  C   UNL     1      36.291  21.698  15.259  1.00  0.00     0.000 C 
BRANCH  23  24
ATOM     24  C   UNL     1      35.477  20.535  14.665  1.00  0.00    -0.000 C 
BRANCH  24  25
ATOM     25  C   UNL     1      33.975  20.625  14.993  1.00  0.00    -0.000 C 
BRANCH  25  26
ATOM     26  C   UNL     1      33.186  21.651  14.158  1.00  0.00    -0.000 C 
BRANCH  26  27
ATOM     27  C   UNL     1      34.063  22.808  13.649  1.00  0.00    -0.000 C 
BRANCH  27  28
ATOM     28  C   UNL     1      34.162  22.853  12.114  1.00  0.00    -0.000 C 
BRANCH  28  29
ATOM     29  C   UNL     1      33.820  21.528  11.407  1.00  0.00    -0.000 C 
BRANCH  29  30
ATOM     30  C   UNL     1      35.027  20.909  10.681  1.00  0.00    -0.000 C 
BRANCH  30  31
ATOM     31  C   UNL     1      35.668  21.877   9.675  1.00  0.00    -0.003 C 
ATOM     32  C   UNL     1      36.953  21.320   9.060  1.00  0.00     0.004 C 
ENDBRANCH  30  31
ENDBRANCH  29  30
ENDBRANCH  28  29
ENDBRANCH  27  28
ENDBRANCH  26  27
ENDBRANCH  25  26
ENDBRANCH  24  25
ENDBRANCH  23  24
ENDBRANCH  22  23
ENDBRANCH  21  22
ENDBRANCH  20  21
ENDBRANCH  19  20
ENDBRANCH  18  19
ENDBRANCH   1  18
TORSDOF 28
ENDMDL
MODEL 3
REMARK VINA RESULT:     1.009      1.692      2.422
REMARK INTER + INTRA:           1.250
REMARK INTER:                   2.194
REMARK INTRA:                  -0.944
REMARK UNBOUND:                -1.410
REMARK SMILES CCCCCCCCCCCCCCCCCCCCCCCCCCCCCC(=O)[O-]
REMARK SMILES IDX 16 1 17 2 18 3 19 4 20 5 21 6 22 7 23 8 24 9 25 10 26 11
REMARK SMILES IDX 27 12 28 13 29 14 30 15 31 16 32 17 15 18 14 19 13 20 12 21
REMARK SMILES IDX 11 22 10 23 9 24 8 25 7 26 6 27 5 28 4 29 3 30 2 31 1 32
REMARK H PARENT
REMARK Flexibility Score: inf
ROOT
ATOM      1  C   UNL     1      44.212  22.041  16.865  1.00  0.00     0.000 C 
ENDROOT
BRANCH   1   2
ATOM      2  C   UNL     1      43.460  23.125  16.070  1.00  0.00     0.000 C 
BRANCH   2   3
ATOM      3  C   UNL     1      42.344  22.542  15.187  1.00  0.00     0.000 C 
BRANCH   3   4
ATOM      4  C   UNL     1      40.936  22.851  15.722  1.00  0.00     0.000 C 
BRANCH   4   5
ATOM      5  C   UNL     1      39.824  22.379  14.770  1.00  0.00     0.000 C 
BRANCH   5   6
ATOM      6  C   UNL     1      38.482  23.125  14.909  1.00  0.00     0.000 C 
BRANCH   6   7
ATOM      7  C   UNL     1      37.352  22.548  14.030  1.00  0.00     0.000 C 
BRANCH   7   8
ATOM      8  C   UNL     1      37.528  22.892  12.539  1.00  0.00     0.000 C 
BRANCH   8   9
ATOM      9  C   UNL     1      36.343  22.424  11.680  1.00  0.00     0.000 C 
BRANCH   9  10
ATOM     10  C   UNL     1      34.983  22.715  12.331  1.00  0.00     0.000 C 
BRANCH  10  11
ATOM     11  C   UNL     1      33.839  22.505  11.327  1.00  0.00     0.000 C 
BRANCH  11  12
ATOM     12  C   UNL     1      33.673  21.029  10.922  1.00  0.00     0.000 C 
BRANCH  12  13
ATOM     13  C   UNL     1      33.121  20.131  12.045  1.00  0.00     0.006 C 
BRANCH  13  14
ATOM     14  C   UNL     1      32.973  20.882  13.375  1.00  0.00     0.053 C 
BRANCH  14  15
ATOM     15  C   UNL     1      33.978  20.390  14.369  1.00  0.00     0.041 C 
ATOM     16  O   UNL     1      34.859  19.559  14.023  1.00  0.00    -0.550 OA
ATOM     17  O   UNL     1      33.967  20.879  15.670  1.00  0.00    -0.550 OA
ENDBRANCH  14  15
ENDBRANCH  13  14
ENDBRANCH  12  13
ENDBRANCH  11  12
ENDBRANCH  10  11
ENDBRANCH   9  10
ENDBRANCH   8   9
ENDBRANCH   7   8
ENDBRANCH   6   7
ENDBRANCH   5   6
ENDBRANCH   4   5
ENDBRANCH   3   4
ENDBRANCH   2   3
ENDBRANCH   1   2
BRANCH   1  18
ATOM     18  C   UNL     1      44.866  20.986  15.956  1.00  0.00     0.000 C 
BRANCH  18  19
ATOM     19  C   UNL     1      46.393  20.931  16.130  1.00  0.00     0.000 C 
BRANCH  19  20
ATOM     20  C   UNL     1      46.925  22.006  17.096  1.00  0.00     0.000 C 
BRANCH  20  21
ATOM     21  C   UNL     1      48.131  22.814  16.576  1.00  0.00     0.000 C 
BRANCH  21  22
ATOM     22  C   UNL     1      49.470  22.050  16.534  1.00  0.00     0.000 C 
BRANCH  22  23
ATOM     23  C   UNL     1      49.997  21.717  15.125  1.00  0.00     0.000 C 
BRANCH  23  24
ATOM     24  C   UNL     1      50.959  20.517  15.113  1.00  0.00    -0.000 C 
BRANCH  24  25
ATOM     25  C   UNL     1      52.413  20.909  15.431  1.00  0.00    -0.000 C 
BRANCH  25  26
ATOM     26  C   UNL     1      52.710  22.419  15.366  1.00  0.00    -0.000 C 
BRANCH  26  27
ATOM     27  C   UNL     1      53.118  23.007  16.727  1.00  0.00    -0.000 C 
BRANCH  27  28
ATOM     28  C   UNL     1      52.908  22.023  17.892  1.00  0.00    -0.000 C 
BRANCH  28  29
ATOM     29  C   UNL     1      51.683  22.323  18.776  1.00  0.00    -0.000 C 
BRANCH  29  30
ATOM     30  C   UNL     1      51.966  22.124  20.275  1.00  0.00    -0.000 C 
BRANCH  30  31
ATOM     31  C   UNL     1      50.680  22.047  21.111  1.00  0.00    -0.003 C 
ATOM     32  C   UNL     1      50.935  22.257  22.604  1.00  0.00     0.004 C 
ENDBRANCH  30  31
ENDBRANCH  29  30
ENDBRANCH  28  29
ENDBRANCH  27  28
ENDBRANCH  26  27
ENDBRANCH  25  26
ENDBRANCH  24  25
ENDBRANCH  23  24
ENDBRANCH  22  23
ENDBRANCH  21  22
ENDBRANCH  20  21
ENDBRANCH  19  20
ENDBRANCH  18  19
ENDBRANCH   1  18
TORSDOF 28
ENDMDL
MODEL 4
REMARK VINA RESULT:     2.600      1.531      3.544
REMARK INTER + INTRA:           5.446
REMARK INTER:                   5.454
REMARK INTRA:                  -0.008
REMARK UNBOUND:                -1.410
REMARK SMILES CCCCCCCCCCCCCCCCCCCCCCCCCCCCCC(=O)[O-]
REMARK SMILES IDX 16 1 17 2 18 3 19 4 20 5 21 6 22 7 23 8 24 9 25 10 26 11
REMARK SMILES IDX 27 12 28 13 29 14 30 15 31 16 32 17 15 18 14 19 13 20 12 21
REMARK SMILES IDX 11 22 10 23 9 24 8 25 7 26 6 27 5 28 4 29 3 30 2 31 1 32
REMARK H PARENT
REMARK Flexibility Score: inf
ROOT
ATOM      1  C   UNL     1      45.980  21.883  16.830  1.00  0.00     0.000 C 
ENDROOT
BRANCH   1   2
ATOM      2  C   UNL     1      45.268  22.146  15.490  1.00  0.00     0.000 C 
BRANCH   2   3
ATOM      3  C   UNL     1      44.028  23.040  15.646  1.00  0.00     0.000 C 
BRANCH   3   4
ATOM      4  C   UNL     1      42.721  22.237  15.754  1.00  0.00     0.000 C 
BRANCH   4   5
ATOM      5  C   UNL     1      41.469  23.124  15.644  1.00  0.00     0.000 C 
BRANCH   5   6
ATOM      6  C   UNL     1      40.217  22.424  15.082  1.00  0.00     0.000 C 
BRANCH   6   7
ATOM      7  C   UNL     1      39.640  23.094  13.816  1.00  0.00     0.000 C 
BRANCH   7   8
ATOM      8  C   UNL     1      38.102  23.040  13.767  1.00  0.00     0.000 C 
BRANCH   8   9
ATOM      9  C   UNL     1      37.524  21.875  14.586  1.00  0.00     0.000 C 
BRANCH   9  10
ATOM     10  C   UNL     1      36.149  22.197  15.191  1.00  0.00     0.000 C 
BRANCH  10  11
ATOM     11  C   UNL     1      35.033  21.989  14.154  1.00  0.00     0.000 C 
BRANCH  11  12
ATOM     12  C   UNL     1      35.148  22.956  12.961  1.00  0.00     0.000 C 
BRANCH  12  13
ATOM     13  C   UNL     1      35.953  22.392  11.775  1.00  0.00     0.006 C 
BRANCH  13  14
ATOM     14  C   UNL     1      35.125  21.433  10.910  1.00  0.00     0.053 C 
BRANCH  14  15
ATOM     15  C   UNL     1      35.044  21.935   9.502  1.00  0.00     0.041 C 
ATOM     16  O   UNL     1      36.014  21.777   8.715  1.00  0.00    -0.550 OA
ATOM     17  O   UNL     1      33.879  22.542   9.046  1.00  0.00    -0.550 OA
ENDBRANCH  14  15
ENDBRANCH  13  14
ENDBRANCH  12  13
ENDBRANCH  11  12
ENDBRANCH  10  11
ENDBRANCH   9  10
ENDBRANCH   8   9
ENDBRANCH   7   8
ENDBRANCH   6   7
ENDBRANCH   5   6
ENDBRANCH   4   5
ENDBRANCH   3   4
ENDBRANCH   2   3
ENDBRANCH   1   2
BRANCH   1  18
ATOM     18  C   UNL     1      46.011  23.125  17.738  1.00  0.00     0.000 C 
BRANCH  18  19
ATOM     19  C   UNL     1      45.750  22.776  19.214  1.00  0.00     0.000 C 
BRANCH  19  20
ATOM     20  C   UNL     1      46.966  23.049  20.117  1.00  0.00     0.000 C 
BRANCH  20  21
ATOM     21  C   UNL     1      48.329  23.058  19.395  1.00  0.00     0.000 C 
BRANCH  21  22
ATOM     22  C   UNL     1      49.565  23.009  20.315  1.00  0.00     0.000 C 
BRANCH  22  23
ATOM     23  C   UNL     1      50.437  21.746  20.182  1.00  0.00     0.000 C 
BRANCH  23  24
ATOM     24  C   UNL     1      51.426  21.574  21.348  1.00  0.00    -0.000 C 
BRANCH  24  25
ATOM     25  C   UNL     1      52.875  21.926  20.964  1.00  0.00    -0.000 C 
BRANCH  25  26
ATOM     26  C   UNL     1      53.023  22.769  19.683  1.00  0.00    -0.000 C 
BRANCH  26  27
ATOM     27  C   UNL     1      52.528  22.037  18.425  1.00  0.00    -0.000 C 
BRANCH  27  28
ATOM     28  C   UNL     1      52.368  22.971  17.213  1.00  0.00    -0.000 C 
BRANCH  28  29
ATOM     29  C   UNL     1      51.311  22.521  16.187  1.00  0.00    -0.000 C 
BRANCH  29  30
ATOM     30  C   UNL     1      51.763  21.308  15.356  1.00  0.00    -0.000 C 
BRANCH  30  31
ATOM     31  C   UNL     1      50.608  20.669  14.570  1.00  0.00    -0.003 C 
ATOM     32  C   UNL     1      49.253  21.296  14.903  1.00  0.00     0.004 C 
ENDBRANCH  30  31
ENDBRANCH  29  30
ENDBRANCH  28  29
ENDBRANCH  27  28
ENDBRANCH  26  27
ENDBRANCH  25  26
ENDBRANCH  24  25
ENDBRANCH  23  24
ENDBRANCH  22  23
ENDBRANCH  21  22
ENDBRANCH  20  21
ENDBRANCH  19  20
ENDBRANCH  18  19
ENDBRANCH   1  18
TORSDOF 28
ENDMDL
MODEL 5
REMARK VINA RESULT:     2.740      1.243      2.325
REMARK INTER + INTRA:           5.815
REMARK INTER:                   5.995
REMARK INTRA:                  -0.180
REMARK UNBOUND:                -1.410
REMARK SMILES CCCCCCCCCCCCCCCCCCCCCCCCCCCCCC(=O)[O-]
REMARK SMILES IDX 16 1 17 2 18 3 19 4 20 5 21 6 22 7 23 8 24 9 25 10 26 11
REMARK SMILES IDX 27 12 28 13 29 14 30 15 31 16 32 17 15 18 14 19 13 20 12 21
REMARK SMILES IDX 11 22 10 23 9 24 8 25 7 26 6 27 5 28 4 29 3 30 2 31 1 32
REMARK H PARENT
REMARK Flexibility Score: inf
ROOT
ATOM      1  C   UNL     1      41.952  22.679  15.138  1.00  0.00     0.000 C 
ENDROOT
BRANCH   1   2
ATOM      2  C   UNL     1      40.910  23.068  16.204  1.00  0.00     0.000 C 
BRANCH   2   3
ATOM      3  C   UNL     1      39.466  22.846  15.726  1.00  0.00     0.000 C 
BRANCH   3   4
ATOM      4  C   UNL     1      39.347  22.776  14.195  1.00  0.00     0.000 C 
BRANCH   4   5
ATOM      5  C   UNL     1      37.890  22.656  13.718  1.00  0.00     0.000 C 
BRANCH   5   6
ATOM      6  C   UNL     1      36.967  21.829  14.634  1.00  0.00     0.000 C 
BRANCH   6   7
ATOM      7  C   UNL     1      35.585  21.523  14.019  1.00  0.00     0.000 C 
BRANCH   7   8
ATOM      8  C   UNL     1      34.790  20.488  14.835  1.00  0.00     0.000 C 
BRANCH   8   9
ATOM      9  C   UNL     1      33.932  19.569  13.951  1.00  0.00     0.000 C 
BRANCH   9  10
ATOM     10  C   UNL     1      33.062  20.347  12.952  1.00  0.00     0.000 C 
BRANCH  10  11
ATOM     11  C   UNL     1      33.207  21.862  13.164  1.00  0.00     0.000 C 
BRANCH  11  12
ATOM     12  C   UNL     1      33.219  22.646  11.839  1.00  0.00     0.000 C 
BRANCH  12  13
ATOM     13  C   UNL     1      34.128  22.031  10.758  1.00  0.00     0.006 C 
BRANCH  13  14
ATOM     14  C   UNL     1      34.769  23.096   9.857  1.00  0.00     0.053 C 
BRANCH  14  15
ATOM     15  C   UNL     1      35.941  22.524   9.124  1.00  0.00     0.041 C 
ATOM     16  O   UNL     1      36.550  21.522   9.582  1.00  0.00    -0.550 OA
ATOM     17  O   UNL     1      36.338  23.074   7.910  1.00  0.00    -0.550 OA
ENDBRANCH  14  15
ENDBRANCH  13  14
ENDBRANCH  12  13
ENDBRANCH  11  12
ENDBRANCH  10  11
ENDBRANCH   9  10
ENDBRANCH   8   9
ENDBRANCH   7   8
ENDBRANCH   6   7
ENDBRANCH   5   6
ENDBRANCH   4   5
ENDBRANCH   3   4
ENDBRANCH   2   3
ENDBRANCH   1   2
BRANCH   1  18
ATOM     18  C   UNL     1      43.390  23.026  15.560  1.00  0.00     0.000 C 
BRANCH  18  19
ATOM     19  C   UNL     1      43.942  22.047  16.612  1.00  0.00     0.000 C 
BRANCH  19  20
ATOM     20  C   UNL     1      45.461  21.835  16.492  1.00  0.00     0.000 C 
BRANCH  20  21
ATOM     21  C   UNL     1      46.307  23.125  16.521  1.00  0.00     0.000 C 
BRANCH  21  22
ATOM     22  C   UNL     1      47.763  22.951  16.998  1.00  0.00     0.000 C 
BRANCH  22  23
ATOM     23  C   UNL     1      48.711  22.273  15.990  1.00  0.00     0.000 C 
BRANCH  23  24
ATOM     24  C   UNL     1      50.002  21.747  16.640  1.00  0.00    -0.000 C 
BRANCH  24  25
ATOM     25  C   UNL     1      50.633  22.753  17.621  1.00  0.00    -0.000 C 
BRANCH  25  26
ATOM     26  C   UNL     1      52.097  23.124  17.321  1.00  0.00    -0.000 C 
BRANCH  26  27
ATOM     27  C   UNL     1      53.095  22.423  18.258  1.00  0.00    -0.000 C 
BRANCH  27  28
ATOM     28  C   UNL     1      52.423  21.821  19.505  1.00  0.00    -0.000 C 
BRANCH  28  29
ATOM     29  C   UNL     1      53.010  22.297  20.847  1.00  0.00    -0.000 C 
BRANCH  29  30
ATOM     30  C   UNL     1      52.788  21.288  21.988  1.00  0.00    -0.000 C 
BRANCH  30  31
ATOM     31  C   UNL     1      51.513  21.583  22.793  1.00  0.00    -0.003 C 
ATOM     32  C   UNL     1      50.244  21.121  22.076  1.00  0.00     0.004 C 
ENDBRANCH  30  31
ENDBRANCH  29  30
ENDBRANCH  28  29
ENDBRANCH  27  28
ENDBRANCH  26  27
ENDBRANCH  25  26
ENDBRANCH  24  25
ENDBRANCH  23  24
ENDBRANCH  22  23
ENDBRANCH  21  22
ENDBRANCH  20  21
ENDBRANCH  19  20
ENDBRANCH  18  19
ENDBRANCH   1  18
TORSDOF 28
ENDMDL
