MODEL 1
REMARK VINA RESULT:    23.511      0.000      0.000
REMARK INTER + INTRA:          51.284
REMARK INTER:                  50.999
REMARK INTRA:                   0.285
REMARK UNBOUND:                 0.285
REMARK SMILES CCCCCCCCCCCCCCCCCCCCCC(=O)[O-]
REMARK SMILES IDX 12 1 11 2 10 3 9 4 8 5 7 6 6 7 5 8 4 9 3 10 2 11 1 12 13 13
REMARK SMILES IDX 14 14 15 15 16 16 17 17 18 18 19 19 20 20 21 21 22 22 23 23
REMARK SMILES IDX 24 24
REMARK H PARENT
REMARK Flexibility Score: inf
ROOT
ATOM      1  C   UNL     1      11.186   6.083   8.403  1.00  0.00     0.000 C 
ENDROOT
BRANCH   1   2
ATOM      2  C   UNL     1      10.348   5.260   7.402  1.00  0.00     0.000 C 
BRANCH   2   3
ATOM      3  C   UNL     1      10.926   3.856   7.155  1.00  0.00     0.000 C 
BRANCH   3   4
ATOM      4  C   UNL     1      10.802   2.950   8.400  1.00  0.00    -0.000 C 
BRANCH   4   5
ATOM      5  C   UNL     1      10.418   1.497   8.071  1.00  0.00    -0.000 C 
BRANCH   5   6
ATOM      6  C   UNL     1      11.639   0.574   7.929  1.00  0.00    -0.000 C 
BRANCH   6   7
ATOM      7  C   UNL     1      11.244  -0.895   7.711  1.00  0.00    -0.000 C 
BRANCH   7   8
ATOM      8  C   UNL     1      12.398  -1.869   8.005  1.00  0.00    -0.000 C 
BRANCH   8   9
ATOM      9  C   UNL     1      11.941  -3.124   8.770  1.00  0.00    -0.000 C 
BRANCH   9  10
ATOM     10  C   UNL     1      11.523  -4.309   7.880  1.00  0.00    -0.000 C 
BRANCH  10  11
ATOM     11  C   UNL     1      10.888  -5.458   8.676  1.00  0.00    -0.003 C 
ATOM     12  C   UNL     1      11.939  -6.206   9.492  1.00  0.00     0.004 C 
ENDBRANCH  10  11
ENDBRANCH   9  10
ENDBRANCH   8   9
ENDBRANCH   7   8
ENDBRANCH   6   7
ENDBRANCH   5   6
ENDBRANCH   4   5
ENDBRANCH   3   4
ENDBRANCH   2   3
ENDBRANCH   1   2
BRANCH   1  13
ATOM     13  C   UNL     1      11.662   7.441   7.849  1.00  0.00     0.000 C 
BRANCH  13  14
ATOM     14  C   UNL     1      13.059   7.425   7.204  1.00  0.00     0.000 C 
BRANCH  14  15
ATOM     15  C   UNL     1      13.967   6.249   7.624  1.00  0.00     0.000 C 
BRANCH  15  16
ATOM     16  C   UNL     1      15.353   6.221   6.957  1.00  0.00     0.000 C 
BRANCH  16  17
ATOM     17  C   UNL     1      15.721   4.842   6.393  1.00  0.00     0.000 C 
BRANCH  17  18
ATOM     18  C   UNL     1      16.996   4.304   7.060  1.00  0.00     0.000 C 
BRANCH  18  19
ATOM     19  C   UNL     1      18.010   5.409   7.403  1.00  0.00     0.000 C 
BRANCH  19  20
ATOM     20  C   UNL     1      18.124   5.749   8.900  1.00  0.00     0.006 C 
BRANCH  20  21
ATOM     21  C   UNL     1      18.020   7.255   9.184  1.00  0.00     0.053 C 
BRANCH  21  22
ATOM     22  C   UNL     1      16.686   7.588   9.774  1.00  0.00     0.041 C 
ATOM     23  O   UNL     1      16.512   8.685  10.367  1.00  0.00    -0.550 OA
ATOM     24  O   UNL     1      15.624   6.701   9.641  1.00  0.00    -0.550 OA
ENDBRANCH  21  22
ENDBRANCH  20  21
ENDBRANCH  19  20
ENDBRANCH  18  19
ENDBRANCH  17  18
ENDBRANCH  16  17
ENDBRANCH  15  16
ENDBRANCH  14  15
ENDBRANCH  13  14
ENDBRANCH   1  13
TORSDOF 20
ENDMDL
MODEL 2
REMARK VINA RESULT:    24.183      2.390      3.852
REMARK INTER + INTRA:          52.744
REMARK INTER:                  53.988
REMARK INTRA:                  -1.244
REMARK UNBOUND:                 0.285
REMARK SMILES CCCCCCCCCCCCCCCCCCCCCC(=O)[O-]
REMARK SMILES IDX 12 1 11 2 10 3 9 4 8 5 7 6 6 7 5 8 4 9 3 10 2 11 1 12 13 13
REMARK SMILES IDX 14 14 15 15 16 16 17 17 18 18 19 19 20 20 21 21 22 22 23 23
REMARK SMILES IDX 24 24
REMARK H PARENT
REMARK Flexibility Score: inf
ROOT
ATOM      1  C   UNL     1      11.267   2.788   9.040  1.00  0.00     0.000 C 
ENDROOT
BRANCH   1   2
ATOM      2  C   UNL     1      10.727   1.349   9.183  1.00  0.00     0.000 C 
BRANCH   2   3
ATOM      3  C   UNL     1      10.203   0.775   7.855  1.00  0.00     0.000 C 
BRANCH   3   4
ATOM      4  C   UNL     1      11.200  -0.218   7.220  1.00  0.00    -0.000 C 
BRANCH   4   5
ATOM      5  C   UNL     1      11.795  -1.223   8.222  1.00  0.00    -0.000 C 
BRANCH   5   6
ATOM      6  C   UNL     1      13.118  -1.837   7.738  1.00  0.00    -0.000 C 
BRANCH   6   7
ATOM      7  C   UNL     1      13.525  -3.075   8.554  1.00  0.00    -0.000 C 
BRANCH   7   8
ATOM      8  C   UNL     1      14.701  -2.796   9.507  1.00  0.00    -0.000 C 
BRANCH   8   9
ATOM      9  C   UNL     1      16.029  -3.393   9.008  1.00  0.00    -0.000 C 
BRANCH   9  10
ATOM     10  C   UNL     1      16.470  -4.682   9.727  1.00  0.00    -0.000 C 
BRANCH  10  11
ATOM     11  C   UNL     1      17.529  -5.470   8.942  1.00  0.00    -0.003 C 
ATOM     12  C   UNL     1      17.634  -4.967   7.505  1.00  0.00     0.004 C 
ENDBRANCH  10  11
ENDBRANCH   9  10
ENDBRANCH   8   9
ENDBRANCH   7   8
ENDBRANCH   6   7
ENDBRANCH   5   6
ENDBRANCH   4   5
ENDBRANCH   3   4
ENDBRANCH   2   3
ENDBRANCH   1   2
BRANCH   1  13
ATOM     13  C   UNL     1      11.090   3.383   7.629  1.00  0.00     0.000 C 
BRANCH  13  14
ATOM     14  C   UNL     1      10.134   4.586   7.547  1.00  0.00     0.000 C 
BRANCH  14  15
ATOM     15  C   UNL     1      10.237   5.592   8.713  1.00  0.00     0.000 C 
BRANCH  15  16
ATOM     16  C   UNL     1      11.023   6.878   8.401  1.00  0.00     0.000 C 
BRANCH  16  17
ATOM     17  C   UNL     1      12.073   6.688   7.297  1.00  0.00     0.000 C 
BRANCH  17  18
ATOM     18  C   UNL     1      13.470   7.075   7.804  1.00  0.00     0.000 C 
BRANCH  18  19
ATOM     19  C   UNL     1      14.457   5.893   7.812  1.00  0.00     0.000 C 
BRANCH  19  20
ATOM     20  C   UNL     1      15.928   6.273   8.066  1.00  0.00     0.006 C 
BRANCH  20  21
ATOM     21  C   UNL     1      16.267   6.398   9.558  1.00  0.00     0.053 C 
BRANCH  21  22
ATOM     22  C   UNL     1      17.007   7.671   9.826  1.00  0.00     0.041 C 
ATOM     23  O   UNL     1      18.109   7.647  10.434  1.00  0.00    -0.550 OA
ATOM     24  O   UNL     1      16.496   8.881   9.374  1.00  0.00    -0.550 OA
ENDBRANCH  21  22
ENDBRANCH  20  21
ENDBRANCH  19  20
ENDBRANCH  18  19
ENDBRANCH  17  18
ENDBRANCH  16  17
ENDBRANCH  15  16
ENDBRANCH  14  15
ENDBRANCH  13  14
ENDBRANCH   1  13
TORSDOF 20
ENDMDL
MODEL 3
REMARK VINA RESULT:    25.667      4.245      9.523
REMARK INTER + INTRA:          55.962
REMARK INTER:                  55.341
REMARK INTRA:                   0.622
REMARK UNBOUND:                 0.285
REMARK SMILES CCCCCCCCCCCCCCCCCCCCCC(=O)[O-]
REMARK SMILES IDX 12 1 11 2 10 3 9 4 8 5 7 6 6 7 5 8 4 9 3 10 2 11 1 12 13 13
REMARK SMILES IDX 14 14 15 15 16 16 17 17 18 18 19 19 20 20 21 21 22 22 23 23
REMARK SMILES IDX 24 24
REMARK H PARENT
REMARK Flexibility Score: inf
ROOT
ATOM      1  C   UNL     1      10.576   3.147   8.908  1.00  0.00     0.000 C 
ENDROOT
BRANCH   1   2
ATOM      2  C   UNL     1      11.057   4.554   8.496  1.00  0.00     0.000 C 
BRANCH   2   3
ATOM      3  C   UNL     1      10.044   5.657   8.849  1.00  0.00     0.000 C 
BRANCH   3   4
ATOM      4  C   UNL     1      10.561   7.062   8.472  1.00  0.00    -0.000 C 
BRANCH   4   5
ATOM      5  C   UNL     1      11.871   7.042   7.666  1.00  0.00    -0.000 C 
BRANCH   5   6
ATOM      6  C   UNL     1      12.908   6.061   8.236  1.00  0.00    -0.000 C 
BRANCH   6   7
ATOM      7  C   UNL     1      14.114   5.870   7.302  1.00  0.00    -0.000 C 
BRANCH   7   8
ATOM      8  C   UNL     1      15.352   5.328   8.037  1.00  0.00    -0.000 C 
BRANCH   8   9
ATOM      9  C   UNL     1      16.456   6.387   8.209  1.00  0.00    -0.000 C 
BRANCH   9  10
ATOM     10  C   UNL     1      15.959   7.769   8.672  1.00  0.00    -0.000 C 
BRANCH  10  11
ATOM     11  C   UNL     1      16.601   8.223   9.991  1.00  0.00    -0.003 C 
ATOM     12  C   UNL     1      17.840   7.391  10.313  1.00  0.00     0.004 C 
ENDBRANCH  10  11
ENDBRANCH   9  10
ENDBRANCH   8   9
ENDBRANCH   7   8
ENDBRANCH   6   7
ENDBRANCH   5   6
ENDBRANCH   4   5
ENDBRANCH   3   4
ENDBRANCH   2   3
ENDBRANCH   1   2
BRANCH   1  13
ATOM     13  C   UNL     1      11.089   2.019   7.991  1.00  0.00     0.000 C 
BRANCH  13  14
ATOM     14  C   UNL     1      11.085   0.616   8.623  1.00  0.00     0.000 C 
BRANCH  14  15
ATOM     15  C   UNL     1      12.043  -0.404   7.970  1.00  0.00     0.000 C 
BRANCH  15  16
ATOM     16  C   UNL     1      11.647  -1.881   8.147  1.00  0.00     0.000 C 
BRANCH  16  17
ATOM     17  C   UNL     1      12.763  -2.854   7.746  1.00  0.00     0.000 C 
BRANCH  17  18
ATOM     18  C   UNL     1      13.202  -3.704   8.948  1.00  0.00     0.000 C 
BRANCH  18  19
ATOM     19  C   UNL     1      14.550  -3.256   9.543  1.00  0.00     0.000 C 
BRANCH  19  20
ATOM     20  C   UNL     1      15.793  -3.696   8.748  1.00  0.00     0.006 C 
BRANCH  20  21
ATOM     21  C   UNL     1      16.781  -4.519   9.587  1.00  0.00     0.053 C 
BRANCH  21  22
ATOM     22  C   UNL     1      17.608  -5.405   8.708  1.00  0.00     0.041 C 
ATOM     23  O   UNL     1      18.118  -6.459   9.171  1.00  0.00    -0.550 OA
ATOM     24  O   UNL     1      17.789  -5.083   7.369  1.00  0.00    -0.550 OA
ENDBRANCH  21  22
ENDBRANCH  20  21
ENDBRANCH  19  20
ENDBRANCH  18  19
ENDBRANCH  17  18
ENDBRANCH  16  17
ENDBRANCH  15  16
ENDBRANCH  14  15
ENDBRANCH  13  14
ENDBRANCH   1  13
TORSDOF 20
ENDMDL
MODEL 4
REMARK VINA RESULT:    25.769      4.341      9.934
REMARK INTER + INTRA:          56.183
REMARK INTER:                  56.664
REMARK INTRA:                  -0.481
REMARK UNBOUND:                 0.285
REMARK SMILES CCCCCCCCCCCCCCCCCCCCCC(=O)[O-]
REMARK SMILES IDX 12 1 11 2 10 3 9 4 8 5 7 6 6 7 5 8 4 9 3 10 2 11 1 12 13 13
REMARK SMILES IDX 14 14 15 15 16 16 17 17 18 18 19 19 20 20 21 21 22 22 23 23
REMARK SMILES IDX 24 24
REMARK H PARENT
REMARK Flexibility Score: inf
ROOT
ATOM      1  C   UNL     1      10.835   4.224   9.054  1.00  0.00     0.000 C 
ENDROOT
BRANCH   1   2
ATOM      2  C   UNL     1      10.533   5.566   8.355  1.00  0.00     0.000 C 
BRANCH   2   3
ATOM      3  C   UNL     1      11.680   6.033   7.442  1.00  0.00     0.000 C 
BRANCH   3   4
ATOM      4  C   UNL     1      12.203   7.432   7.838  1.00  0.00    -0.000 C 
BRANCH   4   5
ATOM      5  C   UNL     1      13.708   7.622   7.583  1.00  0.00    -0.000 C 
BRANCH   5   6
ATOM      6  C   UNL     1      14.523   6.343   7.836  1.00  0.00    -0.000 C 
BRANCH   6   7
ATOM      7  C   UNL     1      15.671   6.167   6.829  1.00  0.00    -0.000 C 
BRANCH   7   8
ATOM      8  C   UNL     1      16.439   4.849   7.030  1.00  0.00    -0.000 C 
BRANCH   8   9
ATOM      9  C   UNL     1      17.640   4.997   7.980  1.00  0.00    -0.000 C 
BRANCH   9  10
ATOM     10  C   UNL     1      18.125   6.444   8.191  1.00  0.00    -0.000 C 
BRANCH  10  11
ATOM     11  C   UNL     1      17.973   6.918   9.644  1.00  0.00    -0.003 C 
ATOM     12  C   UNL     1      16.521   7.269   9.957  1.00  0.00     0.004 C 
ENDBRANCH  10  11
ENDBRANCH   9  10
ENDBRANCH   8   9
ENDBRANCH   7   8
ENDBRANCH   6   7
ENDBRANCH   5   6
ENDBRANCH   4   5
ENDBRANCH   3   4
ENDBRANCH   2   3
ENDBRANCH   1   2
BRANCH   1  13
ATOM     13  C   UNL     1      10.563   2.988   8.174  1.00  0.00     0.000 C 
BRANCH  13  14
ATOM     14  C   UNL     1      10.772   1.633   8.874  1.00  0.00     0.000 C 
BRANCH  14  15
ATOM     15  C   UNL     1      11.086   0.448   7.935  1.00  0.00     0.000 C 
BRANCH  15  16
ATOM     16  C   UNL     1      12.198  -0.497   8.424  1.00  0.00     0.000 C 
BRANCH  16  17
ATOM     17  C   UNL     1      12.767  -1.383   7.307  1.00  0.00     0.000 C 
BRANCH  17  18
ATOM     18  C   UNL     1      11.857  -2.595   7.057  1.00  0.00     0.000 C 
BRANCH  18  19
ATOM     19  C   UNL     1      11.224  -3.150   8.346  1.00  0.00     0.000 C 
BRANCH  19  20
ATOM     20  C   UNL     1      11.927  -4.386   8.939  1.00  0.00     0.006 C 
BRANCH  20  21
ATOM     21  C   UNL     1      11.016  -5.620   9.005  1.00  0.00     0.053 C 
BRANCH  21  22
ATOM     22  C   UNL     1      10.235  -5.766   7.737  1.00  0.00     0.041 C 
ATOM     23  O   UNL     1       8.995  -5.980   7.778  1.00  0.00    -0.550 OA
ATOM     24  O   UNL     1      10.871  -5.634   6.508  1.00  0.00    -0.550 OA
ENDBRANCH  21  22
ENDBRANCH  20  21
ENDBRANCH  19  20
ENDBRANCH  18  19
ENDBRANCH  17  18
ENDBRANCH  16  17
ENDBRANCH  15  16
ENDBRANCH  14  15
ENDBRANCH  13  14
ENDBRANCH   1  13
TORSDOF 20
ENDMDL
MODEL 5
REMARK VINA RESULT:    25.826      4.132      9.319
REMARK INTER + INTRA:          56.307
REMARK INTER:                  57.580
REMARK INTRA:                  -1.274
REMARK UNBOUND:                 0.285
REMARK SMILES CCCCCCCCCCCCCCCCCCCCCC(=O)[O-]
REMARK SMILES IDX 12 1 11 2 10 3 9 4 8 5 7 6 6 7 5 8 4 9 3 10 2 11 1 12 13 13
REMARK SMILES IDX 14 14 15 15 16 16 17 17 18 18 19 19 20 20 21 21 22 22 23 23
REMARK SMILES IDX 24 24
REMARK H PARENT
REMARK Flexibility Score: inf
ROOT
ATOM      1  C   UNL     1      10.530   6.156   8.674  1.00  0.00     0.000 C 
ENDROOT
BRANCH   1   2
ATOM      2  C   UNL     1      11.660   6.384   7.647  1.00  0.00     0.000 C 
BRANCH   2   3
ATOM      3  C   UNL     1      12.657   7.468   8.089  1.00  0.00     0.000 C 
BRANCH   3   4
ATOM      4  C   UNL     1      14.056   7.258   7.469  1.00  0.00    -0.000 C 
BRANCH   4   5
ATOM      5  C   UNL     1      14.553   5.804   7.547  1.00  0.00    -0.000 C 
BRANCH   5   6
ATOM      6  C   UNL     1      15.642   5.489   6.508  1.00  0.00    -0.000 C 
BRANCH   6   7
ATOM      7  C   UNL     1      16.612   4.396   6.986  1.00  0.00    -0.000 C 
BRANCH   7   8
ATOM      8  C   UNL     1      18.052   4.914   7.150  1.00  0.00    -0.000 C 
BRANCH   8   9
ATOM      9  C   UNL     1      18.124   6.253   7.906  1.00  0.00    -0.000 C 
BRANCH   9  10
ATOM     10  C   UNL     1      17.571   6.215   9.343  1.00  0.00    -0.000 C 
BRANCH  10  11
ATOM     11  C   UNL     1      16.730   7.451   9.691  1.00  0.00    -0.003 C 
ATOM     12  C   UNL     1      17.581   8.520  10.372  1.00  0.00     0.004 C 
ENDBRANCH  10  11
ENDBRANCH   9  10
ENDBRANCH   8   9
ENDBRANCH   7   8
ENDBRANCH   6   7
ENDBRANCH   5   6
ENDBRANCH   4   5
ENDBRANCH   3   4
ENDBRANCH   2   3
ENDBRANCH   1   2
BRANCH   1  13
ATOM     13  C   UNL     1       9.685   4.896   8.403  1.00  0.00     0.000 C 
BRANCH  13  14
ATOM     14  C   UNL     1       9.958   4.209   7.053  1.00  0.00     0.000 C 
BRANCH  14  15
ATOM     15  C   UNL     1      10.829   2.937   7.124  1.00  0.00     0.000 C 
BRANCH  15  16
ATOM     16  C   UNL     1      10.703   2.129   8.428  1.00  0.00     0.000 C 
BRANCH  16  17
ATOM     17  C   UNL     1      10.412   0.642   8.188  1.00  0.00     0.000 C 
BRANCH  17  18
ATOM     18  C   UNL     1      11.672  -0.204   8.422  1.00  0.00     0.000 C 
BRANCH  18  19
ATOM     19  C   UNL     1      12.199  -0.869   7.137  1.00  0.00     0.000 C 
BRANCH  19  20
ATOM     20  C   UNL     1      11.834  -2.357   6.975  1.00  0.00     0.006 C 
BRANCH  20  21
ATOM     21  C   UNL     1      11.717  -3.095   8.316  1.00  0.00     0.053 C 
BRANCH  21  22
ATOM     22  C   UNL     1      11.075  -4.434   8.125  1.00  0.00     0.041 C 
ATOM     23  O   UNL     1      10.273  -4.881   8.987  1.00  0.00    -0.550 OA
ATOM     24  O   UNL     1      11.336  -5.174   6.978  1.00  0.00    -0.550 OA
ENDBRANCH  21  22
ENDBRANCH  20  21
ENDBRANCH  19  20
ENDBRANCH  18  19
ENDBRANCH  17  18
ENDBRANCH  16  17
ENDBRANCH  15  16
ENDBRANCH  14  15
ENDBRANCH  13  14
ENDBRANCH   1  13
TORSDOF 20
ENDMDL
MODEL 6
REMARK VINA RESULT:    26.242      4.182      9.164
REMARK INTER + INTRA:          57.208
REMARK INTER:                  57.260
REMARK INTRA:                  -0.051
REMARK UNBOUND:                 0.285
REMARK SMILES CCCCCCCCCCCCCCCCCCCCCC(=O)[O-]
REMARK SMILES IDX 12 1 11 2 10 3 9 4 8 5 7 6 6 7 5 8 4 9 3 10 2 11 1 12 13 13
REMARK SMILES IDX 14 14 15 15 16 16 17 17 18 18 19 19 20 20 21 21 22 22 23 23
REMARK SMILES IDX 24 24
REMARK H PARENT
REMARK Flexibility Score: inf
ROOT
ATOM      1  C   UNL     1      10.795   4.034   7.632  1.00  0.00     0.000 C 
ENDROOT
BRANCH   1   2
ATOM      2  C   UNL     1      10.304   5.448   7.256  1.00  0.00     0.000 C 
BRANCH   2   3
ATOM      3  C   UNL     1      11.392   6.522   7.434  1.00  0.00     0.000 C 
BRANCH   3   4
ATOM      4  C   UNL     1      12.468   6.094   8.455  1.00  0.00    -0.000 C 
BRANCH   4   5
ATOM      5  C   UNL     1      13.787   6.875   8.325  1.00  0.00    -0.000 C 
BRANCH   5   6
ATOM      6  C   UNL     1      14.482   7.103   9.678  1.00  0.00    -0.000 C 
BRANCH   6   7
ATOM      7  C   UNL     1      16.002   7.287   9.535  1.00  0.00    -0.000 C 
BRANCH   7   8
ATOM      8  C   UNL     1      16.526   6.838   8.160  1.00  0.00    -0.000 C 
BRANCH   8   9
ATOM      9  C   UNL     1      15.921   5.501   7.696  1.00  0.00    -0.000 C 
BRANCH   9  10
ATOM     10  C   UNL     1      16.090   5.200   6.195  1.00  0.00    -0.000 C 
BRANCH  10  11
ATOM     11  C   UNL     1      17.395   4.457   5.880  1.00  0.00    -0.003 C 
ATOM     12  C   UNL     1      17.285   2.977   6.236  1.00  0.00     0.004 C 
ENDBRANCH  10  11
ENDBRANCH   9  10
ENDBRANCH   8   9
ENDBRANCH   7   8
ENDBRANCH   6   7
ENDBRANCH   5   6
ENDBRANCH   4   5
ENDBRANCH   3   4
ENDBRANCH   2   3
ENDBRANCH   1   2
BRANCH   1  13
ATOM     13  C   UNL     1      10.475   3.628   9.083  1.00  0.00     0.000 C 
BRANCH  13  14
ATOM     14  C   UNL     1      10.592   2.121   9.377  1.00  0.00     0.000 C 
BRANCH  14  15
ATOM     15  C   UNL     1       9.775   1.202   8.444  1.00  0.00     0.000 C 
BRANCH  15  16
ATOM     16  C   UNL     1      10.611   0.305   7.513  1.00  0.00     0.000 C 
BRANCH  16  17
ATOM     17  C   UNL     1      11.987  -0.047   8.094  1.00  0.00     0.000 C 
BRANCH  17  18
ATOM     18  C   UNL     1      12.717  -1.053   7.192  1.00  0.00     0.000 C 
BRANCH  18  19
ATOM     19  C   UNL     1      13.079  -2.362   7.917  1.00  0.00     0.000 C 
BRANCH  19  20
ATOM     20  C   UNL     1      11.995  -2.903   8.867  1.00  0.00     0.006 C 
BRANCH  20  21
ATOM     21  C   UNL     1      10.898  -3.693   8.139  1.00  0.00     0.053 C 
BRANCH  21  22
ATOM     22  C   UNL     1      10.972  -5.145   8.493  1.00  0.00     0.041 C 
ATOM     23  O   UNL     1      11.819  -5.551   9.332  1.00  0.00    -0.550 OA
ATOM     24  O   UNL     1      10.084  -6.047   7.919  1.00  0.00    -0.550 OA
ENDBRANCH  21  22
ENDBRANCH  20  21
ENDBRANCH  19  20
ENDBRANCH  18  19
ENDBRANCH  17  18
ENDBRANCH  16  17
ENDBRANCH  15  16
ENDBRANCH  14  15
ENDBRANCH  13  14
ENDBRANCH   1  13
TORSDOF 20
ENDMDL
MODEL 7
REMARK VINA RESULT:    26.266      1.170      3.375
REMARK INTER + INTRA:          57.262
REMARK INTER:                  58.183
REMARK INTRA:                  -0.921
REMARK UNBOUND:                 0.285
REMARK SMILES CCCCCCCCCCCCCCCCCCCCCC(=O)[O-]
REMARK SMILES IDX 12 1 11 2 10 3 9 4 8 5 7 6 6 7 5 8 4 9 3 10 2 11 1 12 13 13
REMARK SMILES IDX 14 14 15 15 16 16 17 17 18 18 19 19 20 20 21 21 22 22 23 23
REMARK SMILES IDX 24 24
REMARK H PARENT
REMARK Flexibility Score: inf
ROOT
ATOM      1  C   UNL     1      11.051   2.547   8.668  1.00  0.00     0.000 C 
ENDROOT
BRANCH   1   2
ATOM      2  C   UNL     1      10.605   1.172   8.128  1.00  0.00     0.000 C 
BRANCH   2   3
ATOM      3  C   UNL     1      11.727   0.435   7.376  1.00  0.00     0.000 C 
BRANCH   3   4
ATOM      4  C   UNL     1      12.215  -0.815   8.140  1.00  0.00    -0.000 C 
BRANCH   4   5
ATOM      5  C   UNL     1      12.310  -2.076   7.264  1.00  0.00    -0.000 C 
BRANCH   5   6
ATOM      6  C   UNL     1      11.257  -3.135   7.626  1.00  0.00    -0.000 C 
BRANCH   6   7
ATOM      7  C   UNL     1      11.305  -3.531   9.110  1.00  0.00    -0.000 C 
BRANCH   7   8
ATOM      8  C   UNL     1      12.315  -4.657   9.391  1.00  0.00    -0.000 C 
BRANCH   8   9
ATOM      9  C   UNL     1      11.801  -6.042   8.959  1.00  0.00    -0.000 C 
BRANCH   9  10
ATOM     10  C   UNL     1      11.854  -7.123  10.055  1.00  0.00    -0.000 C 
BRANCH  10  11
ATOM     11  C   UNL     1      10.997  -6.772  11.279  1.00  0.00    -0.003 C 
ATOM     12  C   UNL     1      11.872  -6.416  12.478  1.00  0.00     0.004 C 
ENDBRANCH  10  11
ENDBRANCH   9  10
ENDBRANCH   8   9
ENDBRANCH   7   8
ENDBRANCH   6   7
ENDBRANCH   5   6
ENDBRANCH   4   5
ENDBRANCH   3   4
ENDBRANCH   2   3
ENDBRANCH   1   2
BRANCH   1  13
ATOM     13  C   UNL     1      11.346   3.584   7.566  1.00  0.00     0.000 C 
BRANCH  13  14
ATOM     14  C   UNL     1      10.393   4.792   7.539  1.00  0.00     0.000 C 
BRANCH  14  15
ATOM     15  C   UNL     1      10.458   5.711   8.778  1.00  0.00     0.000 C 
BRANCH  15  16
ATOM     16  C   UNL     1      11.207   7.039   8.570  1.00  0.00     0.000 C 
BRANCH  16  17
ATOM     17  C   UNL     1      12.193   6.995   7.394  1.00  0.00     0.000 C 
BRANCH  17  18
ATOM     18  C   UNL     1      13.642   6.937   7.902  1.00  0.00     0.000 C 
BRANCH  18  19
ATOM     19  C   UNL     1      14.285   5.548   7.736  1.00  0.00     0.000 C 
BRANCH  19  20
ATOM     20  C   UNL     1      15.798   5.491   8.018  1.00  0.00     0.006 C 
BRANCH  20  21
ATOM     21  C   UNL     1      16.460   6.876   8.020  1.00  0.00     0.053 C 
BRANCH  21  22
ATOM     22  C   UNL     1      16.402   7.486   9.385  1.00  0.00     0.041 C 
ATOM     23  O   UNL     1      16.769   8.677   9.563  1.00  0.00    -0.550 OA
ATOM     24  O   UNL     1      15.911   6.750  10.456  1.00  0.00    -0.550 OA
ENDBRANCH  21  22
ENDBRANCH  20  21
ENDBRANCH  19  20
ENDBRANCH  18  19
ENDBRANCH  17  18
ENDBRANCH  16  17
ENDBRANCH  15  16
ENDBRANCH  14  15
ENDBRANCH  13  14
ENDBRANCH   1  13
TORSDOF 20
ENDMDL
