MODEL 1
REMARK VINA RESULT:     6.296      0.000      0.000
REMARK INTER + INTRA:           7.758
REMARK INTER:                   7.584
REMARK INTRA:                   0.174
REMARK UNBOUND:                 0.174
REMARK SMILES O=c1c(O)c(-c2ccc(O)c(O)c2)oc2cc(O)cc(O)c12
REMARK SMILES IDX 5 1 3 2 2 3 1 4 22 5 20 6 19 7 17 8 16 9 15 10 14 11 6 12
REMARK SMILES IDX 7 13 8 14 9 15 13 16 11 17 10 18 12 20 4 22 21 24 18 26
REMARK H PARENT 10 19 12 21 4 23 21 25 18 27
REMARK Flexibility Score: inf
ROOT
ATOM      1  C   UNL     1      13.275  21.122   0.827  1.00  0.00     0.180 A 
ATOM      2  C   UNL     1      14.209  22.006   0.261  1.00  0.00     0.208 A 
ATOM      3  C   UNL     1      14.254  22.146  -1.136  1.00  0.00     0.238 A 
ATOM      4  O   UNL     1      15.129  22.897  -1.640  1.00  0.00    -0.285 OA
ATOM      5  C   UNL     1      13.354  21.413  -1.947  1.00  0.00     0.111 A 
ATOM      6  C   UNL     1      13.285  21.507  -3.370  1.00  0.00     0.134 A 
ATOM      7  C   UNL     1      12.446  20.639  -4.079  1.00  0.00     0.093 A 
ATOM      8  C   UNL     1      11.625  19.725  -3.412  1.00  0.00     0.123 A 
ATOM      9  C   UNL     1      11.643  19.668  -2.022  1.00  0.00     0.094 A 
ATOM     10  C   UNL     1      12.496  20.495  -1.287  1.00  0.00     0.146 A 
ATOM     11  O   UNL     1      12.488  20.400   0.037  1.00  0.00    -0.452 OA
ENDROOT
BRANCH   1  12
ATOM     12  C   UNL     1      13.149  20.940   2.291  1.00  0.00     0.025 A 
ATOM     13  C   UNL     1      12.975  19.664   2.858  1.00  0.00     0.016 A 
ATOM     14  C   UNL     1      12.884  19.513   4.244  1.00  0.00     0.051 A 
ATOM     15  C   UNL     1      12.978  20.631   5.083  1.00  0.00     0.157 A 
ATOM     16  C   UNL     1      13.265  22.053   3.140  1.00  0.00     0.062 A 
ATOM     17  C   UNL     1      13.172  21.903   4.531  1.00  0.00     0.158 A 
BRANCH  15  18
ATOM     18  O   UNL     1      12.885  20.484   6.467  1.00  0.00    -0.504 OA
ATOM     19  H   UNL     1      12.677  19.588   6.892  1.00  0.00     0.293 HD
ENDBRANCH  15  18
BRANCH  17  20
ATOM     20  O   UNL     1      13.273  23.012   5.369  1.00  0.00    -0.504 OA
ATOM     21  H   UNL     1      13.714  22.950   6.279  1.00  0.00     0.293 HD
ENDBRANCH  17  20
ENDBRANCH   1  12
BRANCH   2  22
ATOM     22  O   UNL     1      15.102  22.703   1.078  1.00  0.00    -0.502 OA
ATOM     23  H   UNL     1      16.107  22.636   0.968  1.00  0.00     0.293 HD
ENDBRANCH   2  22
BRANCH   6  24
ATOM     24  O   UNL     1      13.993  22.447  -4.125  1.00  0.00    -0.507 OA
ATOM     25  H   UNL     1      14.463  23.254  -3.744  1.00  0.00     0.293 HD
ENDBRANCH   6  24
BRANCH   8  26
ATOM     26  O   UNL     1      10.783  18.876  -4.125  1.00  0.00    -0.508 OA
ATOM     27  H   UNL     1       9.862  19.174  -4.428  1.00  0.00     0.293 HD
ENDBRANCH   8  26
TORSDOF 6
ENDMDL
