MODEL 1
REMARK VINA RESULT:    -3.402      0.000      0.000
REMARK INTER + INTRA:          -8.726
REMARK INTER:                  -6.584
REMARK INTRA:                  -2.142
REMARK UNBOUND:                -2.142
REMARK SMILES CCCCCCCCCCCCCCCCCC(=O)[O-]
REMARK SMILES IDX 10 1 11 2 12 3 13 4 14 5 15 6 16 7 17 8 18 9 19 10 20 11
REMARK SMILES IDX 9 12 8 13 7 14 6 15 5 16 4 17 3 18 2 19 1 20
REMARK H PARENT
REMARK Flexibility Score: inf
ROOT
ATOM      1  C   UNL     1     -31.387   3.241 -35.969  1.00  0.00     0.000 C 
ENDROOT
BRANCH   1   2
ATOM      2  C   UNL     1     -29.931   3.091 -36.431  1.00  0.00     0.000 C 
BRANCH   2   3
ATOM      3  C   UNL     1     -29.662   3.756 -37.793  1.00  0.00     0.000 C 
BRANCH   3   4
ATOM      4  C   UNL     1     -28.172   3.979 -38.129  1.00  0.00     0.000 C 
BRANCH   4   5
ATOM      5  C   UNL     1     -27.476   5.090 -37.322  1.00  0.00     0.000 C 
BRANCH   5   6
ATOM      6  C   UNL     1     -26.485   4.591 -36.252  1.00  0.00     0.000 C 
BRANCH   6   7
ATOM      7  C   UNL     1     -26.260   5.590 -35.096  1.00  0.00     0.006 C 
BRANCH   7   8
ATOM      8  C   UNL     1     -26.205   4.903 -33.726  1.00  0.00     0.053 C 
BRANCH   8   9
ATOM      9  C   UNL     1     -24.880   5.143 -33.072  1.00  0.00     0.041 C 
ATOM     10  O   UNL     1     -24.815   5.769 -31.980  1.00  0.00    -0.550 OA
ATOM     11  O   UNL     1     -23.719   4.641 -33.650  1.00  0.00    -0.550 OA
ENDBRANCH   8   9
ENDBRANCH   7   8
ENDBRANCH   6   7
ENDBRANCH   5   6
ENDBRANCH   4   5
ENDBRANCH   3   4
ENDBRANCH   2   3
ENDBRANCH   1   2
BRANCH   1  12
ATOM     12  C   UNL     1     -32.202   4.054 -36.985  1.00  0.00     0.000 C 
BRANCH  12  13
ATOM     13  C   UNL     1     -33.329   3.236 -37.642  1.00  0.00    -0.000 C 
BRANCH  13  14
ATOM     14  C   UNL     1     -32.910   2.439 -38.896  1.00  0.00    -0.000 C 
BRANCH  14  15
ATOM     15  C   UNL     1     -33.189   0.924 -38.830  1.00  0.00    -0.000 C 
BRANCH  15  16
ATOM     16  C   UNL     1     -32.754   0.234 -37.522  1.00  0.00    -0.000 C 
BRANCH  16  17
ATOM     17  C   UNL     1     -31.314  -0.310 -37.520  1.00  0.00    -0.000 C 
BRANCH  17  18
ATOM     18  C   UNL     1     -30.766  -0.550 -38.938  1.00  0.00    -0.000 C 
BRANCH  18  19
ATOM     19  C   UNL     1     -29.570   0.359 -39.266  1.00  0.00    -0.003 C 
ATOM     20  C   UNL     1     -28.406   0.180 -38.291  1.00  0.00     0.004 C 
ENDBRANCH  18  19
ENDBRANCH  17  18
ENDBRANCH  16  17
ENDBRANCH  15  16
ENDBRANCH  14  15
ENDBRANCH  13  14
ENDBRANCH  12  13
ENDBRANCH   1  12
TORSDOF 16
ENDMDL
MODEL 2
REMARK VINA RESULT:    -3.394      1.663      3.026
REMARK INTER + INTRA:          -8.710
REMARK INTER:                  -6.099
REMARK INTRA:                  -2.611
REMARK UNBOUND:                -2.142
REMARK SMILES CCCCCCCCCCCCCCCCCC(=O)[O-]
REMARK SMILES IDX 10 1 11 2 12 3 13 4 14 5 15 6 16 7 17 8 18 9 19 10 20 11
REMARK SMILES IDX 9 12 8 13 7 14 6 15 5 16 4 17 3 18 2 19 1 20
REMARK H PARENT
REMARK Flexibility Score: inf
ROOT
ATOM      1  C   UNL     1     -32.820   3.656 -39.439  1.00  0.00     0.000 C 
ENDROOT
BRANCH   1   2
ATOM      2  C   UNL     1     -31.783   4.646 -38.890  1.00  0.00     0.000 C 
BRANCH   2   3
ATOM      3  C   UNL     1     -30.377   4.431 -39.479  1.00  0.00     0.000 C 
BRANCH   3   4
ATOM      4  C   UNL     1     -29.476   5.685 -39.496  1.00  0.00     0.000 C 
BRANCH   4   5
ATOM      5  C   UNL     1     -28.590   5.873 -38.251  1.00  0.00     0.000 C 
BRANCH   5   6
ATOM      6  C   UNL     1     -27.802   4.620 -37.820  1.00  0.00     0.000 C 
BRANCH   6   7
ATOM      7  C   UNL     1     -26.696   4.906 -36.782  1.00  0.00     0.006 C 
BRANCH   7   8
ATOM      8  C   UNL     1     -26.421   3.705 -35.867  1.00  0.00     0.053 C 
BRANCH   8   9
ATOM      9  C   UNL     1     -24.949   3.521 -35.671  1.00  0.00     0.041 C 
ATOM     10  O   UNL     1     -24.448   3.584 -34.516  1.00  0.00    -0.550 OA
ATOM     11  O   UNL     1     -24.133   3.241 -36.762  1.00  0.00    -0.550 OA
ENDBRANCH   8   9
ENDBRANCH   7   8
ENDBRANCH   6   7
ENDBRANCH   5   6
ENDBRANCH   4   5
ENDBRANCH   3   4
ENDBRANCH   2   3
ENDBRANCH   1   2
BRANCH   1  12
ATOM     12  C   UNL     1     -32.240   2.235 -39.498  1.00  0.00     0.000 C 
BRANCH  12  13
ATOM     13  C   UNL     1     -33.102   1.205 -38.746  1.00  0.00    -0.000 C 
BRANCH  13  14
ATOM     14  C   UNL     1     -32.373  -0.103 -38.371  1.00  0.00    -0.000 C 
BRANCH  14  15
ATOM     15  C   UNL     1     -31.016  -0.318 -39.071  1.00  0.00    -0.000 C 
BRANCH  15  16
ATOM     16  C   UNL     1     -29.785  -0.263 -38.144  1.00  0.00    -0.000 C 
BRANCH  16  17
ATOM     17  C   UNL     1     -29.237   1.149 -37.871  1.00  0.00    -0.000 C 
BRANCH  17  18
ATOM     18  C   UNL     1     -29.419   1.585 -36.406  1.00  0.00    -0.000 C 
BRANCH  18  19
ATOM     19  C   UNL     1     -30.583   2.574 -36.228  1.00  0.00    -0.003 C 
ATOM     20  C   UNL     1     -30.298   3.640 -35.170  1.00  0.00     0.004 C 
ENDBRANCH  18  19
ENDBRANCH  17  18
ENDBRANCH  16  17
ENDBRANCH  15  16
ENDBRANCH  14  15
ENDBRANCH  13  14
ENDBRANCH  12  13
ENDBRANCH   1  12
TORSDOF 16
ENDMDL
MODEL 3
REMARK VINA RESULT:    -3.358      2.048      3.648
REMARK INTER + INTRA:          -8.642
REMARK INTER:                  -5.948
REMARK INTRA:                  -2.694
REMARK UNBOUND:                -2.142
REMARK SMILES CCCCCCCCCCCCCCCCCC(=O)[O-]
REMARK SMILES IDX 10 1 11 2 12 3 13 4 14 5 15 6 16 7 17 8 18 9 19 10 20 11
REMARK SMILES IDX 9 12 8 13 7 14 6 15 5 16 4 17 3 18 2 19 1 20
REMARK H PARENT
REMARK Flexibility Score: inf
ROOT
ATOM      1  C   UNL     1     -33.170   2.240 -37.973  1.00  0.00     0.000 C 
ENDROOT
BRANCH   1   2
ATOM      2  C   UNL     1     -31.894   3.053 -38.237  1.00  0.00     0.000 C 
BRANCH   2   3
ATOM      3  C   UNL     1     -31.510   3.098 -39.726  1.00  0.00     0.000 C 
BRANCH   3   4
ATOM      4  C   UNL     1     -30.159   3.782 -40.032  1.00  0.00     0.000 C 
BRANCH   4   5
ATOM      5  C   UNL     1     -30.130   5.306 -39.812  1.00  0.00     0.000 C 
BRANCH   5   6
ATOM      6  C   UNL     1     -29.062   5.797 -38.815  1.00  0.00     0.000 C 
BRANCH   6   7
ATOM      7  C   UNL     1     -28.358   4.659 -38.045  1.00  0.00     0.006 C 
BRANCH   7   8
ATOM      8  C   UNL     1     -27.248   5.173 -37.119  1.00  0.00     0.053 C 
BRANCH   8   9
ATOM      9  C   UNL     1     -27.278   4.447 -35.811  1.00  0.00     0.041 C 
ATOM     10  O   UNL     1     -26.206   4.197 -35.198  1.00  0.00    -0.550 OA
ATOM     11  O   UNL     1     -28.496   4.081 -35.249  1.00  0.00    -0.550 OA
ENDBRANCH   8   9
ENDBRANCH   7   8
ENDBRANCH   6   7
ENDBRANCH   5   6
ENDBRANCH   4   5
ENDBRANCH   3   4
ENDBRANCH   2   3
ENDBRANCH   1   2
BRANCH   1  12
ATOM     12  C   UNL     1     -33.158   0.930 -38.774  1.00  0.00     0.000 C 
BRANCH  12  13
ATOM     13  C   UNL     1     -32.256  -0.149 -38.146  1.00  0.00    -0.000 C 
BRANCH  13  14
ATOM     14  C   UNL     1     -31.228  -0.778 -39.110  1.00  0.00    -0.000 C 
BRANCH  14  15
ATOM     15  C   UNL     1     -29.772  -0.781 -38.601  1.00  0.00    -0.000 C 
BRANCH  15  16
ATOM     16  C   UNL     1     -29.155   0.614 -38.375  1.00  0.00    -0.000 C 
BRANCH  16  17
ATOM     17  C   UNL     1     -28.985   1.020 -36.899  1.00  0.00    -0.000 C 
BRANCH  17  18
ATOM     18  C   UNL     1     -29.212  -0.154 -35.930  1.00  0.00    -0.000 C 
BRANCH  18  19
ATOM     19  C   UNL     1     -30.160   0.212 -34.776  1.00  0.00    -0.003 C 
ATOM     20  C   UNL     1     -30.961   1.486 -35.050  1.00  0.00     0.004 C 
ENDBRANCH  18  19
ENDBRANCH  17  18
ENDBRANCH  16  17
ENDBRANCH  15  16
ENDBRANCH  14  15
ENDBRANCH  13  14
ENDBRANCH  12  13
ENDBRANCH   1  12
TORSDOF 16
ENDMDL
MODEL 4
REMARK VINA RESULT:    -3.353      9.362     11.734
REMARK INTER + INTRA:          -8.632
REMARK INTER:                  -6.009
REMARK INTRA:                  -2.623
REMARK UNBOUND:                -2.142
REMARK SMILES CCCCCCCCCCCCCCCCCC(=O)[O-]
REMARK SMILES IDX 10 1 11 2 12 3 13 4 14 5 15 6 16 7 17 8 18 9 19 10 20 11
REMARK SMILES IDX 9 12 8 13 7 14 6 15 5 16 4 17 3 18 2 19 1 20
REMARK H PARENT
REMARK Flexibility Score: inf
ROOT
ATOM      1  C   UNL     1     -33.024  -2.245 -29.730  1.00  0.00     0.000 C 
ENDROOT
BRANCH   1   2
ATOM      2  C   UNL     1     -33.500  -3.644 -29.313  1.00  0.00     0.000 C 
BRANCH   2   3
ATOM      3  C   UNL     1     -34.967  -3.916 -29.692  1.00  0.00     0.000 C 
BRANCH   3   4
ATOM      4  C   UNL     1     -35.365  -5.407 -29.737  1.00  0.00     0.000 C 
BRANCH   4   5
ATOM      5  C   UNL     1     -35.459  -6.018 -31.147  1.00  0.00     0.000 C 
BRANCH   5   6
ATOM      6  C   UNL     1     -34.411  -7.106 -31.454  1.00  0.00     0.000 C 
BRANCH   6   7
ATOM      7  C   UNL     1     -33.100  -6.951 -30.653  1.00  0.00     0.006 C 
BRANCH   7   8
ATOM      8  C   UNL     1     -32.107  -8.089 -30.921  1.00  0.00     0.053 C 
BRANCH   8   9
ATOM      9  C   UNL     1     -32.708  -9.409 -30.552  1.00  0.00     0.041 C 
ATOM     10  O   UNL     1     -33.113 -10.196 -31.450  1.00  0.00    -0.550 OA
ATOM     11  O   UNL     1     -32.788  -9.787 -29.216  1.00  0.00    -0.550 OA
ENDBRANCH   8   9
ENDBRANCH   7   8
ENDBRANCH   6   7
ENDBRANCH   5   6
ENDBRANCH   4   5
ENDBRANCH   3   4
ENDBRANCH   2   3
ENDBRANCH   1   2
BRANCH   1  12
ATOM     12  C   UNL     1     -33.879  -1.698 -30.882  1.00  0.00     0.000 C 
BRANCH  12  13
ATOM     13  C   UNL     1     -33.038  -1.225 -32.081  1.00  0.00    -0.000 C 
BRANCH  13  14
ATOM     14  C   UNL     1     -33.309  -1.975 -33.403  1.00  0.00    -0.000 C 
BRANCH  14  15
ATOM     15  C   UNL     1     -33.763  -3.439 -33.241  1.00  0.00    -0.000 C 
BRANCH  15  16
ATOM     16  C   UNL     1     -32.636  -4.488 -33.331  1.00  0.00    -0.000 C 
BRANCH  16  17
ATOM     17  C   UNL     1     -31.434  -4.234 -32.404  1.00  0.00    -0.000 C 
BRANCH  17  18
ATOM     18  C   UNL     1     -30.092  -4.230 -33.158  1.00  0.00    -0.000 C 
BRANCH  18  19
ATOM     19  C   UNL     1     -30.259  -3.912 -34.653  1.00  0.00    -0.003 C 
ATOM     20  C   UNL     1     -29.979  -2.446 -34.981  1.00  0.00     0.004 C 
ENDBRANCH  18  19
ENDBRANCH  17  18
ENDBRANCH  16  17
ENDBRANCH  15  16
ENDBRANCH  14  15
ENDBRANCH  13  14
ENDBRANCH  12  13
ENDBRANCH   1  12
TORSDOF 16
ENDMDL
MODEL 5
REMARK VINA RESULT:    -3.313      1.541      3.307
REMARK INTER + INTRA:          -8.554
REMARK INTER:                  -5.952
REMARK INTRA:                  -2.602
REMARK UNBOUND:                -2.142
REMARK SMILES CCCCCCCCCCCCCCCCCC(=O)[O-]
REMARK SMILES IDX 10 1 11 2 12 3 13 4 14 5 15 6 16 7 17 8 18 9 19 10 20 11
REMARK SMILES IDX 9 12 8 13 7 14 6 15 5 16 4 17 3 18 2 19 1 20
REMARK H PARENT
REMARK Flexibility Score: inf
ROOT
ATOM      1  C   UNL     1     -28.660  -1.117 -38.666  1.00  0.00     0.000 C 
ENDROOT
BRANCH   1   2
ATOM      2  C   UNL     1     -27.619  -0.108 -38.160  1.00  0.00     0.000 C 
BRANCH   2   3
ATOM      3  C   UNL     1     -27.803   1.297 -38.764  1.00  0.00     0.000 C 
BRANCH   3   4
ATOM      4  C   UNL     1     -27.552   2.466 -37.787  1.00  0.00     0.000 C 
BRANCH   4   5
ATOM      5  C   UNL     1     -28.292   3.773 -38.125  1.00  0.00     0.000 C 
BRANCH   5   6
ATOM      6  C   UNL     1     -27.660   5.048 -37.532  1.00  0.00     0.000 C 
BRANCH   6   7
ATOM      7  C   UNL     1     -26.450   4.775 -36.614  1.00  0.00     0.006 C 
BRANCH   7   8
ATOM      8  C   UNL     1     -26.592   5.437 -35.237  1.00  0.00     0.053 C 
BRANCH   8   9
ATOM      9  C   UNL     1     -25.669   4.798 -34.249  1.00  0.00     0.041 C 
ATOM     10  O   UNL     1     -24.982   5.510 -33.468  1.00  0.00    -0.550 OA
ATOM     11  O   UNL     1     -25.594   3.412 -34.164  1.00  0.00    -0.550 OA
ENDBRANCH   8   9
ENDBRANCH   7   8
ENDBRANCH   6   7
ENDBRANCH   5   6
ENDBRANCH   4   5
ENDBRANCH   3   4
ENDBRANCH   2   3
ENDBRANCH   1   2
BRANCH   1  12
ATOM     12  C   UNL     1     -29.736  -0.415 -39.508  1.00  0.00     0.000 C 
BRANCH  12  13
ATOM     13  C   UNL     1     -31.165  -0.867 -39.152  1.00  0.00    -0.000 C 
BRANCH  13  14
ATOM     14  C   UNL     1     -32.131   0.274 -38.768  1.00  0.00    -0.000 C 
BRANCH  14  15
ATOM     15  C   UNL     1     -31.456   1.628 -38.471  1.00  0.00    -0.000 C 
BRANCH  15  16
ATOM     16  C   UNL     1     -31.445   2.043 -36.986  1.00  0.00    -0.000 C 
BRANCH  16  17
ATOM     17  C   UNL     1     -30.526   1.202 -36.081  1.00  0.00    -0.000 C 
BRANCH  17  18
ATOM     18  C   UNL     1     -31.282   0.541 -34.915  1.00  0.00    -0.000 C 
BRANCH  18  19
ATOM     19  C   UNL     1     -31.759  -0.880 -35.255  1.00  0.00    -0.003 C 
ATOM     20  C   UNL     1     -30.608  -1.822 -35.608  1.00  0.00     0.004 C 
ENDBRANCH  18  19
ENDBRANCH  17  18
ENDBRANCH  16  17
ENDBRANCH  15  16
ENDBRANCH  14  15
ENDBRANCH  13  14
ENDBRANCH  12  13
ENDBRANCH   1  12
TORSDOF 16
ENDMDL
MODEL 6
REMARK VINA RESULT:    -3.266      6.393      9.205
REMARK INTER + INTRA:          -8.464
REMARK INTER:                  -6.196
REMARK INTRA:                  -2.268
REMARK UNBOUND:                -2.142
REMARK SMILES CCCCCCCCCCCCCCCCCC(=O)[O-]
REMARK SMILES IDX 10 1 11 2 12 3 13 4 14 5 15 6 16 7 17 8 18 9 19 10 20 11
REMARK SMILES IDX 9 12 8 13 7 14 6 15 5 16 4 17 3 18 2 19 1 20
REMARK H PARENT
REMARK Flexibility Score: inf
ROOT
ATOM      1  C   UNL     1     -25.098   1.404 -31.991  1.00  0.00     0.000 C 
ENDROOT
BRANCH   1   2
ATOM      2  C   UNL     1     -24.648   1.131 -33.433  1.00  0.00     0.000 C 
BRANCH   2   3
ATOM      3  C   UNL     1     -24.886   2.326 -34.373  1.00  0.00     0.000 C 
BRANCH   3   4
ATOM      4  C   UNL     1     -23.647   3.210 -34.633  1.00  0.00     0.000 C 
BRANCH   4   5
ATOM      5  C   UNL     1     -23.503   4.428 -33.701  1.00  0.00     0.000 C 
BRANCH   5   6
ATOM      6  C   UNL     1     -24.832   5.089 -33.288  1.00  0.00     0.000 C 
BRANCH   6   7
ATOM      7  C   UNL     1     -25.040   5.169 -31.760  1.00  0.00     0.006 C 
BRANCH   7   8
ATOM      8  C   UNL     1     -23.774   5.613 -31.015  1.00  0.00     0.053 C 
BRANCH   8   9
ATOM      9  C   UNL     1     -24.132   6.279 -29.724  1.00  0.00     0.041 C 
ATOM     10  O   UNL     1     -23.965   5.675 -28.629  1.00  0.00    -0.550 OA
ATOM     11  O   UNL     1     -24.614   7.583 -29.726  1.00  0.00    -0.550 OA
ENDBRANCH   8   9
ENDBRANCH   7   8
ENDBRANCH   6   7
ENDBRANCH   5   6
ENDBRANCH   4   5
ENDBRANCH   3   4
ENDBRANCH   2   3
ENDBRANCH   1   2
BRANCH   1  12
ATOM     12  C   UNL     1     -23.991   1.035 -30.994  1.00  0.00     0.000 C 
BRANCH  12  13
ATOM     13  C   UNL     1     -22.765   1.963 -31.087  1.00  0.00    -0.000 C 
BRANCH  13  14
ATOM     14  C   UNL     1     -21.411   1.239 -31.234  1.00  0.00    -0.000 C 
BRANCH  14  15
ATOM     15  C   UNL     1     -20.733   1.395 -32.610  1.00  0.00    -0.000 C 
BRANCH  15  16
ATOM     16  C   UNL     1     -20.676   0.111 -33.462  1.00  0.00    -0.000 C 
BRANCH  16  17
ATOM     17  C   UNL     1     -20.879  -1.200 -32.680  1.00  0.00    -0.000 C 
BRANCH  17  18
ATOM     18  C   UNL     1     -19.564  -1.761 -32.109  1.00  0.00    -0.000 C 
BRANCH  18  19
ATOM     19  C   UNL     1     -19.285  -3.197 -32.582  1.00  0.00    -0.003 C 
ATOM     20  C   UNL     1     -18.891  -3.268 -34.057  1.00  0.00     0.004 C 
ENDBRANCH  18  19
ENDBRANCH  17  18
ENDBRANCH  16  17
ENDBRANCH  15  16
ENDBRANCH  14  15
ENDBRANCH  13  14
ENDBRANCH  12  13
ENDBRANCH   1  12
TORSDOF 16
ENDMDL
MODEL 7
REMARK VINA RESULT:    -3.236      5.764      9.729
REMARK INTER + INTRA:          -8.406
REMARK INTER:                  -5.636
REMARK INTRA:                  -2.770
REMARK UNBOUND:                -2.142
REMARK SMILES CCCCCCCCCCCCCCCCCC(=O)[O-]
REMARK SMILES IDX 10 1 11 2 12 3 13 4 14 5 15 6 16 7 17 8 18 9 19 10 20 11
REMARK SMILES IDX 9 12 8 13 7 14 6 15 5 16 4 17 3 18 2 19 1 20
REMARK H PARENT
REMARK Flexibility Score: inf
ROOT
ATOM      1  C   UNL     1     -27.293   4.022 -29.683  1.00  0.00     0.000 C 
ENDROOT
BRANCH   1   2
ATOM      2  C   UNL     1     -27.219   4.745 -31.035  1.00  0.00     0.000 C 
BRANCH   2   3
ATOM      3  C   UNL     1     -27.417   3.799 -32.233  1.00  0.00     0.000 C 
BRANCH   3   4
ATOM      4  C   UNL     1     -27.119   4.421 -33.614  1.00  0.00     0.000 C 
BRANCH   4   5
ATOM      5  C   UNL     1     -25.746   4.063 -34.212  1.00  0.00     0.000 C 
BRANCH   5   6
ATOM      6  C   UNL     1     -24.562   4.878 -33.656  1.00  0.00     0.000 C 
BRANCH   6   7
ATOM      7  C   UNL     1     -23.369   4.012 -33.198  1.00  0.00     0.006 C 
BRANCH   7   8
ATOM      8  C   UNL     1     -23.798   2.612 -32.739  1.00  0.00     0.053 C 
BRANCH   8   9
ATOM      9  C   UNL     1     -22.669   1.919 -32.045  1.00  0.00     0.041 C 
ATOM     10  O   UNL     1     -21.517   1.909 -32.557  1.00  0.00    -0.550 OA
ATOM     11  O   UNL     1     -22.881   1.313 -30.811  1.00  0.00    -0.550 OA
ENDBRANCH   8   9
ENDBRANCH   7   8
ENDBRANCH   6   7
ENDBRANCH   5   6
ENDBRANCH   4   5
ENDBRANCH   3   4
ENDBRANCH   2   3
ENDBRANCH   1   2
BRANCH   1  12
ATOM     12  C   UNL     1     -26.034   4.297 -28.847  1.00  0.00     0.000 C 
BRANCH  12  13
ATOM     13  C   UNL     1     -24.735   4.189 -29.667  1.00  0.00    -0.000 C 
BRANCH  13  14
ATOM     14  C   UNL     1     -23.791   5.405 -29.553  1.00  0.00    -0.000 C 
BRANCH  14  15
ATOM     15  C   UNL     1     -24.220   6.643 -30.366  1.00  0.00    -0.000 C 
BRANCH  15  16
ATOM     16  C   UNL     1     -24.603   7.878 -29.526  1.00  0.00    -0.000 C 
BRANCH  16  17
ATOM     17  C   UNL     1     -26.077   7.934 -29.085  1.00  0.00    -0.000 C 
BRANCH  17  18
ATOM     18  C   UNL     1     -26.243   7.889 -27.556  1.00  0.00    -0.000 C 
BRANCH  18  19
ATOM     19  C   UNL     1     -24.899   7.993 -26.816  1.00  0.00    -0.003 C 
ATOM     20  C   UNL     1     -24.559   6.729 -26.027  1.00  0.00     0.004 C 
ENDBRANCH  18  19
ENDBRANCH  17  18
ENDBRANCH  16  17
ENDBRANCH  15  16
ENDBRANCH  14  15
ENDBRANCH  13  14
ENDBRANCH  12  13
ENDBRANCH   1  12
TORSDOF 16
ENDMDL
MODEL 8
REMARK VINA RESULT:    -3.234      5.659      9.655
REMARK INTER + INTRA:          -8.401
REMARK INTER:                  -5.897
REMARK INTRA:                  -2.504
REMARK UNBOUND:                -2.142
REMARK SMILES CCCCCCCCCCCCCCCCCC(=O)[O-]
REMARK SMILES IDX 10 1 11 2 12 3 13 4 14 5 15 6 16 7 17 8 18 9 19 10 20 11
REMARK SMILES IDX 9 12 8 13 7 14 6 15 5 16 4 17 3 18 2 19 1 20
REMARK H PARENT
REMARK Flexibility Score: inf
ROOT
ATOM      1  C   UNL     1     -23.949   0.924 -32.624  1.00  0.00     0.000 C 
ENDROOT
BRANCH   1   2
ATOM      2  C   UNL     1     -24.145   1.712 -31.321  1.00  0.00     0.000 C 
BRANCH   2   3
ATOM      3  C   UNL     1     -22.963   2.644 -31.000  1.00  0.00     0.000 C 
BRANCH   3   4
ATOM      4  C   UNL     1     -23.354   4.016 -30.410  1.00  0.00     0.000 C 
BRANCH   4   5
ATOM      5  C   UNL     1     -24.506   4.737 -31.133  1.00  0.00     0.000 C 
BRANCH   5   6
ATOM      6  C   UNL     1     -24.177   5.219 -32.560  1.00  0.00     0.000 C 
BRANCH   6   7
ATOM      7  C   UNL     1     -25.349   5.070 -33.553  1.00  0.00     0.006 C 
BRANCH   7   8
ATOM      8  C   UNL     1     -25.032   4.101 -34.699  1.00  0.00     0.053 C 
BRANCH   8   9
ATOM      9  C   UNL     1     -26.034   2.991 -34.740  1.00  0.00     0.041 C 
ATOM     10  O   UNL     1     -25.925   2.067 -35.591  1.00  0.00    -0.550 OA
ATOM     11  O   UNL     1     -27.069   2.955 -33.812  1.00  0.00    -0.550 OA
ENDBRANCH   8   9
ENDBRANCH   7   8
ENDBRANCH   6   7
ENDBRANCH   5   6
ENDBRANCH   4   5
ENDBRANCH   3   4
ENDBRANCH   2   3
ENDBRANCH   1   2
BRANCH   1  12
ATOM     12  C   UNL     1     -22.794   1.511 -33.448  1.00  0.00     0.000 C 
BRANCH  12  13
ATOM     13  C   UNL     1     -22.138   0.478 -34.383  1.00  0.00    -0.000 C 
BRANCH  13  14
ATOM     14  C   UNL     1     -20.684   0.107 -34.025  1.00  0.00    -0.000 C 
BRANCH  14  15
ATOM     15  C   UNL     1     -20.175   0.678 -32.686  1.00  0.00    -0.000 C 
BRANCH  15  16
ATOM     16  C   UNL     1     -19.933  -0.367 -31.578  1.00  0.00    -0.000 C 
BRANCH  16  17
ATOM     17  C   UNL     1     -21.075  -1.380 -31.376  1.00  0.00    -0.000 C 
BRANCH  17  18
ATOM     18  C   UNL     1     -20.687  -2.807 -31.799  1.00  0.00    -0.000 C 
BRANCH  18  19
ATOM     19  C   UNL     1     -19.188  -2.938 -32.116  1.00  0.00    -0.003 C 
ATOM     20  C   UNL     1     -18.920  -3.256 -33.587  1.00  0.00     0.004 C 
ENDBRANCH  18  19
ENDBRANCH  17  18
ENDBRANCH  16  17
ENDBRANCH  15  16
ENDBRANCH  14  15
ENDBRANCH  13  14
ENDBRANCH  12  13
ENDBRANCH   1  12
TORSDOF 16
ENDMDL
MODEL 9
REMARK VINA RESULT:    -3.212      1.482      2.765
REMARK INTER + INTRA:          -8.359
REMARK INTER:                  -5.780
REMARK INTRA:                  -2.579
REMARK UNBOUND:                -2.142
REMARK SMILES CCCCCCCCCCCCCCCCCC(=O)[O-]
REMARK SMILES IDX 10 1 11 2 12 3 13 4 14 5 15 6 16 7 17 8 18 9 19 10 20 11
REMARK SMILES IDX 9 12 8 13 7 14 6 15 5 16 4 17 3 18 2 19 1 20
REMARK H PARENT
REMARK Flexibility Score: inf
ROOT
ATOM      1  C   UNL     1     -31.456   2.703 -38.520  1.00  0.00     0.000 C 
ENDROOT
BRANCH   1   2
ATOM      2  C   UNL     1     -30.413   3.118 -39.567  1.00  0.00     0.000 C 
BRANCH   2   3
ATOM      3  C   UNL     1     -29.750   4.470 -39.250  1.00  0.00     0.000 C 
BRANCH   3   4
ATOM      4  C   UNL     1     -28.299   4.381 -38.729  1.00  0.00     0.000 C 
BRANCH   4   5
ATOM      5  C   UNL     1     -28.128   4.633 -37.219  1.00  0.00     0.000 C 
BRANCH   5   6
ATOM      6  C   UNL     1     -26.735   5.142 -36.800  1.00  0.00     0.000 C 
BRANCH   6   7
ATOM      7  C   UNL     1     -25.731   4.014 -36.478  1.00  0.00     0.006 C 
BRANCH   7   8
ATOM      8  C   UNL     1     -25.757   3.606 -34.999  1.00  0.00     0.053 C 
BRANCH   8   9
ATOM      9  C   UNL     1     -24.780   4.420 -34.212  1.00  0.00     0.041 C 
ATOM     10  O   UNL     1     -25.164   5.447 -33.589  1.00  0.00    -0.550 OA
ATOM     11  O   UNL     1     -23.449   4.025 -34.134  1.00  0.00    -0.550 OA
ENDBRANCH   8   9
ENDBRANCH   7   8
ENDBRANCH   6   7
ENDBRANCH   5   6
ENDBRANCH   4   5
ENDBRANCH   3   4
ENDBRANCH   2   3
ENDBRANCH   1   2
BRANCH   1  12
ATOM     12  C   UNL     1     -32.242   1.470 -38.990  1.00  0.00     0.000 C 
BRANCH  12  13
ATOM     13  C   UNL     1     -31.889   0.197 -38.200  1.00  0.00    -0.000 C 
BRANCH  13  14
ATOM     14  C   UNL     1     -31.245  -0.930 -39.036  1.00  0.00    -0.000 C 
BRANCH  14  15
ATOM     15  C   UNL     1     -29.968  -0.528 -39.801  1.00  0.00    -0.000 C 
BRANCH  15  16
ATOM     16  C   UNL     1     -28.644  -0.925 -39.118  1.00  0.00    -0.000 C 
BRANCH  16  17
ATOM     17  C   UNL     1     -27.517   0.119 -39.224  1.00  0.00    -0.000 C 
BRANCH  17  18
ATOM     18  C   UNL     1     -27.452   1.051 -38.001  1.00  0.00    -0.000 C 
BRANCH  18  19
ATOM     19  C   UNL     1     -28.062   0.411 -36.742  1.00  0.00    -0.003 C 
ATOM     20  C   UNL     1     -29.057   1.329 -36.035  1.00  0.00     0.004 C 
ENDBRANCH  18  19
ENDBRANCH  17  18
ENDBRANCH  16  17
ENDBRANCH  15  16
ENDBRANCH  14  15
ENDBRANCH  13  14
ENDBRANCH  12  13
ENDBRANCH   1  12
TORSDOF 16
ENDMDL
