MODEL 1
REMARK VINA RESULT:    -4.673      0.000      0.000
REMARK INTER + INTRA:         -12.638
REMARK INTER:                 -10.136
REMARK INTRA:                  -2.503
REMARK UNBOUND:                -2.503
REMARK SMILES CCCCCCCCCCCCCCCCCCCCCC(=O)[O-]
REMARK SMILES IDX 12 1 11 2 10 3 9 4 8 5 7 6 6 7 5 8 4 9 3 10 2 11 1 12 13 13
REMARK SMILES IDX 14 14 15 15 16 16 17 17 18 18 19 19 20 20 21 21 22 22 23 23
REMARK SMILES IDX 24 24
REMARK H PARENT
REMARK Flexibility Score: inf
ROOT
ATOM      1  C   UNL     1      20.005   8.706   6.904  1.00  0.00     0.000 C 
ENDROOT
BRANCH   1   2
ATOM      2  C   UNL     1      19.862  10.192   7.278  1.00  0.00     0.000 C 
BRANCH   2   3
ATOM      3  C   UNL     1      19.239  11.038   6.153  1.00  0.00     0.000 C 
BRANCH   3   4
ATOM      4  C   UNL     1      17.783  10.642   5.860  1.00  0.00    -0.000 C 
BRANCH   4   5
ATOM      5  C   UNL     1      17.453  10.683   4.360  1.00  0.00    -0.000 C 
BRANCH   5   6
ATOM      6  C   UNL     1      18.511   9.925   3.546  1.00  0.00    -0.000 C 
BRANCH   6   7
ATOM      7  C   UNL     1      18.067   8.502   3.158  1.00  0.00    -0.000 C 
BRANCH   7   8
ATOM      8  C   UNL     1      18.897   7.367   3.789  1.00  0.00    -0.000 C 
BRANCH   8   9
ATOM      9  C   UNL     1      18.045   6.395   4.619  1.00  0.00    -0.000 C 
BRANCH   9  10
ATOM     10  C   UNL     1      16.611   6.923   4.780  1.00  0.00    -0.000 C 
BRANCH  10  11
ATOM     11  C   UNL     1      16.273   7.277   6.237  1.00  0.00    -0.003 C 
ATOM     12  C   UNL     1      17.206   6.605   7.244  1.00  0.00     0.004 C 
ENDBRANCH  10  11
ENDBRANCH   9  10
ENDBRANCH   8   9
ENDBRANCH   7   8
ENDBRANCH   6   7
ENDBRANCH   5   6
ENDBRANCH   4   5
ENDBRANCH   3   4
ENDBRANCH   2   3
ENDBRANCH   1   2
BRANCH   1  13
ATOM     13  C   UNL     1      21.195   7.978   7.557  1.00  0.00     0.000 C 
BRANCH  13  14
ATOM     14  C   UNL     1      21.213   6.472   7.257  1.00  0.00     0.000 C 
BRANCH  14  15
ATOM     15  C   UNL     1      22.653   5.950   7.169  1.00  0.00     0.000 C 
BRANCH  15  16
ATOM     16  C   UNL     1      23.355   6.478   5.908  1.00  0.00     0.000 C 
BRANCH  16  17
ATOM     17  C   UNL     1      22.980   5.688   4.641  1.00  0.00     0.000 C 
BRANCH  17  18
ATOM     18  C   UNL     1      24.176   5.111   3.861  1.00  0.00     0.000 C 
BRANCH  18  19
ATOM     19  C   UNL     1      24.001   5.213   2.339  1.00  0.00     0.000 C 
BRANCH  19  20
ATOM     20  C   UNL     1      24.742   4.078   1.622  1.00  0.00     0.006 C 
BRANCH  20  21
ATOM     21  C   UNL     1      24.316   2.712   2.168  1.00  0.00     0.053 C 
BRANCH  21  22
ATOM     22  C   UNL     1      24.362   1.677   1.089  1.00  0.00     0.041 C 
ATOM     23  O   UNL     1      25.098   0.664   1.215  1.00  0.00    -0.550 OA
ATOM     24  O   UNL     1      23.557   1.807  -0.035  1.00  0.00    -0.550 OA
ENDBRANCH  21  22
ENDBRANCH  20  21
ENDBRANCH  19  20
ENDBRANCH  18  19
ENDBRANCH  17  18
ENDBRANCH  16  17
ENDBRANCH  15  16
ENDBRANCH  14  15
ENDBRANCH  13  14
ENDBRANCH   1  13
TORSDOF 20
ENDMDL
MODEL 2
REMARK VINA RESULT:    -4.546      1.503      3.139
REMARK INTER + INTRA:         -12.364
REMARK INTER:                  -9.433
REMARK INTRA:                  -2.931
REMARK UNBOUND:                -2.503
REMARK SMILES CCCCCCCCCCCCCCCCCCCCCC(=O)[O-]
REMARK SMILES IDX 12 1 11 2 10 3 9 4 8 5 7 6 6 7 5 8 4 9 3 10 2 11 1 12 13 13
REMARK SMILES IDX 14 14 15 15 16 16 17 17 18 18 19 19 20 20 21 21 22 22 23 23
REMARK SMILES IDX 24 24
REMARK H PARENT
REMARK Flexibility Score: inf
ROOT
ATOM      1  C   UNL     1      18.875   6.672   6.170  1.00  0.00     0.000 C 
ENDROOT
BRANCH   1   2
ATOM      2  C   UNL     1      17.780   7.098   7.164  1.00  0.00     0.000 C 
BRANCH   2   3
ATOM      3  C   UNL     1      16.368   7.061   6.555  1.00  0.00     0.000 C 
BRANCH   3   4
ATOM      4  C   UNL     1      16.066   8.302   5.698  1.00  0.00    -0.000 C 
BRANCH   4   5
ATOM      5  C   UNL     1      16.667   9.585   6.288  1.00  0.00    -0.000 C 
BRANCH   5   6
ATOM      6  C   UNL     1      17.123  10.540   5.174  1.00  0.00    -0.000 C 
BRANCH   6   7
ATOM      7  C   UNL     1      18.536  10.221   4.651  1.00  0.00    -0.000 C 
BRANCH   7   8
ATOM      8  C   UNL     1      18.651  10.105   3.119  1.00  0.00    -0.000 C 
BRANCH   8   9
ATOM      9  C   UNL     1      17.856   8.921   2.548  1.00  0.00    -0.000 C 
BRANCH   9  10
ATOM     10  C   UNL     1      18.553   7.588   2.867  1.00  0.00    -0.000 C 
BRANCH  10  11
ATOM     11  C   UNL     1      17.799   6.376   2.295  1.00  0.00    -0.003 C 
ATOM     12  C   UNL     1      16.313   6.380   2.650  1.00  0.00     0.004 C 
ENDBRANCH  10  11
ENDBRANCH   9  10
ENDBRANCH   8   9
ENDBRANCH   7   8
ENDBRANCH   6   7
ENDBRANCH   5   6
ENDBRANCH   4   5
ENDBRANCH   3   4
ENDBRANCH   2   3
ENDBRANCH   1   2
BRANCH   1  13
ATOM     13  C   UNL     1      20.240   7.356   6.367  1.00  0.00     0.000 C 
BRANCH  13  14
ATOM     14  C   UNL     1      20.236   8.383   7.508  1.00  0.00     0.000 C 
BRANCH  14  15
ATOM     15  C   UNL     1      21.572   8.370   8.261  1.00  0.00     0.000 C 
BRANCH  15  16
ATOM     16  C   UNL     1      22.298   7.029   8.072  1.00  0.00     0.000 C 
BRANCH  16  17
ATOM     17  C   UNL     1      23.819   7.193   7.897  1.00  0.00     0.000 C 
BRANCH  17  18
ATOM     18  C   UNL     1      24.364   6.747   6.528  1.00  0.00     0.000 C 
BRANCH  18  19
ATOM     19  C   UNL     1      23.349   5.928   5.718  1.00  0.00     0.000 C 
BRANCH  19  20
ATOM     20  C   UNL     1      24.059   4.964   4.759  1.00  0.00     0.006 C 
BRANCH  20  21
ATOM     21  C   UNL     1      23.502   5.093   3.339  1.00  0.00     0.053 C 
BRANCH  21  22
ATOM     22  C   UNL     1      24.050   4.013   2.460  1.00  0.00     0.041 C 
ATOM     23  O   UNL     1      24.058   2.818   2.855  1.00  0.00    -0.550 OA
ATOM     24  O   UNL     1      24.511   4.319   1.186  1.00  0.00    -0.550 OA
ENDBRANCH  21  22
ENDBRANCH  20  21
ENDBRANCH  19  20
ENDBRANCH  18  19
ENDBRANCH  17  18
ENDBRANCH  16  17
ENDBRANCH  15  16
ENDBRANCH  14  15
ENDBRANCH  13  14
ENDBRANCH   1  13
TORSDOF 20
ENDMDL
MODEL 3
REMARK VINA RESULT:    -4.361      1.374      2.624
REMARK INTER + INTRA:         -11.961
REMARK INTER:                  -9.546
REMARK INTRA:                  -2.415
REMARK UNBOUND:                -2.503
REMARK SMILES CCCCCCCCCCCCCCCCCCCCCC(=O)[O-]
REMARK SMILES IDX 12 1 11 2 10 3 9 4 8 5 7 6 6 7 5 8 4 9 3 10 2 11 1 12 13 13
REMARK SMILES IDX 14 14 15 15 16 16 17 17 18 18 19 19 20 20 21 21 22 22 23 23
REMARK SMILES IDX 24 24
REMARK H PARENT
REMARK Flexibility Score: inf
ROOT
ATOM      1  C   UNL     1      22.282   7.555   7.756  1.00  0.00     0.000 C 
ENDROOT
BRANCH   1   2
ATOM      2  C   UNL     1      21.136   6.698   7.189  1.00  0.00     0.000 C 
BRANCH   2   3
ATOM      3  C   UNL     1      19.994   7.540   6.594  1.00  0.00     0.000 C 
BRANCH   3   4
ATOM      4  C   UNL     1      20.061   9.013   7.031  1.00  0.00    -0.000 C 
BRANCH   4   5
ATOM      5  C   UNL     1      19.051   9.895   6.283  1.00  0.00    -0.000 C 
BRANCH   5   6
ATOM      6  C   UNL     1      17.611   9.451   6.580  1.00  0.00    -0.000 C 
BRANCH   6   7
ATOM      7  C   UNL     1      16.657   9.667   5.390  1.00  0.00    -0.000 C 
BRANCH   7   8
ATOM      8  C   UNL     1      15.931   8.400   4.900  1.00  0.00    -0.000 C 
BRANCH   8   9
ATOM      9  C   UNL     1      16.274   7.155   5.732  1.00  0.00    -0.000 C 
BRANCH   9  10
ATOM     10  C   UNL     1      17.025   6.118   4.882  1.00  0.00    -0.000 C 
BRANCH  10  11
ATOM     11  C   UNL     1      17.383   6.649   3.484  1.00  0.00    -0.003 C 
ATOM     12  C   UNL     1      18.891   6.720   3.244  1.00  0.00     0.004 C 
ENDBRANCH  10  11
ENDBRANCH   9  10
ENDBRANCH   8   9
ENDBRANCH   7   8
ENDBRANCH   6   7
ENDBRANCH   5   6
ENDBRANCH   4   5
ENDBRANCH   3   4
ENDBRANCH   2   3
ENDBRANCH   1   2
BRANCH   1  13
ATOM     13  C   UNL     1      23.644   6.844   7.856  1.00  0.00     0.000 C 
BRANCH  13  14
ATOM     14  C   UNL     1      24.227   6.474   6.484  1.00  0.00     0.000 C 
BRANCH  14  15
ATOM     15  C   UNL     1      24.520   4.971   6.402  1.00  0.00     0.000 C 
BRANCH  15  16
ATOM     16  C   UNL     1      23.845   4.344   5.172  1.00  0.00     0.000 C 
BRANCH  16  17
ATOM     17  C   UNL     1      23.182   5.390   4.257  1.00  0.00     0.000 C 
BRANCH  17  18
ATOM     18  C   UNL     1      23.372   5.144   2.749  1.00  0.00     0.000 C 
BRANCH  18  19
ATOM     19  C   UNL     1      24.846   5.164   2.321  1.00  0.00     0.000 C 
BRANCH  19  20
ATOM     20  C   UNL     1      25.201   3.914   1.507  1.00  0.00     0.006 C 
BRANCH  20  21
ATOM     21  C   UNL     1      26.398   3.180   2.120  1.00  0.00     0.053 C 
BRANCH  21  22
ATOM     22  C   UNL     1      26.078   1.734   2.325  1.00  0.00     0.041 C 
ATOM     23  O   UNL     1      26.839   1.010   3.019  1.00  0.00    -0.550 OA
ATOM     24  O   UNL     1      24.917   1.193   1.788  1.00  0.00    -0.550 OA
ENDBRANCH  21  22
ENDBRANCH  20  21
ENDBRANCH  19  20
ENDBRANCH  18  19
ENDBRANCH  17  18
ENDBRANCH  16  17
ENDBRANCH  15  16
ENDBRANCH  14  15
ENDBRANCH  13  14
ENDBRANCH   1  13
TORSDOF 20
ENDMDL
MODEL 4
REMARK VINA RESULT:    -4.326      2.470      7.840
REMARK INTER + INTRA:         -11.887
REMARK INTER:                  -9.851
REMARK INTRA:                  -2.036
REMARK UNBOUND:                -2.503
REMARK SMILES CCCCCCCCCCCCCCCCCCCCCC(=O)[O-]
REMARK SMILES IDX 12 1 11 2 10 3 9 4 8 5 7 6 6 7 5 8 4 9 3 10 2 11 1 12 13 13
REMARK SMILES IDX 14 14 15 15 16 16 17 17 18 18 19 19 20 20 21 21 22 22 23 23
REMARK SMILES IDX 24 24
REMARK H PARENT
REMARK Flexibility Score: inf
ROOT
ATOM      1  C   UNL     1      21.484   7.333   6.943  1.00  0.00     0.000 C 
ENDROOT
BRANCH   1   2
ATOM      2  C   UNL     1      22.471   6.226   7.356  1.00  0.00     0.000 C 
BRANCH   2   3
ATOM      3  C   UNL     1      23.563   5.970   6.304  1.00  0.00     0.000 C 
BRANCH   3   4
ATOM      4  C   UNL     1      22.988   5.829   4.884  1.00  0.00    -0.000 C 
BRANCH   4   5
ATOM      5  C   UNL     1      23.724   4.768   4.054  1.00  0.00    -0.000 C 
BRANCH   5   6
ATOM      6  C   UNL     1      23.993   5.277   2.629  1.00  0.00    -0.000 C 
BRANCH   6   7
ATOM      7  C   UNL     1      24.682   4.229   1.736  1.00  0.00    -0.000 C 
BRANCH   7   8
ATOM      8  C   UNL     1      26.076   3.781   2.217  1.00  0.00    -0.000 C 
BRANCH   8   9
ATOM      9  C   UNL     1      26.341   2.288   1.973  1.00  0.00    -0.000 C 
BRANCH   9  10
ATOM     10  C   UNL     1      25.109   1.445   2.340  1.00  0.00    -0.000 C 
BRANCH  10  11
ATOM     11  C   UNL     1      24.776   0.390   1.273  1.00  0.00    -0.003 C 
ATOM     12  C   UNL     1      24.071   0.980   0.052  1.00  0.00     0.004 C 
ENDBRANCH  10  11
ENDBRANCH   9  10
ENDBRANCH   8   9
ENDBRANCH   7   8
ENDBRANCH   6   7
ENDBRANCH   5   6
ENDBRANCH   4   5
ENDBRANCH   3   4
ENDBRANCH   2   3
ENDBRANCH   1   2
BRANCH   1  13
ATOM     13  C   UNL     1      20.000   7.018   7.204  1.00  0.00     0.000 C 
BRANCH  13  14
ATOM     14  C   UNL     1      19.200   8.244   7.667  1.00  0.00     0.000 C 
BRANCH  14  15
ATOM     15  C   UNL     1      19.613   9.495   6.881  1.00  0.00     0.000 C 
BRANCH  15  16
ATOM     16  C   UNL     1      18.696   9.713   5.669  1.00  0.00     0.000 C 
BRANCH  16  17
ATOM     17  C   UNL     1      17.208   9.806   6.054  1.00  0.00     0.000 C 
BRANCH  17  18
ATOM     18  C   UNL     1      16.266   8.925   5.215  1.00  0.00     0.000 C 
BRANCH  18  19
ATOM     19  C   UNL     1      16.221   7.468   5.699  1.00  0.00     0.000 C 
BRANCH  19  20
ATOM     20  C   UNL     1      16.479   6.495   4.542  1.00  0.00     0.006 C 
BRANCH  20  21
ATOM     21  C   UNL     1      17.980   6.295   4.316  1.00  0.00     0.053 C 
BRANCH  21  22
ATOM     22  C   UNL     1      18.363   6.710   2.931  1.00  0.00     0.041 C 
ATOM     23  O   UNL     1      18.512   5.844   2.030  1.00  0.00    -0.550 OA
ATOM     24  O   UNL     1      18.510   8.056   2.623  1.00  0.00    -0.550 OA
ENDBRANCH  21  22
ENDBRANCH  20  21
ENDBRANCH  19  20
ENDBRANCH  18  19
ENDBRANCH  17  18
ENDBRANCH  16  17
ENDBRANCH  15  16
ENDBRANCH  14  15
ENDBRANCH  13  14
ENDBRANCH   1  13
TORSDOF 20
ENDMDL
MODEL 5
REMARK VINA RESULT:    -4.307      1.812      3.037
REMARK INTER + INTRA:         -11.845
REMARK INTER:                  -9.004
REMARK INTRA:                  -2.841
REMARK UNBOUND:                -2.503
REMARK SMILES CCCCCCCCCCCCCCCCCCCCCC(=O)[O-]
REMARK SMILES IDX 12 1 11 2 10 3 9 4 8 5 7 6 6 7 5 8 4 9 3 10 2 11 1 12 13 13
REMARK SMILES IDX 14 14 15 15 16 16 17 17 18 18 19 19 20 20 21 21 22 22 23 23
REMARK SMILES IDX 24 24
REMARK H PARENT
REMARK Flexibility Score: inf
ROOT
ATOM      1  C   UNL     1      21.023   7.054   7.264  1.00  0.00     0.000 C 
ENDROOT
BRANCH   1   2
ATOM      2  C   UNL     1      19.965   8.163   7.406  1.00  0.00     0.000 C 
BRANCH   2   3
ATOM      3  C   UNL     1      20.534   9.464   7.999  1.00  0.00     0.000 C 
BRANCH   3   4
ATOM      4  C   UNL     1      20.053  10.713   7.242  1.00  0.00    -0.000 C 
BRANCH   4   5
ATOM      5  C   UNL     1      18.656  10.529   6.631  1.00  0.00    -0.000 C 
BRANCH   5   6
ATOM      6  C   UNL     1      18.719  10.578   5.097  1.00  0.00    -0.000 C 
BRANCH   6   7
ATOM      7  C   UNL     1      17.371  10.248   4.429  1.00  0.00    -0.000 C 
BRANCH   7   8
ATOM      8  C   UNL     1      16.328   9.598   5.358  1.00  0.00    -0.000 C 
BRANCH   8   9
ATOM      9  C   UNL     1      15.965   8.166   4.938  1.00  0.00    -0.000 C 
BRANCH   9  10
ATOM     10  C   UNL     1      16.899   7.145   5.606  1.00  0.00    -0.000 C 
BRANCH  10  11
ATOM     11  C   UNL     1      17.633   6.260   4.586  1.00  0.00    -0.003 C 
ATOM     12  C   UNL     1      18.957   6.864   4.119  1.00  0.00     0.004 C 
ENDBRANCH  10  11
ENDBRANCH   9  10
ENDBRANCH   8   9
ENDBRANCH   7   8
ENDBRANCH   6   7
ENDBRANCH   5   6
ENDBRANCH   4   5
ENDBRANCH   3   4
ENDBRANCH   2   3
ENDBRANCH   1   2
BRANCH   1  13
ATOM     13  C   UNL     1      22.351   7.317   7.997  1.00  0.00     0.000 C 
BRANCH  13  14
ATOM     14  C   UNL     1      22.643   6.284   9.095  1.00  0.00     0.000 C 
BRANCH  14  15
ATOM     15  C   UNL     1      21.849   4.994   8.856  1.00  0.00     0.000 C 
BRANCH  15  16
ATOM     16  C   UNL     1      22.750   3.757   9.002  1.00  0.00     0.000 C 
BRANCH  16  17
ATOM     17  C   UNL     1      22.989   3.031   7.666  1.00  0.00     0.000 C 
BRANCH  17  18
ATOM     18  C   UNL     1      24.367   3.285   7.030  1.00  0.00     0.000 C 
BRANCH  18  19
ATOM     19  C   UNL     1      24.484   4.677   6.391  1.00  0.00     0.000 C 
BRANCH  19  20
ATOM     20  C   UNL     1      23.389   4.894   5.340  1.00  0.00     0.006 C 
BRANCH  20  21
ATOM     21  C   UNL     1      23.987   5.367   4.012  1.00  0.00     0.053 C 
BRANCH  21  22
ATOM     22  C   UNL     1      23.980   4.258   3.009  1.00  0.00     0.041 C 
ATOM     23  O   UNL     1      23.955   4.518   1.777  1.00  0.00    -0.550 OA
ATOM     24  O   UNL     1      24.049   2.936   3.430  1.00  0.00    -0.550 OA
ENDBRANCH  21  22
ENDBRANCH  20  21
ENDBRANCH  19  20
ENDBRANCH  18  19
ENDBRANCH  17  18
ENDBRANCH  16  17
ENDBRANCH  15  16
ENDBRANCH  14  15
ENDBRANCH  13  14
ENDBRANCH   1  13
TORSDOF 20
ENDMDL
MODEL 6
REMARK VINA RESULT:    -4.305      2.589      7.456
REMARK INTER + INTRA:         -11.841
REMARK INTER:                  -9.616
REMARK INTRA:                  -2.224
REMARK UNBOUND:                -2.503
REMARK SMILES CCCCCCCCCCCCCCCCCCCCCC(=O)[O-]
REMARK SMILES IDX 12 1 11 2 10 3 9 4 8 5 7 6 6 7 5 8 4 9 3 10 2 11 1 12 13 13
REMARK SMILES IDX 14 14 15 15 16 16 17 17 18 18 19 19 20 20 21 21 22 22 23 23
REMARK SMILES IDX 24 24
REMARK H PARENT
REMARK Flexibility Score: inf
ROOT
ATOM      1  C   UNL     1      19.908   8.237   6.511  1.00  0.00     0.000 C 
ENDROOT
BRANCH   1   2
ATOM      2  C   UNL     1      20.527   7.038   7.253  1.00  0.00     0.000 C 
BRANCH   2   3
ATOM      3  C   UNL     1      21.849   7.386   7.959  1.00  0.00     0.000 C 
BRANCH   3   4
ATOM      4  C   UNL     1      22.919   6.298   7.769  1.00  0.00    -0.000 C 
BRANCH   4   5
ATOM      5  C   UNL     1      24.240   6.861   7.226  1.00  0.00    -0.000 C 
BRANCH   5   6
ATOM      6  C   UNL     1      24.502   6.363   5.796  1.00  0.00    -0.000 C 
BRANCH   6   7
ATOM      7  C   UNL     1      23.337   5.533   5.227  1.00  0.00    -0.000 C 
BRANCH   7   8
ATOM      8  C   UNL     1      23.740   4.170   4.631  1.00  0.00    -0.000 C 
BRANCH   8   9
ATOM      9  C   UNL     1      23.949   4.221   3.110  1.00  0.00    -0.000 C 
BRANCH   9  10
ATOM     10  C   UNL     1      25.162   5.094   2.753  1.00  0.00    -0.000 C 
BRANCH  10  11
ATOM     11  C   UNL     1      26.455   4.276   2.606  1.00  0.00    -0.003 C 
ATOM     12  C   UNL     1      26.201   2.838   2.154  1.00  0.00     0.004 C 
ENDBRANCH  10  11
ENDBRANCH   9  10
ENDBRANCH   8   9
ENDBRANCH   7   8
ENDBRANCH   6   7
ENDBRANCH   5   6
ENDBRANCH   4   5
ENDBRANCH   3   4
ENDBRANCH   2   3
ENDBRANCH   1   2
BRANCH   1  13
ATOM     13  C   UNL     1      20.027   9.589   7.238  1.00  0.00     0.000 C 
BRANCH  13  14
ATOM     14  C   UNL     1      19.241  10.712   6.546  1.00  0.00     0.000 C 
BRANCH  14  15
ATOM     15  C   UNL     1      18.860  10.311   5.115  1.00  0.00     0.000 C 
BRANCH  15  16
ATOM     16  C   UNL     1      17.349  10.459   4.885  1.00  0.00     0.000 C 
BRANCH  16  17
ATOM     17  C   UNL     1      16.510   9.653   5.894  1.00  0.00     0.000 C 
BRANCH  17  18
ATOM     18  C   UNL     1      15.889   8.361   5.333  1.00  0.00     0.000 C 
BRANCH  18  19
ATOM     19  C   UNL     1      16.409   7.096   6.033  1.00  0.00     0.000 C 
BRANCH  19  20
ATOM     20  C   UNL     1      17.205   6.217   5.062  1.00  0.00     0.006 C 
BRANCH  20  21
ATOM     21  C   UNL     1      16.926   6.610   3.608  1.00  0.00     0.053 C 
BRANCH  21  22
ATOM     22  C   UNL     1      18.202   6.917   2.892  1.00  0.00     0.041 C 
ATOM     23  O   UNL     1      19.310   6.677   3.440  1.00  0.00    -0.550 OA
ATOM     24  O   UNL     1      18.171   7.426   1.600  1.00  0.00    -0.550 OA
ENDBRANCH  21  22
ENDBRANCH  20  21
ENDBRANCH  19  20
ENDBRANCH  18  19
ENDBRANCH  17  18
ENDBRANCH  16  17
ENDBRANCH  15  16
ENDBRANCH  14  15
ENDBRANCH  13  14
ENDBRANCH   1  13
TORSDOF 20
ENDMDL
MODEL 7
REMARK VINA RESULT:    -4.303      2.839      8.102
REMARK INTER + INTRA:         -11.836
REMARK INTER:                  -9.398
REMARK INTRA:                  -2.438
REMARK UNBOUND:                -2.503
REMARK SMILES CCCCCCCCCCCCCCCCCCCCCC(=O)[O-]
REMARK SMILES IDX 12 1 11 2 10 3 9 4 8 5 7 6 6 7 5 8 4 9 3 10 2 11 1 12 13 13
REMARK SMILES IDX 14 14 15 15 16 16 17 17 18 18 19 19 20 20 21 21 22 22 23 23
REMARK SMILES IDX 24 24
REMARK H PARENT
REMARK Flexibility Score: inf
ROOT
ATOM      1  C   UNL     1      22.049   6.410   6.060  1.00  0.00     0.000 C 
ENDROOT
BRANCH   1   2
ATOM      2  C   UNL     1      23.588   6.413   6.091  1.00  0.00     0.000 C 
BRANCH   2   3
ATOM      3  C   UNL     1      24.213   5.496   5.025  1.00  0.00     0.000 C 
BRANCH   3   4
ATOM      4  C   UNL     1      23.226   5.151   3.898  1.00  0.00    -0.000 C 
BRANCH   4   5
ATOM      5  C   UNL     1      23.891   5.149   2.514  1.00  0.00    -0.000 C 
BRANCH   5   6
ATOM      6  C   UNL     1      25.408   4.939   2.635  1.00  0.00    -0.000 C 
BRANCH   6   7
ATOM      7  C   UNL     1      25.967   3.968   1.579  1.00  0.00    -0.000 C 
BRANCH   7   8
ATOM      8  C   UNL     1      27.254   3.227   1.994  1.00  0.00    -0.000 C 
BRANCH   8   9
ATOM      9  C   UNL     1      26.974   1.870   2.656  1.00  0.00    -0.000 C 
BRANCH   9  10
ATOM     10  C   UNL     1      25.613   1.313   2.210  1.00  0.00    -0.000 C 
BRANCH  10  11
ATOM     11  C   UNL     1      24.727   0.898   3.396  1.00  0.00    -0.003 C 
ATOM     12  C   UNL     1      24.875   1.828   4.601  1.00  0.00     0.004 C 
ENDBRANCH  10  11
ENDBRANCH   9  10
ENDBRANCH   8   9
ENDBRANCH   7   8
ENDBRANCH   6   7
ENDBRANCH   5   6
ENDBRANCH   4   5
ENDBRANCH   3   4
ENDBRANCH   2   3
ENDBRANCH   1   2
BRANCH   1  13
ATOM     13  C   UNL     1      21.367   6.754   7.397  1.00  0.00     0.000 C 
BRANCH  13  14
ATOM     14  C   UNL     1      20.062   7.543   7.217  1.00  0.00     0.000 C 
BRANCH  14  15
ATOM     15  C   UNL     1      18.843   6.620   7.343  1.00  0.00     0.000 C 
BRANCH  15  16
ATOM     16  C   UNL     1      17.590   7.412   7.745  1.00  0.00     0.000 C 
BRANCH  16  17
ATOM     17  C   UNL     1      17.822   8.934   7.750  1.00  0.00     0.000 C 
BRANCH  17  18
ATOM     18  C   UNL     1      17.153   9.695   6.591  1.00  0.00     0.000 C 
BRANCH  18  19
ATOM     19  C   UNL     1      18.165  10.385   5.666  1.00  0.00     0.000 C 
BRANCH  19  20
ATOM     20  C   UNL     1      18.460   9.523   4.432  1.00  0.00     0.006 C 
BRANCH  20  21
ATOM     21  C   UNL     1      17.289   8.586   4.123  1.00  0.00     0.053 C 
BRANCH  21  22
ATOM     22  C   UNL     1      17.786   7.209   3.814  1.00  0.00     0.041 C 
ATOM     23  O   UNL     1      19.020   6.960   3.838  1.00  0.00    -0.550 OA
ATOM     24  O   UNL     1      16.884   6.187   3.545  1.00  0.00    -0.550 OA
ENDBRANCH  21  22
ENDBRANCH  20  21
ENDBRANCH  19  20
ENDBRANCH  18  19
ENDBRANCH  17  18
ENDBRANCH  16  17
ENDBRANCH  15  16
ENDBRANCH  14  15
ENDBRANCH  13  14
ENDBRANCH   1  13
TORSDOF 20
ENDMDL
MODEL 8
REMARK VINA RESULT:    -4.269      2.904      8.295
REMARK INTER + INTRA:         -11.763
REMARK INTER:                  -9.676
REMARK INTRA:                  -2.087
REMARK UNBOUND:                -2.503
REMARK SMILES CCCCCCCCCCCCCCCCCCCCCC(=O)[O-]
REMARK SMILES IDX 12 1 11 2 10 3 9 4 8 5 7 6 6 7 5 8 4 9 3 10 2 11 1 12 13 13
REMARK SMILES IDX 14 14 15 15 16 16 17 17 18 18 19 19 20 20 21 21 22 22 23 23
REMARK SMILES IDX 24 24
REMARK H PARENT
REMARK Flexibility Score: inf
ROOT
ATOM      1  C   UNL     1      22.642   5.869   6.746  1.00  0.00     0.000 C 
ENDROOT
BRANCH   1   2
ATOM      2  C   UNL     1      23.537   6.224   5.545  1.00  0.00     0.000 C 
BRANCH   2   3
ATOM      3  C   UNL     1      23.104   5.524   4.245  1.00  0.00     0.000 C 
BRANCH   3   4
ATOM      4  C   UNL     1      24.274   4.814   3.543  1.00  0.00    -0.000 C 
BRANCH   4   5
ATOM      5  C   UNL     1      24.311   5.093   2.034  1.00  0.00    -0.000 C 
BRANCH   5   6
ATOM      6  C   UNL     1      25.062   3.979   1.289  1.00  0.00    -0.000 C 
BRANCH   6   7
ATOM      7  C   UNL     1      25.207   2.692   2.121  1.00  0.00    -0.000 C 
BRANCH   7   8
ATOM      8  C   UNL     1      26.658   2.225   2.350  1.00  0.00    -0.000 C 
BRANCH   8   9
ATOM      9  C   UNL     1      27.695   3.291   1.969  1.00  0.00    -0.000 C 
BRANCH   9  10
ATOM     10  C   UNL     1      28.260   3.979   3.222  1.00  0.00    -0.000 C 
BRANCH  10  11
ATOM     11  C   UNL     1      27.536   3.548   4.508  1.00  0.00    -0.003 C 
ATOM     12  C   UNL     1      27.497   4.650   5.566  1.00  0.00     0.004 C 
ENDBRANCH  10  11
ENDBRANCH   9  10
ENDBRANCH   8   9
ENDBRANCH   7   8
ENDBRANCH   6   7
ENDBRANCH   5   6
ENDBRANCH   4   5
ENDBRANCH   3   4
ENDBRANCH   2   3
ENDBRANCH   1   2
BRANCH   1  13
ATOM     13  C   UNL     1      21.951   7.067   7.423  1.00  0.00     0.000 C 
BRANCH  13  14
ATOM     14  C   UNL     1      20.499   7.259   6.962  1.00  0.00     0.000 C 
BRANCH  14  15
ATOM     15  C   UNL     1      20.017   8.686   7.254  1.00  0.00     0.000 C 
BRANCH  15  16
ATOM     16  C   UNL     1      18.485   8.739   7.361  1.00  0.00     0.000 C 
BRANCH  16  17
ATOM     17  C   UNL     1      17.865   7.384   7.748  1.00  0.00     0.000 C 
BRANCH  17  18
ATOM     18  C   UNL     1      16.674   6.945   6.878  1.00  0.00     0.000 C 
BRANCH  18  19
ATOM     19  C   UNL     1      16.248   8.016   5.864  1.00  0.00     0.000 C 
BRANCH  19  20
ATOM     20  C   UNL     1      16.162   7.431   4.449  1.00  0.00     0.006 C 
BRANCH  20  21
ATOM     21  C   UNL     1      17.312   6.454   4.187  1.00  0.00     0.053 C 
BRANCH  21  22
ATOM     22  C   UNL     1      18.507   7.179   3.654  1.00  0.00     0.041 C 
ATOM     23  O   UNL     1      19.642   6.636   3.684  1.00  0.00    -0.550 OA
ATOM     24  O   UNL     1      18.361   8.436   3.081  1.00  0.00    -0.550 OA
ENDBRANCH  21  22
ENDBRANCH  20  21
ENDBRANCH  19  20
ENDBRANCH  18  19
ENDBRANCH  17  18
ENDBRANCH  16  17
ENDBRANCH  15  16
ENDBRANCH  14  15
ENDBRANCH  13  14
ENDBRANCH   1  13
TORSDOF 20
ENDMDL
MODEL 9
REMARK VINA RESULT:    -4.242      2.285      3.113
REMARK INTER + INTRA:         -11.704
REMARK INTER:                  -9.668
REMARK INTRA:                  -2.036
REMARK UNBOUND:                -2.503
REMARK SMILES CCCCCCCCCCCCCCCCCCCCCC(=O)[O-]
REMARK SMILES IDX 12 1 11 2 10 3 9 4 8 5 7 6 6 7 5 8 4 9 3 10 2 11 1 12 13 13
REMARK SMILES IDX 14 14 15 15 16 16 17 17 18 18 19 19 20 20 21 21 22 22 23 23
REMARK SMILES IDX 24 24
REMARK H PARENT
REMARK Flexibility Score: inf
ROOT
ATOM      1  C   UNL     1      21.164   7.739   7.217  1.00  0.00     0.000 C 
ENDROOT
BRANCH   1   2
ATOM      2  C   UNL     1      19.661   7.412   7.255  1.00  0.00     0.000 C 
BRANCH   2   3
ATOM      3  C   UNL     1      18.770   8.663   7.161  1.00  0.00     0.000 C 
BRANCH   3   4
ATOM      4  C   UNL     1      19.582   9.942   6.895  1.00  0.00    -0.000 C 
BRANCH   4   5
ATOM      5  C   UNL     1      18.946  10.829   5.816  1.00  0.00    -0.000 C 
BRANCH   5   6
ATOM      6  C   UNL     1      18.462   9.985   4.627  1.00  0.00    -0.000 C 
BRANCH   6   7
ATOM      7  C   UNL     1      16.977  10.214   4.291  1.00  0.00    -0.000 C 
BRANCH   7   8
ATOM      8  C   UNL     1      16.038   9.052   4.668  1.00  0.00    -0.000 C 
BRANCH   8   9
ATOM      9  C   UNL     1      15.985   7.954   3.596  1.00  0.00    -0.000 C 
BRANCH   9  10
ATOM     10  C   UNL     1      16.058   6.559   4.237  1.00  0.00    -0.000 C 
BRANCH  10  11
ATOM     11  C   UNL     1      17.482   6.186   4.681  1.00  0.00    -0.003 C 
ATOM     12  C   UNL     1      18.533   6.477   3.610  1.00  0.00     0.004 C 
ENDBRANCH  10  11
ENDBRANCH   9  10
ENDBRANCH   8   9
ENDBRANCH   7   8
ENDBRANCH   6   7
ENDBRANCH   5   6
ENDBRANCH   4   5
ENDBRANCH   3   4
ENDBRANCH   2   3
ENDBRANCH   1   2
BRANCH   1  13
ATOM     13  C   UNL     1      22.095   6.597   7.664  1.00  0.00     0.000 C 
BRANCH  13  14
ATOM     14  C   UNL     1      23.338   6.454   6.775  1.00  0.00     0.000 C 
BRANCH  14  15
ATOM     15  C   UNL     1      23.298   5.140   5.985  1.00  0.00     0.000 C 
BRANCH  15  16
ATOM     16  C   UNL     1      23.267   5.408   4.472  1.00  0.00     0.000 C 
BRANCH  16  17
ATOM     17  C   UNL     1      24.646   5.243   3.808  1.00  0.00     0.000 C 
BRANCH  17  18
ATOM     18  C   UNL     1      24.614   5.101   2.276  1.00  0.00     0.000 C 
BRANCH  18  19
ATOM     19  C   UNL     1      25.464   3.928   1.767  1.00  0.00     0.000 C 
BRANCH  19  20
ATOM     20  C   UNL     1      26.209   3.246   2.921  1.00  0.00     0.006 C 
BRANCH  20  21
ATOM     21  C   UNL     1      27.686   3.039   2.575  1.00  0.00     0.053 C 
BRANCH  21  22
ATOM     22  C   UNL     1      28.549   3.945   3.394  1.00  0.00     0.041 C 
ATOM     23  O   UNL     1      28.090   5.033   3.831  1.00  0.00    -0.550 OA
ATOM     24  O   UNL     1      29.848   3.569   3.715  1.00  0.00    -0.550 OA
ENDBRANCH  21  22
ENDBRANCH  20  21
ENDBRANCH  19  20
ENDBRANCH  18  19
ENDBRANCH  17  18
ENDBRANCH  16  17
ENDBRANCH  15  16
ENDBRANCH  14  15
ENDBRANCH  13  14
ENDBRANCH   1  13
TORSDOF 20
ENDMDL
