MODEL 1
REMARK VINA RESULT:    -1.334      0.000      0.000
REMARK INTER + INTRA:          -1.388
REMARK INTER:                  -1.451
REMARK INTRA:                   0.063
REMARK UNBOUND:                 0.063
REMARK SMILES C[C@H]1[C@H](C)CC[C@@]2(C(=O)[O-])CC[C@]3(C)C(=CC[C@H]4[C@@]5(C)CC[C@H](O)C(C)(C)[C@@H]5CC[C@]43C)[C@@H]12
REMARK SMILES IDX 7 1 6 2 11 3 33 4 5 5 12 6 15 7 2 8 3 9 13 10 16 11 1 12
REMARK SMILES IDX 4 13 14 14 31 15 17 16 18 17 30 18 32 19 19 20 29 21 28 22
REMARK SMILES IDX 21 23 20 24 25 25 22 26 23 27 26 28 27 29 8 30 9 31 10 32
REMARK SMILES IDX 24 33
REMARK H PARENT 24 34
REMARK Flexibility Score: inf
ROOT
ATOM      1  C   UNL     1      -1.314 -32.638  -9.073  1.00  0.00     0.017 C 
ATOM      2  C   UNL     1      -2.115 -31.307  -8.965  1.00  0.00     0.014 C 
ATOM      3  C   UNL     1      -2.124 -33.592 -10.025  1.00  0.00     0.014 C 
ATOM      4  C   UNL     1       0.122 -32.353  -9.651  1.00  0.00     0.030 C 
ATOM      5  C   UNL     1      -1.372 -30.226  -8.182  1.00  0.00     0.004 C 
ATOM      6  C   UNL     1      -1.268 -34.646 -10.775  1.00  0.00     0.013 C 
ATOM      7  C   UNL     1       0.105 -32.601 -11.167  1.00  0.00    -0.063 C 
ATOM      8  C   UNL     1       0.841 -31.065  -9.104  1.00  0.00    -0.003 C 
ATOM      9  C   UNL     1      -0.078 -29.824  -8.901  1.00  0.00    -0.011 C 
ATOM     10  C   UNL     1      -0.017 -34.076 -11.584  1.00  0.00    -0.006 C 
ATOM     11  C   UNL     1      -0.350 -31.623 -11.959  1.00  0.00    -0.027 C 
ATOM     12  C   UNL     1       2.108 -30.736  -9.917  1.00  0.00     0.008 C 
ATOM     13  C   UNL     1       0.626 -28.721  -8.091  1.00  0.00     0.008 C 
ATOM     14  C   UNL     1       1.274 -34.814 -11.073  1.00  0.00     0.017 C 
ATOM     15  C   UNL     1      -0.141 -34.289 -13.187  1.00  0.00    -0.020 C 
ATOM     16  C   UNL     1      -0.838 -31.794 -13.351  1.00  0.00     0.032 C 
ATOM     17  C   UNL     1      -1.151 -33.246 -13.827  1.00  0.00     0.006 C 
ATOM     18  C   UNL     1       1.238 -34.084 -13.903  1.00  0.00     0.008 C 
ATOM     19  C   UNL     1      -0.597 -35.777 -13.430  1.00  0.00     0.012 C 
ATOM     20  C   UNL     1      -1.259 -33.301 -15.435  1.00  0.00    -0.025 C 
ATOM     21  C   UNL     1       1.188 -34.165 -15.445  1.00  0.00     0.005 C 
ATOM     22  C   UNL     1       0.184 -33.168 -16.064  1.00  0.00     0.003 C 
ATOM     23  C   UNL     1      -2.123 -32.112 -15.982  1.00  0.00     0.010 C 
ATOM     24  C   UNL     1      -1.997 -34.614 -15.849  1.00  0.00     0.012 C 
ATOM     25  C   UNL     1       0.245 -33.036 -17.642  1.00  0.00    -0.006 C 
ATOM     26  C   UNL     1      -2.125 -31.988 -17.517  1.00  0.00     0.033 C 
ATOM     27  C   UNL     1      -0.701 -31.872 -18.088  1.00  0.00     0.120 C 
ATOM     28  C   UNL     1       1.686 -32.640 -18.075  1.00  0.00     0.014 C 
ATOM     29  C   UNL     1      -0.100 -34.349 -18.396  1.00  0.00     0.014 C 
ENDROOT
BRANCH   1  30
ATOM     30  C   UNL     1      -1.215 -33.321  -7.709  1.00  0.00     0.048 C 
ATOM     31  O   UNL     1      -0.454 -34.310  -7.534  1.00  0.00    -0.550 OA
ATOM     32  O   UNL     1      -1.880 -32.793  -6.608  1.00  0.00    -0.550 OA
ENDBRANCH   1  30
BRANCH  27  33
ATOM     33  O   UNL     1      -0.767 -31.806 -19.491  1.00  0.00    -0.393 OA
ATOM     34  H   UNL     1      -0.990 -30.868 -19.728  1.00  0.00     0.210 HD
ENDBRANCH  27  33
TORSDOF 2
ENDMDL
MODEL 2
REMARK VINA RESULT:    -0.713      1.562      2.266
REMARK INTER + INTRA:          -0.712
REMARK INTER:                  -0.885
REMARK INTRA:                   0.173
REMARK UNBOUND:                 0.063
REMARK SMILES C[C@H]1[C@H](C)CC[C@@]2(C(=O)[O-])CC[C@]3(C)C(=CC[C@H]4[C@@]5(C)CC[C@H](O)C(C)(C)[C@@H]5CC[C@]43C)[C@@H]12
REMARK SMILES IDX 7 1 6 2 11 3 33 4 5 5 12 6 15 7 2 8 3 9 13 10 16 11 1 12
REMARK SMILES IDX 4 13 14 14 31 15 17 16 18 17 30 18 32 19 19 20 29 21 28 22
REMARK SMILES IDX 21 23 20 24 25 25 22 26 23 27 26 28 27 29 8 30 9 31 10 32
REMARK SMILES IDX 24 33
REMARK H PARENT 24 34
REMARK Flexibility Score: inf
ROOT
ATOM      1  C   UNL     1      -1.322 -30.209  -8.604  1.00  0.00     0.017 C 
ATOM      2  C   UNL     1      -2.125 -28.976  -9.112  1.00  0.00     0.014 C 
ATOM      3  C   UNL     1      -2.125 -31.492  -9.027  1.00  0.00     0.014 C 
ATOM      4  C   UNL     1       0.118 -30.210  -9.241  1.00  0.00     0.030 C 
ATOM      5  C   UNL     1      -1.387 -27.655  -8.898  1.00  0.00     0.004 C 
ATOM      6  C   UNL     1      -1.263 -32.769  -9.216  1.00  0.00     0.013 C 
ATOM      7  C   UNL     1       0.111 -31.116 -10.481  1.00  0.00    -0.063 C 
ATOM      8  C   UNL     1       0.832 -28.811  -9.330  1.00  0.00    -0.003 C 
ATOM      9  C   UNL     1      -0.089 -27.616  -9.714  1.00  0.00    -0.011 C 
ATOM     10  C   UNL     1      -0.007 -32.620 -10.188  1.00  0.00    -0.006 C 
ATOM     11  C   UNL     1      -0.340 -30.602 -11.632  1.00  0.00    -0.027 C 
ATOM     12  C   UNL     1       2.104 -28.880 -10.197  1.00  0.00     0.008 C 
ATOM     13  C   UNL     1       0.609 -26.263  -9.485  1.00  0.00     0.008 C 
ATOM     14  C   UNL     1       1.281 -33.044  -9.392  1.00  0.00     0.017 C 
ATOM     15  C   UNL     1      -0.121 -33.535 -11.523  1.00  0.00    -0.020 C 
ATOM     16  C   UNL     1      -0.819 -31.385 -12.799  1.00  0.00     0.032 C 
ATOM     17  C   UNL     1      -1.128 -32.897 -12.570  1.00  0.00     0.006 C 
ATOM     18  C   UNL     1       1.263 -33.670 -12.248  1.00  0.00     0.008 C 
ATOM     19  C   UNL     1      -0.574 -34.974 -11.071  1.00  0.00     0.012 C 
ATOM     20  C   UNL     1      -1.225 -33.672 -13.980  1.00  0.00    -0.025 C 
ATOM     21  C   UNL     1       1.223 -34.439 -13.587  1.00  0.00     0.005 C 
ATOM     22  C   UNL     1       0.222 -33.832 -14.594  1.00  0.00     0.003 C 
ATOM     23  C   UNL     1      -2.086 -32.861 -15.010  1.00  0.00     0.010 C 
ATOM     24  C   UNL     1      -1.959 -35.033 -13.761  1.00  0.00     0.012 C 
ATOM     25  C   UNL     1       0.293 -34.426 -16.062  1.00  0.00    -0.006 C 
ATOM     26  C   UNL     1      -2.079 -33.443 -16.436  1.00  0.00     0.033 C 
ATOM     27  C   UNL     1      -0.651 -33.593 -16.990  1.00  0.00     0.120 C 
ATOM     28  C   UNL     1       1.736 -34.263 -16.620  1.00  0.00     0.014 C 
ATOM     29  C   UNL     1      -0.046 -35.940 -16.143  1.00  0.00     0.014 C 
ENDROOT
BRANCH   1  30
ATOM     30  C   UNL     1      -1.231 -30.202  -7.078  1.00  0.00     0.048 C 
ATOM     31  O   UNL     1      -1.841 -31.064  -6.389  1.00  0.00    -0.550 OA
ATOM     32  O   UNL     1      -0.384 -29.312  -6.427  1.00  0.00    -0.550 OA
ENDBRANCH   1  30
BRANCH  27  33
ATOM     33  O   UNL     1      -0.709 -34.167 -18.273  1.00  0.00    -0.393 OA
ATOM     34  H   UNL     1      -0.046 -33.689 -18.836  1.00  0.00     0.210 HD
ENDBRANCH  27  33
TORSDOF 2
ENDMDL
MODEL 3
REMARK VINA RESULT:    -0.474      2.061      3.443
REMARK INTER + INTRA:          -0.452
REMARK INTER:                  -0.307
REMARK INTRA:                  -0.145
REMARK UNBOUND:                 0.063
REMARK SMILES C[C@H]1[C@H](C)CC[C@@]2(C(=O)[O-])CC[C@]3(C)C(=CC[C@H]4[C@@]5(C)CC[C@H](O)C(C)(C)[C@@H]5CC[C@]43C)[C@@H]12
REMARK SMILES IDX 7 1 6 2 11 3 33 4 5 5 12 6 15 7 2 8 3 9 13 10 16 11 1 12
REMARK SMILES IDX 4 13 14 14 31 15 17 16 18 17 30 18 32 19 19 20 29 21 28 22
REMARK SMILES IDX 21 23 20 24 25 25 22 26 23 27 26 28 27 29 8 30 9 31 10 32
REMARK SMILES IDX 24 33
REMARK H PARENT 24 34
REMARK Flexibility Score: inf
ROOT
ATOM      1  C   UNL     1      -1.298 -28.950  -8.304  1.00  0.00     0.017 C 
ATOM      2  C   UNL     1      -2.080 -27.828  -9.049  1.00  0.00     0.014 C 
ATOM      3  C   UNL     1      -2.125 -30.278  -8.464  1.00  0.00     0.014 C 
ATOM      4  C   UNL     1       0.140 -29.104  -8.925  1.00  0.00     0.030 C 
ATOM      5  C   UNL     1      -1.318 -26.505  -9.101  1.00  0.00     0.004 C 
ATOM      6  C   UNL     1      -1.286 -31.581  -8.393  1.00  0.00     0.013 C 
ATOM      7  C   UNL     1       0.116 -30.238  -9.960  1.00  0.00    -0.063 C 
ATOM      8  C   UNL     1       0.879 -27.763  -9.289  1.00  0.00    -0.003 C 
ATOM      9  C   UNL     1      -0.021 -26.653  -9.905  1.00  0.00    -0.011 C 
ATOM     10  C   UNL     1      -0.029 -31.652  -9.373  1.00  0.00    -0.006 C 
ATOM     11  C   UNL     1      -0.328 -29.956 -11.190  1.00  0.00    -0.027 C 
ATOM     12  C   UNL     1       2.148 -28.026 -10.122  1.00  0.00     0.008 C 
ATOM     13  C   UNL     1       0.701 -25.294  -9.949  1.00  0.00     0.008 C 
ATOM     14  C   UNL     1       1.252 -31.931  -8.506  1.00  0.00     0.017 C 
ATOM     15  C   UNL     1      -0.161 -32.812 -10.499  1.00  0.00    -0.020 C 
ATOM     16  C   UNL     1      -0.822 -30.947 -12.180  1.00  0.00     0.032 C 
ATOM     17  C   UNL     1      -1.158 -32.377 -11.655  1.00  0.00     0.006 C 
ATOM     18  C   UNL     1       1.219 -33.113 -11.180  1.00  0.00     0.008 C 
ATOM     19  C   UNL     1      -0.639 -34.124  -9.771  1.00  0.00     0.012 C 
ATOM     20  C   UNL     1      -1.271 -33.415 -12.883  1.00  0.00    -0.025 C 
ATOM     21  C   UNL     1       1.164 -34.132 -12.339  1.00  0.00     0.005 C 
ATOM     22  C   UNL     1       0.172 -33.720 -13.450  1.00  0.00     0.003 C 
ATOM     23  C   UNL     1      -2.119 -32.811 -14.055  1.00  0.00     0.010 C 
ATOM     24  C   UNL     1      -2.029 -34.692 -12.399  1.00  0.00     0.012 C 
ATOM     25  C   UNL     1       0.230 -34.596 -14.769  1.00  0.00    -0.006 C 
ATOM     26  C   UNL     1      -2.124 -33.665 -15.336  1.00  0.00     0.033 C 
ATOM     27  C   UNL     1      -0.700 -33.947 -15.847  1.00  0.00     0.120 C 
ATOM     28  C   UNL     1       1.675 -34.573 -15.345  1.00  0.00     0.014 C 
ATOM     29  C   UNL     1      -0.136 -36.089 -14.548  1.00  0.00     0.014 C 
ENDROOT
BRANCH   1  30
ATOM     30  C   UNL     1      -1.205 -28.641  -6.810  1.00  0.00     0.048 C 
ATOM     31  O   UNL     1      -0.252 -29.085  -6.115  1.00  0.00    -0.550 OA
ATOM     32  O   UNL     1      -2.112 -27.773  -6.212  1.00  0.00    -0.550 OA
ENDBRANCH   1  30
BRANCH  27  33
ATOM     33  O   UNL     1      -0.770 -34.765 -16.989  1.00  0.00    -0.393 OA
ATOM     34  H   UNL     1      -1.633 -34.565 -17.438  1.00  0.00     0.210 HD
ENDBRANCH  27  33
TORSDOF 2
ENDMDL
MODEL 4
REMARK VINA RESULT:     0.104      2.930      5.325
REMARK INTER + INTRA:           0.176
REMARK INTER:                  -0.096
REMARK INTRA:                   0.272
REMARK UNBOUND:                 0.063
REMARK SMILES C[C@H]1[C@H](C)CC[C@@]2(C(=O)[O-])CC[C@]3(C)C(=CC[C@H]4[C@@]5(C)CC[C@H](O)C(C)(C)[C@@H]5CC[C@]43C)[C@@H]12
REMARK SMILES IDX 7 1 6 2 11 3 33 4 5 5 12 6 15 7 2 8 3 9 13 10 16 11 1 12
REMARK SMILES IDX 4 13 14 14 31 15 17 16 18 17 30 18 32 19 19 20 29 21 28 22
REMARK SMILES IDX 21 23 20 24 25 25 22 26 23 27 26 28 27 29 8 30 9 31 10 32
REMARK SMILES IDX 24 33
REMARK H PARENT 24 34
REMARK Flexibility Score: inf
ROOT
ATOM      1  C   UNL     1       0.670 -35.105 -13.645  1.00  0.00     0.017 C 
ATOM      2  C   UNL     1      -0.792 -35.451 -13.236  1.00  0.00     0.014 C 
ATOM      3  C   UNL     1       1.093 -36.125 -14.765  1.00  0.00     0.014 C 
ATOM      4  C   UNL     1       0.741 -33.625 -14.176  1.00  0.00     0.030 C 
ATOM      5  C   UNL     1      -1.389 -34.445 -12.253  1.00  0.00     0.004 C 
ATOM      6  C   UNL     1       2.181 -35.607 -15.742  1.00  0.00     0.013 C 
ATOM      7  C   UNL     1       0.646 -33.641 -15.709  1.00  0.00    -0.063 C 
ATOM      8  C   UNL     1      -0.104 -32.566 -13.377  1.00  0.00    -0.003 C 
ATOM      9  C   UNL     1      -1.500 -33.056 -12.893  1.00  0.00    -0.011 C 
ATOM     10  C   UNL     1       1.881 -34.201 -16.433  1.00  0.00    -0.006 C 
ATOM     11  C   UNL     1      -0.570 -33.725 -16.261  1.00  0.00    -0.027 C 
ATOM     12  C   UNL     1      -0.176 -31.220 -14.124  1.00  0.00     0.008 C 
ATOM     13  C   UNL     1      -2.125 -32.083 -11.877  1.00  0.00     0.008 C 
ATOM     14  C   UNL     1       3.082 -33.235 -16.119  1.00  0.00     0.017 C 
ATOM     15  C   UNL     1       1.701 -34.304 -18.042  1.00  0.00    -0.020 C 
ATOM     16  C   UNL     1      -0.861 -34.171 -17.648  1.00  0.00     0.032 C 
ATOM     17  C   UNL     1       0.280 -34.900 -18.420  1.00  0.00     0.006 C 
ATOM     18  C   UNL     1       1.799 -32.896 -18.723  1.00  0.00     0.008 C 
ATOM     19  C   UNL     1       2.879 -35.192 -18.592  1.00  0.00     0.012 C 
ATOM     20  C   UNL     1      -0.043 -34.938 -20.000  1.00  0.00    -0.025 C 
ATOM     21  C   UNL     1       1.533 -32.890 -20.245  1.00  0.00     0.005 C 
ATOM     22  C   UNL     1       0.160 -33.496 -20.613  1.00  0.00     0.003 C 
ATOM     23  C   UNL     1      -1.532 -35.354 -20.260  1.00  0.00     0.010 C 
ATOM     24  C   UNL     1       0.848 -36.029 -20.674  1.00  0.00     0.012 C 
ATOM     25  C   UNL     1      -0.275 -33.317 -22.126  1.00  0.00    -0.006 C 
ATOM     26  C   UNL     1      -1.972 -35.239 -21.731  1.00  0.00     0.033 C 
ATOM     27  C   UNL     1      -1.746 -33.824 -22.292  1.00  0.00     0.120 C 
ATOM     28  C   UNL     1      -0.274 -31.805 -22.492  1.00  0.00     0.014 C 
ATOM     29  C   UNL     1       0.670 -34.019 -23.139  1.00  0.00     0.014 C 
ENDROOT
BRANCH   1  30
ATOM     30  C   UNL     1       1.620 -35.296 -12.464  1.00  0.00     0.048 C 
ATOM     31  O   UNL     1       2.588 -36.101 -12.534  1.00  0.00    -0.550 OA
ATOM     32  O   UNL     1       1.501 -34.502 -11.329  1.00  0.00    -0.550 OA
ENDBRANCH   1  30
BRANCH  27  33
ATOM     33  O   UNL     1      -2.125 -33.795 -23.646  1.00  0.00    -0.393 OA
ATOM     34  H   UNL     1      -1.780 -32.945 -24.027  1.00  0.00     0.210 HD
ENDBRANCH  27  33
TORSDOF 2
ENDMDL
MODEL 5
REMARK VINA RESULT:     0.608      2.777      5.018
REMARK INTER + INTRA:           0.724
REMARK INTER:                   0.471
REMARK INTRA:                   0.253
REMARK UNBOUND:                 0.063
REMARK SMILES C[C@H]1[C@H](C)CC[C@@]2(C(=O)[O-])CC[C@]3(C)C(=CC[C@H]4[C@@]5(C)CC[C@H](O)C(C)(C)[C@@H]5CC[C@]43C)[C@@H]12
REMARK SMILES IDX 7 1 6 2 11 3 33 4 5 5 12 6 15 7 2 8 3 9 13 10 16 11 1 12
REMARK SMILES IDX 4 13 14 14 31 15 17 16 18 17 30 18 32 19 19 20 29 21 28 22
REMARK SMILES IDX 21 23 20 24 25 25 22 26 23 27 26 28 27 29 8 30 9 31 10 32
REMARK SMILES IDX 24 33
REMARK H PARENT 24 34
REMARK Flexibility Score: inf
ROOT
ATOM      1  C   UNL     1      -1.248 -27.222  -8.123  1.00  0.00     0.017 C 
ATOM      2  C   UNL     1      -1.965 -26.273  -9.127  1.00  0.00     0.014 C 
ATOM      3  C   UNL     1      -2.125 -28.522  -8.005  1.00  0.00     0.014 C 
ATOM      4  C   UNL     1       0.196 -27.564  -8.648  1.00  0.00     0.030 C 
ATOM      5  C   UNL     1      -1.148 -25.023  -9.453  1.00  0.00     0.004 C 
ATOM      6  C   UNL     1      -1.343 -29.804  -7.615  1.00  0.00     0.013 C 
ATOM      7  C   UNL     1       0.148 -28.903  -9.400  1.00  0.00    -0.063 C 
ATOM      8  C   UNL     1       0.999 -26.369  -9.283  1.00  0.00    -0.003 C 
ATOM      9  C   UNL     1       0.160 -25.396 -10.162  1.00  0.00    -0.011 C 
ATOM     10  C   UNL     1      -0.069 -30.140  -8.513  1.00  0.00    -0.006 C 
ATOM     11  C   UNL     1      -0.255 -28.892 -10.676  1.00  0.00    -0.027 C 
ATOM     12  C   UNL     1       2.274 -26.859  -9.995  1.00  0.00     0.008 C 
ATOM     13  C   UNL     1       0.939 -24.109 -10.490  1.00  0.00     0.008 C 
ATOM     14  C   UNL     1       1.181 -30.260  -7.566  1.00  0.00     0.017 C 
ATOM     15  C   UNL     1      -0.223 -31.521  -9.351  1.00  0.00    -0.020 C 
ATOM     16  C   UNL     1      -0.769 -30.064 -11.430  1.00  0.00     0.032 C 
ATOM     17  C   UNL     1      -1.175 -31.324 -10.606  1.00  0.00     0.006 C 
ATOM     18  C   UNL     1       1.158 -32.017  -9.902  1.00  0.00     0.008 C 
ATOM     19  C   UNL     1      -0.772 -32.614  -8.360  1.00  0.00     0.012 C 
ATOM     20  C   UNL     1      -1.304 -32.610 -11.570  1.00  0.00    -0.025 C 
ATOM     21  C   UNL     1       1.086 -33.271 -10.802  1.00  0.00     0.005 C 
ATOM     22  C   UNL     1       0.137 -33.087 -12.007  1.00  0.00     0.003 C 
ATOM     23  C   UNL     1      -2.100 -32.259 -12.874  1.00  0.00     0.010 C 
ATOM     24  C   UNL     1      -2.125 -33.716 -10.833  1.00  0.00     0.012 C 
ATOM     25  C   UNL     1       0.189 -34.242 -13.092  1.00  0.00    -0.006 C 
ATOM     26  C   UNL     1      -2.111 -33.381 -13.928  1.00  0.00     0.033 C 
ATOM     27  C   UNL     1      -0.689 -33.822 -14.317  1.00  0.00     0.120 C 
ATOM     28  C   UNL     1       1.646 -34.402 -13.613  1.00  0.00     0.014 C 
ATOM     29  C   UNL     1      -0.244 -35.631 -12.550  1.00  0.00     0.014 C 
ENDROOT
BRANCH   1  30
ATOM     30  C   UNL     1      -1.175 -26.586  -6.736  1.00  0.00     0.048 C 
ATOM     31  O   UNL     1      -1.566 -25.403  -6.545  1.00  0.00    -0.550 OA
ATOM     32  O   UNL     1      -0.779 -27.338  -5.636  1.00  0.00    -0.550 OA
ENDBRANCH   1  30
BRANCH  27  33
ATOM     33  O   UNL     1      -0.767 -34.875 -15.247  1.00  0.00    -0.393 OA
ATOM     34  H   UNL     1      -0.635 -34.479 -16.147  1.00  0.00     0.210 HD
ENDBRANCH  27  33
TORSDOF 2
ENDMDL
MODEL 6
REMARK VINA RESULT:     1.029      1.995      8.343
REMARK INTER + INTRA:           1.183
REMARK INTER:                   1.364
REMARK INTRA:                  -0.181
REMARK UNBOUND:                 0.063
REMARK SMILES C[C@H]1[C@H](C)CC[C@@]2(C(=O)[O-])CC[C@]3(C)C(=CC[C@H]4[C@@]5(C)CC[C@H](O)C(C)(C)[C@@H]5CC[C@]43C)[C@@H]12
REMARK SMILES IDX 7 1 6 2 11 3 33 4 5 5 12 6 15 7 2 8 3 9 13 10 16 11 1 12
REMARK SMILES IDX 4 13 14 14 31 15 17 16 18 17 30 18 32 19 19 20 29 21 28 22
REMARK SMILES IDX 21 23 20 24 25 25 22 26 23 27 26 28 27 29 8 30 9 31 10 32
REMARK SMILES IDX 24 33
REMARK H PARENT 24 34
REMARK Flexibility Score: inf
ROOT
ATOM      1  C   UNL     1       1.407 -34.873 -18.234  1.00  0.00     0.017 C 
ATOM      2  C   UNL     1       2.332 -36.125 -18.174  1.00  0.00     0.014 C 
ATOM      3  C   UNL     1       0.035 -35.278 -17.581  1.00  0.00     0.014 C 
ATOM      4  C   UNL     1       2.072 -33.679 -17.453  1.00  0.00     0.030 C 
ATOM      5  C   UNL     1       3.756 -35.836 -18.645  1.00  0.00     0.004 C 
ATOM      6  C   UNL     1      -0.761 -34.102 -16.956  1.00  0.00     0.013 C 
ATOM      7  C   UNL     1       1.507 -33.643 -16.025  1.00  0.00    -0.063 C 
ATOM      8  C   UNL     1       3.621 -33.500 -17.659  1.00  0.00    -0.003 C 
ATOM      9  C   UNL     1       4.442 -34.822 -17.721  1.00  0.00    -0.011 C 
ATOM     10  C   UNL     1       0.040 -33.196 -15.916  1.00  0.00    -0.006 C 
ATOM     11  C   UNL     1       2.044 -34.465 -15.117  1.00  0.00    -0.027 C 
ATOM     12  C   UNL     1       4.210 -32.485 -16.660  1.00  0.00     0.008 C 
ATOM     13  C   UNL     1       5.877 -34.578 -18.220  1.00  0.00     0.008 C 
ATOM     14  C   UNL     1      -0.031 -31.704 -16.410  1.00  0.00     0.017 C 
ATOM     15  C   UNL     1      -0.553 -33.275 -14.408  1.00  0.00    -0.020 C 
ATOM     16  C   UNL     1       1.400 -34.890 -13.848  1.00  0.00     0.032 C 
ATOM     17  C   UNL     1      -0.130 -34.630 -13.698  1.00  0.00     0.006 C 
ATOM     18  C   UNL     1      -0.011 -32.106 -13.515  1.00  0.00     0.008 C 
ATOM     19  C   UNL     1      -2.117 -33.124 -14.508  1.00  0.00     0.012 C 
ATOM     20  C   UNL     1      -0.575 -34.755 -12.153  1.00  0.00    -0.025 C 
ATOM     21  C   UNL     1      -0.444 -32.166 -12.033  1.00  0.00     0.005 C 
ATOM     22  C   UNL     1      -0.056 -33.497 -11.352  1.00  0.00     0.003 C 
ATOM     23  C   UNL     1       0.054 -36.029 -11.488  1.00  0.00     0.010 C 
ATOM     24  C   UNL     1      -2.125 -34.938 -12.085  1.00  0.00     0.012 C 
ATOM     25  C   UNL     1      -0.263 -33.539  -9.781  1.00  0.00    -0.006 C 
ATOM     26  C   UNL     1      -0.174 -36.125  -9.969  1.00  0.00     0.033 C 
ATOM     27  C   UNL     1       0.335 -34.875  -9.229  1.00  0.00     0.120 C 
ATOM     28  C   UNL     1       0.535 -32.379  -9.120  1.00  0.00     0.014 C 
ATOM     29  C   UNL     1      -1.741 -33.369  -9.338  1.00  0.00     0.014 C 
ENDROOT
BRANCH   1  30
ATOM     30  C   UNL     1       1.130 -34.476 -19.683  1.00  0.00     0.048 C 
ATOM     31  O   UNL     1       1.129 -35.339 -20.602  1.00  0.00    -0.550 OA
ATOM     32  O   UNL     1       0.763 -33.173 -19.998  1.00  0.00    -0.550 OA
ENDBRANCH   1  30
BRANCH  27  33
ATOM     33  O   UNL     1       0.060 -35.004  -7.856  1.00  0.00    -0.393 OA
ATOM     34  H   UNL     1      -0.675 -34.371  -7.645  1.00  0.00     0.210 HD
ENDBRANCH  27  33
TORSDOF 2
ENDMDL
