MODEL 1
REMARK VINA RESULT:    -3.895      0.000      0.000
REMARK INTER + INTRA:         -11.789
REMARK INTER:                  -8.449
REMARK INTRA:                  -3.340
REMARK UNBOUND:                -3.340
REMARK SMILES CCCCCCCCCCCCCCCCCCCCCC(=O)[O-]
REMARK SMILES IDX 12 1 11 2 10 3 9 4 8 5 7 6 6 7 5 8 4 9 3 10 2 11 1 12 13 13
REMARK SMILES IDX 14 14 15 15 16 16 17 17 18 18 19 19 20 20 21 21 22 22 23 23
REMARK SMILES IDX 24 24
REMARK H PARENT
REMARK Flexibility Score: inf
ROOT
ATOM      1  C   UNL     1     -34.103   8.428  -2.883  1.00  0.00     0.000 C 
ENDROOT
BRANCH   1   2
ATOM      2  C   UNL     1     -33.262   7.518  -3.791  1.00  0.00     0.000 C 
BRANCH   2   3
ATOM      3  C   UNL     1     -31.930   7.094  -3.146  1.00  0.00     0.000 C 
BRANCH   3   4
ATOM      4  C   UNL     1     -32.045   6.558  -1.704  1.00  0.00    -0.000 C 
BRANCH   4   5
ATOM      5  C   UNL     1     -30.987   7.093  -0.718  1.00  0.00    -0.000 C 
BRANCH   5   6
ATOM      6  C   UNL     1     -29.916   7.999  -1.349  1.00  0.00    -0.000 C 
BRANCH   6   7
ATOM      7  C   UNL     1     -28.551   7.302  -1.481  1.00  0.00    -0.000 C 
BRANCH   7   8
ATOM      8  C   UNL     1     -28.447   6.028  -0.625  1.00  0.00    -0.000 C 
BRANCH   8   9
ATOM      9  C   UNL     1     -27.785   4.825  -1.329  1.00  0.00    -0.000 C 
BRANCH   9  10
ATOM     10  C   UNL     1     -28.725   3.642  -1.622  1.00  0.00    -0.000 C 
BRANCH  10  11
ATOM     11  C   UNL     1     -29.628   3.883  -2.840  1.00  0.00    -0.003 C 
ATOM     12  C   UNL     1     -28.819   4.378  -4.035  1.00  0.00     0.004 C 
ENDBRANCH  10  11
ENDBRANCH   9  10
ENDBRANCH   8   9
ENDBRANCH   7   8
ENDBRANCH   6   7
ENDBRANCH   5   6
ENDBRANCH   4   5
ENDBRANCH   3   4
ENDBRANCH   2   3
ENDBRANCH   1   2
BRANCH   1  13
ATOM     13  C   UNL     1     -35.589   8.043  -2.946  1.00  0.00     0.000 C 
BRANCH  13  14
ATOM     14  C   UNL     1     -36.082   7.366  -1.656  1.00  0.00     0.000 C 
BRANCH  14  15
ATOM     15  C   UNL     1     -36.343   5.861  -1.842  1.00  0.00     0.000 C 
BRANCH  15  16
ATOM     16  C   UNL     1     -35.196   4.993  -1.298  1.00  0.00     0.000 C 
BRANCH  16  17
ATOM     17  C   UNL     1     -34.634   4.022  -2.349  1.00  0.00     0.000 C 
BRANCH  17  18
ATOM     18  C   UNL     1     -35.155   4.372  -3.750  1.00  0.00     0.000 C 
BRANCH  18  19
ATOM     19  C   UNL     1     -34.158   4.021  -4.869  1.00  0.00     0.000 C 
BRANCH  19  20
ATOM     20  C   UNL     1     -34.713   3.104  -5.974  1.00  0.00     0.006 C 
BRANCH  20  21
ATOM     21  C   UNL     1     -35.900   2.252  -5.508  1.00  0.00     0.053 C 
BRANCH  21  22
ATOM     22  C   UNL     1     -35.419   0.958  -4.932  1.00  0.00     0.041 C 
ATOM     23  O   UNL     1     -34.762   0.153  -5.644  1.00  0.00    -0.550 OA
ATOM     24  O   UNL     1     -35.651   0.665  -3.593  1.00  0.00    -0.550 OA
ENDBRANCH  21  22
ENDBRANCH  20  21
ENDBRANCH  19  20
ENDBRANCH  18  19
ENDBRANCH  17  18
ENDBRANCH  16  17
ENDBRANCH  15  16
ENDBRANCH  14  15
ENDBRANCH  13  14
ENDBRANCH   1  13
TORSDOF 20
ENDMDL
MODEL 2
REMARK VINA RESULT:    -3.885      1.514      3.508
REMARK INTER + INTRA:         -11.767
REMARK INTER:                  -7.594
REMARK INTRA:                  -4.173
REMARK UNBOUND:                -3.340
REMARK SMILES CCCCCCCCCCCCCCCCCCCCCC(=O)[O-]
REMARK SMILES IDX 12 1 11 2 10 3 9 4 8 5 7 6 6 7 5 8 4 9 3 10 2 11 1 12 13 13
REMARK SMILES IDX 14 14 15 15 16 16 17 17 18 18 19 19 20 20 21 21 22 22 23 23
REMARK SMILES IDX 24 24
REMARK H PARENT
REMARK Flexibility Score: inf
ROOT
ATOM      1  C   UNL     1     -30.451   8.662  -1.407  1.00  0.00     0.000 C 
ENDROOT
BRANCH   1   2
ATOM      2  C   UNL     1     -30.428   7.231  -0.847  1.00  0.00     0.000 C 
BRANCH   2   3
ATOM      3  C   UNL     1     -31.713   6.866  -0.082  1.00  0.00     0.000 C 
BRANCH   3   4
ATOM      4  C   UNL     1     -32.445   5.612  -0.600  1.00  0.00    -0.000 C 
BRANCH   4   5
ATOM      5  C   UNL     1     -31.698   4.817  -1.691  1.00  0.00    -0.000 C 
BRANCH   5   6
ATOM      6  C   UNL     1     -32.297   4.937  -3.102  1.00  0.00    -0.000 C 
BRANCH   6   7
ATOM      7  C   UNL     1     -31.237   5.248  -4.173  1.00  0.00    -0.000 C 
BRANCH   7   8
ATOM      8  C   UNL     1     -29.842   4.715  -3.802  1.00  0.00    -0.000 C 
BRANCH   8   9
ATOM      9  C   UNL     1     -28.726   5.780  -3.769  1.00  0.00    -0.000 C 
BRANCH   9  10
ATOM     10  C   UNL     1     -27.765   5.684  -2.571  1.00  0.00    -0.000 C 
BRANCH  10  11
ATOM     11  C   UNL     1     -27.996   4.427  -1.719  1.00  0.00    -0.003 C 
ATOM     12  C   UNL     1     -27.922   4.750  -0.230  1.00  0.00     0.004 C 
ENDBRANCH  10  11
ENDBRANCH   9  10
ENDBRANCH   8   9
ENDBRANCH   7   8
ENDBRANCH   6   7
ENDBRANCH   5   6
ENDBRANCH   4   5
ENDBRANCH   3   4
ENDBRANCH   2   3
ENDBRANCH   1   2
BRANCH   1  13
ATOM     13  C   UNL     1     -31.008   8.680  -2.840  1.00  0.00     0.000 C 
BRANCH  13  14
ATOM     14  C   UNL     1     -32.470   9.153  -2.902  1.00  0.00     0.000 C 
BRANCH  14  15
ATOM     15  C   UNL     1     -33.249   8.513  -4.065  1.00  0.00     0.000 C 
BRANCH  15  16
ATOM     16  C   UNL     1     -34.631   7.996  -3.634  1.00  0.00     0.000 C 
BRANCH  16  17
ATOM     17  C   UNL     1     -34.734   7.764  -2.118  1.00  0.00     0.000 C 
BRANCH  17  18
ATOM     18  C   UNL     1     -36.113   7.201  -1.745  1.00  0.00     0.000 C 
BRANCH  18  19
ATOM     19  C   UNL     1     -36.124   5.666  -1.620  1.00  0.00     0.000 C 
BRANCH  19  20
ATOM     20  C   UNL     1     -36.796   4.921  -2.788  1.00  0.00     0.006 C 
BRANCH  20  21
ATOM     21  C   UNL     1     -35.808   4.504  -3.883  1.00  0.00     0.053 C 
BRANCH  21  22
ATOM     22  C   UNL     1     -35.545   3.032  -3.817  1.00  0.00     0.041 C 
ATOM     23  O   UNL     1     -34.763   2.490  -4.642  1.00  0.00    -0.550 OA
ATOM     24  O   UNL     1     -36.122   2.268  -2.809  1.00  0.00    -0.550 OA
ENDBRANCH  21  22
ENDBRANCH  20  21
ENDBRANCH  19  20
ENDBRANCH  18  19
ENDBRANCH  17  18
ENDBRANCH  16  17
ENDBRANCH  15  16
ENDBRANCH  14  15
ENDBRANCH  13  14
ENDBRANCH   1  13
TORSDOF 20
ENDMDL
MODEL 3
REMARK VINA RESULT:    -3.867      4.089      7.796
REMARK INTER + INTRA:         -11.728
REMARK INTER:                  -8.913
REMARK INTRA:                  -2.815
REMARK UNBOUND:                -3.340
REMARK SMILES CCCCCCCCCCCCCCCCCCCCCC(=O)[O-]
REMARK SMILES IDX 12 1 11 2 10 3 9 4 8 5 7 6 6 7 5 8 4 9 3 10 2 11 1 12 13 13
REMARK SMILES IDX 14 14 15 15 16 16 17 17 18 18 19 19 20 20 21 21 22 22 23 23
REMARK SMILES IDX 24 24
REMARK H PARENT
REMARK Flexibility Score: inf
ROOT
ATOM      1  C   UNL     1     -30.029   8.483  -1.122  1.00  0.00     0.000 C 
ENDROOT
BRANCH   1   2
ATOM      2  C   UNL     1     -31.058   7.342  -1.158  1.00  0.00     0.000 C 
BRANCH   2   3
ATOM      3  C   UNL     1     -31.875   7.312  -2.463  1.00  0.00     0.000 C 
BRANCH   3   4
ATOM      4  C   UNL     1     -32.186   8.696  -3.068  1.00  0.00    -0.000 C 
BRANCH   4   5
ATOM      5  C   UNL     1     -33.678   9.083  -3.091  1.00  0.00    -0.000 C 
BRANCH   5   6
ATOM      6  C   UNL     1     -34.640   7.930  -3.422  1.00  0.00    -0.000 C 
BRANCH   6   7
ATOM      7  C   UNL     1     -35.925   7.966  -2.577  1.00  0.00    -0.000 C 
BRANCH   7   8
ATOM      8  C   UNL     1     -35.830   7.095  -1.312  1.00  0.00    -0.000 C 
BRANCH   8   9
ATOM      9  C   UNL     1     -35.794   5.574  -1.571  1.00  0.00    -0.000 C 
BRANCH   9  10
ATOM     10  C   UNL     1     -34.545   4.850  -1.038  1.00  0.00    -0.000 C 
BRANCH  10  11
ATOM     11  C   UNL     1     -33.696   4.223  -2.153  1.00  0.00    -0.003 C 
ATOM     12  C   UNL     1     -32.576   3.364  -1.575  1.00  0.00     0.004 C 
ENDBRANCH  10  11
ENDBRANCH   9  10
ENDBRANCH   8   9
ENDBRANCH   7   8
ENDBRANCH   6   7
ENDBRANCH   5   6
ENDBRANCH   4   5
ENDBRANCH   3   4
ENDBRANCH   2   3
ENDBRANCH   1   2
BRANCH   1  13
ATOM     13  C   UNL     1     -28.605   7.943  -1.326  1.00  0.00     0.000 C 
BRANCH  13  14
ATOM     14  C   UNL     1     -28.244   7.766  -2.810  1.00  0.00     0.000 C 
BRANCH  14  15
ATOM     15  C   UNL     1     -27.701   6.361  -3.123  1.00  0.00     0.000 C 
BRANCH  15  16
ATOM     16  C   UNL     1     -28.805   5.387  -3.564  1.00  0.00     0.000 C 
BRANCH  16  17
ATOM     17  C   UNL     1     -29.089   4.296  -2.519  1.00  0.00     0.000 C 
BRANCH  17  18
ATOM     18  C   UNL     1     -27.944   4.203  -1.501  1.00  0.00     0.000 C 
BRANCH  18  19
ATOM     19  C   UNL     1     -28.324   3.411  -0.237  1.00  0.00     0.000 C 
BRANCH  19  20
ATOM     20  C   UNL     1     -27.210   3.291   0.818  1.00  0.00     0.006 C 
BRANCH  20  21
ATOM     21  C   UNL     1     -26.126   4.366   0.673  1.00  0.00     0.053 C 
BRANCH  21  22
ATOM     22  C   UNL     1     -24.885   3.959   1.403  1.00  0.00     0.041 C 
ATOM     23  O   UNL     1     -24.459   2.776   1.317  1.00  0.00    -0.550 OA
ATOM     24  O   UNL     1     -24.169   4.899   2.134  1.00  0.00    -0.550 OA
ENDBRANCH  21  22
ENDBRANCH  20  21
ENDBRANCH  19  20
ENDBRANCH  18  19
ENDBRANCH  17  18
ENDBRANCH  16  17
ENDBRANCH  15  16
ENDBRANCH  14  15
ENDBRANCH  13  14
ENDBRANCH   1  13
TORSDOF 20
ENDMDL
MODEL 4
REMARK VINA RESULT:    -3.864      2.751      6.365
REMARK INTER + INTRA:         -11.722
REMARK INTER:                  -7.771
REMARK INTRA:                  -3.951
REMARK UNBOUND:                -3.340
REMARK SMILES CCCCCCCCCCCCCCCCCCCCCC(=O)[O-]
REMARK SMILES IDX 12 1 11 2 10 3 9 4 8 5 7 6 6 7 5 8 4 9 3 10 2 11 1 12 13 13
REMARK SMILES IDX 14 14 15 15 16 16 17 17 18 18 19 19 20 20 21 21 22 22 23 23
REMARK SMILES IDX 24 24
REMARK H PARENT
REMARK Flexibility Score: inf
ROOT
ATOM      1  C   UNL     1     -36.387   4.282  -3.813  1.00  0.00     0.000 C 
ENDROOT
BRANCH   1   2
ATOM      2  C   UNL     1     -35.626   3.432  -2.784  1.00  0.00     0.000 C 
BRANCH   2   3
ATOM      3  C   UNL     1     -34.717   2.373  -3.435  1.00  0.00     0.000 C 
BRANCH   3   4
ATOM      4  C   UNL     1     -35.446   1.115  -3.948  1.00  0.00    -0.000 C 
BRANCH   4   5
ATOM      5  C   UNL     1     -35.301   0.842  -5.459  1.00  0.00    -0.000 C 
BRANCH   5   6
ATOM      6  C   UNL     1     -36.586   1.048  -6.280  1.00  0.00    -0.000 C 
BRANCH   6   7
ATOM      7  C   UNL     1     -36.612   2.400  -7.012  1.00  0.00    -0.000 C 
BRANCH   7   8
ATOM      8  C   UNL     1     -35.237   2.798  -7.578  1.00  0.00    -0.000 C 
BRANCH   8   9
ATOM      9  C   UNL     1     -34.679   4.135  -7.048  1.00  0.00    -0.000 C 
BRANCH   9  10
ATOM     10  C   UNL     1     -33.297   4.047  -6.377  1.00  0.00    -0.000 C 
BRANCH  10  11
ATOM     11  C   UNL     1     -33.114   5.072  -5.249  1.00  0.00    -0.003 C 
ATOM     12  C   UNL     1     -33.082   6.495  -5.799  1.00  0.00     0.004 C 
ENDBRANCH  10  11
ENDBRANCH   9  10
ENDBRANCH   8   9
ENDBRANCH   7   8
ENDBRANCH   6   7
ENDBRANCH   5   6
ENDBRANCH   4   5
ENDBRANCH   3   4
ENDBRANCH   2   3
ENDBRANCH   1   2
BRANCH   1  13
ATOM     13  C   UNL     1     -36.336   5.771  -3.438  1.00  0.00     0.000 C 
BRANCH  13  14
ATOM     14  C   UNL     1     -36.494   6.009  -1.927  1.00  0.00     0.000 C 
BRANCH  14  15
ATOM     15  C   UNL     1     -35.370   6.884  -1.346  1.00  0.00     0.000 C 
BRANCH  15  16
ATOM     16  C   UNL     1     -34.428   7.430  -2.431  1.00  0.00     0.000 C 
BRANCH  16  17
ATOM     17  C   UNL     1     -32.943   7.246  -2.079  1.00  0.00     0.000 C 
BRANCH  17  18
ATOM     18  C   UNL     1     -32.777   6.845  -0.606  1.00  0.00     0.000 C 
BRANCH  18  19
ATOM     19  C   UNL     1     -31.976   5.544  -0.422  1.00  0.00     0.000 C 
BRANCH  19  20
ATOM     20  C   UNL     1     -32.707   4.260  -0.857  1.00  0.00     0.006 C 
BRANCH  20  21
ATOM     21  C   UNL     1     -33.698   3.748   0.196  1.00  0.00     0.053 C 
BRANCH  21  22
ATOM     22  C   UNL     1     -33.439   2.306   0.498  1.00  0.00     0.041 C 
ATOM     23  O   UNL     1     -32.563   1.983   1.344  1.00  0.00    -0.550 OA
ATOM     24  O   UNL     1     -34.202   1.319  -0.115  1.00  0.00    -0.550 OA
ENDBRANCH  21  22
ENDBRANCH  20  21
ENDBRANCH  19  20
ENDBRANCH  18  19
ENDBRANCH  17  18
ENDBRANCH  16  17
ENDBRANCH  15  16
ENDBRANCH  14  15
ENDBRANCH  13  14
ENDBRANCH   1  13
TORSDOF 20
ENDMDL
MODEL 5
REMARK VINA RESULT:    -3.849      1.212      2.977
REMARK INTER + INTRA:         -11.689
REMARK INTER:                  -8.013
REMARK INTRA:                  -3.676
REMARK UNBOUND:                -3.340
REMARK SMILES CCCCCCCCCCCCCCCCCCCCCC(=O)[O-]
REMARK SMILES IDX 12 1 11 2 10 3 9 4 8 5 7 6 6 7 5 8 4 9 3 10 2 11 1 12 13 13
REMARK SMILES IDX 14 14 15 15 16 16 17 17 18 18 19 19 20 20 21 21 22 22 23 23
REMARK SMILES IDX 24 24
REMARK H PARENT
REMARK Flexibility Score: inf
ROOT
ATOM      1  C   UNL     1     -32.144   8.286  -2.728  1.00  0.00     0.000 C 
ENDROOT
BRANCH   1   2
ATOM      2  C   UNL     1     -32.125   6.817  -2.279  1.00  0.00     0.000 C 
BRANCH   2   3
ATOM      3  C   UNL     1     -32.324   6.651  -0.761  1.00  0.00     0.000 C 
BRANCH   3   4
ATOM      4  C   UNL     1     -31.859   5.297  -0.187  1.00  0.00    -0.000 C 
BRANCH   4   5
ATOM      5  C   UNL     1     -31.380   4.270  -1.233  1.00  0.00    -0.000 C 
BRANCH   5   6
ATOM      6  C   UNL     1     -30.231   3.360  -0.765  1.00  0.00    -0.000 C 
BRANCH   6   7
ATOM      7  C   UNL     1     -29.087   3.272  -1.789  1.00  0.00    -0.000 C 
BRANCH   7   8
ATOM      8  C   UNL     1     -28.820   4.611  -2.499  1.00  0.00    -0.000 C 
BRANCH   8   9
ATOM      9  C   UNL     1     -27.849   5.555  -1.759  1.00  0.00    -0.000 C 
BRANCH   9  10
ATOM     10  C   UNL     1     -28.518   6.708  -0.990  1.00  0.00    -0.000 C 
BRANCH  10  11
ATOM     11  C   UNL     1     -28.538   8.023  -1.782  1.00  0.00    -0.003 C 
ATOM     12  C   UNL     1     -28.403   9.227  -0.855  1.00  0.00     0.004 C 
ENDBRANCH  10  11
ENDBRANCH   9  10
ENDBRANCH   8   9
ENDBRANCH   7   8
ENDBRANCH   6   7
ENDBRANCH   5   6
ENDBRANCH   4   5
ENDBRANCH   3   4
ENDBRANCH   2   3
ENDBRANCH   1   2
BRANCH   1  13
ATOM     13  C   UNL     1     -33.585   8.769  -2.960  1.00  0.00     0.000 C 
BRANCH  13  14
ATOM     14  C   UNL     1     -34.284   8.021  -4.106  1.00  0.00     0.000 C 
BRANCH  14  15
ATOM     15  C   UNL     1     -35.642   7.431  -3.685  1.00  0.00     0.000 C 
BRANCH  15  16
ATOM     16  C   UNL     1     -36.007   7.773  -2.232  1.00  0.00     0.000 C 
BRANCH  16  17
ATOM     17  C   UNL     1     -36.177   6.525  -1.351  1.00  0.00     0.000 C 
BRANCH  17  18
ATOM     18  C   UNL     1     -36.219   5.253  -2.209  1.00  0.00     0.000 C 
BRANCH  18  19
ATOM     19  C   UNL     1     -35.020   4.320  -1.962  1.00  0.00     0.000 C 
BRANCH  19  20
ATOM     20  C   UNL     1     -34.404   3.699  -3.229  1.00  0.00     0.006 C 
BRANCH  20  21
ATOM     21  C   UNL     1     -35.409   3.558  -4.379  1.00  0.00     0.053 C 
BRANCH  21  22
ATOM     22  C   UNL     1     -35.652   2.114  -4.686  1.00  0.00     0.041 C 
ATOM     23  O   UNL     1     -35.702   1.268  -3.753  1.00  0.00    -0.550 OA
ATOM     24  O   UNL     1     -35.878   1.711  -5.996  1.00  0.00    -0.550 OA
ENDBRANCH  21  22
ENDBRANCH  20  21
ENDBRANCH  19  20
ENDBRANCH  18  19
ENDBRANCH  17  18
ENDBRANCH  16  17
ENDBRANCH  15  16
ENDBRANCH  14  15
ENDBRANCH  13  14
ENDBRANCH   1  13
TORSDOF 20
ENDMDL
MODEL 6
REMARK VINA RESULT:    -3.844      3.218      4.823
REMARK INTER + INTRA:         -11.679
REMARK INTER:                  -8.278
REMARK INTRA:                  -3.401
REMARK UNBOUND:                -3.340
REMARK SMILES CCCCCCCCCCCCCCCCCCCCCC(=O)[O-]
REMARK SMILES IDX 12 1 11 2 10 3 9 4 8 5 7 6 6 7 5 8 4 9 3 10 2 11 1 12 13 13
REMARK SMILES IDX 14 14 15 15 16 16 17 17 18 18 19 19 20 20 21 21 22 22 23 23
REMARK SMILES IDX 24 24
REMARK H PARENT
REMARK Flexibility Score: inf
ROOT
ATOM      1  C   UNL     1     -32.276   6.612  -0.489  1.00  0.00     0.000 C 
ENDROOT
BRANCH   1   2
ATOM      2  C   UNL     1     -32.099   6.870  -1.993  1.00  0.00     0.000 C 
BRANCH   2   3
ATOM      3  C   UNL     1     -31.683   8.319  -2.307  1.00  0.00     0.000 C 
BRANCH   3   4
ATOM      4  C   UNL     1     -30.186   8.625  -2.105  1.00  0.00    -0.000 C 
BRANCH   4   5
ATOM      5  C   UNL     1     -29.285   8.335  -3.323  1.00  0.00    -0.000 C 
BRANCH   5   6
ATOM      6  C   UNL     1     -28.135   7.349  -3.055  1.00  0.00    -0.000 C 
BRANCH   6   7
ATOM      7  C   UNL     1     -27.955   6.325  -4.189  1.00  0.00    -0.000 C 
BRANCH   7   8
ATOM      8  C   UNL     1     -29.203   5.449  -4.403  1.00  0.00    -0.000 C 
BRANCH   8   9
ATOM      9  C   UNL     1     -29.675   4.675  -3.155  1.00  0.00    -0.000 C 
BRANCH   9  10
ATOM     10  C   UNL     1     -28.741   3.541  -2.697  1.00  0.00    -0.000 C 
BRANCH  10  11
ATOM     11  C   UNL     1     -28.259   3.712  -1.250  1.00  0.00    -0.003 C 
ATOM     12  C   UNL     1     -28.856   4.964  -0.615  1.00  0.00     0.004 C 
ENDBRANCH  10  11
ENDBRANCH   9  10
ENDBRANCH   8   9
ENDBRANCH   7   8
ENDBRANCH   6   7
ENDBRANCH   5   6
ENDBRANCH   4   5
ENDBRANCH   3   4
ENDBRANCH   2   3
ENDBRANCH   1   2
BRANCH   1  13
ATOM     13  C   UNL     1     -32.483   5.114  -0.211  1.00  0.00     0.000 C 
BRANCH  13  14
ATOM     14  C   UNL     1     -33.021   4.353  -1.433  1.00  0.00     0.000 C 
BRANCH  14  15
ATOM     15  C   UNL     1     -34.490   3.928  -1.265  1.00  0.00     0.000 C 
BRANCH  15  16
ATOM     16  C   UNL     1     -35.298   4.075  -2.565  1.00  0.00     0.000 C 
BRANCH  16  17
ATOM     17  C   UNL     1     -36.403   5.138  -2.463  1.00  0.00     0.000 C 
BRANCH  17  18
ATOM     18  C   UNL     1     -36.159   6.066  -1.264  1.00  0.00     0.000 C 
BRANCH  18  19
ATOM     19  C   UNL     1     -35.915   7.529  -1.674  1.00  0.00     0.000 C 
BRANCH  19  20
ATOM     20  C   UNL     1     -35.637   7.750  -3.172  1.00  0.00     0.006 C 
BRANCH  20  21
ATOM     21  C   UNL     1     -35.079   9.145  -3.480  1.00  0.00     0.053 C 
BRANCH  21  22
ATOM     22  C   UNL     1     -36.038   9.916  -4.330  1.00  0.00     0.041 C 
ATOM     23  O   UNL     1     -36.738  10.833  -3.824  1.00  0.00    -0.550 OA
ATOM     24  O   UNL     1     -36.121   9.657  -5.693  1.00  0.00    -0.550 OA
ENDBRANCH  21  22
ENDBRANCH  20  21
ENDBRANCH  19  20
ENDBRANCH  18  19
ENDBRANCH  17  18
ENDBRANCH  16  17
ENDBRANCH  15  16
ENDBRANCH  14  15
ENDBRANCH  13  14
ENDBRANCH   1  13
TORSDOF 20
ENDMDL
MODEL 7
REMARK VINA RESULT:    -3.840      4.021      7.049
REMARK INTER + INTRA:         -11.669
REMARK INTER:                  -8.674
REMARK INTRA:                  -2.995
REMARK UNBOUND:                -3.340
REMARK SMILES CCCCCCCCCCCCCCCCCCCCCC(=O)[O-]
REMARK SMILES IDX 12 1 11 2 10 3 9 4 8 5 7 6 6 7 5 8 4 9 3 10 2 11 1 12 13 13
REMARK SMILES IDX 14 14 15 15 16 16 17 17 18 18 19 19 20 20 21 21 22 22 23 23
REMARK SMILES IDX 24 24
REMARK H PARENT
REMARK Flexibility Score: inf
ROOT
ATOM      1  C   UNL     1     -34.329   7.284  -2.562  1.00  0.00     0.000 C 
ENDROOT
BRANCH   1   2
ATOM      2  C   UNL     1     -35.337   7.147  -1.412  1.00  0.00     0.000 C 
BRANCH   2   3
ATOM      3  C   UNL     1     -36.022   5.769  -1.376  1.00  0.00     0.000 C 
BRANCH   3   4
ATOM      4  C   UNL     1     -35.756   4.877  -2.605  1.00  0.00    -0.000 C 
BRANCH   4   5
ATOM      5  C   UNL     1     -35.004   3.562  -2.314  1.00  0.00    -0.000 C 
BRANCH   5   6
ATOM      6  C   UNL     1     -33.497   3.598  -2.620  1.00  0.00    -0.000 C 
BRANCH   6   7
ATOM      7  C   UNL     1     -32.640   3.104  -1.442  1.00  0.00    -0.000 C 
BRANCH   7   8
ATOM      8  C   UNL     1     -33.371   3.202  -0.092  1.00  0.00    -0.000 C 
BRANCH   8   9
ATOM      9  C   UNL     1     -32.459   3.479   1.122  1.00  0.00    -0.000 C 
BRANCH   9  10
ATOM     10  C   UNL     1     -32.997   2.975   2.472  1.00  0.00    -0.000 C 
BRANCH  10  11
ATOM     11  C   UNL     1     -34.316   2.200   2.338  1.00  0.00    -0.003 C 
ATOM     12  C   UNL     1     -35.446   2.903   3.084  1.00  0.00     0.004 C 
ENDBRANCH  10  11
ENDBRANCH   9  10
ENDBRANCH   8   9
ENDBRANCH   7   8
ENDBRANCH   6   7
ENDBRANCH   5   6
ENDBRANCH   4   5
ENDBRANCH   3   4
ENDBRANCH   2   3
ENDBRANCH   1   2
BRANCH   1  13
ATOM     13  C   UNL     1     -32.913   7.540  -2.022  1.00  0.00     0.000 C 
BRANCH  13  14
ATOM     14  C   UNL     1     -32.624   6.767  -0.725  1.00  0.00     0.000 C 
BRANCH  14  15
ATOM     15  C   UNL     1     -31.127   6.464  -0.538  1.00  0.00     0.000 C 
BRANCH  15  16
ATOM     16  C   UNL     1     -30.448   6.023  -1.844  1.00  0.00     0.000 C 
BRANCH  16  17
ATOM     17  C   UNL     1     -29.013   6.555  -1.979  1.00  0.00     0.000 C 
BRANCH  17  18
ATOM     18  C   UNL     1     -28.015   5.399  -2.141  1.00  0.00     0.000 C 
BRANCH  18  19
ATOM     19  C   UNL     1     -28.605   4.033  -1.746  1.00  0.00     0.000 C 
BRANCH  19  20
ATOM     20  C   UNL     1     -28.152   3.497  -0.376  1.00  0.00     0.006 C 
BRANCH  20  21
ATOM     21  C   UNL     1     -27.028   4.329   0.253  1.00  0.00     0.053 C 
BRANCH  21  22
ATOM     22  C   UNL     1     -26.107   3.452   1.041  1.00  0.00     0.041 C 
ATOM     23  O   UNL     1     -24.888   3.751   1.152  1.00  0.00    -0.550 OA
ATOM     24  O   UNL     1     -26.606   2.334   1.698  1.00  0.00    -0.550 OA
ENDBRANCH  21  22
ENDBRANCH  20  21
ENDBRANCH  19  20
ENDBRANCH  18  19
ENDBRANCH  17  18
ENDBRANCH  16  17
ENDBRANCH  15  16
ENDBRANCH  14  15
ENDBRANCH  13  14
ENDBRANCH   1  13
TORSDOF 20
ENDMDL
MODEL 8
REMARK VINA RESULT:    -3.785      2.879      6.292
REMARK INTER + INTRA:         -11.551
REMARK INTER:                  -8.052
REMARK INTRA:                  -3.498
REMARK UNBOUND:                -3.340
REMARK SMILES CCCCCCCCCCCCCCCCCCCCCC(=O)[O-]
REMARK SMILES IDX 12 1 11 2 10 3 9 4 8 5 7 6 6 7 5 8 4 9 3 10 2 11 1 12 13 13
REMARK SMILES IDX 14 14 15 15 16 16 17 17 18 18 19 19 20 20 21 21 22 22 23 23
REMARK SMILES IDX 24 24
REMARK H PARENT
REMARK Flexibility Score: inf
ROOT
ATOM      1  C   UNL     1     -35.946   5.737  -1.390  1.00  0.00     0.000 C 
ENDROOT
BRANCH   1   2
ATOM      2  C   UNL     1     -36.691   5.561  -2.722  1.00  0.00     0.000 C 
BRANCH   2   3
ATOM      3  C   UNL     1     -36.685   4.106  -3.226  1.00  0.00     0.000 C 
BRANCH   3   4
ATOM      4  C   UNL     1     -35.672   3.179  -2.524  1.00  0.00    -0.000 C 
BRANCH   4   5
ATOM      5  C   UNL     1     -34.877   2.246  -3.461  1.00  0.00    -0.000 C 
BRANCH   5   6
ATOM      6  C   UNL     1     -35.584   0.925  -3.810  1.00  0.00    -0.000 C 
BRANCH   6   7
ATOM      7  C   UNL     1     -35.511   0.591  -5.310  1.00  0.00    -0.000 C 
BRANCH   7   8
ATOM      8  C   UNL     1     -36.241   1.624  -6.185  1.00  0.00    -0.000 C 
BRANCH   8   9
ATOM      9  C   UNL     1     -35.334   2.416  -7.150  1.00  0.00    -0.000 C 
BRANCH   9  10
ATOM     10  C   UNL     1     -35.268   3.931  -6.890  1.00  0.00    -0.000 C 
BRANCH  10  11
ATOM     11  C   UNL     1     -34.037   4.344  -6.071  1.00  0.00    -0.003 C 
ATOM     12  C   UNL     1     -34.199   5.752  -5.506  1.00  0.00     0.004 C 
ENDBRANCH  10  11
ENDBRANCH   9  10
ENDBRANCH   8   9
ENDBRANCH   7   8
ENDBRANCH   6   7
ENDBRANCH   5   6
ENDBRANCH   4   5
ENDBRANCH   3   4
ENDBRANCH   2   3
ENDBRANCH   1   2
BRANCH   1  13
ATOM     13  C   UNL     1     -35.057   6.990  -1.421  1.00  0.00     0.000 C 
BRANCH  13  14
ATOM     14  C   UNL     1     -33.600   6.693  -1.029  1.00  0.00     0.000 C 
BRANCH  14  15
ATOM     15  C   UNL     1     -32.906   5.738  -2.016  1.00  0.00     0.000 C 
BRANCH  15  16
ATOM     16  C   UNL     1     -32.524   4.397  -1.368  1.00  0.00     0.000 C 
BRANCH  16  17
ATOM     17  C   UNL     1     -31.918   4.564   0.034  1.00  0.00     0.000 C 
BRANCH  17  18
ATOM     18  C   UNL     1     -32.657   3.688   1.056  1.00  0.00     0.000 C 
BRANCH  18  19
ATOM     19  C   UNL     1     -33.825   2.898   0.440  1.00  0.00     0.000 C 
BRANCH  19  20
ATOM     20  C   UNL     1     -33.999   1.465   0.976  1.00  0.00     0.006 C 
BRANCH  20  21
ATOM     21  C   UNL     1     -34.683   0.528  -0.027  1.00  0.00     0.053 C 
BRANCH  21  22
ATOM     22  C   UNL     1     -34.197  -0.876   0.155  1.00  0.00     0.041 C 
ATOM     23  O   UNL     1     -34.541  -1.776  -0.657  1.00  0.00    -0.550 OA
ATOM     24  O   UNL     1     -33.321  -1.179   1.191  1.00  0.00    -0.550 OA
ENDBRANCH  21  22
ENDBRANCH  20  21
ENDBRANCH  19  20
ENDBRANCH  18  19
ENDBRANCH  17  18
ENDBRANCH  16  17
ENDBRANCH  15  16
ENDBRANCH  14  15
ENDBRANCH  13  14
ENDBRANCH   1  13
TORSDOF 20
ENDMDL
MODEL 9
REMARK VINA RESULT:    -3.775      1.561      3.825
REMARK INTER + INTRA:         -11.528
REMARK INTER:                  -8.183
REMARK INTRA:                  -3.346
REMARK UNBOUND:                -3.340
REMARK SMILES CCCCCCCCCCCCCCCCCCCCCC(=O)[O-]
REMARK SMILES IDX 12 1 11 2 10 3 9 4 8 5 7 6 6 7 5 8 4 9 3 10 2 11 1 12 13 13
REMARK SMILES IDX 14 14 15 15 16 16 17 17 18 18 19 19 20 20 21 21 22 22 23 23
REMARK SMILES IDX 24 24
REMARK H PARENT
REMARK Flexibility Score: inf
ROOT
ATOM      1  C   UNL     1     -30.810   7.329  -0.599  1.00  0.00     0.000 C 
ENDROOT
BRANCH   1   2
ATOM      2  C   UNL     1     -30.067   7.628  -1.910  1.00  0.00     0.000 C 
BRANCH   2   3
ATOM      3  C   UNL     1     -28.562   7.314  -1.832  1.00  0.00     0.000 C 
BRANCH   3   4
ATOM      4  C   UNL     1     -28.120   6.046  -2.591  1.00  0.00    -0.000 C 
BRANCH   4   5
ATOM      5  C   UNL     1     -28.238   4.730  -1.796  1.00  0.00    -0.000 C 
BRANCH   5   6
ATOM      6  C   UNL     1     -29.093   3.643  -2.470  1.00  0.00    -0.000 C 
BRANCH   6   7
ATOM      7  C   UNL     1     -30.518   4.123  -2.792  1.00  0.00    -0.000 C 
BRANCH   7   8
ATOM      8  C   UNL     1     -31.551   3.663  -1.749  1.00  0.00    -0.000 C 
BRANCH   8   9
ATOM      9  C   UNL     1     -33.002   3.571  -2.267  1.00  0.00    -0.000 C 
BRANCH   9  10
ATOM     10  C   UNL     1     -34.058   3.241  -1.198  1.00  0.00    -0.000 C 
BRANCH  10  11
ATOM     11  C   UNL     1     -33.732   3.851   0.173  1.00  0.00    -0.003 C 
ATOM     12  C   UNL     1     -33.746   2.788   1.266  1.00  0.00     0.004 C 
ENDBRANCH  10  11
ENDBRANCH   9  10
ENDBRANCH   8   9
ENDBRANCH   7   8
ENDBRANCH   6   7
ENDBRANCH   5   6
ENDBRANCH   4   5
ENDBRANCH   3   4
ENDBRANCH   2   3
ENDBRANCH   1   2
BRANCH   1  13
ATOM     13  C   UNL     1     -32.284   6.988  -0.869  1.00  0.00     0.000 C 
BRANCH  13  14
ATOM     14  C   UNL     1     -32.707   7.294  -2.315  1.00  0.00     0.000 C 
BRANCH  14  15
ATOM     15  C   UNL     1     -34.229   7.472  -2.460  1.00  0.00     0.000 C 
BRANCH  15  16
ATOM     16  C   UNL     1     -35.001   6.961  -1.233  1.00  0.00     0.000 C 
BRANCH  16  17
ATOM     17  C   UNL     1     -36.374   6.374  -1.594  1.00  0.00     0.000 C 
BRANCH  17  18
ATOM     18  C   UNL     1     -36.377   5.838  -3.033  1.00  0.00     0.000 C 
BRANCH  18  19
ATOM     19  C   UNL     1     -37.022   4.445  -3.156  1.00  0.00     0.000 C 
BRANCH  19  20
ATOM     20  C   UNL     1     -36.737   3.708  -4.477  1.00  0.00     0.006 C 
BRANCH  20  21
ATOM     21  C   UNL     1     -35.995   2.381  -4.276  1.00  0.00     0.053 C 
BRANCH  21  22
ATOM     22  C   UNL     1     -35.928   1.620  -5.562  1.00  0.00     0.041 C 
ATOM     23  O   UNL     1     -35.746   2.229  -6.650  1.00  0.00    -0.550 OA
ATOM     24  O   UNL     1     -36.013   0.233  -5.554  1.00  0.00    -0.550 OA
ENDBRANCH  21  22
ENDBRANCH  20  21
ENDBRANCH  19  20
ENDBRANCH  18  19
ENDBRANCH  17  18
ENDBRANCH  16  17
ENDBRANCH  15  16
ENDBRANCH  14  15
ENDBRANCH  13  14
ENDBRANCH   1  13
TORSDOF 20
ENDMDL
