MODEL 1
REMARK VINA RESULT:    -3.313      0.000      0.000
REMARK INTER + INTRA:          -8.971
REMARK INTER:                  -7.575
REMARK INTRA:                  -1.397
REMARK UNBOUND:                -1.397
REMARK SMILES CCCCCCCCCCCCCCCCCCCCCCCC(=O)[O-]
REMARK SMILES IDX 13 1 14 2 15 3 16 4 17 5 18 6 19 7 20 8 21 9 22 10 23 11
REMARK SMILES IDX 24 12 25 13 26 14 12 15 11 16 10 17 9 18 8 19 7 20 6 21 5 22
REMARK SMILES IDX 4 23 3 24 2 25 1 26
REMARK H PARENT
REMARK Flexibility Score: inf
ROOT
ATOM      1  C   UNL     1      18.478  -8.558  14.818  1.00  0.00     0.000 C 
ENDROOT
BRANCH   1   2
ATOM      2  C   UNL     1      17.752  -7.209  14.664  1.00  0.00     0.000 C 
BRANCH   2   3
ATOM      3  C   UNL     1      16.620  -7.259  13.627  1.00  0.00     0.000 C 
BRANCH   3   4
ATOM      4  C   UNL     1      16.928  -6.430  12.372  1.00  0.00     0.000 C 
BRANCH   4   5
ATOM      5  C   UNL     1      16.670  -4.939  12.626  1.00  0.00     0.000 C 
BRANCH   5   6
ATOM      6  C   UNL     1      15.258  -4.539  12.171  1.00  0.00     0.000 C 
BRANCH   6   7
ATOM      7  C   UNL     1      14.161  -5.099  13.102  1.00  0.00     0.000 C 
BRANCH   7   8
ATOM      8  C   UNL     1      13.443  -4.021  13.936  1.00  0.00     0.000 C 
BRANCH   8   9
ATOM      9  C   UNL     1      13.705  -4.089  15.450  1.00  0.00     0.000 C 
BRANCH   9  10
ATOM     10  C   UNL     1      14.278  -5.443  15.895  1.00  0.00     0.006 C 
BRANCH  10  11
ATOM     11  C   UNL     1      15.713  -5.287  16.410  1.00  0.00     0.053 C 
BRANCH  11  12
ATOM     12  C   UNL     1      15.743  -5.336  17.906  1.00  0.00     0.041 C 
ATOM     13  O   UNL     1      16.267  -6.315  18.498  1.00  0.00    -0.550 OA
ATOM     14  O   UNL     1      15.171  -4.308  18.648  1.00  0.00    -0.550 OA
ENDBRANCH  11  12
ENDBRANCH  10  11
ENDBRANCH   9  10
ENDBRANCH   8   9
ENDBRANCH   7   8
ENDBRANCH   6   7
ENDBRANCH   5   6
ENDBRANCH   4   5
ENDBRANCH   3   4
ENDBRANCH   2   3
ENDBRANCH   1   2
BRANCH   1  15
ATOM     15  C   UNL     1      17.678  -9.724  14.214  1.00  0.00     0.000 C 
BRANCH  15  16
ATOM     16  C   UNL     1      17.845  -9.818  12.686  1.00  0.00     0.000 C 
BRANCH  16  17
ATOM     17  C   UNL     1      16.639 -10.474  11.996  1.00  0.00     0.000 C 
BRANCH  17  18
ATOM     18  C   UNL     1      16.398 -11.920  12.460  1.00  0.00    -0.000 C 
BRANCH  18  19
ATOM     19  C   UNL     1      15.110 -12.527  11.875  1.00  0.00    -0.000 C 
BRANCH  19  20
ATOM     20  C   UNL     1      14.557 -13.753  12.631  1.00  0.00    -0.000 C 
BRANCH  20  21
ATOM     21  C   UNL     1      13.070 -13.663  13.018  1.00  0.00    -0.000 C 
BRANCH  21  22
ATOM     22  C   UNL     1      12.296 -12.644  12.168  1.00  0.00    -0.000 C 
BRANCH  22  23
ATOM     23  C   UNL     1      11.989 -11.377  12.973  1.00  0.00    -0.000 C 
BRANCH  23  24
ATOM     24  C   UNL     1      12.410 -10.118  12.200  1.00  0.00    -0.000 C 
BRANCH  24  25
ATOM     25  C   UNL     1      13.487  -9.307  12.936  1.00  0.00    -0.003 C 
ATOM     26  C   UNL     1      13.290  -7.797  12.797  1.00  0.00     0.004 C 
ENDBRANCH  24  25
ENDBRANCH  23  24
ENDBRANCH  22  23
ENDBRANCH  21  22
ENDBRANCH  20  21
ENDBRANCH  19  20
ENDBRANCH  18  19
ENDBRANCH  17  18
ENDBRANCH  16  17
ENDBRANCH  15  16
ENDBRANCH   1  15
TORSDOF 22
ENDMDL
MODEL 2
REMARK VINA RESULT:    -3.006      3.119      6.768
REMARK INTER + INTRA:          -8.269
REMARK INTER:                  -5.959
REMARK INTRA:                  -2.310
REMARK UNBOUND:                -1.397
REMARK SMILES CCCCCCCCCCCCCCCCCCCCCCCC(=O)[O-]
REMARK SMILES IDX 13 1 14 2 15 3 16 4 17 5 18 6 19 7 20 8 21 9 22 10 23 11
REMARK SMILES IDX 24 12 25 13 26 14 12 15 11 16 10 17 9 18 8 19 7 20 6 21 5 22
REMARK SMILES IDX 4 23 3 24 2 25 1 26
REMARK H PARENT
REMARK Flexibility Score: inf
ROOT
ATOM      1  C   UNL     1      17.607  -6.282  17.163  1.00  0.00     0.000 C 
ENDROOT
BRANCH   1   2
ATOM      2  C   UNL     1      17.169  -6.854  15.803  1.00  0.00     0.000 C 
BRANCH   2   3
ATOM      3  C   UNL     1      16.947  -5.763  14.744  1.00  0.00     0.000 C 
BRANCH   3   4
ATOM      4  C   UNL     1      18.220  -5.439  13.949  1.00  0.00     0.000 C 
BRANCH   4   5
ATOM      5  C   UNL     1      17.939  -5.445  12.442  1.00  0.00     0.000 C 
BRANCH   5   6
ATOM      6  C   UNL     1      17.654  -6.870  11.939  1.00  0.00     0.000 C 
BRANCH   6   7
ATOM      7  C   UNL     1      18.551  -7.923  12.624  1.00  0.00     0.000 C 
BRANCH   7   8
ATOM      8  C   UNL     1      17.796  -9.196  13.055  1.00  0.00     0.000 C 
BRANCH   8   9
ATOM      9  C   UNL     1      16.911  -9.827  11.967  1.00  0.00     0.000 C 
BRANCH   9  10
ATOM     10  C   UNL     1      16.600 -11.307  12.237  1.00  0.00     0.006 C 
BRANCH  10  11
ATOM     11  C   UNL     1      15.112 -11.601  12.020  1.00  0.00     0.053 C 
BRANCH  11  12
ATOM     12  C   UNL     1      14.774 -12.980  12.497  1.00  0.00     0.041 C 
ATOM     13  O   UNL     1      15.683 -13.749  12.906  1.00  0.00    -0.550 OA
ATOM     14  O   UNL     1      13.457 -13.423  12.470  1.00  0.00    -0.550 OA
ENDBRANCH  11  12
ENDBRANCH  10  11
ENDBRANCH   9  10
ENDBRANCH   8   9
ENDBRANCH   7   8
ENDBRANCH   6   7
ENDBRANCH   5   6
ENDBRANCH   4   5
ENDBRANCH   3   4
ENDBRANCH   2   3
ENDBRANCH   1   2
BRANCH   1  15
ATOM     15  C   UNL     1      16.426  -6.114  18.133  1.00  0.00     0.000 C 
BRANCH  15  16
ATOM     16  C   UNL     1      16.348  -4.693  18.720  1.00  0.00     0.000 C 
BRANCH  16  17
ATOM     17  C   UNL     1      15.066  -3.951  18.308  1.00  0.00     0.000 C 
BRANCH  17  18
ATOM     18  C   UNL     1      14.068  -4.851  17.561  1.00  0.00    -0.000 C 
BRANCH  18  19
ATOM     19  C   UNL     1      13.601  -4.243  16.226  1.00  0.00    -0.000 C 
BRANCH  19  20
ATOM     20  C   UNL     1      14.123  -4.954  14.960  1.00  0.00    -0.000 C 
BRANCH  20  21
ATOM     21  C   UNL     1      13.434  -4.539  13.648  1.00  0.00    -0.000 C 
BRANCH  21  22
ATOM     22  C   UNL     1      13.903  -5.367  12.443  1.00  0.00    -0.000 C 
BRANCH  22  23
ATOM     23  C   UNL     1      14.449  -6.728  12.889  1.00  0.00    -0.000 C 
BRANCH  23  24
ATOM     24  C   UNL     1      14.003  -7.842  11.930  1.00  0.00    -0.000 C 
BRANCH  24  25
ATOM     25  C   UNL     1      13.302  -8.999  12.656  1.00  0.00    -0.003 C 
ATOM     26  C   UNL     1      12.103  -9.546  11.880  1.00  0.00     0.004 C 
ENDBRANCH  24  25
ENDBRANCH  23  24
ENDBRANCH  22  23
ENDBRANCH  21  22
ENDBRANCH  20  21
ENDBRANCH  19  20
ENDBRANCH  18  19
ENDBRANCH  17  18
ENDBRANCH  16  17
ENDBRANCH  15  16
ENDBRANCH   1  15
TORSDOF 22
ENDMDL
MODEL 3
REMARK VINA RESULT:    -2.474      2.986      6.329
REMARK INTER + INTRA:          -7.051
REMARK INTER:                  -4.936
REMARK INTRA:                  -2.116
REMARK UNBOUND:                -1.397
REMARK SMILES CCCCCCCCCCCCCCCCCCCCCCCC(=O)[O-]
REMARK SMILES IDX 13 1 14 2 15 3 16 4 17 5 18 6 19 7 20 8 21 9 22 10 23 11
REMARK SMILES IDX 24 12 25 13 26 14 12 15 11 16 10 17 9 18 8 19 7 20 6 21 5 22
REMARK SMILES IDX 4 23 3 24 2 25 1 26
REMARK H PARENT
REMARK Flexibility Score: inf
ROOT
ATOM      1  C   UNL     1      15.154  -5.416  15.924  1.00  0.00     0.000 C 
ENDROOT
BRANCH   1   2
ATOM      2  C   UNL     1      13.617  -5.375  15.866  1.00  0.00     0.000 C 
BRANCH   2   3
ATOM      3  C   UNL     1      13.083  -5.125  14.447  1.00  0.00     0.000 C 
BRANCH   3   4
ATOM      4  C   UNL     1      13.753  -3.924  13.764  1.00  0.00     0.000 C 
BRANCH   4   5
ATOM      5  C   UNL     1      14.903  -4.381  12.859  1.00  0.00     0.000 C 
BRANCH   5   6
ATOM      6  C   UNL     1      14.434  -5.467  11.877  1.00  0.00     0.000 C 
BRANCH   6   7
ATOM      7  C   UNL     1      14.847  -6.884  12.329  1.00  0.00     0.000 C 
BRANCH   7   8
ATOM      8  C   UNL     1      13.874  -7.989  11.877  1.00  0.00     0.000 C 
BRANCH   8   9
ATOM      9  C   UNL     1      13.016  -8.599  12.999  1.00  0.00     0.000 C 
BRANCH   9  10
ATOM     10  C   UNL     1      13.055 -10.135  13.010  1.00  0.00     0.006 C 
BRANCH  10  11
ATOM     11  C   UNL     1      14.224 -10.658  12.168  1.00  0.00     0.053 C 
BRANCH  11  12
ATOM     12  C   UNL     1      14.370 -12.139  12.336  1.00  0.00     0.041 C 
ATOM     13  O   UNL     1      13.353 -12.881  12.332  1.00  0.00    -0.550 OA
ATOM     14  O   UNL     1      15.630 -12.699  12.517  1.00  0.00    -0.550 OA
ENDBRANCH  11  12
ENDBRANCH  10  11
ENDBRANCH   9  10
ENDBRANCH   8   9
ENDBRANCH   7   8
ENDBRANCH   6   7
ENDBRANCH   5   6
ENDBRANCH   4   5
ENDBRANCH   3   4
ENDBRANCH   2   3
ENDBRANCH   1   2
BRANCH   1  15
ATOM     15  C   UNL     1      15.697  -5.020  17.307  1.00  0.00     0.000 C 
BRANCH  15  16
ATOM     16  C   UNL     1      16.810  -5.967  17.792  1.00  0.00     0.000 C 
BRANCH  16  17
ATOM     17  C   UNL     1      16.836  -7.296  17.021  1.00  0.00     0.000 C 
BRANCH  17  18
ATOM     18  C   UNL     1      17.997  -7.382  16.015  1.00  0.00    -0.000 C 
BRANCH  18  19
ATOM     19  C   UNL     1      18.367  -8.832  15.655  1.00  0.00    -0.000 C 
BRANCH  19  20
ATOM     20  C   UNL     1      18.511  -9.119  14.146  1.00  0.00    -0.000 C 
BRANCH  20  21
ATOM     21  C   UNL     1      17.314  -8.683  13.282  1.00  0.00    -0.000 C 
BRANCH  21  22
ATOM     22  C   UNL     1      17.731  -8.220  11.879  1.00  0.00    -0.000 C 
BRANCH  22  23
ATOM     23  C   UNL     1      18.786  -7.111  11.956  1.00  0.00    -0.000 C 
BRANCH  23  24
ATOM     24  C   UNL     1      18.268  -5.914  12.767  1.00  0.00    -0.000 C 
BRANCH  24  25
ATOM     25  C   UNL     1      18.724  -4.567  12.186  1.00  0.00    -0.003 C 
ATOM     26  C   UNL     1      20.246  -4.442  12.101  1.00  0.00     0.004 C 
ENDBRANCH  24  25
ENDBRANCH  23  24
ENDBRANCH  22  23
ENDBRANCH  21  22
ENDBRANCH  20  21
ENDBRANCH  19  20
ENDBRANCH  18  19
ENDBRANCH  17  18
ENDBRANCH  16  17
ENDBRANCH  15  16
ENDBRANCH   1  15
TORSDOF 22
ENDMDL
MODEL 4
REMARK VINA RESULT:    -2.363      3.075      4.666
REMARK INTER + INTRA:          -6.798
REMARK INTER:                  -6.410
REMARK INTRA:                  -0.389
REMARK UNBOUND:                -1.397
REMARK SMILES CCCCCCCCCCCCCCCCCCCCCCCC(=O)[O-]
REMARK SMILES IDX 13 1 14 2 15 3 16 4 17 5 18 6 19 7 20 8 21 9 22 10 23 11
REMARK SMILES IDX 24 12 25 13 26 14 12 15 11 16 10 17 9 18 8 19 7 20 6 21 5 22
REMARK SMILES IDX 4 23 3 24 2 25 1 26
REMARK H PARENT
REMARK Flexibility Score: inf
ROOT
ATOM      1  C   UNL     1      15.859 -11.908  12.118  1.00  0.00     0.000 C 
ENDROOT
BRANCH   1   2
ATOM      2  C   UNL     1      16.781 -11.223  13.143  1.00  0.00     0.000 C 
BRANCH   2   3
ATOM      3  C   UNL     1      17.646 -10.118  12.518  1.00  0.00     0.000 C 
BRANCH   3   4
ATOM      4  C   UNL     1      17.778  -8.885  13.423  1.00  0.00     0.000 C 
BRANCH   4   5
ATOM      5  C   UNL     1      18.221  -7.659  12.615  1.00  0.00     0.000 C 
BRANCH   5   6
ATOM      6  C   UNL     1      17.684  -6.362  13.242  1.00  0.00     0.000 C 
BRANCH   6   7
ATOM      7  C   UNL     1      16.289  -5.983  12.700  1.00  0.00     0.000 C 
BRANCH   7   8
ATOM      8  C   UNL     1      15.125  -6.500  13.566  1.00  0.00     0.000 C 
BRANCH   8   9
ATOM      9  C   UNL     1      14.343  -5.412  14.322  1.00  0.00     0.000 C 
BRANCH   9  10
ATOM     10  C   UNL     1      14.660  -5.388  15.825  1.00  0.00     0.006 C 
BRANCH  10  11
ATOM     11  C   UNL     1      15.984  -6.103  16.116  1.00  0.00     0.053 C 
BRANCH  11  12
ATOM     12  C   UNL     1      16.395  -5.888  17.541  1.00  0.00     0.041 C 
ATOM     13  O   UNL     1      16.685  -6.872  18.271  1.00  0.00    -0.550 OA
ATOM     14  O   UNL     1      16.437  -4.603  18.068  1.00  0.00    -0.550 OA
ENDBRANCH  11  12
ENDBRANCH  10  11
ENDBRANCH   9  10
ENDBRANCH   8   9
ENDBRANCH   7   8
ENDBRANCH   6   7
ENDBRANCH   5   6
ENDBRANCH   4   5
ENDBRANCH   3   4
ENDBRANCH   2   3
ENDBRANCH   1   2
BRANCH   1  15
ATOM     15  C   UNL     1      15.633 -13.395  12.438  1.00  0.00     0.000 C 
BRANCH  15  16
ATOM     16  C   UNL     1      14.232 -13.661  13.019  1.00  0.00     0.000 C 
BRANCH  16  17
ATOM     17  C   UNL     1      13.103 -13.188  12.088  1.00  0.00     0.000 C 
BRANCH  17  18
ATOM     18  C   UNL     1      12.955 -11.658  12.058  1.00  0.00    -0.000 C 
BRANCH  18  19
ATOM     19  C   UNL     1      11.543 -11.188  12.452  1.00  0.00    -0.000 C 
BRANCH  19  20
ATOM     20  C   UNL     1      10.385 -12.028  11.875  1.00  0.00    -0.000 C 
BRANCH  20  21
ATOM     21  C   UNL     1       9.193 -12.236  12.828  1.00  0.00    -0.000 C 
BRANCH  21  22
ATOM     22  C   UNL     1       8.066 -13.066  12.196  1.00  0.00    -0.000 C 
BRANCH  22  23
ATOM     23  C   UNL     1       6.928 -13.301  13.196  1.00  0.00    -0.000 C 
BRANCH  23  24
ATOM     24  C   UNL     1       5.803 -14.134  12.565  1.00  0.00    -0.000 C 
BRANCH  24  25
ATOM     25  C   UNL     1       5.134 -15.081  13.573  1.00  0.00    -0.003 C 
ATOM     26  C   UNL     1       5.204 -14.562  15.009  1.00  0.00     0.004 C 
ENDBRANCH  24  25
ENDBRANCH  23  24
ENDBRANCH  22  23
ENDBRANCH  21  22
ENDBRANCH  20  21
ENDBRANCH  19  20
ENDBRANCH  18  19
ENDBRANCH  17  18
ENDBRANCH  16  17
ENDBRANCH  15  16
ENDBRANCH   1  15
TORSDOF 22
ENDMDL
MODEL 5
REMARK VINA RESULT:    -2.264      2.856      6.299
REMARK INTER + INTRA:          -6.572
REMARK INTER:                  -5.718
REMARK INTRA:                  -0.854
REMARK UNBOUND:                -1.397
REMARK SMILES CCCCCCCCCCCCCCCCCCCCCCCC(=O)[O-]
REMARK SMILES IDX 13 1 14 2 15 3 16 4 17 5 18 6 19 7 20 8 21 9 22 10 23 11
REMARK SMILES IDX 24 12 25 13 26 14 12 15 11 16 10 17 9 18 8 19 7 20 6 21 5 22
REMARK SMILES IDX 4 23 3 24 2 25 1 26
REMARK H PARENT
REMARK Flexibility Score: inf
ROOT
ATOM      1  C   UNL     1      14.785  -5.709  17.019  1.00  0.00     0.000 C 
ENDROOT
BRANCH   1   2
ATOM      2  C   UNL     1      13.949  -4.567  16.414  1.00  0.00     0.000 C 
BRANCH   2   3
ATOM      3  C   UNL     1      14.076  -4.483  14.885  1.00  0.00     0.000 C 
BRANCH   3   4
ATOM      4  C   UNL     1      12.725  -4.263  14.189  1.00  0.00     0.000 C 
BRANCH   4   5
ATOM      5  C   UNL     1      12.925  -3.880  12.718  1.00  0.00     0.000 C 
BRANCH   5   6
ATOM      6  C   UNL     1      13.932  -4.819  12.035  1.00  0.00     0.000 C 
BRANCH   6   7
ATOM      7  C   UNL     1      14.141  -6.129  12.825  1.00  0.00     0.000 C 
BRANCH   7   8
ATOM      8  C   UNL     1      14.248  -7.382  11.934  1.00  0.00     0.000 C 
BRANCH   8   9
ATOM      9  C   UNL     1      14.101  -8.721  12.675  1.00  0.00     0.000 C 
BRANCH   9  10
ATOM     10  C   UNL     1      13.296  -9.758  11.877  1.00  0.00     0.006 C 
BRANCH  10  11
ATOM     11  C   UNL     1      11.986 -10.102  12.595  1.00  0.00     0.053 C 
BRANCH  11  12
ATOM     12  C   UNL     1      11.816 -11.587  12.694  1.00  0.00     0.041 C 
ATOM     13  O   UNL     1      10.795 -12.142  12.208  1.00  0.00    -0.550 OA
ATOM     14  O   UNL     1      12.774 -12.356  13.343  1.00  0.00    -0.550 OA
ENDBRANCH  11  12
ENDBRANCH  10  11
ENDBRANCH   9  10
ENDBRANCH   8   9
ENDBRANCH   7   8
ENDBRANCH   6   7
ENDBRANCH   5   6
ENDBRANCH   4   5
ENDBRANCH   3   4
ENDBRANCH   2   3
ENDBRANCH   1   2
BRANCH   1  15
ATOM     15  C   UNL     1      15.955  -5.189  17.870  1.00  0.00     0.000 C 
BRANCH  15  16
ATOM     16  C   UNL     1      17.319  -5.683  17.353  1.00  0.00     0.000 C 
BRANCH  16  17
ATOM     17  C   UNL     1      17.268  -7.127  16.828  1.00  0.00     0.000 C 
BRANCH  17  18
ATOM     18  C   UNL     1      17.807  -7.261  15.394  1.00  0.00    -0.000 C 
BRANCH  18  19
ATOM     19  C   UNL     1      17.023  -6.407  14.381  1.00  0.00    -0.000 C 
BRANCH  19  20
ATOM     20  C   UNL     1      17.880  -5.717  13.299  1.00  0.00    -0.000 C 
BRANCH  20  21
ATOM     21  C   UNL     1      18.231  -6.598  12.087  1.00  0.00    -0.000 C 
BRANCH  21  22
ATOM     22  C   UNL     1      18.475  -8.065  12.470  1.00  0.00    -0.000 C 
BRANCH  22  23
ATOM     23  C   UNL     1      17.228  -8.916  12.206  1.00  0.00    -0.000 C 
BRANCH  23  24
ATOM     24  C   UNL     1      17.592 -10.404  12.085  1.00  0.00    -0.000 C 
BRANCH  24  25
ATOM     25  C   UNL     1      16.656 -11.309  12.900  1.00  0.00    -0.003 C 
ATOM     26  C   UNL     1      15.773 -12.193  12.020  1.00  0.00     0.004 C 
ENDBRANCH  24  25
ENDBRANCH  23  24
ENDBRANCH  22  23
ENDBRANCH  21  22
ENDBRANCH  20  21
ENDBRANCH  19  20
ENDBRANCH  18  19
ENDBRANCH  17  18
ENDBRANCH  16  17
ENDBRANCH  15  16
ENDBRANCH   1  15
TORSDOF 22
ENDMDL
MODEL 6
REMARK VINA RESULT:    -2.059      2.288      7.111
REMARK INTER + INTRA:          -6.104
REMARK INTER:                  -4.173
REMARK INTRA:                  -1.931
REMARK UNBOUND:                -1.397
REMARK SMILES CCCCCCCCCCCCCCCCCCCCCCCC(=O)[O-]
REMARK SMILES IDX 13 1 14 2 15 3 16 4 17 5 18 6 19 7 20 8 21 9 22 10 23 11
REMARK SMILES IDX 24 12 25 13 26 14 12 15 11 16 10 17 9 18 8 19 7 20 6 21 5 22
REMARK SMILES IDX 4 23 3 24 2 25 1 26
REMARK H PARENT
REMARK Flexibility Score: inf
ROOT
ATOM      1  C   UNL     1      17.853  -7.817  14.124  1.00  0.00     0.000 C 
ENDROOT
BRANCH   1   2
ATOM      2  C   UNL     1      18.154  -9.315  13.946  1.00  0.00     0.000 C 
BRANCH   2   3
ATOM      3  C   UNL     1      17.794  -9.831  12.544  1.00  0.00     0.000 C 
BRANCH   3   4
ATOM      4  C   UNL     1      16.321 -10.245  12.424  1.00  0.00     0.000 C 
BRANCH   4   5
ATOM      5  C   UNL     1      16.198 -11.672  11.875  1.00  0.00     0.000 C 
BRANCH   5   6
ATOM      6  C   UNL     1      16.301 -12.708  13.005  1.00  0.00     0.000 C 
BRANCH   6   7
ATOM      7  C   UNL     1      14.958 -13.421  13.272  1.00  0.00     0.000 C 
BRANCH   7   8
ATOM      8  C   UNL     1      13.976 -13.361  12.086  1.00  0.00     0.000 C 
BRANCH   8   9
ATOM      9  C   UNL     1      12.494 -13.227  12.475  1.00  0.00     0.000 C 
BRANCH   9  10
ATOM     10  C   UNL     1      11.941 -11.814  12.237  1.00  0.00     0.006 C 
BRANCH  10  11
ATOM     11  C   UNL     1      13.078 -10.818  11.984  1.00  0.00     0.053 C 
BRANCH  11  12
ATOM     12  C   UNL     1      12.788  -9.508  12.650  1.00  0.00     0.041 C 
ATOM     13  O   UNL     1      12.129  -9.475  13.722  1.00  0.00    -0.550 OA
ATOM     14  O   UNL     1      13.226  -8.321  12.074  1.00  0.00    -0.550 OA
ENDBRANCH  11  12
ENDBRANCH  10  11
ENDBRANCH   9  10
ENDBRANCH   8   9
ENDBRANCH   7   8
ENDBRANCH   6   7
ENDBRANCH   5   6
ENDBRANCH   4   5
ENDBRANCH   3   4
ENDBRANCH   2   3
ENDBRANCH   1   2
BRANCH   1  15
ATOM     15  C   UNL     1      18.093  -7.340  15.566  1.00  0.00     0.000 C 
BRANCH  15  16
ATOM     16  C   UNL     1      16.778  -7.067  16.318  1.00  0.00     0.000 C 
BRANCH  16  17
ATOM     17  C   UNL     1      16.568  -5.576  16.626  1.00  0.00     0.000 C 
BRANCH  17  18
ATOM     18  C   UNL     1      15.096  -5.222  16.898  1.00  0.00    -0.000 C 
BRANCH  18  19
ATOM     19  C   UNL     1      14.380  -4.658  15.658  1.00  0.00    -0.000 C 
BRANCH  19  20
ATOM     20  C   UNL     1      13.614  -5.695  14.810  1.00  0.00    -0.000 C 
BRANCH  20  21
ATOM     21  C   UNL     1      13.450  -5.329  13.324  1.00  0.00    -0.000 C 
BRANCH  21  22
ATOM     22  C   UNL     1      14.496  -4.312  12.844  1.00  0.00    -0.000 C 
BRANCH  22  23
ATOM     23  C   UNL     1      15.662  -5.014  12.138  1.00  0.00    -0.000 C 
BRANCH  23  24
ATOM     24  C   UNL     1      16.899  -4.105  12.082  1.00  0.00    -0.000 C 
BRANCH  24  25
ATOM     25  C   UNL     1      18.059  -4.634  12.938  1.00  0.00    -0.003 C 
ATOM     26  C   UNL     1      19.300  -4.972  12.111  1.00  0.00     0.004 C 
ENDBRANCH  24  25
ENDBRANCH  23  24
ENDBRANCH  22  23
ENDBRANCH  21  22
ENDBRANCH  20  21
ENDBRANCH  19  20
ENDBRANCH  18  19
ENDBRANCH  17  18
ENDBRANCH  16  17
ENDBRANCH  15  16
ENDBRANCH   1  15
TORSDOF 22
ENDMDL
MODEL 7
REMARK VINA RESULT:    -1.681      1.710      7.187
REMARK INTER + INTRA:          -5.239
REMARK INTER:                  -4.623
REMARK INTRA:                  -0.616
REMARK UNBOUND:                -1.397
REMARK SMILES CCCCCCCCCCCCCCCCCCCCCCCC(=O)[O-]
REMARK SMILES IDX 13 1 14 2 15 3 16 4 17 5 18 6 19 7 20 8 21 9 22 10 23 11
REMARK SMILES IDX 24 12 25 13 26 14 12 15 11 16 10 17 9 18 8 19 7 20 6 21 5 22
REMARK SMILES IDX 4 23 3 24 2 25 1 26
REMARK H PARENT
REMARK Flexibility Score: inf
ROOT
ATOM      1  C   UNL     1      12.384  -9.323  12.017  1.00  0.00     0.000 C 
ENDROOT
BRANCH   1   2
ATOM      2  C   UNL     1      12.328 -10.855  11.875  1.00  0.00     0.000 C 
BRANCH   2   3
ATOM      3  C   UNL     1      11.716 -11.543  13.105  1.00  0.00     0.000 C 
BRANCH   3   4
ATOM      4  C   UNL     1      12.656 -12.583  13.732  1.00  0.00     0.000 C 
BRANCH   4   5
ATOM      5  C   UNL     1      13.424 -13.350  12.648  1.00  0.00     0.000 C 
BRANCH   5   6
ATOM      6  C   UNL     1      14.567 -12.498  12.074  1.00  0.00     0.000 C 
BRANCH   6   7
ATOM      7  C   UNL     1      15.949 -12.940  12.600  1.00  0.00     0.000 C 
BRANCH   7   8
ATOM      8  C   UNL     1      17.092 -11.972  12.235  1.00  0.00     0.000 C 
BRANCH   8   9
ATOM      9  C   UNL     1      16.803 -10.489  12.520  1.00  0.00     0.000 C 
BRANCH   9  10
ATOM     10  C   UNL     1      18.073  -9.687  12.842  1.00  0.00     0.006 C 
BRANCH  10  11
ATOM     11  C   UNL     1      17.852  -8.190  12.595  1.00  0.00     0.053 C 
BRANCH  11  12
ATOM     12  C   UNL     1      17.908  -7.431  13.884  1.00  0.00     0.041 C 
ATOM     13  O   UNL     1      17.946  -8.047  14.982  1.00  0.00    -0.550 OA
ATOM     14  O   UNL     1      17.898  -6.041  13.875  1.00  0.00    -0.550 OA
ENDBRANCH  11  12
ENDBRANCH  10  11
ENDBRANCH   9  10
ENDBRANCH   8   9
ENDBRANCH   7   8
ENDBRANCH   6   7
ENDBRANCH   5   6
ENDBRANCH   4   5
ENDBRANCH   3   4
ENDBRANCH   2   3
ENDBRANCH   1   2
BRANCH   1  15
ATOM     15  C   UNL     1      13.754  -8.833  12.514  1.00  0.00     0.000 C 
BRANCH  15  16
ATOM     16  C   UNL     1      13.813  -7.300  12.647  1.00  0.00     0.000 C 
BRANCH  16  17
ATOM     17  C   UNL     1      14.990  -6.681  11.875  1.00  0.00     0.000 C 
BRANCH  17  18
ATOM     18  C   UNL     1      15.008  -5.145  11.944  1.00  0.00    -0.000 C 
BRANCH  18  19
ATOM     19  C   UNL     1      14.930  -4.612  13.387  1.00  0.00    -0.000 C 
BRANCH  19  20
ATOM     20  C   UNL     1      13.614  -3.894  13.753  1.00  0.00    -0.000 C 
BRANCH  20  21
ATOM     21  C   UNL     1      12.937  -4.394  15.042  1.00  0.00    -0.000 C 
BRANCH  21  22
ATOM     22  C   UNL     1      13.938  -4.643  16.180  1.00  0.00    -0.000 C 
BRANCH  22  23
ATOM     23  C   UNL     1      14.946  -5.732  15.797  1.00  0.00    -0.000 C 
BRANCH  23  24
ATOM     24  C   UNL     1      16.169  -5.702  16.726  1.00  0.00    -0.000 C 
BRANCH  24  25
ATOM     25  C   UNL     1      15.782  -5.715  18.213  1.00  0.00    -0.003 C 
ATOM     26  C   UNL     1      16.464  -4.604  19.012  1.00  0.00     0.004 C 
ENDBRANCH  24  25
ENDBRANCH  23  24
ENDBRANCH  22  23
ENDBRANCH  21  22
ENDBRANCH  20  21
ENDBRANCH  19  20
ENDBRANCH  18  19
ENDBRANCH  17  18
ENDBRANCH  16  17
ENDBRANCH  15  16
ENDBRANCH   1  15
TORSDOF 22
ENDMDL
MODEL 8
REMARK VINA RESULT:    -1.357      2.788      6.766
REMARK INTER + INTRA:          -4.498
REMARK INTER:                  -4.860
REMARK INTRA:                   0.362
REMARK UNBOUND:                -1.397
REMARK SMILES CCCCCCCCCCCCCCCCCCCCCCCC(=O)[O-]
REMARK SMILES IDX 13 1 14 2 15 3 16 4 17 5 18 6 19 7 20 8 21 9 22 10 23 11
REMARK SMILES IDX 24 12 25 13 26 14 12 15 11 16 10 17 9 18 8 19 7 20 6 21 5 22
REMARK SMILES IDX 4 23 3 24 2 25 1 26
REMARK H PARENT
REMARK Flexibility Score: inf
ROOT
ATOM      1  C   UNL     1      18.322  -8.526  12.571  1.00  0.00     0.000 C 
ENDROOT
BRANCH   1   2
ATOM      2  C   UNL     1      17.474  -9.265  13.621  1.00  0.00     0.000 C 
BRANCH   2   3
ATOM      3  C   UNL     1      17.447 -10.785  13.401  1.00  0.00     0.000 C 
BRANCH   3   4
ATOM      4  C   UNL     1      16.028 -11.328  13.180  1.00  0.00     0.000 C 
BRANCH   4   5
ATOM      5  C   UNL     1      15.430 -10.778  11.879  1.00  0.00     0.000 C 
BRANCH   5   6
ATOM      6  C   UNL     1      15.110  -9.281  12.009  1.00  0.00     0.000 C 
BRANCH   6   7
ATOM      7  C   UNL     1      13.918  -9.015  12.954  1.00  0.00     0.000 C 
BRANCH   7   8
ATOM      8  C   UNL     1      12.549  -9.369  12.343  1.00  0.00     0.000 C 
BRANCH   8   9
ATOM      9  C   UNL     1      11.854 -10.589  12.970  1.00  0.00     0.000 C 
BRANCH   9  10
ATOM     10  C   UNL     1      11.237 -11.527  11.920  1.00  0.00     0.006 C 
BRANCH  10  11
ATOM     11  C   UNL     1      11.985 -12.864  11.876  1.00  0.00     0.053 C 
BRANCH  11  12
ATOM     12  C   UNL     1      12.884 -13.003  13.066  1.00  0.00     0.041 C 
ATOM     13  O   UNL     1      12.567 -12.477  14.164  1.00  0.00    -0.550 OA
ATOM     14  O   UNL     1      14.084 -13.697  12.955  1.00  0.00    -0.550 OA
ENDBRANCH  11  12
ENDBRANCH  10  11
ENDBRANCH   9  10
ENDBRANCH   8   9
ENDBRANCH   7   8
ENDBRANCH   6   7
ENDBRANCH   5   6
ENDBRANCH   4   5
ENDBRANCH   3   4
ENDBRANCH   2   3
ENDBRANCH   1   2
BRANCH   1  15
ATOM     15  C   UNL     1      18.570  -7.057  12.949  1.00  0.00     0.000 C 
BRANCH  15  16
ATOM     16  C   UNL     1      19.636  -6.395  12.056  1.00  0.00     0.000 C 
BRANCH  16  17
ATOM     17  C   UNL     1      19.606  -4.860  12.133  1.00  0.00     0.000 C 
BRANCH  17  18
ATOM     18  C   UNL     1      18.361  -4.322  12.858  1.00  0.00    -0.000 C 
BRANCH  18  19
ATOM     19  C   UNL     1      17.065  -4.534  12.054  1.00  0.00    -0.000 C 
BRANCH  19  20
ATOM     20  C   UNL     1      15.938  -5.275  12.803  1.00  0.00    -0.000 C 
BRANCH  20  21
ATOM     21  C   UNL     1      14.542  -5.152  12.167  1.00  0.00    -0.000 C 
BRANCH  21  22
ATOM     22  C   UNL     1      13.408  -5.285  13.194  1.00  0.00    -0.000 C 
BRANCH  22  23
ATOM     23  C   UNL     1      13.586  -4.285  14.342  1.00  0.00    -0.000 C 
BRANCH  23  24
ATOM     24  C   UNL     1      13.567  -4.999  15.702  1.00  0.00    -0.000 C 
BRANCH  24  25
ATOM     25  C   UNL     1      14.802  -5.887  15.919  1.00  0.00    -0.003 C 
ATOM     26  C   UNL     1      15.757  -5.326  16.974  1.00  0.00     0.004 C 
ENDBRANCH  24  25
ENDBRANCH  23  24
ENDBRANCH  22  23
ENDBRANCH  21  22
ENDBRANCH  20  21
ENDBRANCH  19  20
ENDBRANCH  18  19
ENDBRANCH  17  18
ENDBRANCH  16  17
ENDBRANCH  15  16
ENDBRANCH   1  15
TORSDOF 22
ENDMDL
