MODEL 1
REMARK VINA RESULT:    -4.741      0.000      0.000
REMARK INTER + INTRA:          -4.741
REMARK INTER:                  -4.741
REMARK INTRA:                   0.000
REMARK UNBOUND:                 0.000
REMARK SMILES C=C1CC[C@H]2C[C@@H]1C2(C)C
REMARK SMILES IDX 9 1 8 2 5 3 4 4 3 5 2 6 1 7 7 8 6 9 10 10
REMARK H PARENT
REMARK Flexibility Score: inf
ROOT
ATOM      1  C   UNL     1       4.000   5.195  12.541  1.00  0.00     0.012 C 
ATOM      2  C   UNL     1       5.312   6.016  12.576  1.00  0.00    -0.026 C 
ATOM      3  C   UNL     1       6.558   5.127  12.335  1.00  0.00    -0.004 C 
ATOM      4  C   UNL     1       7.806   5.996  11.973  1.00  0.00     0.008 C 
ATOM      5  C   UNL     1       8.051   7.162  13.005  1.00  0.00     0.031 C 
ATOM      6  C   UNL     1       6.915   7.281  14.032  1.00  0.00    -0.074 C 
ATOM      7  C   UNL     1       6.868   8.294  14.904  1.00  0.00     0.008 C 
ATOM      8  C   UNL     1       5.848   6.191  14.017  1.00  0.00     0.021 C 
ATOM      9  C   UNL     1       6.626   4.876  13.851  1.00  0.00     0.012 C 
ATOM     10  C   UNL     1       5.121   7.286  11.702  1.00  0.00     0.012 C 
ENDROOT
TORSDOF 0
ENDMDL
MODEL 2
REMARK VINA RESULT:    -4.288      1.006      3.242
REMARK INTER + INTRA:          -4.288
REMARK INTER:                  -4.288
REMARK INTRA:                   0.000
REMARK UNBOUND:                 0.000
REMARK SMILES C=C1CC[C@H]2C[C@@H]1C2(C)C
REMARK SMILES IDX 9 1 8 2 5 3 4 4 3 5 2 6 1 7 7 8 6 9 10 10
REMARK H PARENT
REMARK Flexibility Score: inf
ROOT
ATOM      1  C   UNL     1       8.279   7.871  14.239  1.00  0.00     0.012 C 
ATOM      2  C   UNL     1       6.914   7.296  13.786  1.00  0.00    -0.026 C 
ATOM      3  C   UNL     1       6.973   5.761  13.578  1.00  0.00    -0.004 C 
ATOM      4  C   UNL     1       5.537   5.147  13.523  1.00  0.00     0.008 C 
ATOM      5  C   UNL     1       4.600   5.889  12.494  1.00  0.00     0.031 C 
ATOM      6  C   UNL     1       5.259   7.147  11.909  1.00  0.00    -0.074 C 
ATOM      7  C   UNL     1       4.576   7.989  11.125  1.00  0.00     0.008 C 
ATOM      8  C   UNL     1       6.725   7.389  12.253  1.00  0.00     0.021 C 
ATOM      9  C   UNL     1       7.397   6.013  12.121  1.00  0.00     0.012 C 
ATOM     10  C   UNL     1       5.805   7.882  14.703  1.00  0.00     0.012 C 
ENDROOT
TORSDOF 0
ENDMDL
MODEL 3
REMARK VINA RESULT:    -3.869      1.544      2.697
REMARK INTER + INTRA:          -3.869
REMARK INTER:                  -3.869
REMARK INTRA:                   0.000
REMARK UNBOUND:                 0.000
REMARK SMILES C=C1CC[C@H]2C[C@@H]1C2(C)C
REMARK SMILES IDX 9 1 8 2 5 3 4 4 3 5 2 6 1 7 7 8 6 9 10 10
REMARK H PARENT
REMARK Flexibility Score: inf
ROOT
ATOM      1  C   UNL     1       6.338   4.875  13.488  1.00  0.00     0.012 C 
ATOM      2  C   UNL     1       5.445   6.052  13.023  1.00  0.00    -0.026 C 
ATOM      3  C   UNL     1       6.160   6.943  11.976  1.00  0.00    -0.004 C 
ATOM      4  C   UNL     1       5.138   7.859  11.227  1.00  0.00     0.008 C 
ATOM      5  C   UNL     1       4.211   8.664  12.216  1.00  0.00     0.031 C 
ATOM      6  C   UNL     1       4.408   8.238  13.679  1.00  0.00    -0.074 C 
ATOM      7  C   UNL     1       3.616   8.703  14.651  1.00  0.00     0.008 C 
ATOM      8  C   UNL     1       5.548   7.269  13.973  1.00  0.00     0.021 C 
ATOM      9  C   UNL     1       6.730   7.779  13.134  1.00  0.00     0.012 C 
ATOM     10  C   UNL     1       4.033   5.494  12.689  1.00  0.00     0.012 C 
ENDROOT
TORSDOF 0
ENDMDL
MODEL 4
REMARK VINA RESULT:    -3.363      1.782      3.147
REMARK INTER + INTRA:          -3.363
REMARK INTER:                  -3.363
REMARK INTRA:                   0.000
REMARK UNBOUND:                 0.000
REMARK SMILES C=C1CC[C@H]2C[C@@H]1C2(C)C
REMARK SMILES IDX 9 1 8 2 5 3 4 4 3 5 2 6 1 7 7 8 6 9 10 10
REMARK H PARENT
REMARK Flexibility Score: inf
ROOT
ATOM      1  C   UNL     1       3.747  10.016  12.631  1.00  0.00     0.012 C 
ATOM      2  C   UNL     1       4.355   8.594  12.550  1.00  0.00    -0.026 C 
ATOM      3  C   UNL     1       3.480   7.548  13.286  1.00  0.00    -0.004 C 
ATOM      4  C   UNL     1       3.869   6.094  12.864  1.00  0.00     0.008 C 
ATOM      5  C   UNL     1       5.418   5.823  12.987  1.00  0.00     0.031 C 
ATOM      6  C   UNL     1       6.207   7.096  13.330  1.00  0.00    -0.074 C 
ATOM      7  C   UNL     1       7.545   7.102  13.340  1.00  0.00     0.008 C 
ATOM      8  C   UNL     1       5.400   8.346  13.664  1.00  0.00     0.021 C 
ATOM      9  C   UNL     1       4.264   7.854  14.574  1.00  0.00     0.012 C 
ATOM     10  C   UNL     1       4.766   8.319  11.077  1.00  0.00     0.012 C 
ENDROOT
TORSDOF 0
ENDMDL
MODEL 5
REMARK VINA RESULT:    -2.821      1.056      2.724
REMARK INTER + INTRA:          -2.821
REMARK INTER:                  -2.821
REMARK INTRA:                   0.000
REMARK UNBOUND:                 0.000
REMARK SMILES C=C1CC[C@H]2C[C@@H]1C2(C)C
REMARK SMILES IDX 9 1 8 2 5 3 4 4 3 5 2 6 1 7 7 8 6 9 10 10
REMARK H PARENT
REMARK Flexibility Score: inf
ROOT
ATOM      1  C   UNL     1       3.618   5.181  12.376  1.00  0.00     0.012 C 
ATOM      2  C   UNL     1       4.878   5.878  12.945  1.00  0.00    -0.026 C 
ATOM      3  C   UNL     1       4.562   7.297  13.483  1.00  0.00    -0.004 C 
ATOM      4  C   UNL     1       5.714   7.818  14.402  1.00  0.00     0.008 C 
ATOM      5  C   UNL     1       7.131   7.701  13.720  1.00  0.00     0.031 C 
ATOM      6  C   UNL     1       7.074   6.948  12.382  1.00  0.00    -0.074 C 
ATOM      7  C   UNL     1       8.190   6.624  11.719  1.00  0.00     0.008 C 
ATOM      8  C   UNL     1       5.693   6.594  11.842  1.00  0.00     0.021 C 
ATOM      9  C   UNL     1       4.840   7.851  12.076  1.00  0.00     0.012 C 
ATOM     10  C   UNL     1       5.617   4.875  13.874  1.00  0.00     0.012 C 
ENDROOT
TORSDOF 0
ENDMDL
MODEL 6
REMARK VINA RESULT:    -2.759      1.116      3.200
REMARK INTER + INTRA:          -2.759
REMARK INTER:                  -2.759
REMARK INTRA:                   0.000
REMARK UNBOUND:                 0.000
REMARK SMILES C=C1CC[C@H]2C[C@@H]1C2(C)C
REMARK SMILES IDX 9 1 8 2 5 3 4 4 3 5 2 6 1 7 7 8 6 9 10 10
REMARK H PARENT
REMARK Flexibility Score: inf
ROOT
ATOM      1  C   UNL     1       8.123   6.297  11.857  1.00  0.00     0.012 C 
ATOM      2  C   UNL     1       6.669   6.634  12.267  1.00  0.00    -0.026 C 
ATOM      3  C   UNL     1       6.585   7.161  13.723  1.00  0.00    -0.004 C 
ATOM      4  C   UNL     1       5.216   7.867  13.987  1.00  0.00     0.008 C 
ATOM      5  C   UNL     1       3.986   6.977  13.564  1.00  0.00     0.031 C 
ATOM      6  C   UNL     1       4.416   5.694  12.836  1.00  0.00    -0.074 C 
ATOM      7  C   UNL     1       3.516   4.878  12.276  1.00  0.00     0.008 C 
ATOM      8  C   UNL     1       5.909   5.391  12.787  1.00  0.00     0.021 C 
ATOM      9  C   UNL     1       6.426   5.707  14.199  1.00  0.00     0.012 C 
ATOM     10  C   UNL     1       6.021   7.474  11.132  1.00  0.00     0.012 C 
ENDROOT
TORSDOF 0
ENDMDL
MODEL 7
REMARK VINA RESULT:    -2.756      1.573      3.455
REMARK INTER + INTRA:          -2.756
REMARK INTER:                  -2.756
REMARK INTRA:                   0.000
REMARK UNBOUND:                 0.000
REMARK SMILES C=C1CC[C@H]2C[C@@H]1C2(C)C
REMARK SMILES IDX 9 1 8 2 5 3 4 4 3 5 2 6 1 7 7 8 6 9 10 10
REMARK H PARENT
REMARK Flexibility Score: inf
ROOT
ATOM      1  C   UNL     1       4.000   9.690  12.690  1.00  0.00     0.012 C 
ATOM      2  C   UNL     1       4.484   8.294  13.154  1.00  0.00    -0.026 C 
ATOM      3  C   UNL     1       6.018   8.135  13.006  1.00  0.00    -0.004 C 
ATOM      4  C   UNL     1       6.539   6.915  13.834  1.00  0.00     0.008 C 
ATOM      5  C   UNL     1       5.733   5.593  13.535  1.00  0.00     0.031 C 
ATOM      6  C   UNL     1       4.518   5.843  12.628  1.00  0.00    -0.074 C 
ATOM      7  C   UNL     1       3.631   4.875  12.373  1.00  0.00     0.008 C 
ATOM      8  C   UNL     1       4.373   7.238  12.029  1.00  0.00     0.021 C 
ATOM      9  C   UNL     1       5.789   7.624  11.574  1.00  0.00     0.012 C 
ATOM     10  C   UNL     1       3.830   7.980  14.528  1.00  0.00     0.012 C 
ENDROOT
TORSDOF 0
ENDMDL
MODEL 8
REMARK VINA RESULT:    -2.682      1.254      3.089
REMARK INTER + INTRA:          -2.682
REMARK INTER:                  -2.682
REMARK INTRA:                   0.000
REMARK UNBOUND:                 0.000
REMARK SMILES C=C1CC[C@H]2C[C@@H]1C2(C)C
REMARK SMILES IDX 9 1 8 2 5 3 4 4 3 5 2 6 1 7 7 8 6 9 10 10
REMARK H PARENT
REMARK Flexibility Score: inf
ROOT
ATOM      1  C   UNL     1       7.070   4.964  12.373  1.00  0.00     0.012 C 
ATOM      2  C   UNL     1       6.451   6.351  12.673  1.00  0.00    -0.026 C 
ATOM      3  C   UNL     1       5.620   6.344  13.981  1.00  0.00    -0.004 C 
ATOM      4  C   UNL     1       5.347   7.799  14.482  1.00  0.00     0.008 C 
ATOM      5  C   UNL     1       4.745   8.723  13.355  1.00  0.00     0.031 C 
ATOM      6  C   UNL     1       4.723   8.032  11.984  1.00  0.00    -0.074 C 
ATOM      7  C   UNL     1       4.380   8.697  10.875  1.00  0.00     0.008 C 
ATOM      8  C   UNL     1       5.102   6.555  11.943  1.00  0.00     0.021 C 
ATOM      9  C   UNL     1       4.392   5.929  13.154  1.00  0.00     0.012 C 
ATOM     10  C   UNL     1       7.555   7.430  12.498  1.00  0.00     0.012 C 
ENDROOT
TORSDOF 0
ENDMDL
MODEL 9
REMARK VINA RESULT:    -2.672      1.409      2.574
REMARK INTER + INTRA:          -2.672
REMARK INTER:                  -2.672
REMARK INTRA:                   0.000
REMARK UNBOUND:                 0.000
REMARK SMILES C=C1CC[C@H]2C[C@@H]1C2(C)C
REMARK SMILES IDX 9 1 8 2 5 3 4 4 3 5 2 6 1 7 7 8 6 9 10 10
REMARK H PARENT
REMARK Flexibility Score: inf
ROOT
ATOM      1  C   UNL     1       3.345   8.203  13.940  1.00  0.00     0.012 C 
ATOM      2  C   UNL     1       4.738   7.700  13.489  1.00  0.00    -0.026 C 
ATOM      3  C   UNL     1       4.835   7.572  11.947  1.00  0.00    -0.004 C 
ATOM      4  C   UNL     1       6.325   7.463  11.486  1.00  0.00     0.008 C 
ATOM      5  C   UNL     1       7.119   6.345  12.266  1.00  0.00     0.031 C 
ATOM      6  C   UNL     1       6.297   5.738  13.412  1.00  0.00    -0.074 C 
ATOM      7  C   UNL     1       6.842   4.875  14.277  1.00  0.00     0.008 C 
ATOM      8  C   UNL     1       4.834   6.156  13.516  1.00  0.00     0.021 C 
ATOM      9  C   UNL     1       4.310   6.132  12.072  1.00  0.00     0.012 C 
ATOM     10  C   UNL     1       5.823   8.520  14.239  1.00  0.00     0.012 C 
ENDROOT
TORSDOF 0
ENDMDL
