MODEL 1
REMARK VINA RESULT:     4.751      0.000      0.000
REMARK INTER + INTRA:           5.278
REMARK INTER:                   5.584
REMARK INTRA:                  -0.306
REMARK UNBOUND:                -0.306
REMARK SMILES O=c1cc(-c2ccc(O)c(O)c2)oc2cc(O)cc(O)c12
REMARK SMILES IDX 4 1 3 2 2 3 1 4 21 5 19 6 18 7 16 8 15 9 14 10 13 11 5 12
REMARK SMILES IDX 6 13 7 14 8 15 12 16 10 17 9 18 11 20 20 22 17 24
REMARK H PARENT 9 19 11 21 20 23 17 25
REMARK Flexibility Score: inf
ROOT
ATOM      1  C   UNL     1      58.646  26.960  16.887  1.00  0.00     0.138 A 
ATOM      2  C   UNL     1      59.134  27.915  17.794  1.00  0.00     0.100 A 
ATOM      3  C   UNL     1      60.484  28.266  17.761  1.00  0.00     0.197 A 
ATOM      4  O   UNL     1      60.913  29.125  18.578  1.00  0.00    -0.289 OA
ATOM      5  C   UNL     1      61.338  27.659  16.818  1.00  0.00     0.107 A 
ATOM      6  C   UNL     1      62.718  27.956  16.718  1.00  0.00     0.134 A 
ATOM      7  C   UNL     1      63.499  27.314  15.748  1.00  0.00     0.093 A 
ATOM      8  C   UNL     1      62.929  26.382  14.876  1.00  0.00     0.123 A 
ATOM      9  C   UNL     1      61.565  26.084  14.969  1.00  0.00     0.094 A 
ATOM     10  C   UNL     1      60.770  26.714  15.931  1.00  0.00     0.146 A 
ATOM     11  O   UNL     1      59.477  26.413  16.002  1.00  0.00    -0.456 OA
ENDROOT
BRANCH   1  12
ATOM     12  C   UNL     1      57.219  26.548  16.873  1.00  0.00     0.021 A 
ATOM     13  C   UNL     1      56.193  27.428  17.265  1.00  0.00     0.016 A 
ATOM     14  C   UNL     1      54.861  27.011  17.252  1.00  0.00     0.051 A 
ATOM     15  C   UNL     1      54.522  25.713  16.857  1.00  0.00     0.157 A 
ATOM     16  C   UNL     1      56.879  25.241  16.490  1.00  0.00     0.062 A 
ATOM     17  C   UNL     1      55.544  24.815  16.474  1.00  0.00     0.158 A 
BRANCH  15  18
ATOM     18  O   UNL     1      53.170  25.361  16.863  1.00  0.00    -0.504 OA
ATOM     19  H   UNL     1      52.638  25.147  16.032  1.00  0.00     0.293 HD
ENDBRANCH  15  18
BRANCH  17  20
ATOM     20  O   UNL     1      55.284  23.503  16.073  1.00  0.00    -0.504 OA
ATOM     21  H   UNL     1      55.528  22.687  16.615  1.00  0.00     0.293 HD
ENDBRANCH  17  20
ENDBRANCH   1  12
BRANCH   6  22
ATOM     22  O   UNL     1      63.316  28.882  17.574  1.00  0.00    -0.507 OA
ATOM     23  H   UNL     1      63.330  28.748  18.579  1.00  0.00     0.293 HD
ENDBRANCH   6  22
BRANCH   8  24
ATOM     24  O   UNL     1      63.727  25.757  13.920  1.00  0.00    -0.508 OA
ATOM     25  H   UNL     1      64.507  25.167  14.185  1.00  0.00     0.293 HD
ENDBRANCH   8  24
TORSDOF 5
ENDMDL
MODEL 2
REMARK VINA RESULT:     6.445      1.980      6.436
REMARK INTER + INTRA:           7.269
REMARK INTER:                   7.586
REMARK INTRA:                  -0.317
REMARK UNBOUND:                -0.306
REMARK SMILES O=c1cc(-c2ccc(O)c(O)c2)oc2cc(O)cc(O)c12
REMARK SMILES IDX 4 1 3 2 2 3 1 4 21 5 19 6 18 7 16 8 15 9 14 10 13 11 5 12
REMARK SMILES IDX 6 13 7 14 8 15 12 16 10 17 9 18 11 20 20 22 17 24
REMARK H PARENT 9 19 11 21 20 23 17 25
REMARK Flexibility Score: inf
ROOT
ATOM      1  C   UNL     1      61.389  26.496  15.268  1.00  0.00     0.138 A 
ATOM      2  C   UNL     1      61.975  27.296  16.263  1.00  0.00     0.100 A 
ATOM      3  C   UNL     1      61.163  27.910  17.217  1.00  0.00     0.197 A 
ATOM      4  O   UNL     1      61.698  28.625  18.107  1.00  0.00    -0.289 OA
ATOM      5  C   UNL     1      59.767  27.716  17.171  1.00  0.00     0.107 A 
ATOM      6  C   UNL     1      58.873  28.302  18.099  1.00  0.00     0.134 A 
ATOM      7  C   UNL     1      57.498  28.056  17.989  1.00  0.00     0.093 A 
ATOM      8  C   UNL     1      56.999  27.236  16.972  1.00  0.00     0.123 A 
ATOM      9  C   UNL     1      57.878  26.654  16.053  1.00  0.00     0.094 A 
ATOM     10  C   UNL     1      59.253  26.888  16.145  1.00  0.00     0.146 A 
ATOM     11  O   UNL     1      60.068  26.325  15.259  1.00  0.00    -0.456 OA
ENDROOT
BRANCH   1  12
ATOM     12  C   UNL     1      62.202  25.816  14.227  1.00  0.00     0.021 A 
ATOM     13  C   UNL     1      63.557  26.136  14.024  1.00  0.00     0.016 A 
ATOM     14  C   UNL     1      64.294  25.488  13.032  1.00  0.00     0.051 A 
ATOM     15  C   UNL     1      63.702  24.517  12.219  1.00  0.00     0.157 A 
ATOM     16  C   UNL     1      61.603  24.851  13.401  1.00  0.00     0.062 A 
ATOM     17  C   UNL     1      62.337  24.196  12.404  1.00  0.00     0.158 A 
BRANCH  15  18
ATOM     18  O   UNL     1      64.497  23.904  11.247  1.00  0.00    -0.504 OA
ATOM     19  H   UNL     1      64.632  22.906  11.175  1.00  0.00     0.293 HD
ENDBRANCH  15  18
BRANCH  17  20
ATOM     20  O   UNL     1      61.675  23.241  11.628  1.00  0.00    -0.504 OA
ATOM     21  H   UNL     1      62.131  22.457  11.187  1.00  0.00     0.293 HD
ENDBRANCH  17  20
ENDBRANCH   1  12
BRANCH   6  22
ATOM     22  O   UNL     1      59.341  29.125  19.124  1.00  0.00    -0.507 OA
ATOM     23  H   UNL     1      59.742  28.742  19.973  1.00  0.00     0.293 HD
ENDBRANCH   6  22
BRANCH   8  24
ATOM     24  O   UNL     1      55.627  27.007  16.885  1.00  0.00    -0.508 OA
ATOM     25  H   UNL     1      55.051  27.498  16.213  1.00  0.00     0.293 HD
ENDBRANCH   8  24
TORSDOF 5
ENDMDL
MODEL 3
REMARK VINA RESULT:     6.821      1.275      1.483
REMARK INTER + INTRA:           7.712
REMARK INTER:                   8.013
REMARK INTRA:                  -0.301
REMARK UNBOUND:                -0.306
REMARK SMILES O=c1cc(-c2ccc(O)c(O)c2)oc2cc(O)cc(O)c12
REMARK SMILES IDX 4 1 3 2 2 3 1 4 21 5 19 6 18 7 16 8 15 9 14 10 13 11 5 12
REMARK SMILES IDX 6 13 7 14 8 15 12 16 10 17 9 18 11 20 20 22 17 24
REMARK H PARENT 9 19 11 21 20 23 17 25
REMARK Flexibility Score: inf
ROOT
ATOM      1  C   UNL     1      57.818  26.543  16.580  1.00  0.00     0.138 A 
ATOM      2  C   UNL     1      57.965  27.558  17.540  1.00  0.00     0.100 A 
ATOM      3  C   UNL     1      59.229  28.101  17.777  1.00  0.00     0.197 A 
ATOM      4  O   UNL     1      59.350  29.013  18.640  1.00  0.00    -0.289 OA
ATOM      5  C   UNL     1      60.338  27.627  17.047  1.00  0.00     0.107 A 
ATOM      6  C   UNL     1      61.651  28.122  17.226  1.00  0.00     0.134 A 
ATOM      7  C   UNL     1      62.701  27.602  16.457  1.00  0.00     0.093 A 
ATOM      8  C   UNL     1      62.464  26.598  15.513  1.00  0.00     0.123 A 
ATOM      9  C   UNL     1      61.168  26.105  15.332  1.00  0.00     0.094 A 
ATOM     10  C   UNL     1      60.108  26.610  16.090  1.00  0.00     0.146 A 
ATOM     11  O   UNL     1      58.885  26.125  15.902  1.00  0.00    -0.456 OA
ENDROOT
BRANCH   1  12
ATOM     12  C   UNL     1      56.499  25.928  16.285  1.00  0.00     0.021 A 
ATOM     13  C   UNL     1      55.557  25.677  17.299  1.00  0.00     0.016 A 
ATOM     14  C   UNL     1      54.330  25.089  16.993  1.00  0.00     0.051 A 
ATOM     15  C   UNL     1      54.014  24.732  15.679  1.00  0.00     0.157 A 
ATOM     16  C   UNL     1      56.188  25.557  14.966  1.00  0.00     0.062 A 
ATOM     17  C   UNL     1      54.957  24.967  14.651  1.00  0.00     0.158 A 
BRANCH  15  18
ATOM     18  O   UNL     1      52.767  24.150  15.440  1.00  0.00    -0.504 OA
ATOM     19  H   UNL     1      52.639  23.241  15.021  1.00  0.00     0.293 HD
ENDBRANCH  15  18
BRANCH  17  20
ATOM     20  O   UNL     1      54.717  24.634  13.317  1.00  0.00    -0.504 OA
ATOM     21  H   UNL     1      55.149  25.098  12.532  1.00  0.00     0.293 HD
ENDBRANCH  17  20
ENDBRANCH   1  12
BRANCH   6  22
ATOM     22  O   UNL     1      61.919  29.125  18.160  1.00  0.00    -0.507 OA
ATOM     23  H   UNL     1      62.010  30.097  17.887  1.00  0.00     0.293 HD
ENDBRANCH   6  22
BRANCH   8  24
ATOM     24  O   UNL     1      63.525  26.098  14.761  1.00  0.00    -0.508 OA
ATOM     25  H   UNL     1      63.664  25.102  14.639  1.00  0.00     0.293 HD
ENDBRANCH   8  24
TORSDOF 5
ENDMDL
MODEL 4
REMARK VINA RESULT:     7.121      0.885      0.976
REMARK INTER + INTRA:           8.064
REMARK INTER:                   8.374
REMARK INTRA:                  -0.310
REMARK UNBOUND:                -0.306
REMARK SMILES O=c1cc(-c2ccc(O)c(O)c2)oc2cc(O)cc(O)c12
REMARK SMILES IDX 4 1 3 2 2 3 1 4 21 5 19 6 18 7 16 8 15 9 14 10 13 11 5 12
REMARK SMILES IDX 6 13 7 14 8 15 12 16 10 17 9 18 11 20 20 22 17 24
REMARK H PARENT 9 19 11 21 20 23 17 25
REMARK Flexibility Score: inf
ROOT
ATOM      1  C   UNL     1      59.095  27.389  16.751  1.00  0.00     0.138 A 
ATOM      2  C   UNL     1      59.853  28.261  17.550  1.00  0.00     0.100 A 
ATOM      3  C   UNL     1      61.234  28.336  17.365  1.00  0.00     0.197 A 
ATOM      4  O   UNL     1      61.906  29.123  18.086  1.00  0.00    -0.289 OA
ATOM      5  C   UNL     1      61.848  27.539  16.378  1.00  0.00     0.107 A 
ATOM      6  C   UNL     1      63.241  27.554  16.127  1.00  0.00     0.134 A 
ATOM      7  C   UNL     1      63.774  26.734  15.122  1.00  0.00     0.093 A 
ATOM      8  C   UNL     1      62.944  25.903  14.365  1.00  0.00     0.123 A 
ATOM      9  C   UNL     1      61.567  25.884  14.609  1.00  0.00     0.094 A 
ATOM     10  C   UNL     1      61.016  26.693  15.607  1.00  0.00     0.146 A 
ATOM     11  O   UNL     1      59.705  26.657  15.822  1.00  0.00    -0.456 OA
ENDROOT
BRANCH   1  12
ATOM     12  C   UNL     1      57.622  27.268  16.902  1.00  0.00     0.021 A 
ATOM     13  C   UNL     1      56.847  28.309  17.444  1.00  0.00     0.016 A 
ATOM     14  C   UNL     1      55.467  28.164  17.583  1.00  0.00     0.051 A 
ATOM     15  C   UNL     1      54.829  26.982  17.193  1.00  0.00     0.157 A 
ATOM     16  C   UNL     1      56.983  26.076  16.524  1.00  0.00     0.062 A 
ATOM     17  C   UNL     1      55.598  25.922  16.659  1.00  0.00     0.158 A 
BRANCH  15  18
ATOM     18  O   UNL     1      53.443  26.902  17.356  1.00  0.00    -0.504 OA
ATOM     19  H   UNL     1      52.851  26.266  16.844  1.00  0.00     0.293 HD
ENDBRANCH  15  18
BRANCH  17  20
ATOM     20  O   UNL     1      55.033  24.711  16.253  1.00  0.00    -0.504 OA
ATOM     21  H   UNL     1      55.518  23.826  16.276  1.00  0.00     0.293 HD
ENDBRANCH  17  20
ENDBRANCH   1  12
BRANCH   6  22
ATOM     22  O   UNL     1      64.095  28.374  16.866  1.00  0.00    -0.507 OA
ATOM     23  H   UNL     1      64.996  28.666  16.506  1.00  0.00     0.293 HD
ENDBRANCH   6  22
BRANCH   8  24
ATOM     24  O   UNL     1      63.500  25.098  13.372  1.00  0.00    -0.508 OA
ATOM     25  H   UNL     1      64.238  24.436  13.579  1.00  0.00     0.293 HD
ENDBRANCH   8  24
TORSDOF 5
ENDMDL
