MODEL 1
REMARK VINA RESULT:    -2.647      0.000      0.000
REMARK INTER + INTRA:          -7.704
REMARK INTER:                  -5.124
REMARK INTRA:                  -2.581
REMARK UNBOUND:                -2.581
REMARK SMILES CCCCCCCCCCCCCCCCCC(=O)[O-]
REMARK SMILES IDX 10 1 11 2 12 3 13 4 14 5 15 6 16 7 17 8 18 9 19 10 20 11
REMARK SMILES IDX 9 12 8 13 7 14 6 15 5 16 4 17 3 18 2 19 1 20
REMARK H PARENT
REMARK Flexibility Score: inf
ROOT
ATOM      1  C   UNL     1      77.369  88.699  77.448  1.00  0.00     0.000 C 
ENDROOT
BRANCH   1   2
ATOM      2  C   UNL     1      77.817  88.907  78.906  1.00  0.00     0.000 C 
BRANCH   2   3
ATOM      3  C   UNL     1      78.803  90.071  79.128  1.00  0.00     0.000 C 
BRANCH   3   4
ATOM      4  C   UNL     1      78.197  91.323  79.787  1.00  0.00     0.000 C 
BRANCH   4   5
ATOM      5  C   UNL     1      76.824  91.057  80.421  1.00  0.00     0.000 C 
BRANCH   5   6
ATOM      6  C   UNL     1      75.808  92.125  80.000  1.00  0.00     0.000 C 
BRANCH   6   7
ATOM      7  C   UNL     1      74.500  91.481  79.515  1.00  0.00     0.006 C 
BRANCH   7   8
ATOM      8  C   UNL     1      74.141  90.222  80.316  1.00  0.00     0.053 C 
BRANCH   8   9
ATOM      9  C   UNL     1      72.966  90.452  81.216  1.00  0.00     0.041 C 
ATOM     10  O   UNL     1      71.999  91.158  80.828  1.00  0.00    -0.550 OA
ATOM     11  O   UNL     1      72.923  89.857  82.471  1.00  0.00    -0.550 OA
ENDBRANCH   8   9
ENDBRANCH   7   8
ENDBRANCH   6   7
ENDBRANCH   5   6
ENDBRANCH   4   5
ENDBRANCH   3   4
ENDBRANCH   2   3
ENDBRANCH   1   2
BRANCH   1  12
ATOM     12  C   UNL     1      76.215  89.626  77.041  1.00  0.00     0.000 C 
BRANCH  12  13
ATOM     13  C   UNL     1      76.738  90.846  76.267  1.00  0.00    -0.000 C 
BRANCH  13  14
ATOM     14  C   UNL     1      75.634  91.869  75.944  1.00  0.00    -0.000 C 
BRANCH  14  15
ATOM     15  C   UNL     1      75.404  92.125  74.441  1.00  0.00    -0.000 C 
BRANCH  15  16
ATOM     16  C   UNL     1      74.045  91.641  73.898  1.00  0.00    -0.000 C 
BRANCH  16  17
ATOM     17  C   UNL     1      74.110  90.396  72.991  1.00  0.00    -0.000 C 
BRANCH  17  18
ATOM     18  C   UNL     1      74.523  89.095  73.701  1.00  0.00    -0.000 C 
BRANCH  18  19
ATOM     19  C   UNL     1      75.602  88.314  72.934  1.00  0.00    -0.003 C 
ATOM     20  C   UNL     1      76.975  88.952  73.115  1.00  0.00     0.004 C 
ENDBRANCH  18  19
ENDBRANCH  17  18
ENDBRANCH  16  17
ENDBRANCH  15  16
ENDBRANCH  14  15
ENDBRANCH  13  14
ENDBRANCH  12  13
ENDBRANCH   1  12
TORSDOF 16
ENDMDL
MODEL 2
REMARK VINA RESULT:    -2.306     11.523     14.336
REMARK INTER + INTRA:          -7.043
REMARK INTER:                  -4.316
REMARK INTRA:                  -2.727
REMARK UNBOUND:                -2.581
REMARK SMILES CCCCCCCCCCCCCCCCCC(=O)[O-]
REMARK SMILES IDX 10 1 11 2 12 3 13 4 14 5 15 6 16 7 17 8 18 9 19 10 20 11
REMARK SMILES IDX 9 12 8 13 7 14 6 15 5 16 4 17 3 18 2 19 1 20
REMARK H PARENT
REMARK Flexibility Score: inf
ROOT
ATOM      1  C   UNL     1      76.620  89.647  92.032  1.00  0.00     0.000 C 
ENDROOT
BRANCH   1   2
ATOM      2  C   UNL     1      77.806  89.402  92.982  1.00  0.00     0.000 C 
BRANCH   2   3
ATOM      3  C   UNL     1      78.421  87.989  92.909  1.00  0.00     0.000 C 
BRANCH   3   4
ATOM      4  C   UNL     1      77.411  86.832  93.011  1.00  0.00     0.000 C 
BRANCH   4   5
ATOM      5  C   UNL     1      77.363  85.969  91.742  1.00  0.00     0.000 C 
BRANCH   5   6
ATOM      6  C   UNL     1      78.586  86.227  90.855  1.00  0.00     0.000 C 
BRANCH   6   7
ATOM      7  C   UNL     1      78.164  86.536  89.410  1.00  0.00     0.006 C 
BRANCH   7   8
ATOM      8  C   UNL     1      78.464  87.988  89.016  1.00  0.00     0.053 C 
BRANCH   8   9
ATOM      9  C   UNL     1      79.579  88.076  88.020  1.00  0.00     0.041 C 
ATOM     10  O   UNL     1      79.772  89.141  87.376  1.00  0.00    -0.550 OA
ATOM     11  O   UNL     1      80.427  86.993  87.827  1.00  0.00    -0.550 OA
ENDBRANCH   8   9
ENDBRANCH   7   8
ENDBRANCH   6   7
ENDBRANCH   5   6
ENDBRANCH   4   5
ENDBRANCH   3   4
ENDBRANCH   2   3
ENDBRANCH   1   2
BRANCH   1  12
ATOM     12  C   UNL     1      75.583  90.619  92.611  1.00  0.00     0.000 C 
BRANCH  12  13
ATOM     13  C   UNL     1      74.178  89.997  92.589  1.00  0.00    -0.000 C 
BRANCH  13  14
ATOM     14  C   UNL     1      74.173  88.514  93.002  1.00  0.00    -0.000 C 
BRANCH  14  15
ATOM     15  C   UNL     1      73.129  87.641  92.278  1.00  0.00    -0.000 C 
BRANCH  15  16
ATOM     16  C   UNL     1      73.172  87.716  90.739  1.00  0.00    -0.000 C 
BRANCH  16  17
ATOM     17  C   UNL     1      74.522  87.331  90.104  1.00  0.00    -0.000 C 
BRANCH  17  18
ATOM     18  C   UNL     1      74.722  87.817  88.657  1.00  0.00    -0.000 C 
BRANCH  18  19
ATOM     19  C   UNL     1      74.933  86.663  87.665  1.00  0.00    -0.003 C 
ATOM     20  C   UNL     1      74.506  85.331  88.273  1.00  0.00     0.004 C 
ENDBRANCH  18  19
ENDBRANCH  17  18
ENDBRANCH  16  17
ENDBRANCH  15  16
ENDBRANCH  14  15
ENDBRANCH  13  14
ENDBRANCH  12  13
ENDBRANCH   1  12
TORSDOF 16
ENDMDL
MODEL 3
REMARK VINA RESULT:    -2.228     12.592     15.443
REMARK INTER + INTRA:          -6.893
REMARK INTER:                  -4.451
REMARK INTRA:                  -2.442
REMARK UNBOUND:                -2.581
REMARK SMILES CCCCCCCCCCCCCCCCCC(=O)[O-]
REMARK SMILES IDX 10 1 11 2 12 3 13 4 14 5 15 6 16 7 17 8 18 9 19 10 20 11
REMARK SMILES IDX 9 12 8 13 7 14 6 15 5 16 4 17 3 18 2 19 1 20
REMARK H PARENT
REMARK Flexibility Score: inf
ROOT
ATOM      1  C   UNL     1      74.590  87.969  88.556  1.00  0.00     0.000 C 
ENDROOT
BRANCH   1   2
ATOM      2  C   UNL     1      75.956  87.330  88.862  1.00  0.00     0.000 C 
BRANCH   2   3
ATOM      3  C   UNL     1      76.628  87.814  90.163  1.00  0.00     0.000 C 
BRANCH   3   4
ATOM      4  C   UNL     1      76.592  86.809  91.329  1.00  0.00     0.000 C 
BRANCH   4   5
ATOM      5  C   UNL     1      76.212  85.390  90.881  1.00  0.00     0.000 C 
BRANCH   5   6
ATOM      6  C   UNL     1      77.462  84.545  90.612  1.00  0.00     0.000 C 
BRANCH   6   7
ATOM      7  C   UNL     1      78.569  84.860  91.629  1.00  0.00     0.006 C 
BRANCH   7   8
ATOM      8  C   UNL     1      78.817  83.694  92.597  1.00  0.00     0.053 C 
BRANCH   8   9
ATOM      9  C   UNL     1      79.636  82.611  91.966  1.00  0.00     0.041 C 
ATOM     10  O   UNL     1      80.885  82.739  91.865  1.00  0.00    -0.550 OA
ATOM     11  O   UNL     1      79.026  81.446  91.521  1.00  0.00    -0.550 OA
ENDBRANCH   8   9
ENDBRANCH   7   8
ENDBRANCH   6   7
ENDBRANCH   5   6
ENDBRANCH   4   5
ENDBRANCH   3   4
ENDBRANCH   2   3
ENDBRANCH   1   2
BRANCH   1  12
ATOM     12  C   UNL     1      73.496  86.930  88.269  1.00  0.00     0.000 C 
BRANCH  12  13
ATOM     13  C   UNL     1      72.782  86.515  89.565  1.00  0.00    -0.000 C 
BRANCH  13  14
ATOM     14  C   UNL     1      72.797  87.620  90.637  1.00  0.00    -0.000 C 
BRANCH  14  15
ATOM     15  C   UNL     1      72.853  87.113  92.092  1.00  0.00    -0.000 C 
BRANCH  15  16
ATOM     16  C   UNL     1      73.471  88.098  93.103  1.00  0.00    -0.000 C 
BRANCH  16  17
ATOM     17  C   UNL     1      74.062  89.382  92.485  1.00  0.00    -0.000 C 
BRANCH  17  18
ATOM     18  C   UNL     1      75.434  89.800  93.044  1.00  0.00    -0.000 C 
BRANCH  18  19
ATOM     19  C   UNL     1      75.995  91.058  92.364  1.00  0.00    -0.003 C 
ATOM     20  C   UNL     1      77.491  90.919  92.099  1.00  0.00     0.004 C 
ENDBRANCH  18  19
ENDBRANCH  17  18
ENDBRANCH  16  17
ENDBRANCH  15  16
ENDBRANCH  14  15
ENDBRANCH  13  14
ENDBRANCH  12  13
ENDBRANCH   1  12
TORSDOF 16
ENDMDL
MODEL 4
REMARK VINA RESULT:    -2.223      2.246      4.627
REMARK INTER + INTRA:          -6.883
REMARK INTER:                  -4.641
REMARK INTRA:                  -2.242
REMARK UNBOUND:                -2.581
REMARK SMILES CCCCCCCCCCCCCCCCCC(=O)[O-]
REMARK SMILES IDX 10 1 11 2 12 3 13 4 14 5 15 6 16 7 17 8 18 9 19 10 20 11
REMARK SMILES IDX 9 12 8 13 7 14 6 15 5 16 4 17 3 18 2 19 1 20
REMARK H PARENT
REMARK Flexibility Score: inf
ROOT
ATOM      1  C   UNL     1      75.214  88.941  74.808  1.00  0.00     0.000 C 
ENDROOT
BRANCH   1   2
ATOM      2  C   UNL     1      74.857  90.372  74.368  1.00  0.00     0.000 C 
BRANCH   2   3
ATOM      3  C   UNL     1      75.927  91.438  74.679  1.00  0.00     0.000 C 
BRANCH   3   4
ATOM      4  C   UNL     1      75.969  91.913  76.142  1.00  0.00     0.000 C 
BRANCH   4   5
ATOM      5  C   UNL     1      77.128  91.294  76.937  1.00  0.00     0.000 C 
BRANCH   5   6
ATOM      6  C   UNL     1      76.769  91.163  78.422  1.00  0.00     0.000 C 
BRANCH   6   7
ATOM      7  C   UNL     1      75.300  90.750  78.599  1.00  0.00     0.006 C 
BRANCH   7   8
ATOM      8  C   UNL     1      74.587  91.585  79.671  1.00  0.00     0.053 C 
BRANCH   8   9
ATOM      9  C   UNL     1      73.529  90.797  80.379  1.00  0.00     0.041 C 
ATOM     10  O   UNL     1      73.781  89.639  80.806  1.00  0.00    -0.550 OA
ATOM     11  O   UNL     1      72.275  91.353  80.598  1.00  0.00    -0.550 OA
ENDBRANCH   8   9
ENDBRANCH   7   8
ENDBRANCH   6   7
ENDBRANCH   5   6
ENDBRANCH   4   5
ENDBRANCH   3   4
ENDBRANCH   2   3
ENDBRANCH   1   2
BRANCH   1  12
ATOM     12  C   UNL     1      75.605  88.035  73.631  1.00  0.00     0.000 C 
BRANCH  12  13
ATOM     13  C   UNL     1      74.755  86.757  73.617  1.00  0.00    -0.000 C 
BRANCH  13  14
ATOM     14  C   UNL     1      75.374  85.616  74.445  1.00  0.00    -0.000 C 
BRANCH  14  15
ATOM     15  C   UNL     1      74.400  84.909  75.409  1.00  0.00    -0.000 C 
BRANCH  15  16
ATOM     16  C   UNL     1      73.937  85.761  76.607  1.00  0.00    -0.000 C 
BRANCH  16  17
ATOM     17  C   UNL     1      74.848  85.692  77.849  1.00  0.00    -0.000 C 
BRANCH  17  18
ATOM     18  C   UNL     1      75.497  87.028  78.253  1.00  0.00    -0.000 C 
BRANCH  18  19
ATOM     19  C   UNL     1      76.811  87.302  77.506  1.00  0.00    -0.003 C 
ATOM     20  C   UNL     1      77.664  86.040  77.413  1.00  0.00     0.004 C 
ENDBRANCH  18  19
ENDBRANCH  17  18
ENDBRANCH  16  17
ENDBRANCH  15  16
ENDBRANCH  14  15
ENDBRANCH  13  14
ENDBRANCH  12  13
ENDBRANCH   1  12
TORSDOF 16
ENDMDL
MODEL 5
REMARK VINA RESULT:    -2.168     17.612     19.945
REMARK INTER + INTRA:          -6.776
REMARK INTER:                  -3.886
REMARK INTRA:                  -2.890
REMARK UNBOUND:                -2.581
REMARK SMILES CCCCCCCCCCCCCCCCCC(=O)[O-]
REMARK SMILES IDX 10 1 11 2 12 3 13 4 14 5 15 6 16 7 17 8 18 9 19 10 20 11
REMARK SMILES IDX 9 12 8 13 7 14 6 15 5 16 4 17 3 18 2 19 1 20
REMARK H PARENT
REMARK Flexibility Score: inf
ROOT
ATOM      1  C   UNL     1      85.933  75.716  72.969  1.00  0.00     0.000 C 
ENDROOT
BRANCH   1   2
ATOM      2  C   UNL     1      87.075  76.647  73.417  1.00  0.00     0.000 C 
BRANCH   2   3
ATOM      3  C   UNL     1      88.496  76.088  73.203  1.00  0.00     0.000 C 
BRANCH   3   4
ATOM      4  C   UNL     1      88.770  74.729  73.870  1.00  0.00     0.000 C 
BRANCH   4   5
ATOM      5  C   UNL     1      88.427  74.719  75.367  1.00  0.00     0.000 C 
BRANCH   5   6
ATOM      6  C   UNL     1      89.398  75.603  76.159  1.00  0.00     0.000 C 
BRANCH   6   7
ATOM      7  C   UNL     1      88.649  76.722  76.897  1.00  0.00     0.006 C 
BRANCH   7   8
ATOM      8  C   UNL     1      89.377  77.164  78.174  1.00  0.00     0.053 C 
BRANCH   8   9
ATOM      9  C   UNL     1      90.401  78.219  77.893  1.00  0.00     0.041 C 
ATOM     10  O   UNL     1      91.604  78.037  78.220  1.00  0.00    -0.550 OA
ATOM     11  O   UNL     1      90.036  79.389  77.239  1.00  0.00    -0.550 OA
ENDBRANCH   8   9
ENDBRANCH   7   8
ENDBRANCH   6   7
ENDBRANCH   5   6
ENDBRANCH   4   5
ENDBRANCH   3   4
ENDBRANCH   2   3
ENDBRANCH   1   2
BRANCH   1  12
ATOM     12  C   UNL     1      84.831  75.571  74.027  1.00  0.00     0.000 C 
BRANCH  12  13
ATOM     13  C   UNL     1      85.151  76.415  75.270  1.00  0.00    -0.000 C 
BRANCH  13  14
ATOM     14  C   UNL     1      84.478  75.879  76.548  1.00  0.00    -0.000 C 
BRANCH  14  15
ATOM     15  C   UNL     1      85.322  74.868  77.351  1.00  0.00    -0.000 C 
BRANCH  15  16
ATOM     16  C   UNL     1      85.777  75.358  78.739  1.00  0.00    -0.000 C 
BRANCH  16  17
ATOM     17  C   UNL     1      86.847  74.483  79.422  1.00  0.00    -0.000 C 
BRANCH  17  18
ATOM     18  C   UNL     1      86.981  73.058  78.854  1.00  0.00    -0.000 C 
BRANCH  18  19
ATOM     19  C   UNL     1      88.425  72.705  78.468  1.00  0.00    -0.003 C 
ATOM     20  C   UNL     1      89.426  73.514  79.287  1.00  0.00     0.004 C 
ENDBRANCH  18  19
ENDBRANCH  17  18
ENDBRANCH  16  17
ENDBRANCH  15  16
ENDBRANCH  14  15
ENDBRANCH  13  14
ENDBRANCH  12  13
ENDBRANCH   1  12
TORSDOF 16
ENDMDL
MODEL 6
REMARK VINA RESULT:    -2.140     18.193     20.414
REMARK INTER + INTRA:          -6.721
REMARK INTER:                  -4.175
REMARK INTRA:                  -2.547
REMARK UNBOUND:                -2.581
REMARK SMILES CCCCCCCCCCCCCCCCCC(=O)[O-]
REMARK SMILES IDX 10 1 11 2 12 3 13 4 14 5 15 6 16 7 17 8 18 9 19 10 20 11
REMARK SMILES IDX 9 12 8 13 7 14 6 15 5 16 4 17 3 18 2 19 1 20
REMARK H PARENT
REMARK Flexibility Score: inf
ROOT
ATOM      1  C   UNL     1      88.099  75.103  76.811  1.00  0.00     0.000 C 
ENDROOT
BRANCH   1   2
ATOM      2  C   UNL     1      87.930  74.597  78.255  1.00  0.00     0.000 C 
BRANCH   2   3
ATOM      3  C   UNL     1      87.988  73.064  78.422  1.00  0.00     0.000 C 
BRANCH   3   4
ATOM      4  C   UNL     1      89.061  72.556  79.401  1.00  0.00     0.000 C 
BRANCH   4   5
ATOM      5  C   UNL     1      90.305  73.456  79.444  1.00  0.00     0.000 C 
BRANCH   5   6
ATOM      6  C   UNL     1      90.665  73.826  80.887  1.00  0.00     0.000 C 
BRANCH   6   7
ATOM      7  C   UNL     1      91.146  75.282  80.979  1.00  0.00     0.006 C 
BRANCH   7   8
ATOM      8  C   UNL     1      91.889  75.729  79.712  1.00  0.00     0.053 C 
BRANCH   8   9
ATOM      9  C   UNL     1      91.406  77.060  79.224  1.00  0.00     0.041 C 
ATOM     10  O   UNL     1      92.124  77.751  78.453  1.00  0.00    -0.550 OA
ATOM     11  O   UNL     1      90.150  77.524  79.593  1.00  0.00    -0.550 OA
ENDBRANCH   8   9
ENDBRANCH   7   8
ENDBRANCH   6   7
ENDBRANCH   5   6
ENDBRANCH   4   5
ENDBRANCH   3   4
ENDBRANCH   2   3
ENDBRANCH   1   2
BRANCH   1  12
ATOM     12  C   UNL     1      89.522  75.599  76.516  1.00  0.00     0.000 C 
BRANCH  12  13
ATOM     13  C   UNL     1      89.809  75.571  75.007  1.00  0.00    -0.000 C 
BRANCH  13  14
ATOM     14  C   UNL     1      88.732  74.817  74.206  1.00  0.00    -0.000 C 
BRANCH  14  15
ATOM     15  C   UNL     1      88.051  75.641  73.095  1.00  0.00    -0.000 C 
BRANCH  15  16
ATOM     16  C   UNL     1      87.966  77.156  73.368  1.00  0.00    -0.000 C 
BRANCH  16  17
ATOM     17  C   UNL     1      86.769  77.597  74.235  1.00  0.00    -0.000 C 
BRANCH  17  18
ATOM     18  C   UNL     1      87.134  78.470  75.449  1.00  0.00    -0.000 C 
BRANCH  18  19
ATOM     19  C   UNL     1      88.516  79.128  75.317  1.00  0.00    -0.003 C 
ATOM     20  C   UNL     1      89.187  79.274  76.679  1.00  0.00     0.004 C 
ENDBRANCH  18  19
ENDBRANCH  17  18
ENDBRANCH  16  17
ENDBRANCH  15  16
ENDBRANCH  14  15
ENDBRANCH  13  14
ENDBRANCH  12  13
ENDBRANCH   1  12
TORSDOF 16
ENDMDL
MODEL 7
REMARK VINA RESULT:    -2.116     17.782     19.951
REMARK INTER + INTRA:          -6.676
REMARK INTER:                  -3.630
REMARK INTRA:                  -3.046
REMARK UNBOUND:                -2.581
REMARK SMILES CCCCCCCCCCCCCCCCCC(=O)[O-]
REMARK SMILES IDX 10 1 11 2 12 3 13 4 14 5 15 6 16 7 17 8 18 9 19 10 20 11
REMARK SMILES IDX 9 12 8 13 7 14 6 15 5 16 4 17 3 18 2 19 1 20
REMARK H PARENT
REMARK Flexibility Score: inf
ROOT
ATOM      1  C   UNL     1      88.154  75.869  77.715  1.00  0.00     0.000 C 
ENDROOT
BRANCH   1   2
ATOM      2  C   UNL     1      88.426  77.341  77.355  1.00  0.00     0.000 C 
BRANCH   2   3
ATOM      3  C   UNL     1      88.481  78.308  78.555  1.00  0.00     0.000 C 
BRANCH   3   4
ATOM      4  C   UNL     1      89.887  78.549  79.134  1.00  0.00     0.000 C 
BRANCH   4   5
ATOM      5  C   UNL     1      90.997  78.409  78.083  1.00  0.00     0.000 C 
BRANCH   5   6
ATOM      6  C   UNL     1      92.125  77.504  78.591  1.00  0.00     0.000 C 
BRANCH   6   7
ATOM      7  C   UNL     1      91.580  76.421  79.535  1.00  0.00     0.006 C 
BRANCH   7   8
ATOM      8  C   UNL     1      91.737  75.010  78.952  1.00  0.00     0.053 C 
BRANCH   8   9
ATOM      9  C   UNL     1      90.894  74.010  79.679  1.00  0.00     0.041 C 
ATOM     10  O   UNL     1      91.088  72.776  79.513  1.00  0.00    -0.550 OA
ATOM     11  O   UNL     1      89.916  74.438  80.568  1.00  0.00    -0.550 OA
ENDBRANCH   8   9
ENDBRANCH   7   8
ENDBRANCH   6   7
ENDBRANCH   5   6
ENDBRANCH   4   5
ENDBRANCH   3   4
ENDBRANCH   2   3
ENDBRANCH   1   2
BRANCH   1  12
ATOM     12  C   UNL     1      88.773  74.886  76.712  1.00  0.00     0.000 C 
BRANCH  12  13
ATOM     13  C   UNL     1      89.567  75.634  75.630  1.00  0.00    -0.000 C 
BRANCH  13  14
ATOM     14  C   UNL     1      89.120  75.273  74.201  1.00  0.00    -0.000 C 
BRANCH  14  15
ATOM     15  C   UNL     1      88.543  76.446  73.385  1.00  0.00    -0.000 C 
BRANCH  15  16
ATOM     16  C   UNL     1      87.098  76.841  73.744  1.00  0.00    -0.000 C 
BRANCH  16  17
ATOM     17  C   UNL     1      86.104  75.667  73.841  1.00  0.00    -0.000 C 
BRANCH  17  18
ATOM     18  C   UNL     1      85.398  75.523  75.202  1.00  0.00    -0.000 C 
BRANCH  18  19
ATOM     19  C   UNL     1      85.062  76.877  75.844  1.00  0.00    -0.003 C 
ATOM     20  C   UNL     1      84.559  76.698  77.273  1.00  0.00     0.004 C 
ENDBRANCH  18  19
ENDBRANCH  17  18
ENDBRANCH  16  17
ENDBRANCH  15  16
ENDBRANCH  14  15
ENDBRANCH  13  14
ENDBRANCH  12  13
ENDBRANCH   1  12
TORSDOF 16
ENDMDL
MODEL 8
REMARK VINA RESULT:    -2.110      2.278      4.519
REMARK INTER + INTRA:          -6.665
REMARK INTER:                  -4.473
REMARK INTRA:                  -2.191
REMARK UNBOUND:                -2.581
REMARK SMILES CCCCCCCCCCCCCCCCCC(=O)[O-]
REMARK SMILES IDX 10 1 11 2 12 3 13 4 14 5 15 6 16 7 17 8 18 9 19 10 20 11
REMARK SMILES IDX 9 12 8 13 7 14 6 15 5 16 4 17 3 18 2 19 1 20
REMARK H PARENT
REMARK Flexibility Score: inf
ROOT
ATOM      1  C   UNL     1      75.519  89.930  73.836  1.00  0.00     0.000 C 
ENDROOT
BRANCH   1   2
ATOM      2  C   UNL     1      74.517  91.090  73.691  1.00  0.00     0.000 C 
BRANCH   2   3
ATOM      3  C   UNL     1      74.528  92.112  74.846  1.00  0.00     0.000 C 
BRANCH   3   4
ATOM      4  C   UNL     1      75.715  91.985  75.817  1.00  0.00     0.000 C 
BRANCH   4   5
ATOM      5  C   UNL     1      75.299  92.124  77.289  1.00  0.00     0.000 C 
BRANCH   5   6
ATOM      6  C   UNL     1      75.549  90.821  78.056  1.00  0.00     0.000 C 
BRANCH   6   7
ATOM      7  C   UNL     1      75.418  91.040  79.571  1.00  0.00     0.006 C 
BRANCH   7   8
ATOM      8  C   UNL     1      74.655  89.899  80.259  1.00  0.00     0.053 C 
BRANCH   8   9
ATOM      9  C   UNL     1      73.372  90.375  80.867  1.00  0.00     0.041 C 
ATOM     10  O   UNL     1      72.886  89.782  81.866  1.00  0.00    -0.550 OA
ATOM     11  O   UNL     1      72.731  91.495  80.353  1.00  0.00    -0.550 OA
ENDBRANCH   8   9
ENDBRANCH   7   8
ENDBRANCH   6   7
ENDBRANCH   5   6
ENDBRANCH   4   5
ENDBRANCH   3   4
ENDBRANCH   2   3
ENDBRANCH   1   2
BRANCH   1  12
ATOM     12  C   UNL     1      74.870  88.643  74.365  1.00  0.00     0.000 C 
BRANCH  12  13
ATOM     13  C   UNL     1      75.937  87.650  74.849  1.00  0.00    -0.000 C 
BRANCH  13  14
ATOM     14  C   UNL     1      76.927  88.275  75.850  1.00  0.00    -0.000 C 
BRANCH  14  15
ATOM     15  C   UNL     1      77.176  87.442  77.123  1.00  0.00    -0.000 C 
BRANCH  15  16
ATOM     16  C   UNL     1      75.948  87.269  78.039  1.00  0.00    -0.000 C 
BRANCH  16  17
ATOM     17  C   UNL     1      75.324  85.860  78.035  1.00  0.00    -0.000 C 
BRANCH  17  18
ATOM     18  C   UNL     1      76.194  84.765  77.391  1.00  0.00    -0.000 C 
BRANCH  18  19
ATOM     19  C   UNL     1      75.548  84.152  76.139  1.00  0.00    -0.003 C 
ATOM     20  C   UNL     1      74.167  84.748  75.884  1.00  0.00     0.004 C 
ENDBRANCH  18  19
ENDBRANCH  17  18
ENDBRANCH  16  17
ENDBRANCH  15  16
ENDBRANCH  14  15
ENDBRANCH  13  14
ENDBRANCH  12  13
ENDBRANCH   1  12
TORSDOF 16
ENDMDL
MODEL 9
REMARK VINA RESULT:    -0.706     17.194     20.631
REMARK INTER + INTRA:          -3.946
REMARK INTER:                  -1.066
REMARK INTRA:                  -2.881
REMARK UNBOUND:                -2.581
REMARK SMILES CCCCCCCCCCCCCCCCCC(=O)[O-]
REMARK SMILES IDX 10 1 11 2 12 3 13 4 14 5 15 6 16 7 17 8 18 9 19 10 20 11
REMARK SMILES IDX 9 12 8 13 7 14 6 15 5 16 4 17 3 18 2 19 1 20
REMARK H PARENT
REMARK Flexibility Score: inf
ROOT
ATOM      1  C   UNL     1      87.908  84.720  91.226  1.00  0.00     0.000 C 
ENDROOT
BRANCH   1   2
ATOM      2  C   UNL     1      88.154  85.222  89.791  1.00  0.00     0.000 C 
BRANCH   2   3
ATOM      3  C   UNL     1      88.946  84.255  88.887  1.00  0.00     0.000 C 
BRANCH   3   4
ATOM      4  C   UNL     1      90.422  84.632  88.665  1.00  0.00     0.000 C 
BRANCH   4   5
ATOM      5  C   UNL     1      90.593  85.998  87.985  1.00  0.00     0.000 C 
BRANCH   5   6
ATOM      6  C   UNL     1      91.364  86.969  88.886  1.00  0.00     0.000 C 
BRANCH   6   7
ATOM      7  C   UNL     1      90.477  88.147  89.314  1.00  0.00     0.006 C 
BRANCH   7   8
ATOM      8  C   UNL     1      89.565  88.630  88.178  1.00  0.00     0.053 C 
BRANCH   8   9
ATOM      9  C   UNL     1      88.146  88.783  88.630  1.00  0.00     0.041 C 
ATOM     10  O   UNL     1      87.867  89.540  89.598  1.00  0.00    -0.550 OA
ATOM     11  O   UNL     1      87.126  88.118  87.961  1.00  0.00    -0.550 OA
ENDBRANCH   8   9
ENDBRANCH   7   8
ENDBRANCH   6   7
ENDBRANCH   5   6
ENDBRANCH   4   5
ENDBRANCH   3   4
ENDBRANCH   2   3
ENDBRANCH   1   2
BRANCH   1  12
ATOM     12  C   UNL     1      88.198  83.221  91.391  1.00  0.00     0.000 C 
BRANCH  12  13
ATOM     13  C   UNL     1      89.274  82.986  92.461  1.00  0.00    -0.000 C 
BRANCH  13  14
ATOM     14  C   UNL     1      90.644  82.617  91.862  1.00  0.00    -0.000 C 
BRANCH  14  15
ATOM     15  C   UNL     1      91.823  83.480  92.353  1.00  0.00    -0.000 C 
BRANCH  15  16
ATOM     16  C   UNL     1      91.743  84.971  91.971  1.00  0.00    -0.000 C 
BRANCH  16  17
ATOM     17  C   UNL     1      91.369  85.922  93.125  1.00  0.00    -0.000 C 
BRANCH  17  18
ATOM     18  C   UNL     1      90.326  86.997  92.770  1.00  0.00    -0.000 C 
BRANCH  18  19
ATOM     19  C   UNL     1      90.814  88.423  93.067  1.00  0.00    -0.003 C 
ATOM     20  C   UNL     1      89.720  89.448  92.786  1.00  0.00     0.004 C 
ENDBRANCH  18  19
ENDBRANCH  17  18
ENDBRANCH  16  17
ENDBRANCH  15  16
ENDBRANCH  14  15
ENDBRANCH  13  14
ENDBRANCH  12  13
ENDBRANCH   1  12
TORSDOF 16
ENDMDL
