MODEL 1
REMARK VINA RESULT:    -8.088      0.000      0.000
REMARK INTER + INTRA:          -8.844
REMARK INTER:                  -8.797
REMARK INTRA:                  -0.047
REMARK UNBOUND:                -0.047
REMARK SMILES C[C@H]1[C@H](C)CC[C@@]2(C(=O)[O-])CC[C@@]3(C)C(=CC[C@@H]4[C@@]5(C)CC[C@@H](O)C(C)(C)[C@@H]5CC[C@@]43C)[C@@H]12
REMARK SMILES IDX 7 1 6 2 11 3 33 4 5 5 12 6 15 7 2 8 3 9 13 10 16 11 1 12
REMARK SMILES IDX 4 13 14 14 31 15 17 16 18 17 30 18 32 19 19 20 29 21 28 22
REMARK SMILES IDX 21 23 20 24 25 25 22 26 23 27 26 28 27 29 8 30 9 31 10 32
REMARK SMILES IDX 24 33
REMARK H PARENT 24 34
REMARK Flexibility Score: inf
ROOT
ATOM      1  C   UNL     1      11.285   4.135  53.896  1.00  0.00     0.017 C 
ATOM      2  C   UNL     1      11.144   2.610  53.590  1.00  0.00     0.014 C 
ATOM      3  C   UNL     1      12.622   4.669  53.267  1.00  0.00     0.014 C 
ATOM      4  C   UNL     1      10.019   4.869  53.314  1.00  0.00     0.030 C 
ATOM      5  C   UNL     1       9.843   1.998  54.134  1.00  0.00     0.004 C 
ATOM      6  C   UNL     1      12.429   5.900  52.366  1.00  0.00     0.013 C 
ATOM      7  C   UNL     1      10.140   5.016  51.775  1.00  0.00    -0.063 C 
ATOM      8  C   UNL     1       8.708   4.251  53.919  1.00  0.00    -0.003 C 
ATOM      9  C   UNL     1       8.590   2.732  53.613  1.00  0.00    -0.011 C 
ATOM     10  C   UNL     1      11.437   5.608  51.189  1.00  0.00    -0.006 C 
ATOM     11  C   UNL     1       9.105   4.822  50.930  1.00  0.00    -0.027 C 
ATOM     12  C   UNL     1       7.432   5.079  53.633  1.00  0.00     0.008 C 
ATOM     13  C   UNL     1       7.339   2.108  54.254  1.00  0.00     0.008 C 
ATOM     14  C   UNL     1      12.133   4.529  50.294  1.00  0.00     0.017 C 
ATOM     15  C   UNL     1      11.059   6.924  50.343  1.00  0.00    -0.020 C 
ATOM     16  C   UNL     1       9.175   5.242  49.491  1.00  0.00     0.032 C 
ATOM     17  C   UNL     1       9.825   6.653  49.349  1.00  0.00     0.006 C 
ATOM     18  C   UNL     1      12.297   7.447  49.554  1.00  0.00     0.008 C 
ATOM     19  C   UNL     1      10.642   8.065  51.332  1.00  0.00     0.012 C 
ATOM     20  C   UNL     1       9.999   7.160  47.846  1.00  0.00    -0.025 C 
ATOM     21  C   UNL     1      12.006   8.643  48.626  1.00  0.00     0.005 C 
ATOM     22  C   UNL     1      10.615   8.606  47.922  1.00  0.00     0.003 C 
ATOM     23  C   UNL     1       8.579   7.243  47.192  1.00  0.00     0.010 C 
ATOM     24  C   UNL     1      10.886   6.200  46.984  1.00  0.00     0.012 C 
ATOM     25  C   UNL     1      10.532   9.483  46.607  1.00  0.00    -0.006 C 
ATOM     26  C   UNL     1       8.522   8.058  45.890  1.00  0.00     0.033 C 
ATOM     27  C   UNL     1       9.062   9.483  46.081  1.00  0.00     0.120 C 
ATOM     28  C   UNL     1      10.923  10.949  46.941  1.00  0.00     0.014 C 
ATOM     29  C   UNL     1      11.487   9.024  45.470  1.00  0.00     0.014 C 
ENDROOT
BRANCH   1  30
ATOM     30  C   UNL     1      11.387   4.366  55.403  1.00  0.00     0.048 C 
ATOM     31  O   UNL     1      12.086   3.606  56.125  1.00  0.00    -0.550 OA
ATOM     32  O   UNL     1      10.806   5.488  55.982  1.00  0.00    -0.550 OA
ENDBRANCH   1  30
BRANCH  27  33
ATOM     33  O   UNL     1       8.223  10.181  46.970  1.00  0.00    -0.393 OA
ATOM     34  H   UNL     1       8.325  11.148  46.767  1.00  0.00     0.210 HD
ENDBRANCH  27  33
TORSDOF 2
ENDMDL
MODEL 2
REMARK VINA RESULT:    -7.379      1.627      3.692
REMARK INTER + INTRA:          -8.073
REMARK INTER:                  -8.015
REMARK INTRA:                  -0.059
REMARK UNBOUND:                -0.047
REMARK SMILES C[C@H]1[C@H](C)CC[C@@]2(C(=O)[O-])CC[C@@]3(C)C(=CC[C@@H]4[C@@]5(C)CC[C@@H](O)C(C)(C)[C@@H]5CC[C@@]43C)[C@@H]12
REMARK SMILES IDX 7 1 6 2 11 3 33 4 5 5 12 6 15 7 2 8 3 9 13 10 16 11 1 12
REMARK SMILES IDX 4 13 14 14 31 15 17 16 18 17 30 18 32 19 19 20 29 21 28 22
REMARK SMILES IDX 21 23 20 24 25 25 22 26 23 27 26 28 27 29 8 30 9 31 10 32
REMARK SMILES IDX 24 33
REMARK H PARENT 24 34
REMARK Flexibility Score: inf
ROOT
ATOM      1  C   UNL     1      10.551   4.163  54.085  1.00  0.00     0.017 C 
ATOM      2  C   UNL     1      10.397   5.110  55.318  1.00  0.00     0.014 C 
ATOM      3  C   UNL     1       9.164   4.027  53.359  1.00  0.00     0.014 C 
ATOM      4  C   UNL     1      11.659   4.765  53.142  1.00  0.00     0.030 C 
ATOM      5  C   UNL     1      11.714   5.337  56.078  1.00  0.00     0.004 C 
ATOM      6  C   UNL     1       9.226   4.335  51.854  1.00  0.00     0.013 C 
ATOM      7  C   UNL     1      11.093   5.963  52.338  1.00  0.00    -0.063 C 
ATOM      8  C   UNL     1      13.003   4.947  53.934  1.00  0.00    -0.003 C 
ATOM      9  C   UNL     1      12.829   5.883  55.162  1.00  0.00    -0.011 C 
ATOM     10  C   UNL     1       9.764   5.780  51.578  1.00  0.00    -0.006 C 
ATOM     11  C   UNL     1      11.785   7.101  52.119  1.00  0.00    -0.027 C 
ATOM     12  C   UNL     1      14.225   5.262  53.037  1.00  0.00     0.008 C 
ATOM     13  C   UNL     1      14.126   6.018  55.976  1.00  0.00     0.008 C 
ATOM     14  C   UNL     1       8.697   6.760  52.170  1.00  0.00     0.017 C 
ATOM     15  C   UNL     1      10.028   6.066  50.016  1.00  0.00    -0.020 C 
ATOM     16  C   UNL     1      11.331   8.117  51.112  1.00  0.00     0.032 C 
ATOM     17  C   UNL     1      10.854   7.428  49.797  1.00  0.00     0.006 C 
ATOM     18  C   UNL     1       8.684   6.104  49.227  1.00  0.00     0.008 C 
ATOM     19  C   UNL     1      10.868   4.889  49.415  1.00  0.00     0.012 C 
ATOM     20  C   UNL     1      10.292   8.428  48.686  1.00  0.00    -0.025 C 
ATOM     21  C   UNL     1       8.825   6.481  47.739  1.00  0.00     0.005 C 
ATOM     22  C   UNL     1       9.917   7.551  47.433  1.00  0.00     0.003 C 
ATOM     23  C   UNL     1      11.443   9.415  48.293  1.00  0.00     0.010 C 
ATOM     24  C   UNL     1       9.070   9.266  49.190  1.00  0.00     0.012 C 
ATOM     25  C   UNL     1       9.704   8.321  46.067  1.00  0.00    -0.006 C 
ATOM     26  C   UNL     1      11.201  10.191  46.989  1.00  0.00     0.033 C 
ATOM     27  C   UNL     1      10.930   9.252  45.805  1.00  0.00     0.120 C 
ATOM     28  C   UNL     1       9.623   7.293  44.905  1.00  0.00     0.014 C 
ATOM     29  C   UNL     1       8.397   9.159  46.002  1.00  0.00     0.014 C 
ENDROOT
BRANCH   1  30
ATOM     30  C   UNL     1      10.945   2.759  54.540  1.00  0.00     0.048 C 
ATOM     31  O   UNL     1      10.655   2.352  55.697  1.00  0.00    -0.550 OA
ATOM     32  O   UNL     1      11.525   1.867  53.645  1.00  0.00    -0.550 OA
ENDBRANCH   1  30
BRANCH  27  33
ATOM     33  O   UNL     1      12.082   8.485  45.548  1.00  0.00    -0.393 OA
ATOM     34  H   UNL     1      12.740   9.086  45.111  1.00  0.00     0.210 HD
ENDBRANCH  27  33
TORSDOF 2
ENDMDL
MODEL 3
REMARK VINA RESULT:    -7.129      1.333      8.317
REMARK INTER + INTRA:          -7.802
REMARK INTER:                  -7.751
REMARK INTRA:                  -0.051
REMARK UNBOUND:                -0.047
REMARK SMILES C[C@H]1[C@H](C)CC[C@@]2(C(=O)[O-])CC[C@@]3(C)C(=CC[C@@H]4[C@@]5(C)CC[C@@H](O)C(C)(C)[C@@H]5CC[C@@]43C)[C@@H]12
REMARK SMILES IDX 7 1 6 2 11 3 33 4 5 5 12 6 15 7 2 8 3 9 13 10 16 11 1 12
REMARK SMILES IDX 4 13 14 14 31 15 17 16 18 17 30 18 32 19 19 20 29 21 28 22
REMARK SMILES IDX 21 23 20 24 25 25 22 26 23 27 26 28 27 29 8 30 9 31 10 32
REMARK SMILES IDX 24 33
REMARK H PARENT 24 34
REMARK Flexibility Score: inf
ROOT
ATOM      1  C   UNL     1       9.557   8.852  46.405  1.00  0.00     0.017 C 
ATOM      2  C   UNL     1      10.457   8.445  45.195  1.00  0.00     0.014 C 
ATOM      3  C   UNL     1       8.542   7.692  46.710  1.00  0.00     0.014 C 
ATOM      4  C   UNL     1      10.496   9.159  47.631  1.00  0.00     0.030 C 
ATOM      5  C   UNL     1      11.513   9.504  44.839  1.00  0.00     0.004 C 
ATOM      6  C   UNL     1       8.558   7.233  48.177  1.00  0.00     0.013 C 
ATOM      7  C   UNL     1      11.006   7.839  48.265  1.00  0.00    -0.063 C 
ATOM      8  C   UNL     1      11.536  10.273  47.251  1.00  0.00    -0.003 C 
ATOM      9  C   UNL     1      12.415   9.854  46.041  1.00  0.00    -0.011 C 
ATOM     10  C   UNL     1       9.979   6.744  48.618  1.00  0.00    -0.006 C 
ATOM     11  C   UNL     1      12.275   7.664  48.689  1.00  0.00    -0.027 C 
ATOM     12  C   UNL     1      12.314  10.846  48.460  1.00  0.00     0.008 C 
ATOM     13  C   UNL     1      13.395  10.965  45.625  1.00  0.00     0.008 C 
ATOM     14  C   UNL     1      10.282   5.466  47.768  1.00  0.00     0.017 C 
ATOM     15  C   UNL     1      10.080   6.443  50.196  1.00  0.00    -0.020 C 
ATOM     16  C   UNL     1      12.665   6.496  49.546  1.00  0.00     0.032 C 
ATOM     17  C   UNL     1      11.606   6.241  50.662  1.00  0.00     0.006 C 
ATOM     18  C   UNL     1       9.219   5.201  50.577  1.00  0.00     0.008 C 
ATOM     19  C   UNL     1       9.490   7.659  50.988  1.00  0.00     0.012 C 
ATOM     20  C   UNL     1      11.904   4.975  51.588  1.00  0.00    -0.025 C 
ATOM     21  C   UNL     1       9.338   4.767  52.051  1.00  0.00     0.005 C 
ATOM     22  C   UNL     1      10.761   4.924  52.670  1.00  0.00     0.003 C 
ATOM     23  C   UNL     1      13.276   5.208  52.305  1.00  0.00     0.010 C 
ATOM     24  C   UNL     1      11.989   3.639  50.776  1.00  0.00     0.012 C 
ATOM     25  C   UNL     1      11.021   4.009  53.935  1.00  0.00    -0.006 C 
ATOM     26  C   UNL     1      13.537   4.281  53.502  1.00  0.00     0.033 C 
ATOM     27  C   UNL     1      12.413   4.363  54.546  1.00  0.00     0.120 C 
ATOM     28  C   UNL     1       9.937   4.296  55.009  1.00  0.00     0.014 C 
ATOM     29  C   UNL     1      10.957   2.484  53.645  1.00  0.00     0.014 C 
ENDROOT
BRANCH   1  30
ATOM     30  C   UNL     1       8.721  10.082  46.054  1.00  0.00     0.048 C 
ATOM     31  O   UNL     1       8.470  10.369  44.852  1.00  0.00    -0.550 OA
ATOM     32  O   UNL     1       8.126  10.837  47.058  1.00  0.00    -0.550 OA
ENDBRANCH   1  30
BRANCH  27  33
ATOM     33  O   UNL     1      12.391   5.656  55.103  1.00  0.00    -0.393 OA
ATOM     34  H   UNL     1      13.325   5.992  55.095  1.00  0.00     0.210 HD
ENDBRANCH  27  33
TORSDOF 2
ENDMDL
MODEL 4
REMARK VINA RESULT:    -6.808      2.524      4.442
REMARK INTER + INTRA:          -7.452
REMARK INTER:                  -7.497
REMARK INTRA:                   0.044
REMARK UNBOUND:                -0.047
REMARK SMILES C[C@H]1[C@H](C)CC[C@@]2(C(=O)[O-])CC[C@@]3(C)C(=CC[C@@H]4[C@@]5(C)CC[C@@H](O)C(C)(C)[C@@H]5CC[C@@]43C)[C@@H]12
REMARK SMILES IDX 7 1 6 2 11 3 33 4 5 5 12 6 15 7 2 8 3 9 13 10 16 11 1 12
REMARK SMILES IDX 4 13 14 14 31 15 17 16 18 17 30 18 32 19 19 20 29 21 28 22
REMARK SMILES IDX 21 23 20 24 25 25 22 26 23 27 26 28 27 29 8 30 9 31 10 32
REMARK SMILES IDX 24 33
REMARK H PARENT 24 34
REMARK Flexibility Score: inf
ROOT
ATOM      1  C   UNL     1      11.065   5.056  49.847  1.00  0.00     0.017 C 
ATOM      2  C   UNL     1       9.853   4.384  50.567  1.00  0.00     0.014 C 
ATOM      3  C   UNL     1      10.917   4.864  48.294  1.00  0.00     0.014 C 
ATOM      4  C   UNL     1      11.096   6.575  50.258  1.00  0.00     0.030 C 
ATOM      5  C   UNL     1       9.886   4.548  52.095  1.00  0.00     0.004 C 
ATOM      6  C   UNL     1      11.016   6.178  47.502  1.00  0.00     0.013 C 
ATOM      7  C   UNL     1      10.009   7.367  49.487  1.00  0.00    -0.063 C 
ATOM      8  C   UNL     1      11.172   6.711  51.822  1.00  0.00    -0.003 C 
ATOM      9  C   UNL     1       9.964   6.029  52.521  1.00  0.00    -0.011 C 
ATOM     10  C   UNL     1       9.931   7.214  47.955  1.00  0.00    -0.006 C 
ATOM     11  C   UNL     1       9.242   8.319  50.059  1.00  0.00    -0.027 C 
ATOM     12  C   UNL     1      11.492   8.144  52.314  1.00  0.00     0.008 C 
ATOM     13  C   UNL     1      10.063   6.106  54.053  1.00  0.00     0.008 C 
ATOM     14  C   UNL     1       8.548   6.589  47.573  1.00  0.00     0.017 C 
ATOM     15  C   UNL     1      10.128   8.665  47.288  1.00  0.00    -0.020 C 
ATOM     16  C   UNL     1       8.407   9.256  49.236  1.00  0.00     0.032 C 
ATOM     17  C   UNL     1       9.199   9.771  47.995  1.00  0.00     0.006 C 
ATOM     18  C   UNL     1       9.850   8.611  45.756  1.00  0.00     0.008 C 
ATOM     19  C   UNL     1      11.622   9.108  47.458  1.00  0.00     0.012 C 
ATOM     20  C   UNL     1       8.370  10.727  47.023  1.00  0.00    -0.025 C 
ATOM     21  C   UNL     1       9.907   9.978  45.045  1.00  0.00     0.005 C 
ATOM     22  C   UNL     1       9.352  11.174  45.877  1.00  0.00     0.003 C 
ATOM     23  C   UNL     1       7.930  11.989  47.840  1.00  0.00     0.010 C 
ATOM     24  C   UNL     1       7.088  10.037  46.447  1.00  0.00     0.012 C 
ATOM     25  C   UNL     1       8.906  12.417  45.004  1.00  0.00    -0.006 C 
ATOM     26  C   UNL     1       7.454  13.171  46.981  1.00  0.00     0.033 C 
ATOM     27  C   UNL     1       8.511  13.594  45.950  1.00  0.00     0.120 C 
ATOM     28  C   UNL     1      10.099  12.884  44.127  1.00  0.00     0.014 C 
ATOM     29  C   UNL     1       7.733  12.124  44.027  1.00  0.00     0.014 C 
ENDROOT
BRANCH   1  30
ATOM     30  C   UNL     1      12.369   4.368  50.249  1.00  0.00     0.048 C 
ATOM     31  O   UNL     1      12.353   3.280  50.886  1.00  0.00    -0.550 OA
ATOM     32  O   UNL     1      13.590   4.871  49.817  1.00  0.00    -0.550 OA
ENDBRANCH   1  30
BRANCH  27  33
ATOM     33  O   UNL     1       9.646  14.084  46.624  1.00  0.00    -0.393 OA
ATOM     34  H   UNL     1      10.425  13.560  46.301  1.00  0.00     0.210 HD
ENDBRANCH  27  33
TORSDOF 2
ENDMDL
MODEL 5
REMARK VINA RESULT:    -6.789      2.621      8.700
REMARK INTER + INTRA:          -7.432
REMARK INTER:                  -7.450
REMARK INTRA:                   0.018
REMARK UNBOUND:                -0.047
REMARK SMILES C[C@H]1[C@H](C)CC[C@@]2(C(=O)[O-])CC[C@@]3(C)C(=CC[C@@H]4[C@@]5(C)CC[C@@H](O)C(C)(C)[C@@H]5CC[C@@]43C)[C@@H]12
REMARK SMILES IDX 7 1 6 2 11 3 33 4 5 5 12 6 15 7 2 8 3 9 13 10 16 11 1 12
REMARK SMILES IDX 4 13 14 14 31 15 17 16 18 17 30 18 32 19 19 20 29 21 28 22
REMARK SMILES IDX 21 23 20 24 25 25 22 26 23 27 26 28 27 29 8 30 9 31 10 32
REMARK SMILES IDX 24 33
REMARK H PARENT 24 34
REMARK Flexibility Score: inf
ROOT
ATOM      1  C   UNL     1       8.312  11.539  45.643  1.00  0.00     0.017 C 
ATOM      2  C   UNL     1       8.703  12.997  46.040  1.00  0.00     0.014 C 
ATOM      3  C   UNL     1       9.583  10.789  45.104  1.00  0.00     0.014 C 
ATOM      4  C   UNL     1       7.700  10.835  46.912  1.00  0.00     0.030 C 
ATOM      5  C   UNL     1       7.530  13.807  46.616  1.00  0.00     0.004 C 
ATOM      6  C   UNL     1       9.849   9.447  45.807  1.00  0.00     0.013 C 
ATOM      7  C   UNL     1       8.825  10.423  47.897  1.00  0.00    -0.063 C 
ATOM      8  C   UNL     1       6.479  11.662  47.453  1.00  0.00    -0.003 C 
ATOM      9  C   UNL     1       6.885  13.112  47.833  1.00  0.00    -0.011 C 
ATOM     10  C   UNL     1      10.028   9.627  47.353  1.00  0.00    -0.006 C 
ATOM     11  C   UNL     1       8.725  10.567  49.235  1.00  0.00    -0.027 C 
ATOM     12  C   UNL     1       5.636  10.916  48.517  1.00  0.00     0.008 C 
ATOM     13  C   UNL     1       5.682  13.945  48.308  1.00  0.00     0.008 C 
ATOM     14  C   UNL     1      11.330  10.474  47.543  1.00  0.00     0.017 C 
ATOM     15  C   UNL     1      10.111   8.228  48.144  1.00  0.00    -0.020 C 
ATOM     16  C   UNL     1       9.695   9.907  50.171  1.00  0.00     0.032 C 
ATOM     17  C   UNL     1       9.990   8.440  49.733  1.00  0.00     0.006 C 
ATOM     18  C   UNL     1      11.427   7.471  47.789  1.00  0.00     0.008 C 
ATOM     19  C   UNL     1       8.927   7.310  47.686  1.00  0.00     0.012 C 
ATOM     20  C   UNL     1      11.062   7.676  50.636  1.00  0.00    -0.025 C 
ATOM     21  C   UNL     1      11.650   6.168  48.582  1.00  0.00     0.005 C 
ATOM     22  C   UNL     1      11.175   6.213  50.066  1.00  0.00     0.003 C 
ATOM     23  C   UNL     1      10.510   7.613  52.100  1.00  0.00     0.010 C 
ATOM     24  C   UNL     1      12.452   8.395  50.660  1.00  0.00     0.012 C 
ATOM     25  C   UNL     1      11.870   5.140  51.000  1.00  0.00    -0.006 C 
ATOM     26  C   UNL     1      11.225   6.602  53.009  1.00  0.00     0.033 C 
ATOM     27  C   UNL     1      11.210   5.186  52.414  1.00  0.00     0.120 C 
ATOM     28  C   UNL     1      11.644   3.721  50.409  1.00  0.00     0.014 C 
ATOM     29  C   UNL     1      13.407   5.315  51.142  1.00  0.00     0.014 C 
ENDROOT
BRANCH   1  30
ATOM     30  C   UNL     1       7.296  11.554  44.502  1.00  0.00     0.048 C 
ATOM     31  O   UNL     1       7.513  12.223  43.456  1.00  0.00    -0.550 OA
ATOM     32  O   UNL     1       6.173  10.736  44.550  1.00  0.00    -0.550 OA
ENDBRANCH   1  30
BRANCH  27  33
ATOM     33  O   UNL     1       9.882   4.723  52.351  1.00  0.00    -0.393 OA
ATOM     34  H   UNL     1       9.526   4.732  53.278  1.00  0.00     0.210 HD
ENDBRANCH  27  33
TORSDOF 2
ENDMDL
MODEL 6
REMARK VINA RESULT:    -6.742      1.942      7.983
REMARK INTER + INTRA:          -7.381
REMARK INTER:                  -7.313
REMARK INTRA:                  -0.068
REMARK UNBOUND:                -0.047
REMARK SMILES C[C@H]1[C@H](C)CC[C@@]2(C(=O)[O-])CC[C@@]3(C)C(=CC[C@@H]4[C@@]5(C)CC[C@@H](O)C(C)(C)[C@@H]5CC[C@@]43C)[C@@H]12
REMARK SMILES IDX 7 1 6 2 11 3 33 4 5 5 12 6 15 7 2 8 3 9 13 10 16 11 1 12
REMARK SMILES IDX 4 13 14 14 31 15 17 16 18 17 30 18 32 19 19 20 29 21 28 22
REMARK SMILES IDX 21 23 20 24 25 25 22 26 23 27 26 28 27 29 8 30 9 31 10 32
REMARK SMILES IDX 24 33
REMARK H PARENT 24 34
REMARK Flexibility Score: inf
ROOT
ATOM      1  C   UNL     1      10.085  10.797  49.201  1.00  0.00     0.017 C 
ATOM      2  C   UNL     1       8.555  10.922  48.916  1.00  0.00     0.014 C 
ATOM      3  C   UNL     1      10.367  11.180  50.698  1.00  0.00     0.014 C 
ATOM      4  C   UNL     1      10.524   9.321  48.872  1.00  0.00     0.030 C 
ATOM      5  C   UNL     1       8.170  10.531  47.480  1.00  0.00     0.004 C 
ATOM      6  C   UNL     1      11.166  10.113  51.465  1.00  0.00     0.013 C 
ATOM      7  C   UNL     1      10.084   8.360  50.007  1.00  0.00    -0.063 C 
ATOM      8  C   UNL     1      10.155   8.964  47.387  1.00  0.00    -0.003 C 
ATOM      9  C   UNL     1       8.632   9.104  47.120  1.00  0.00    -0.011 C 
ATOM     10  C   UNL     1      10.435   8.728  51.463  1.00  0.00    -0.006 C 
ATOM     11  C   UNL     1       9.568   7.134  49.780  1.00  0.00    -0.027 C 
ATOM     12  C   UNL     1      10.793   7.648  46.879  1.00  0.00     0.008 C 
ATOM     13  C   UNL     1       8.272   8.814  45.653  1.00  0.00     0.008 C 
ATOM     14  C   UNL     1       9.112   8.933  52.272  1.00  0.00     0.017 C 
ATOM     15  C   UNL     1      11.330   7.543  52.084  1.00  0.00    -0.020 C 
ATOM     16  C   UNL     1       9.418   6.127  50.882  1.00  0.00     0.032 C 
ATOM     17  C   UNL     1      10.683   6.100  51.793  1.00  0.00     0.006 C 
ATOM     18  C   UNL     1      11.540   7.754  53.614  1.00  0.00     0.008 C 
ATOM     19  C   UNL     1      12.752   7.577  51.427  1.00  0.00     0.012 C 
ATOM     20  C   UNL     1      10.591   5.100  53.035  1.00  0.00    -0.025 C 
ATOM     21  C   UNL     1      12.294   6.611  54.321  1.00  0.00     0.005 C 
ATOM     22  C   UNL     1      11.971   5.182  53.788  1.00  0.00     0.003 C 
ATOM     23  C   UNL     1      10.397   3.649  52.479  1.00  0.00     0.010 C 
ATOM     24  C   UNL     1       9.393   5.430  53.988  1.00  0.00     0.012 C 
ATOM     25  C   UNL     1      12.287   4.021  54.816  1.00  0.00    -0.006 C 
ATOM     26  C   UNL     1      10.662   2.533  53.501  1.00  0.00     0.033 C 
ATOM     27  C   UNL     1      12.063   2.642  54.119  1.00  0.00     0.120 C 
ATOM     28  C   UNL     1      13.778   4.107  55.245  1.00  0.00     0.014 C 
ATOM     29  C   UNL     1      11.451   4.080  56.125  1.00  0.00     0.014 C 
ENDROOT
BRANCH   1  30
ATOM     30  C   UNL     1      10.868  11.788  48.341  1.00  0.00     0.048 C 
ATOM     31  O   UNL     1      10.367  12.901  48.023  1.00  0.00    -0.550 OA
ATOM     32  O   UNL     1      12.189  11.528  47.994  1.00  0.00    -0.550 OA
ENDBRANCH   1  30
BRANCH  27  33
ATOM     33  O   UNL     1      13.030   2.436  53.116  1.00  0.00    -0.393 OA
ATOM     34  H   UNL     1      12.554   2.458  52.245  1.00  0.00     0.210 HD
ENDBRANCH  27  33
TORSDOF 2
ENDMDL
MODEL 7
REMARK VINA RESULT:    -6.635      1.612      8.059
REMARK INTER + INTRA:          -7.264
REMARK INTER:                  -7.490
REMARK INTRA:                   0.226
REMARK UNBOUND:                -0.047
REMARK SMILES C[C@H]1[C@H](C)CC[C@@]2(C(=O)[O-])CC[C@@]3(C)C(=CC[C@@H]4[C@@]5(C)CC[C@@H](O)C(C)(C)[C@@H]5CC[C@@]43C)[C@@H]12
REMARK SMILES IDX 7 1 6 2 11 3 33 4 5 5 12 6 15 7 2 8 3 9 13 10 16 11 1 12
REMARK SMILES IDX 4 13 14 14 31 15 17 16 18 17 30 18 32 19 19 20 29 21 28 22
REMARK SMILES IDX 21 23 20 24 25 25 22 26 23 27 26 28 27 29 8 30 9 31 10 32
REMARK SMILES IDX 24 33
REMARK H PARENT 24 34
REMARK Flexibility Score: inf
ROOT
ATOM      1  C   UNL     1      10.112   8.280  47.158  1.00  0.00     0.017 C 
ATOM      2  C   UNL     1      11.055   9.501  46.915  1.00  0.00     0.014 C 
ATOM      3  C   UNL     1      10.929   6.950  46.976  1.00  0.00     0.014 C 
ATOM      4  C   UNL     1       9.505   8.413  48.604  1.00  0.00     0.030 C 
ATOM      5  C   UNL     1      10.355  10.857  47.105  1.00  0.00     0.004 C 
ATOM      6  C   UNL     1      10.811   5.990  48.171  1.00  0.00     0.013 C 
ATOM      7  C   UNL     1      10.554   8.003  49.671  1.00  0.00    -0.063 C 
ATOM      8  C   UNL     1       8.762   9.788  48.756  1.00  0.00    -0.003 C 
ATOM      9  C   UNL     1       9.712  10.990  48.501  1.00  0.00    -0.011 C 
ATOM     10  C   UNL     1      11.291   6.660  49.504  1.00  0.00    -0.006 C 
ATOM     11  C   UNL     1      10.730   8.672  50.830  1.00  0.00    -0.027 C 
ATOM     12  C   UNL     1       7.894   9.897  50.033  1.00  0.00     0.008 C 
ATOM     13  C   UNL     1       8.978  12.338  48.589  1.00  0.00     0.008 C 
ATOM     14  C   UNL     1      12.821   6.934  49.326  1.00  0.00     0.017 C 
ATOM     15  C   UNL     1      10.999   5.755  50.803  1.00  0.00    -0.020 C 
ATOM     16  C   UNL     1      11.541   8.098  51.954  1.00  0.00     0.032 C 
ATOM     17  C   UNL     1      11.220   6.586  52.162  1.00  0.00     0.006 C 
ATOM     18  C   UNL     1      11.884   4.472  50.792  1.00  0.00     0.008 C 
ATOM     19  C   UNL     1       9.509   5.274  50.767  1.00  0.00     0.012 C 
ATOM     20  C   UNL     1      12.082   5.871  53.300  1.00  0.00    -0.025 C 
ATOM     21  C   UNL     1      11.755   3.595  52.054  1.00  0.00     0.005 C 
ATOM     22  C   UNL     1      11.574   4.383  53.387  1.00  0.00     0.003 C 
ATOM     23  C   UNL     1      11.789   6.591  54.659  1.00  0.00     0.010 C 
ATOM     24  C   UNL     1      13.621   5.940  53.023  1.00  0.00     0.012 C 
ATOM     25  C   UNL     1      11.984   3.569  54.680  1.00  0.00    -0.006 C 
ATOM     26  C   UNL     1      12.235   5.811  55.905  1.00  0.00     0.033 C 
ATOM     27  C   UNL     1      11.622   4.403  55.949  1.00  0.00     0.120 C 
ATOM     28  C   UNL     1      11.177   2.242  54.730  1.00  0.00     0.014 C 
ATOM     29  C   UNL     1      13.485   3.169  54.736  1.00  0.00     0.014 C 
ENDROOT
BRANCH   1  30
ATOM     30  C   UNL     1       8.998   8.255  46.113  1.00  0.00     0.048 C 
ATOM     31  O   UNL     1       8.163   7.311  46.085  1.00  0.00    -0.550 OA
ATOM     32  O   UNL     1       8.817   9.331  45.252  1.00  0.00    -0.550 OA
ENDBRANCH   1  30
BRANCH  27  33
ATOM     33  O   UNL     1      10.225   4.510  56.084  1.00  0.00    -0.393 OA
ATOM     34  H   UNL     1       9.915   3.695  56.559  1.00  0.00     0.210 HD
ENDBRANCH  27  33
TORSDOF 2
ENDMDL
MODEL 8
REMARK VINA RESULT:    -6.517      3.215      4.944
REMARK INTER + INTRA:          -7.136
REMARK INTER:                  -7.067
REMARK INTRA:                  -0.068
REMARK UNBOUND:                -0.047
REMARK SMILES C[C@H]1[C@H](C)CC[C@@]2(C(=O)[O-])CC[C@@]3(C)C(=CC[C@@H]4[C@@]5(C)CC[C@@H](O)C(C)(C)[C@@H]5CC[C@@]43C)[C@@H]12
REMARK SMILES IDX 7 1 6 2 11 3 33 4 5 5 12 6 15 7 2 8 3 9 13 10 16 11 1 12
REMARK SMILES IDX 4 13 14 14 31 15 17 16 18 17 30 18 32 19 19 20 29 21 28 22
REMARK SMILES IDX 21 23 20 24 25 25 22 26 23 27 26 28 27 29 8 30 9 31 10 32
REMARK SMILES IDX 24 33
REMARK H PARENT 24 34
REMARK Flexibility Score: inf
ROOT
ATOM      1  C   UNL     1      13.115   6.620  50.404  1.00  0.00     0.017 C 
ATOM      2  C   UNL     1      14.365   6.447  49.484  1.00  0.00     0.014 C 
ATOM      3  C   UNL     1      13.074   8.091  50.954  1.00  0.00     0.014 C 
ATOM      4  C   UNL     1      11.835   6.264  49.560  1.00  0.00     0.030 C 
ATOM      5  C   UNL     1      14.476   5.045  48.865  1.00  0.00     0.004 C 
ATOM      6  C   UNL     1      11.732   8.801  50.709  1.00  0.00     0.013 C 
ATOM      7  C   UNL     1      11.476   7.431  48.604  1.00  0.00    -0.063 C 
ATOM      8  C   UNL     1      11.958   4.812  48.974  1.00  0.00    -0.003 C 
ATOM      9  C   UNL     1      13.212   4.657  48.070  1.00  0.00    -0.011 C 
ATOM     10  C   UNL     1      11.374   8.856  49.184  1.00  0.00    -0.006 C 
ATOM     11  C   UNL     1      11.073   7.247  47.329  1.00  0.00    -0.027 C 
ATOM     12  C   UNL     1      10.642   4.262  48.371  1.00  0.00     0.008 C 
ATOM     13  C   UNL     1      13.372   3.221  47.543  1.00  0.00     0.008 C 
ATOM     14  C   UNL     1      12.463   9.760  48.516  1.00  0.00     0.017 C 
ATOM     15  C   UNL     1       9.891   9.414  48.906  1.00  0.00    -0.020 C 
ATOM     16  C   UNL     1      10.468   8.360  46.526  1.00  0.00     0.032 C 
ATOM     17  C   UNL     1       9.448   9.176  47.378  1.00  0.00     0.006 C 
ATOM     18  C   UNL     1       9.789  10.923  49.280  1.00  0.00     0.008 C 
ATOM     19  C   UNL     1       8.877   8.654  49.827  1.00  0.00     0.012 C 
ATOM     20  C   UNL     1       8.796  10.424  46.626  1.00  0.00    -0.025 C 
ATOM     21  C   UNL     1       8.434  11.577  48.945  1.00  0.00     0.005 C 
ATOM     22  C   UNL     1       7.769  11.074  47.627  1.00  0.00     0.003 C 
ATOM     23  C   UNL     1       8.021   9.888  45.375  1.00  0.00     0.010 C 
ATOM     24  C   UNL     1       9.864  11.461  46.141  1.00  0.00     0.012 C 
ATOM     25  C   UNL     1       6.715  12.079  47.009  1.00  0.00    -0.006 C 
ATOM     26  C   UNL     1       7.035  10.891  44.756  1.00  0.00     0.033 C 
ATOM     27  C   UNL     1       6.018  11.405  45.786  1.00  0.00     0.120 C 
ATOM     28  C   UNL     1       5.626  12.397  48.069  1.00  0.00     0.014 C 
ATOM     29  C   UNL     1       7.314  13.446  46.573  1.00  0.00     0.014 C 
ENDROOT
BRANCH   1  30
ATOM     30  C   UNL     1      13.221   5.701  51.621  1.00  0.00     0.048 C 
ATOM     31  O   UNL     1      14.346   5.380  52.089  1.00  0.00    -0.550 OA
ATOM     32  O   UNL     1      12.077   5.302  52.302  1.00  0.00    -0.550 OA
ENDBRANCH   1  30
BRANCH  27  33
ATOM     33  O   UNL     1       5.208  10.335  46.211  1.00  0.00    -0.393 OA
ATOM     34  H   UNL     1       4.449  10.274  45.574  1.00  0.00     0.210 HD
ENDBRANCH  27  33
TORSDOF 2
ENDMDL
MODEL 9
REMARK VINA RESULT:    -6.401      3.986      6.137
REMARK INTER + INTRA:          -7.009
REMARK INTER:                  -7.256
REMARK INTRA:                   0.247
REMARK UNBOUND:                -0.047
REMARK SMILES C[C@H]1[C@H](C)CC[C@@]2(C(=O)[O-])CC[C@@]3(C)C(=CC[C@@H]4[C@@]5(C)CC[C@@H](O)C(C)(C)[C@@H]5CC[C@@]43C)[C@@H]12
REMARK SMILES IDX 7 1 6 2 11 3 33 4 5 5 12 6 15 7 2 8 3 9 13 10 16 11 1 12
REMARK SMILES IDX 4 13 14 14 31 15 17 16 18 17 30 18 32 19 19 20 29 21 28 22
REMARK SMILES IDX 21 23 20 24 25 25 22 26 23 27 26 28 27 29 8 30 9 31 10 32
REMARK SMILES IDX 24 33
REMARK H PARENT 24 34
REMARK Flexibility Score: inf
ROOT
ATOM      1  C   UNL     1      13.516   4.689  48.339  1.00  0.00     0.017 C 
ATOM      2  C   UNL     1      13.956   4.598  49.834  1.00  0.00     0.014 C 
ATOM      3  C   UNL     1      12.038   4.175  48.200  1.00  0.00     0.014 C 
ATOM      4  C   UNL     1      13.672   6.185  47.875  1.00  0.00     0.030 C 
ATOM      5  C   UNL     1      15.382   5.114  50.082  1.00  0.00     0.004 C 
ATOM      6  C   UNL     1      11.108   5.167  47.481  1.00  0.00     0.013 C 
ATOM      7  C   UNL     1      12.505   7.046  48.423  1.00  0.00    -0.063 C 
ATOM      8  C   UNL     1      15.148   6.672  48.101  1.00  0.00    -0.003 C 
ATOM      9  C   UNL     1      15.570   6.565  49.592  1.00  0.00    -0.011 C 
ATOM     10  C   UNL     1      11.060   6.552  48.212  1.00  0.00    -0.006 C 
ATOM     11  C   UNL     1      12.673   8.290  48.919  1.00  0.00    -0.027 C 
ATOM     12  C   UNL     1      15.477   8.024  47.422  1.00  0.00     0.008 C 
ATOM     13  C   UNL     1      17.034   6.982  49.811  1.00  0.00     0.008 C 
ATOM     14  C   UNL     1      10.402   6.284  49.606  1.00  0.00     0.017 C 
ATOM     15  C   UNL     1      10.255   7.673  47.384  1.00  0.00    -0.020 C 
ATOM     16  C   UNL     1      11.506   9.198  49.177  1.00  0.00     0.032 C 
ATOM     17  C   UNL     1      10.479   9.139  48.004  1.00  0.00     0.006 C 
ATOM     18  C   UNL     1       8.737   7.328  47.320  1.00  0.00     0.008 C 
ATOM     19  C   UNL     1      10.774   7.688  45.906  1.00  0.00     0.012 C 
ATOM     20  C   UNL     1       9.170  10.028  48.217  1.00  0.00    -0.025 C 
ATOM     21  C   UNL     1       7.864   8.402  46.640  1.00  0.00     0.005 C 
ATOM     22  C   UNL     1       8.299   9.873  46.915  1.00  0.00     0.003 C 
ATOM     23  C   UNL     1       9.614  11.523  48.362  1.00  0.00     0.010 C 
ATOM     24  C   UNL     1       8.368   9.623  49.499  1.00  0.00     0.012 C 
ATOM     25  C   UNL     1       7.148  10.939  46.702  1.00  0.00    -0.006 C 
ATOM     26  C   UNL     1       8.478  12.544  48.199  1.00  0.00     0.033 C 
ATOM     27  C   UNL     1       7.740  12.374  46.862  1.00  0.00     0.120 C 
ATOM     28  C   UNL     1       6.588  10.808  45.259  1.00  0.00     0.014 C 
ATOM     29  C   UNL     1       5.935  10.771  47.658  1.00  0.00     0.014 C 
ENDROOT
BRANCH   1  30
ATOM     30  C   UNL     1      14.381   3.772  47.475  1.00  0.00     0.048 C 
ATOM     31  O   UNL     1      14.230   2.521  47.512  1.00  0.00    -0.550 OA
ATOM     32  O   UNL     1      15.267   4.309  46.548  1.00  0.00    -0.550 OA
ENDBRANCH   1  30
BRANCH  27  33
ATOM     33  O   UNL     1       8.625  12.661  45.805  1.00  0.00    -0.393 OA
ATOM     34  H   UNL     1       8.175  12.381  44.965  1.00  0.00     0.210 HD
ENDBRANCH  27  33
TORSDOF 2
ENDMDL
