MODEL 1
REMARK VINA RESULT:    -2.757      0.000      0.000
REMARK INTER + INTRA:          -9.874
REMARK INTER:                  -5.981
REMARK INTRA:                  -3.893
REMARK UNBOUND:                -3.893
REMARK SMILES CCCCCCCCCCCCCCCCCCCCCC(=O)[O-]
REMARK SMILES IDX 12 1 11 2 10 3 9 4 8 5 7 6 6 7 5 8 4 9 3 10 2 11 1 12 13 13
REMARK SMILES IDX 14 14 15 15 16 16 17 17 18 18 19 19 20 20 21 21 22 22 23 23
REMARK SMILES IDX 24 24
REMARK H PARENT
REMARK Flexibility Score: inf
ROOT
ATOM      1  C   UNL     1    -108.023 -47.298 -58.390  1.00  0.00     0.000 C 
ENDROOT
BRANCH   1   2
ATOM      2  C   UNL     1    -107.062 -47.720 -57.263  1.00  0.00     0.000 C 
BRANCH   2   3
ATOM      3  C   UNL     1    -107.375 -47.129 -55.874  1.00  0.00     0.000 C 
BRANCH   3   4
ATOM      4  C   UNL     1    -107.526 -48.185 -54.759  1.00  0.00    -0.000 C 
BRANCH   4   5
ATOM      5  C   UNL     1    -108.046 -49.534 -55.287  1.00  0.00    -0.000 C 
BRANCH   5   6
ATOM      6  C   UNL     1    -109.581 -49.621 -55.273  1.00  0.00    -0.000 C 
BRANCH   6   7
ATOM      7  C   UNL     1    -110.152 -50.178 -56.587  1.00  0.00    -0.000 C 
BRANCH   7   8
ATOM      8  C   UNL     1    -109.042 -50.776 -57.460  1.00  0.00    -0.000 C 
BRANCH   8   9
ATOM      9  C   UNL     1    -109.450 -50.783 -58.941  1.00  0.00    -0.000 C 
BRANCH   9  10
ATOM     10  C   UNL     1    -110.625 -49.838 -59.235  1.00  0.00    -0.000 C 
BRANCH  10  11
ATOM     11  C   UNL     1    -111.605 -50.417 -60.265  1.00  0.00    -0.003 C 
ATOM     12  C   UNL     1    -110.859 -51.062 -61.430  1.00  0.00     0.004 C 
ENDBRANCH  10  11
ENDBRANCH   9  10
ENDBRANCH   8   9
ENDBRANCH   7   8
ENDBRANCH   6   7
ENDBRANCH   5   6
ENDBRANCH   4   5
ENDBRANCH   3   4
ENDBRANCH   2   3
ENDBRANCH   1   2
BRANCH   1  13
ATOM     13  C   UNL     1    -109.359 -46.695 -57.915  1.00  0.00     0.000 C 
BRANCH  13  14
ATOM     14  C   UNL     1    -110.214 -46.151 -59.070  1.00  0.00     0.000 C 
BRANCH  14  15
ATOM     15  C   UNL     1    -109.431 -46.170 -60.389  1.00  0.00     0.000 C 
BRANCH  15  16
ATOM     16  C   UNL     1    -110.157 -47.005 -61.449  1.00  0.00     0.000 C 
BRANCH  16  17
ATOM     17  C   UNL     1    -109.156 -47.660 -62.414  1.00  0.00     0.000 C 
BRANCH  17  18
ATOM     18  C   UNL     1    -108.043 -48.421 -61.677  1.00  0.00     0.000 C 
BRANCH  18  19
ATOM     19  C   UNL     1    -107.650 -49.725 -62.396  1.00  0.00     0.000 C 
BRANCH  19  20
ATOM     20  C   UNL     1    -107.756 -49.610 -63.925  1.00  0.00     0.006 C 
BRANCH  20  21
ATOM     21  C   UNL     1    -107.949 -50.973 -64.604  1.00  0.00     0.053 C 
BRANCH  21  22
ATOM     22  C   UNL     1    -109.381 -51.166 -64.991  1.00  0.00     0.041 C 
ATOM     23  O   UNL     1    -109.764 -52.264 -65.475  1.00  0.00    -0.550 OA
ATOM     24  O   UNL     1    -110.288 -50.121 -64.845  1.00  0.00    -0.550 OA
ENDBRANCH  21  22
ENDBRANCH  20  21
ENDBRANCH  19  20
ENDBRANCH  18  19
ENDBRANCH  17  18
ENDBRANCH  16  17
ENDBRANCH  15  16
ENDBRANCH  14  15
ENDBRANCH  13  14
ENDBRANCH   1  13
TORSDOF 20
ENDMDL
MODEL 2
REMARK VINA RESULT:    -2.714      1.429      2.213
REMARK INTER + INTRA:          -9.780
REMARK INTER:                  -5.966
REMARK INTRA:                  -3.814
REMARK UNBOUND:                -3.893
REMARK SMILES CCCCCCCCCCCCCCCCCCCCCC(=O)[O-]
REMARK SMILES IDX 12 1 11 2 10 3 9 4 8 5 7 6 6 7 5 8 4 9 3 10 2 11 1 12 13 13
REMARK SMILES IDX 14 14 15 15 16 16 17 17 18 18 19 19 20 20 21 21 22 22 23 23
REMARK SMILES IDX 24 24
REMARK H PARENT
REMARK Flexibility Score: inf
ROOT
ATOM      1  C   UNL     1    -108.342 -47.531 -58.150  1.00  0.00     0.000 C 
ENDROOT
BRANCH   1   2
ATOM      2  C   UNL     1    -107.139 -47.733 -57.211  1.00  0.00     0.000 C 
BRANCH   2   3
ATOM      3  C   UNL     1    -107.334 -47.221 -55.771  1.00  0.00     0.000 C 
BRANCH   3   4
ATOM      4  C   UNL     1    -107.471 -48.340 -54.717  1.00  0.00    -0.000 C 
BRANCH   4   5
ATOM      5  C   UNL     1    -108.908 -48.877 -54.606  1.00  0.00    -0.000 C 
BRANCH   5   6
ATOM      6  C   UNL     1    -109.009 -50.372 -54.950  1.00  0.00    -0.000 C 
BRANCH   6   7
ATOM      7  C   UNL     1    -107.663 -50.966 -55.399  1.00  0.00    -0.000 C 
BRANCH   7   8
ATOM      8  C   UNL     1    -107.737 -51.463 -56.848  1.00  0.00    -0.000 C 
BRANCH   8   9
ATOM      9  C   UNL     1    -109.190 -51.486 -57.348  1.00  0.00    -0.000 C 
BRANCH   9  10
ATOM     10  C   UNL     1    -109.341 -50.889 -58.755  1.00  0.00    -0.000 C 
BRANCH  10  11
ATOM     11  C   UNL     1    -110.764 -50.385 -59.034  1.00  0.00    -0.003 C 
ATOM     12  C   UNL     1    -111.467 -49.985 -57.740  1.00  0.00     0.004 C 
ENDBRANCH  10  11
ENDBRANCH   9  10
ENDBRANCH   8   9
ENDBRANCH   7   8
ENDBRANCH   6   7
ENDBRANCH   5   6
ENDBRANCH   4   5
ENDBRANCH   3   4
ENDBRANCH   2   3
ENDBRANCH   1   2
BRANCH   1  13
ATOM     13  C   UNL     1    -109.557 -46.831 -57.512  1.00  0.00     0.000 C 
BRANCH  13  14
ATOM     14  C   UNL     1    -110.554 -46.297 -58.552  1.00  0.00     0.000 C 
BRANCH  14  15
ATOM     15  C   UNL     1    -110.139 -44.906 -59.046  1.00  0.00     0.000 C 
BRANCH  15  16
ATOM     16  C   UNL     1    -110.428 -44.744 -60.543  1.00  0.00     0.000 C 
BRANCH  16  17
ATOM     17  C   UNL     1    -109.382 -45.488 -61.389  1.00  0.00     0.000 C 
BRANCH  17  18
ATOM     18  C   UNL     1    -110.003 -46.610 -62.237  1.00  0.00     0.000 C 
BRANCH  18  19
ATOM     19  C   UNL     1    -109.705 -48.008 -61.667  1.00  0.00     0.000 C 
BRANCH  19  20
ATOM     20  C   UNL     1    -108.224 -48.396 -61.801  1.00  0.00     0.006 C 
BRANCH  20  21
ATOM     21  C   UNL     1    -108.035 -49.866 -62.200  1.00  0.00     0.053 C 
BRANCH  21  22
ATOM     22  C   UNL     1    -107.532 -49.964 -63.605  1.00  0.00     0.041 C 
ATOM     23  O   UNL     1    -107.915 -49.139 -64.476  1.00  0.00    -0.550 OA
ATOM     24  O   UNL     1    -106.661 -50.989 -63.963  1.00  0.00    -0.550 OA
ENDBRANCH  21  22
ENDBRANCH  20  21
ENDBRANCH  19  20
ENDBRANCH  18  19
ENDBRANCH  17  18
ENDBRANCH  16  17
ENDBRANCH  15  16
ENDBRANCH  14  15
ENDBRANCH  13  14
ENDBRANCH   1  13
TORSDOF 20
ENDMDL
MODEL 3
REMARK VINA RESULT:    -2.689     12.142     15.984
REMARK INTER + INTRA:          -9.726
REMARK INTER:                  -6.458
REMARK INTRA:                  -3.267
REMARK UNBOUND:                -3.893
REMARK SMILES CCCCCCCCCCCCCCCCCCCCCC(=O)[O-]
REMARK SMILES IDX 12 1 11 2 10 3 9 4 8 5 7 6 6 7 5 8 4 9 3 10 2 11 1 12 13 13
REMARK SMILES IDX 14 14 15 15 16 16 17 17 18 18 19 19 20 20 21 21 22 22 23 23
REMARK SMILES IDX 24 24
REMARK H PARENT
REMARK Flexibility Score: inf
ROOT
ATOM      1  C   UNL     1     -98.430 -48.009 -72.040  1.00  0.00     0.000 C 
ENDROOT
BRANCH   1   2
ATOM      2  C   UNL     1     -97.144 -47.770 -72.852  1.00  0.00     0.000 C 
BRANCH   2   3
ATOM      3  C   UNL     1     -96.498 -46.383 -72.670  1.00  0.00     0.000 C 
BRANCH   3   4
ATOM      4  C   UNL     1     -94.984 -46.425 -72.373  1.00  0.00    -0.000 C 
BRANCH   4   5
ATOM      5  C   UNL     1     -94.540 -47.760 -71.751  1.00  0.00    -0.000 C 
BRANCH   5   6
ATOM      6  C   UNL     1     -94.052 -47.604 -70.301  1.00  0.00    -0.000 C 
BRANCH   6   7
ATOM      7  C   UNL     1     -93.647 -46.159 -69.968  1.00  0.00    -0.000 C 
BRANCH   7   8
ATOM      8  C   UNL     1     -94.513 -45.592 -68.837  1.00  0.00    -0.000 C 
BRANCH   8   9
ATOM      9  C   UNL     1     -95.310 -44.368 -69.317  1.00  0.00    -0.000 C 
BRANCH   9  10
ATOM     10  C   UNL     1     -96.825 -44.622 -69.345  1.00  0.00    -0.000 C 
BRANCH  10  11
ATOM     11  C   UNL     1     -97.184 -46.087 -69.057  1.00  0.00    -0.003 C 
ATOM     12  C   UNL     1     -98.251 -46.187 -67.971  1.00  0.00     0.004 C 
ENDBRANCH  10  11
ENDBRANCH   9  10
ENDBRANCH   8   9
ENDBRANCH   7   8
ENDBRANCH   6   7
ENDBRANCH   5   6
ENDBRANCH   4   5
ENDBRANCH   3   4
ENDBRANCH   2   3
ENDBRANCH   1   2
BRANCH   1  13
ATOM     13  C   UNL     1     -99.741 -47.825 -72.828  1.00  0.00     0.000 C 
BRANCH  13  14
ATOM     14  C   UNL     1    -100.433 -46.485 -72.535  1.00  0.00     0.000 C 
BRANCH  14  15
ATOM     15  C   UNL     1    -100.500 -46.220 -71.027  1.00  0.00     0.000 C 
BRANCH  15  16
ATOM     16  C   UNL     1    -100.343 -44.726 -70.722  1.00  0.00     0.000 C 
BRANCH  16  17
ATOM     17  C   UNL     1    -101.540 -44.200 -69.915  1.00  0.00     0.000 C 
BRANCH  17  18
ATOM     18  C   UNL     1    -102.887 -44.664 -70.493  1.00  0.00     0.000 C 
BRANCH  18  19
ATOM     19  C   UNL     1    -103.868 -45.119 -69.398  1.00  0.00     0.000 C 
BRANCH  19  20
ATOM     20  C   UNL     1    -104.663 -46.371 -69.802  1.00  0.00     0.006 C 
BRANCH  20  21
ATOM     21  C   UNL     1    -103.766 -47.600 -69.997  1.00  0.00     0.053 C 
BRANCH  21  22
ATOM     22  C   UNL     1    -103.978 -48.192 -71.354  1.00  0.00     0.041 C 
ATOM     23  O   UNL     1    -103.828 -47.485 -72.386  1.00  0.00    -0.550 OA
ATOM     24  O   UNL     1    -104.375 -49.520 -71.480  1.00  0.00    -0.550 OA
ENDBRANCH  21  22
ENDBRANCH  20  21
ENDBRANCH  19  20
ENDBRANCH  18  19
ENDBRANCH  17  18
ENDBRANCH  16  17
ENDBRANCH  15  16
ENDBRANCH  14  15
ENDBRANCH  13  14
ENDBRANCH   1  13
TORSDOF 20
ENDMDL
MODEL 4
REMARK VINA RESULT:    -2.681      1.599      2.403
REMARK INTER + INTRA:          -9.708
REMARK INTER:                  -5.977
REMARK INTRA:                  -3.731
REMARK UNBOUND:                -3.893
REMARK SMILES CCCCCCCCCCCCCCCCCCCCCC(=O)[O-]
REMARK SMILES IDX 12 1 11 2 10 3 9 4 8 5 7 6 6 7 5 8 4 9 3 10 2 11 1 12 13 13
REMARK SMILES IDX 14 14 15 15 16 16 17 17 18 18 19 19 20 20 21 21 22 22 23 23
REMARK SMILES IDX 24 24
REMARK H PARENT
REMARK Flexibility Score: inf
ROOT
ATOM      1  C   UNL     1    -110.073 -46.510 -55.395  1.00  0.00     0.000 C 
ENDROOT
BRANCH   1   2
ATOM      2  C   UNL     1    -108.655 -45.908 -55.389  1.00  0.00     0.000 C 
BRANCH   2   3
ATOM      3  C   UNL     1    -107.507 -46.927 -55.256  1.00  0.00     0.000 C 
BRANCH   3   4
ATOM      4  C   UNL     1    -107.084 -47.578 -56.590  1.00  0.00    -0.000 C 
BRANCH   4   5
ATOM      5  C   UNL     1    -107.659 -48.994 -56.767  1.00  0.00    -0.000 C 
BRANCH   5   6
ATOM      6  C   UNL     1    -107.825 -49.737 -55.431  1.00  0.00    -0.000 C 
BRANCH   6   7
ATOM      7  C   UNL     1    -109.006 -50.720 -55.445  1.00  0.00    -0.000 C 
BRANCH   7   8
ATOM      8  C   UNL     1    -110.250 -50.077 -56.069  1.00  0.00    -0.000 C 
BRANCH   8   9
ATOM      9  C   UNL     1    -111.030 -51.095 -56.916  1.00  0.00    -0.000 C 
BRANCH   9  10
ATOM     10  C   UNL     1    -110.160 -52.278 -57.368  1.00  0.00    -0.000 C 
BRANCH  10  11
ATOM     11  C   UNL     1    -109.934 -52.298 -58.887  1.00  0.00    -0.003 C 
ATOM     12  C   UNL     1    -108.449 -52.417 -59.218  1.00  0.00     0.004 C 
ENDBRANCH  10  11
ENDBRANCH   9  10
ENDBRANCH   8   9
ENDBRANCH   7   8
ENDBRANCH   6   7
ENDBRANCH   5   6
ENDBRANCH   4   5
ENDBRANCH   3   4
ENDBRANCH   2   3
ENDBRANCH   1   2
BRANCH   1  13
ATOM     13  C   UNL     1    -110.816 -46.415 -56.741  1.00  0.00     0.000 C 
BRANCH  13  14
ATOM     14  C   UNL     1    -110.071 -45.560 -57.777  1.00  0.00     0.000 C 
BRANCH  14  15
ATOM     15  C   UNL     1    -109.665 -46.402 -58.993  1.00  0.00     0.000 C 
BRANCH  15  16
ATOM     16  C   UNL     1    -110.409 -47.742 -59.008  1.00  0.00     0.000 C 
BRANCH  16  17
ATOM     17  C   UNL     1    -109.582 -48.823 -59.723  1.00  0.00     0.000 C 
BRANCH  17  18
ATOM     18  C   UNL     1    -108.431 -48.229 -60.551  1.00  0.00     0.000 C 
BRANCH  18  19
ATOM     19  C   UNL     1    -108.732 -48.232 -62.060  1.00  0.00     0.000 C 
BRANCH  19  20
ATOM     20  C   UNL     1    -107.747 -49.103 -62.856  1.00  0.00     0.006 C 
BRANCH  20  21
ATOM     21  C   UNL     1    -107.944 -50.602 -62.593  1.00  0.00     0.053 C 
BRANCH  21  22
ATOM     22  C   UNL     1    -107.477 -51.403 -63.767  1.00  0.00     0.041 C 
ATOM     23  O   UNL     1    -108.287 -52.130 -64.401  1.00  0.00    -0.550 OA
ATOM     24  O   UNL     1    -106.137 -51.373 -64.142  1.00  0.00    -0.550 OA
ENDBRANCH  21  22
ENDBRANCH  20  21
ENDBRANCH  19  20
ENDBRANCH  18  19
ENDBRANCH  17  18
ENDBRANCH  16  17
ENDBRANCH  15  16
ENDBRANCH  14  15
ENDBRANCH  13  14
ENDBRANCH   1  13
TORSDOF 20
ENDMDL
MODEL 5
REMARK VINA RESULT:    -2.653      1.802      2.986
REMARK INTER + INTRA:          -9.647
REMARK INTER:                  -5.711
REMARK INTRA:                  -3.936
REMARK UNBOUND:                -3.893
REMARK SMILES CCCCCCCCCCCCCCCCCCCCCC(=O)[O-]
REMARK SMILES IDX 12 1 11 2 10 3 9 4 8 5 7 6 6 7 5 8 4 9 3 10 2 11 1 12 13 13
REMARK SMILES IDX 14 14 15 15 16 16 17 17 18 18 19 19 20 20 21 21 22 22 23 23
REMARK SMILES IDX 24 24
REMARK H PARENT
REMARK Flexibility Score: inf
ROOT
ATOM      1  C   UNL     1    -107.433 -47.885 -56.068  1.00  0.00     0.000 C 
ENDROOT
BRANCH   1   2
ATOM      2  C   UNL     1    -107.546 -46.611 -55.211  1.00  0.00     0.000 C 
BRANCH   2   3
ATOM      3  C   UNL     1    -108.981 -46.194 -54.834  1.00  0.00     0.000 C 
BRANCH   3   4
ATOM      4  C   UNL     1    -109.737 -45.451 -55.956  1.00  0.00    -0.000 C 
BRANCH   4   5
ATOM      5  C   UNL     1    -111.017 -46.185 -56.394  1.00  0.00    -0.000 C 
BRANCH   5   6
ATOM      6  C   UNL     1    -111.068 -47.637 -55.890  1.00  0.00    -0.000 C 
BRANCH   6   7
ATOM      7  C   UNL     1    -111.991 -48.525 -56.740  1.00  0.00    -0.000 C 
BRANCH   7   8
ATOM      8  C   UNL     1    -111.760 -50.010 -56.436  1.00  0.00    -0.000 C 
BRANCH   8   9
ATOM      9  C   UNL     1    -110.263 -50.354 -56.483  1.00  0.00    -0.000 C 
BRANCH   9  10
ATOM     10  C   UNL     1    -109.934 -51.419 -57.541  1.00  0.00    -0.000 C 
BRANCH  10  11
ATOM     11  C   UNL     1    -108.431 -51.715 -57.633  1.00  0.00    -0.003 C 
ATOM     12  C   UNL     1    -107.757 -51.561 -56.272  1.00  0.00     0.004 C 
ENDBRANCH  10  11
ENDBRANCH   9  10
ENDBRANCH   8   9
ENDBRANCH   7   8
ENDBRANCH   6   7
ENDBRANCH   5   6
ENDBRANCH   4   5
ENDBRANCH   3   4
ENDBRANCH   2   3
ENDBRANCH   1   2
BRANCH   1  13
ATOM     13  C   UNL     1    -107.185 -47.642 -57.569  1.00  0.00     0.000 C 
BRANCH  13  14
ATOM     14  C   UNL     1    -108.364 -48.084 -58.450  1.00  0.00     0.000 C 
BRANCH  14  15
ATOM     15  C   UNL     1    -108.875 -46.920 -59.307  1.00  0.00     0.000 C 
BRANCH  15  16
ATOM     16  C   UNL     1    -110.230 -47.255 -59.939  1.00  0.00     0.000 C 
BRANCH  16  17
ATOM     17  C   UNL     1    -110.442 -48.775 -60.014  1.00  0.00     0.000 C 
BRANCH  17  18
ATOM     18  C   UNL     1    -110.197 -49.333 -61.425  1.00  0.00     0.000 C 
BRANCH  18  19
ATOM     19  C   UNL     1    -108.878 -50.121 -61.523  1.00  0.00     0.000 C 
BRANCH  19  20
ATOM     20  C   UNL     1    -107.789 -49.354 -62.290  1.00  0.00     0.006 C 
BRANCH  20  21
ATOM     21  C   UNL     1    -108.103 -49.226 -63.787  1.00  0.00     0.053 C 
BRANCH  21  22
ATOM     22  C   UNL     1    -107.177 -50.083 -64.590  1.00  0.00     0.041 C 
ATOM     23  O   UNL     1    -106.576 -51.049 -64.048  1.00  0.00    -0.550 OA
ATOM     24  O   UNL     1    -106.952 -49.797 -65.933  1.00  0.00    -0.550 OA
ENDBRANCH  21  22
ENDBRANCH  20  21
ENDBRANCH  19  20
ENDBRANCH  18  19
ENDBRANCH  17  18
ENDBRANCH  16  17
ENDBRANCH  15  16
ENDBRANCH  14  15
ENDBRANCH  13  14
ENDBRANCH   1  13
TORSDOF 20
ENDMDL
MODEL 6
REMARK VINA RESULT:    -2.648     12.762     16.234
REMARK INTER + INTRA:          -9.637
REMARK INTER:                  -6.537
REMARK INTRA:                  -3.100
REMARK UNBOUND:                -3.893
REMARK SMILES CCCCCCCCCCCCCCCCCCCCCC(=O)[O-]
REMARK SMILES IDX 12 1 11 2 10 3 9 4 8 5 7 6 6 7 5 8 4 9 3 10 2 11 1 12 13 13
REMARK SMILES IDX 14 14 15 15 16 16 17 17 18 18 19 19 20 20 21 21 22 22 23 23
REMARK SMILES IDX 24 24
REMARK H PARENT
REMARK Flexibility Score: inf
ROOT
ATOM      1  C   UNL     1     -97.743 -46.502 -69.617  1.00  0.00     0.000 C 
ENDROOT
BRANCH   1   2
ATOM      2  C   UNL     1     -98.195 -45.174 -68.982  1.00  0.00     0.000 C 
BRANCH   2   3
ATOM      3  C   UNL     1     -99.072 -44.279 -69.879  1.00  0.00     0.000 C 
BRANCH   3   4
ATOM      4  C   UNL     1    -100.497 -44.044 -69.337  1.00  0.00    -0.000 C 
BRANCH   4   5
ATOM      5  C   UNL     1    -101.588 -44.422 -70.354  1.00  0.00    -0.000 C 
BRANCH   5   6
ATOM      6  C   UNL     1    -101.030 -44.617 -71.774  1.00  0.00    -0.000 C 
BRANCH   6   7
ATOM      7  C   UNL     1    -101.754 -45.733 -72.545  1.00  0.00    -0.000 C 
BRANCH   7   8
ATOM      8  C   UNL     1    -102.025 -46.940 -71.640  1.00  0.00    -0.000 C 
BRANCH   8   9
ATOM      9  C   UNL     1    -103.077 -47.870 -72.263  1.00  0.00    -0.000 C 
BRANCH   9  10
ATOM     10  C   UNL     1    -104.115 -48.358 -71.241  1.00  0.00    -0.000 C 
BRANCH  10  11
ATOM     11  C   UNL     1    -103.918 -47.732 -69.853  1.00  0.00    -0.003 C 
ATOM     12  C   UNL     1    -104.882 -46.568 -69.635  1.00  0.00     0.004 C 
ENDBRANCH  10  11
ENDBRANCH   9  10
ENDBRANCH   8   9
ENDBRANCH   7   8
ENDBRANCH   6   7
ENDBRANCH   5   6
ENDBRANCH   4   5
ENDBRANCH   3   4
ENDBRANCH   2   3
ENDBRANCH   1   2
BRANCH   1  13
ATOM     13  C   UNL     1     -98.835 -47.255 -70.399  1.00  0.00     0.000 C 
BRANCH  13  14
ATOM     14  C   UNL     1     -98.390 -47.654 -71.815  1.00  0.00     0.000 C 
BRANCH  14  15
ATOM     15  C   UNL     1     -97.799 -46.454 -72.563  1.00  0.00     0.000 C 
BRANCH  15  16
ATOM     16  C   UNL     1     -96.394 -46.770 -73.089  1.00  0.00     0.000 C 
BRANCH  16  17
ATOM     17  C   UNL     1     -95.966 -48.192 -72.693  1.00  0.00     0.000 C 
BRANCH  17  18
ATOM     18  C   UNL     1     -94.656 -48.208 -71.888  1.00  0.00     0.000 C 
BRANCH  18  19
ATOM     19  C   UNL     1     -93.886 -46.880 -71.993  1.00  0.00     0.000 C 
BRANCH  19  20
ATOM     20  C   UNL     1     -93.309 -46.424 -70.644  1.00  0.00     0.006 C 
BRANCH  20  21
ATOM     21  C   UNL     1     -93.997 -47.102 -69.451  1.00  0.00     0.053 C 
BRANCH  21  22
ATOM     22  C   UNL     1     -94.479 -46.076 -68.475  1.00  0.00     0.041 C 
ATOM     23  O   UNL     1     -94.620 -44.877 -68.832  1.00  0.00    -0.550 OA
ATOM     24  O   UNL     1     -94.744 -46.440 -67.158  1.00  0.00    -0.550 OA
ENDBRANCH  21  22
ENDBRANCH  20  21
ENDBRANCH  19  20
ENDBRANCH  18  19
ENDBRANCH  17  18
ENDBRANCH  16  17
ENDBRANCH  15  16
ENDBRANCH  14  15
ENDBRANCH  13  14
ENDBRANCH   1  13
TORSDOF 20
ENDMDL
MODEL 7
REMARK VINA RESULT:    -2.630      1.595      3.398
REMARK INTER + INTRA:          -9.597
REMARK INTER:                  -5.232
REMARK INTRA:                  -4.365
REMARK UNBOUND:                -3.893
REMARK SMILES CCCCCCCCCCCCCCCCCCCCCC(=O)[O-]
REMARK SMILES IDX 12 1 11 2 10 3 9 4 8 5 7 6 6 7 5 8 4 9 3 10 2 11 1 12 13 13
REMARK SMILES IDX 14 14 15 15 16 16 17 17 18 18 19 19 20 20 21 21 22 22 23 23
REMARK SMILES IDX 24 24
REMARK H PARENT
REMARK Flexibility Score: inf
ROOT
ATOM      1  C   UNL     1    -108.145 -48.895 -57.343  1.00  0.00     0.000 C 
ENDROOT
BRANCH   1   2
ATOM      2  C   UNL     1    -108.035 -50.049 -56.329  1.00  0.00     0.000 C 
BRANCH   2   3
ATOM      3  C   UNL     1    -109.115 -50.066 -55.231  1.00  0.00     0.000 C 
BRANCH   3   4
ATOM      4  C   UNL     1    -110.429 -50.759 -55.648  1.00  0.00    -0.000 C 
BRANCH   4   5
ATOM      5  C   UNL     1    -111.582 -49.762 -55.864  1.00  0.00    -0.000 C 
BRANCH   5   6
ATOM      6  C   UNL     1    -111.884 -49.522 -57.352  1.00  0.00    -0.000 C 
BRANCH   6   7
ATOM      7  C   UNL     1    -111.416 -50.683 -58.245  1.00  0.00    -0.000 C 
BRANCH   7   8
ATOM      8  C   UNL     1    -110.658 -50.162 -59.472  1.00  0.00    -0.000 C 
BRANCH   8   9
ATOM      9  C   UNL     1    -109.663 -51.212 -59.989  1.00  0.00    -0.000 C 
BRANCH   9  10
ATOM     10  C   UNL     1    -109.745 -52.537 -59.216  1.00  0.00    -0.000 C 
BRANCH  10  11
ATOM     11  C   UNL     1    -108.455 -52.852 -58.445  1.00  0.00    -0.003 C 
ATOM     12  C   UNL     1    -108.754 -53.648 -57.178  1.00  0.00     0.004 C 
ENDBRANCH  10  11
ENDBRANCH   9  10
ENDBRANCH   8   9
ENDBRANCH   7   8
ENDBRANCH   6   7
ENDBRANCH   5   6
ENDBRANCH   4   5
ENDBRANCH   3   4
ENDBRANCH   2   3
ENDBRANCH   1   2
BRANCH   1  13
ATOM     13  C   UNL     1    -107.393 -47.609 -56.953  1.00  0.00     0.000 C 
BRANCH  13  14
ATOM     14  C   UNL     1    -108.271 -46.612 -56.182  1.00  0.00     0.000 C 
BRANCH  14  15
ATOM     15  C   UNL     1    -109.708 -46.618 -56.717  1.00  0.00     0.000 C 
BRANCH  15  16
ATOM     16  C   UNL     1    -109.824 -45.774 -57.992  1.00  0.00     0.000 C 
BRANCH  16  17
ATOM     17  C   UNL     1    -110.871 -46.365 -58.950  1.00  0.00     0.000 C 
BRANCH  17  18
ATOM     18  C   UNL     1    -110.283 -46.693 -60.331  1.00  0.00     0.000 C 
BRANCH  18  19
ATOM     19  C   UNL     1    -108.744 -46.735 -60.319  1.00  0.00     0.000 C 
BRANCH  19  20
ATOM     20  C   UNL     1    -108.183 -47.969 -61.044  1.00  0.00     0.006 C 
BRANCH  20  21
ATOM     21  C   UNL     1    -108.892 -48.241 -62.377  1.00  0.00     0.053 C 
BRANCH  21  22
ATOM     22  C   UNL     1    -108.102 -49.207 -63.202  1.00  0.00     0.041 C 
ATOM     23  O   UNL     1    -108.198 -49.195 -64.458  1.00  0.00    -0.550 OA
ATOM     24  O   UNL     1    -107.282 -50.144 -62.580  1.00  0.00    -0.550 OA
ENDBRANCH  21  22
ENDBRANCH  20  21
ENDBRANCH  19  20
ENDBRANCH  18  19
ENDBRANCH  17  18
ENDBRANCH  16  17
ENDBRANCH  15  16
ENDBRANCH  14  15
ENDBRANCH  13  14
ENDBRANCH   1  13
TORSDOF 20
ENDMDL
MODEL 8
REMARK VINA RESULT:    -2.621     12.166     16.091
REMARK INTER + INTRA:          -9.578
REMARK INTER:                  -6.496
REMARK INTRA:                  -3.082
REMARK UNBOUND:                -3.893
REMARK SMILES CCCCCCCCCCCCCCCCCCCCCC(=O)[O-]
REMARK SMILES IDX 12 1 11 2 10 3 9 4 8 5 7 6 6 7 5 8 4 9 3 10 2 11 1 12 13 13
REMARK SMILES IDX 14 14 15 15 16 16 17 17 18 18 19 19 20 20 21 21 22 22 23 23
REMARK SMILES IDX 24 24
REMARK H PARENT
REMARK Flexibility Score: inf
ROOT
ATOM      1  C   UNL     1     -98.655 -48.001 -71.965  1.00  0.00     0.000 C 
ENDROOT
BRANCH   1   2
ATOM      2  C   UNL     1     -97.624 -47.573 -73.027  1.00  0.00     0.000 C 
BRANCH   2   3
ATOM      3  C   UNL     1     -96.968 -46.198 -72.792  1.00  0.00     0.000 C 
BRANCH   3   4
ATOM      4  C   UNL     1     -95.427 -46.236 -72.732  1.00  0.00    -0.000 C 
BRANCH   4   5
ATOM      5  C   UNL     1     -94.873 -47.668 -72.635  1.00  0.00    -0.000 C 
BRANCH   5   6
ATOM      6  C   UNL     1     -94.236 -47.964 -71.267  1.00  0.00    -0.000 C 
BRANCH   6   7
ATOM      7  C   UNL     1     -93.944 -46.686 -70.464  1.00  0.00    -0.000 C 
BRANCH   7   8
ATOM      8  C   UNL     1     -94.098 -46.936 -68.959  1.00  0.00    -0.000 C 
BRANCH   8   9
ATOM      9  C   UNL     1     -95.037 -45.900 -68.323  1.00  0.00    -0.000 C 
BRANCH   9  10
ATOM     10  C   UNL     1     -95.622 -44.920 -69.353  1.00  0.00    -0.000 C 
BRANCH  10  11
ATOM     11  C   UNL     1     -97.157 -44.904 -69.347  1.00  0.00    -0.003 C 
ATOM     12  C   UNL     1     -97.718 -46.225 -68.830  1.00  0.00     0.004 C 
ENDBRANCH  10  11
ENDBRANCH   9  10
ENDBRANCH   8   9
ENDBRANCH   7   8
ENDBRANCH   6   7
ENDBRANCH   5   6
ENDBRANCH   4   5
ENDBRANCH   3   4
ENDBRANCH   2   3
ENDBRANCH   1   2
BRANCH   1  13
ATOM     13  C   UNL     1    -100.096 -47.524 -72.227  1.00  0.00     0.000 C 
BRANCH  13  14
ATOM     14  C   UNL     1    -100.660 -46.669 -71.082  1.00  0.00     0.000 C 
BRANCH  14  15
ATOM     15  C   UNL     1    -101.492 -45.501 -71.627  1.00  0.00     0.000 C 
BRANCH  15  16
ATOM     16  C   UNL     1    -101.543 -45.530 -73.159  1.00  0.00     0.000 C 
BRANCH  16  17
ATOM     17  C   UNL     1    -102.988 -45.396 -73.664  1.00  0.00     0.000 C 
BRANCH  17  18
ATOM     18  C   UNL     1    -104.003 -46.068 -72.725  1.00  0.00     0.000 C 
BRANCH  18  19
ATOM     19  C   UNL     1    -104.314 -47.517 -73.138  1.00  0.00     0.000 C 
BRANCH  19  20
ATOM     20  C   UNL     1    -103.773 -48.547 -72.133  1.00  0.00     0.006 C 
BRANCH  20  21
ATOM     21  C   UNL     1    -104.860 -49.074 -71.188  1.00  0.00     0.053 C 
BRANCH  21  22
ATOM     22  C   UNL     1    -104.694 -48.487 -69.822  1.00  0.00     0.041 C 
ATOM     23  O   UNL     1    -103.726 -47.719 -69.575  1.00  0.00    -0.550 OA
ATOM     24  O   UNL     1    -105.592 -48.813 -68.810  1.00  0.00    -0.550 OA
ENDBRANCH  21  22
ENDBRANCH  20  21
ENDBRANCH  19  20
ENDBRANCH  18  19
ENDBRANCH  17  18
ENDBRANCH  16  17
ENDBRANCH  15  16
ENDBRANCH  14  15
ENDBRANCH  13  14
ENDBRANCH   1  13
TORSDOF 20
ENDMDL
MODEL 9
REMARK VINA RESULT:    -2.619      1.328      2.196
REMARK INTER + INTRA:          -9.573
REMARK INTER:                  -5.825
REMARK INTRA:                  -3.748
REMARK UNBOUND:                -3.893
REMARK SMILES CCCCCCCCCCCCCCCCCCCCCC(=O)[O-]
REMARK SMILES IDX 12 1 11 2 10 3 9 4 8 5 7 6 6 7 5 8 4 9 3 10 2 11 1 12 13 13
REMARK SMILES IDX 14 14 15 15 16 16 17 17 18 18 19 19 20 20 21 21 22 22 23 23
REMARK SMILES IDX 24 24
REMARK H PARENT
REMARK Flexibility Score: inf
ROOT
ATOM      1  C   UNL     1    -108.192 -47.581 -57.806  1.00  0.00     0.000 C 
ENDROOT
BRANCH   1   2
ATOM      2  C   UNL     1    -107.135 -48.233 -56.895  1.00  0.00     0.000 C 
BRANCH   2   3
ATOM      3  C   UNL     1    -107.526 -49.604 -56.310  1.00  0.00     0.000 C 
BRANCH   3   4
ATOM      4  C   UNL     1    -108.218 -49.528 -54.933  1.00  0.00    -0.000 C 
BRANCH   4   5
ATOM      5  C   UNL     1    -109.752 -49.592 -55.037  1.00  0.00    -0.000 C 
BRANCH   5   6
ATOM      6  C   UNL     1    -110.232 -50.630 -56.064  1.00  0.00    -0.000 C 
BRANCH   6   7
ATOM      7  C   UNL     1    -111.160 -50.022 -57.129  1.00  0.00    -0.000 C 
BRANCH   7   8
ATOM      8  C   UNL     1    -111.088 -50.815 -58.439  1.00  0.00    -0.000 C 
BRANCH   8   9
ATOM      9  C   UNL     1    -109.706 -50.671 -59.094  1.00  0.00    -0.000 C 
BRANCH   9  10
ATOM     10  C   UNL     1    -109.102 -52.023 -59.504  1.00  0.00    -0.000 C 
BRANCH  10  11
ATOM     11  C   UNL     1    -108.258 -52.655 -58.388  1.00  0.00    -0.003 C 
ATOM     12  C   UNL     1    -109.004 -53.808 -57.722  1.00  0.00     0.004 C 
ENDBRANCH  10  11
ENDBRANCH   9  10
ENDBRANCH   8   9
ENDBRANCH   7   8
ENDBRANCH   6   7
ENDBRANCH   5   6
ENDBRANCH   4   5
ENDBRANCH   3   4
ENDBRANCH   2   3
ENDBRANCH   1   2
BRANCH   1  13
ATOM     13  C   UNL     1    -109.076 -46.521 -57.123  1.00  0.00     0.000 C 
BRANCH  13  14
ATOM     14  C   UNL     1    -110.528 -46.539 -57.625  1.00  0.00     0.000 C 
BRANCH  14  15
ATOM     15  C   UNL     1    -110.590 -46.913 -59.111  1.00  0.00     0.000 C 
BRANCH  15  16
ATOM     16  C   UNL     1    -110.244 -45.710 -59.996  1.00  0.00     0.000 C 
BRANCH  16  17
ATOM     17  C   UNL     1    -109.355 -46.134 -61.176  1.00  0.00     0.000 C 
BRANCH  17  18
ATOM     18  C   UNL     1    -109.455 -47.638 -61.476  1.00  0.00     0.000 C 
BRANCH  18  19
ATOM     19  C   UNL     1    -108.083 -48.335 -61.443  1.00  0.00     0.000 C 
BRANCH  19  20
ATOM     20  C   UNL     1    -107.808 -49.156 -62.712  1.00  0.00     0.006 C 
BRANCH  20  21
ATOM     21  C   UNL     1    -108.558 -50.495 -62.720  1.00  0.00     0.053 C 
BRANCH  21  22
ATOM     22  C   UNL     1    -108.133 -51.325 -63.889  1.00  0.00     0.041 C 
ATOM     23  O   UNL     1    -106.934 -51.695 -64.002  1.00  0.00    -0.550 OA
ATOM     24  O   UNL     1    -109.056 -51.666 -64.873  1.00  0.00    -0.550 OA
ENDBRANCH  21  22
ENDBRANCH  20  21
ENDBRANCH  19  20
ENDBRANCH  18  19
ENDBRANCH  17  18
ENDBRANCH  16  17
ENDBRANCH  15  16
ENDBRANCH  14  15
ENDBRANCH  13  14
ENDBRANCH   1  13
TORSDOF 20
ENDMDL
