MODEL 1
REMARK VINA RESULT:    80.087      0.000      0.000
REMARK INTER + INTRA:         149.393
REMARK INTER:                 131.589
REMARK INTRA:                  17.804
REMARK UNBOUND:                17.804
REMARK SMILES C[C@@H]1O[C@H](OC[C@H]2O[C@@H](Oc3c(-c4ccc(O)c(O)c4)oc4cc(O)cc(O)c4c3=O)[C@@H](O)[C@H](O)[C@@H]2O)[C@@H](O)[C@H](O)[C@H]1O
REMARK SMILES IDX 7 1 36 2 34 3 32 4 9 5 8 6 6 7 5 8 4 9 1 10 2 11 42 12 3 13
REMARK SMILES IDX 40 14 38 15 43 16 41 18 39 20 37 22 35 24 10 26 11 27 12 28
REMARK SMILES IDX 30 29 21 30 29 31 31 32 22 33 27 34 23 35 26 36 24 37 13 38
REMARK SMILES IDX 20 39 14 40 18 41 15 42 16 43 19 44 17 46 28 48 25 50 33 52
REMARK H PARENT 43 17 41 19 39 21 37 23 35 25 19 45 17 47 28 49 25 51 33 53
REMARK Flexibility Score: inf
ROOT
ATOM      1  C   UNL     1      20.202  43.821  10.364  1.00  0.00     0.180 C 
ATOM      2  C   UNL     1      21.576  43.856  11.108  1.00  0.00     0.177 C 
ATOM      3  C   UNL     1      21.427  43.839  12.642  1.00  0.00     0.180 C 
ATOM      4  C   UNL     1      20.299  42.860  13.025  1.00  0.00     0.214 C 
ATOM      5  C   UNL     1      18.968  43.302  12.351  1.00  0.00     0.339 C 
ATOM      6  O   UNL     1      19.106  44.140  11.211  1.00  0.00    -0.332 OA
ENDROOT
BRANCH   1   7
ATOM      7  C   UNL     1      19.977  42.520   9.568  1.00  0.00     0.198 C 
BRANCH   7   8
ATOM      8  O   UNL     1      20.070  42.795   8.181  1.00  0.00    -0.347 OA
BRANCH   8   9
ATOM      9  C   UNL     1      21.424  42.892   7.768  1.00  0.00     0.281 C 
ATOM     10  C   UNL     1      23.385  40.430   5.884  1.00  0.00     0.041 C 
ATOM     11  C   UNL     1      22.850  41.821   6.248  1.00  0.00     0.150 C 
ATOM     12  C   UNL     1      22.393  42.603   4.994  1.00  0.00     0.174 C 
ATOM     13  O   UNL     1      21.755  41.663   7.126  1.00  0.00    -0.344 OA
ATOM     14  C   UNL     1      21.416  43.749   5.366  1.00  0.00     0.179 C 
ATOM     15  C   UNL     1      21.575  44.149   6.842  1.00  0.00     0.202 C 
BRANCH  12  16
ATOM     16  O   UNL     1      23.520  43.118   4.325  1.00  0.00    -0.388 OA
ATOM     17  H   UNL     1      23.202  43.412   3.433  1.00  0.00     0.211 HD
ENDBRANCH  12  16
BRANCH  14  18
ATOM     18  O   UNL     1      20.086  43.348   5.158  1.00  0.00    -0.387 OA
ATOM     19  H   UNL     1      20.111  42.379   4.933  1.00  0.00     0.211 HD
ENDBRANCH  14  18
BRANCH  15  20
ATOM     20  O   UNL     1      22.830  44.756   7.026  1.00  0.00    -0.385 OA
ATOM     21  H   UNL     1      22.708  45.737   6.919  1.00  0.00     0.211 HD
ENDBRANCH  15  20
ENDBRANCH   8   9
ENDBRANCH   7   8
ENDBRANCH   1   7
BRANCH   2  22
ATOM     22  O   UNL     1      22.353  44.955  10.696  1.00  0.00    -0.387 OA
ATOM     23  H   UNL     1      21.834  45.779  10.890  1.00  0.00     0.211 HD
ENDBRANCH   2  22
BRANCH   3  24
ATOM     24  O   UNL     1      21.106  45.125  13.121  1.00  0.00    -0.387 OA
ATOM     25  H   UNL     1      21.864  45.720  12.874  1.00  0.00     0.211 HD
ENDBRANCH   3  24
BRANCH   5  26
ATOM     26  O   UNL     1      18.138  42.181  12.033  1.00  0.00    -0.454 OA
BRANCH  26  27
ATOM     27  C   UNL     1      18.448  41.225  11.051  1.00  0.00     0.214 A 
ATOM     28  C   UNL     1      17.471  40.519  10.309  1.00  0.00     0.180 A 
ATOM     29  C   UNL     1      19.797  40.924  10.832  1.00  0.00     0.239 A 
ATOM     30  O   UNL     1      17.834  39.515   9.521  1.00  0.00    -0.452 OA
ATOM     31  C   UNL     1      20.149  39.861   9.976  1.00  0.00     0.111 A 
ATOM     32  O   UNL     1      20.680  41.616  11.410  1.00  0.00    -0.285 OA
ATOM     33  C   UNL     1      19.099  39.154   9.340  1.00  0.00     0.146 A 
ATOM     34  C   UNL     1      21.484  39.473   9.740  1.00  0.00     0.134 A 
ATOM     35  C   UNL     1      19.385  38.067   8.502  1.00  0.00     0.094 A 
ATOM     36  C   UNL     1      21.748  38.379   8.894  1.00  0.00     0.093 A 
ATOM     37  C   UNL     1      20.705  37.669   8.295  1.00  0.00     0.123 A 
BRANCH  28  38
ATOM     38  C   UNL     1      16.041  40.876  10.344  1.00  0.00     0.025 A 
ATOM     39  C   UNL     1      15.089  39.910  10.699  1.00  0.00     0.062 A 
ATOM     40  C   UNL     1      15.621  42.175  10.008  1.00  0.00     0.016 A 
ATOM     41  C   UNL     1      13.730  40.247  10.785  1.00  0.00     0.158 A 
ATOM     42  C   UNL     1      14.262  42.505  10.065  1.00  0.00     0.051 A 
ATOM     43  C   UNL     1      13.314  41.547  10.461  1.00  0.00     0.157 A 
BRANCH  41  44
ATOM     44  O   UNL     1      12.798  39.308  11.219  1.00  0.00    -0.504 OA
ATOM     45  H   UNL     1      12.427  39.328  12.161  1.00  0.00     0.293 HD
ENDBRANCH  41  44
BRANCH  43  46
ATOM     46  O   UNL     1      11.967  41.886  10.563  1.00  0.00    -0.504 OA
ATOM     47  H   UNL     1      11.328  41.749   9.793  1.00  0.00     0.293 HD
ENDBRANCH  43  46
ENDBRANCH  28  38
BRANCH  34  48
ATOM     48  O   UNL     1      22.551  40.154  10.333  1.00  0.00    -0.507 OA
ATOM     49  H   UNL     1      23.217  40.683   9.780  1.00  0.00     0.293 HD
ENDBRANCH  34  48
BRANCH  37  50
ATOM     50  O   UNL     1      20.968  36.568   7.479  1.00  0.00    -0.508 OA
ATOM     51  H   UNL     1      21.485  35.772   7.828  1.00  0.00     0.293 HD
ENDBRANCH  37  50
ENDBRANCH  26  27
ENDBRANCH   5  26
BRANCH   4  52
ATOM     52  O   UNL     1      20.635  41.544  12.659  1.00  0.00    -0.384 OA
ATOM     53  H   UNL     1      21.189  41.175  13.392  1.00  0.00     0.211 HD
ENDBRANCH   4  52
TORSDOF 16
ENDMDL
