MODEL 1
REMARK VINA RESULT:    -5.705      0.000      0.000
REMARK INTER + INTRA:          -6.264
REMARK INTER:                  -6.205
REMARK INTRA:                  -0.059
REMARK UNBOUND:                -0.059
REMARK SMILES COc1cc2ccc(=O)oc2cc1O
REMARK SMILES IDX 3 1 13 2 12 3 11 4 5 5 4 6 6 7 7 8 8 9 9 10 10 11 2 12 1 13
REMARK SMILES IDX 14 14
REMARK H PARENT 14 15
REMARK Flexibility Score: inf
ROOT
ATOM      1  C   UNL     1      16.087  18.875  18.530  1.00  0.00     0.161 A 
ATOM      2  C   UNL     1      14.950  19.350  19.202  1.00  0.00     0.161 A 
ATOM      3  C   UNL     1      15.008  20.545  19.934  1.00  0.00     0.098 A 
ATOM      4  C   UNL     1      16.198  21.273  20.001  1.00  0.00     0.142 A 
ATOM      5  C   UNL     1      17.346  20.803  19.328  1.00  0.00     0.022 A 
ATOM      6  C   UNL     1      17.288  19.608  18.596  1.00  0.00     0.062 A 
ATOM      7  C   UNL     1      18.523  21.553  19.413  1.00  0.00     0.019 A 
ATOM      8  C   UNL     1      18.530  22.735  20.154  1.00  0.00     0.094 A 
ATOM      9  C   UNL     1      17.353  23.139  20.794  1.00  0.00     0.336 A 
ATOM     10  O   UNL     1      17.338  24.203  21.468  1.00  0.00    -0.246 OA
ATOM     11  O   UNL     1      16.247  22.406  20.697  1.00  0.00    -0.423 OA
ENDROOT
BRANCH   1  12
ATOM     12  O   UNL     1      15.982  17.674  17.810  1.00  0.00    -0.493 OA
ATOM     13  C   UNL     1      16.788  16.523  18.040  1.00  0.00     0.278 C 
ENDBRANCH   1  12
BRANCH   2  14
ATOM     14  O   UNL     1      13.760  18.626  19.138  1.00  0.00    -0.504 OA
ATOM     15  H   UNL     1      13.130  18.709  18.350  1.00  0.00     0.293 HD
ENDBRANCH   2  14
TORSDOF 2
ENDMDL
MODEL 2
REMARK VINA RESULT:    -5.414      2.330      5.446
REMARK INTER + INTRA:          -5.947
REMARK INTER:                  -5.882
REMARK INTRA:                  -0.065
REMARK UNBOUND:                -0.059
REMARK SMILES COc1cc2ccc(=O)oc2cc1O
REMARK SMILES IDX 3 1 13 2 12 3 11 4 5 5 4 6 6 7 7 8 8 9 9 10 10 11 2 12 1 13
REMARK SMILES IDX 14 14
REMARK H PARENT 14 15
REMARK Flexibility Score: inf
ROOT
ATOM      1  C   UNL     1      16.353  23.991  22.897  1.00  0.00     0.161 A 
ATOM      2  C   UNL     1      15.310  23.053  22.858  1.00  0.00     0.161 A 
ATOM      3  C   UNL     1      15.335  22.004  21.928  1.00  0.00     0.098 A 
ATOM      4  C   UNL     1      16.399  21.884  21.031  1.00  0.00     0.142 A 
ATOM      5  C   UNL     1      17.453  22.822  21.063  1.00  0.00     0.022 A 
ATOM      6  C   UNL     1      17.428  23.871  21.993  1.00  0.00     0.062 A 
ATOM      7  C   UNL     1      18.505  22.674  20.154  1.00  0.00     0.019 A 
ATOM      8  C   UNL     1      18.483  21.614  19.248  1.00  0.00     0.094 A 
ATOM      9  C   UNL     1      17.405  20.722  19.275  1.00  0.00     0.336 A 
ATOM     10  O   UNL     1      17.367  19.758  18.465  1.00  0.00    -0.246 OA
ATOM     11  O   UNL     1      16.417  20.886  20.151  1.00  0.00    -0.423 OA
ENDROOT
BRANCH   1  12
ATOM     12  O   UNL     1      16.286  25.025  23.845  1.00  0.00    -0.493 OA
ATOM     13  C   UNL     1      17.008  25.041  25.072  1.00  0.00     0.278 C 
ENDBRANCH   1  12
BRANCH   2  14
ATOM     14  O   UNL     1      14.246  23.172  23.751  1.00  0.00    -0.504 OA
ATOM     15  H   UNL     1      14.340  22.912  24.725  1.00  0.00     0.293 HD
ENDBRANCH   2  14
TORSDOF 2
ENDMDL
MODEL 3
REMARK VINA RESULT:    -5.317      1.412      5.354
REMARK INTER + INTRA:          -5.842
REMARK INTER:                  -5.778
REMARK INTRA:                  -0.064
REMARK UNBOUND:                -0.059
REMARK SMILES COc1cc2ccc(=O)oc2cc1O
REMARK SMILES IDX 3 1 13 2 12 3 11 4 5 5 4 6 6 7 7 8 8 9 9 10 10 11 2 12 1 13
REMARK SMILES IDX 14 14
REMARK H PARENT 14 15
REMARK Flexibility Score: inf
ROOT
ATOM      1  C   UNL     1      17.393  22.426  20.534  1.00  0.00     0.161 A 
ATOM      2  C   UNL     1      18.281  21.664  19.758  1.00  0.00     0.161 A 
ATOM      3  C   UNL     1      17.826  20.537  19.061  1.00  0.00     0.098 A 
ATOM      4  C   UNL     1      16.482  20.161  19.131  1.00  0.00     0.142 A 
ATOM      5  C   UNL     1      15.581  20.921  19.907  1.00  0.00     0.022 A 
ATOM      6  C   UNL     1      16.037  22.048  20.605  1.00  0.00     0.062 A 
ATOM      7  C   UNL     1      14.243  20.520  19.958  1.00  0.00     0.019 A 
ATOM      8  C   UNL     1      13.838  19.390  19.246  1.00  0.00     0.094 A 
ATOM      9  C   UNL     1      14.788  18.687  18.497  1.00  0.00     0.336 A 
ATOM     10  O   UNL     1      14.443  17.665  17.847  1.00  0.00    -0.246 OA
ATOM     11  O   UNL     1      16.056  19.090  18.467  1.00  0.00    -0.423 OA
ENDROOT
BRANCH   1  12
ATOM     12  O   UNL     1      17.894  23.546  21.215  1.00  0.00    -0.493 OA
ATOM     13  C   UNL     1      17.602  24.897  20.870  1.00  0.00     0.278 C 
ENDBRANCH   1  12
BRANCH   2  14
ATOM     14  O   UNL     1      19.624  22.037  19.687  1.00  0.00    -0.504 OA
ATOM     15  H   UNL     1      19.900  22.979  19.440  1.00  0.00     0.293 HD
ENDBRANCH   2  14
TORSDOF 2
ENDMDL
MODEL 4
REMARK VINA RESULT:    -5.287      1.038      1.185
REMARK INTER + INTRA:          -5.810
REMARK INTER:                  -5.758
REMARK INTRA:                  -0.052
REMARK UNBOUND:                -0.059
REMARK SMILES COc1cc2ccc(=O)oc2cc1O
REMARK SMILES IDX 3 1 13 2 12 3 11 4 5 5 4 6 6 7 7 8 8 9 9 10 10 11 2 12 1 13
REMARK SMILES IDX 14 14
REMARK H PARENT 14 15
REMARK Flexibility Score: inf
ROOT
ATOM      1  C   UNL     1      16.022  19.723  19.153  1.00  0.00     0.161 A 
ATOM      2  C   UNL     1      14.906  19.966  19.969  1.00  0.00     0.161 A 
ATOM      3  C   UNL     1      14.907  21.042  20.868  1.00  0.00     0.098 A 
ATOM      4  C   UNL     1      16.019  21.882  20.960  1.00  0.00     0.142 A 
ATOM      5  C   UNL     1      17.145  21.646  20.142  1.00  0.00     0.022 A 
ATOM      6  C   UNL     1      17.144  20.570  19.243  1.00  0.00     0.062 A 
ATOM      7  C   UNL     1      18.243  22.504  20.256  1.00  0.00     0.019 A 
ATOM      8  C   UNL     1      18.196  23.560  21.166  1.00  0.00     0.094 A 
ATOM      9  C   UNL     1      17.045  23.733  21.943  1.00  0.00     0.336 A 
ATOM     10  O   UNL     1      16.983  24.681  22.770  1.00  0.00    -0.246 OA
ATOM     11  O   UNL     1      16.015  22.902  21.815  1.00  0.00    -0.423 OA
ENDROOT
BRANCH   1  12
ATOM     12  O   UNL     1      15.976  18.635  18.267  1.00  0.00    -0.493 OA
ATOM     13  C   UNL     1      17.051  17.727  18.049  1.00  0.00     0.278 C 
ENDBRANCH   1  12
BRANCH   2  14
ATOM     14  O   UNL     1      13.794  19.129  19.881  1.00  0.00    -0.504 OA
ATOM     15  H   UNL     1      13.409  18.852  18.987  1.00  0.00     0.293 HD
ENDBRANCH   2  14
TORSDOF 2
ENDMDL
MODEL 5
REMARK VINA RESULT:    -5.276      1.630      5.225
REMARK INTER + INTRA:          -5.797
REMARK INTER:                  -5.775
REMARK INTRA:                  -0.022
REMARK UNBOUND:                -0.059
REMARK SMILES COc1cc2ccc(=O)oc2cc1O
REMARK SMILES IDX 3 1 13 2 12 3 11 4 5 5 4 6 6 7 7 8 8 9 9 10 10 11 2 12 1 13
REMARK SMILES IDX 14 14
REMARK H PARENT 14 15
REMARK Flexibility Score: inf
ROOT
ATOM      1  C   UNL     1      17.181  23.588  21.738  1.00  0.00     0.161 A 
ATOM      2  C   UNL     1      15.909  23.101  22.076  1.00  0.00     0.161 A 
ATOM      3  C   UNL     1      15.407  21.946  21.459  1.00  0.00     0.098 A 
ATOM      4  C   UNL     1      16.168  21.271  20.502  1.00  0.00     0.142 A 
ATOM      5  C   UNL     1      17.449  21.754  20.157  1.00  0.00     0.022 A 
ATOM      6  C   UNL     1      17.951  22.908  20.774  1.00  0.00     0.062 A 
ATOM      7  C   UNL     1      18.187  21.056  19.196  1.00  0.00     0.019 A 
ATOM      8  C   UNL     1      17.643  19.913  18.611  1.00  0.00     0.094 A 
ATOM      9  C   UNL     1      16.368  19.493  19.003  1.00  0.00     0.336 A 
ATOM     10  O   UNL     1      15.859  18.464  18.487  1.00  0.00    -0.246 OA
ATOM     11  O   UNL     1      15.686  20.176  19.919  1.00  0.00    -0.423 OA
ENDROOT
BRANCH   1  12
ATOM     12  O   UNL     1      17.644  24.747  22.382  1.00  0.00    -0.493 OA
ATOM     13  C   UNL     1      17.382  26.075  21.938  1.00  0.00     0.278 C 
ENDBRANCH   1  12
BRANCH   2  14
ATOM     14  O   UNL     1      15.146  23.773  23.030  1.00  0.00    -0.504 OA
ATOM     15  H   UNL     1      14.724  24.672  22.833  1.00  0.00     0.293 HD
ENDBRANCH   2  14
TORSDOF 2
ENDMDL
MODEL 6
REMARK VINA RESULT:    -5.138      1.566      5.260
REMARK INTER + INTRA:          -5.647
REMARK INTER:                  -5.583
REMARK INTRA:                  -0.064
REMARK UNBOUND:                -0.059
REMARK SMILES COc1cc2ccc(=O)oc2cc1O
REMARK SMILES IDX 3 1 13 2 12 3 11 4 5 5 4 6 6 7 7 8 8 9 9 10 10 11 2 12 1 13
REMARK SMILES IDX 14 14
REMARK H PARENT 14 15
REMARK Flexibility Score: inf
ROOT
ATOM      1  C   UNL     1      16.326  22.297  21.126  1.00  0.00     0.161 A 
ATOM      2  C   UNL     1      17.664  22.259  20.703  1.00  0.00     0.161 A 
ATOM      3  C   UNL     1      18.079  21.317  19.751  1.00  0.00     0.098 A 
ATOM      4  C   UNL     1      17.165  20.407  19.216  1.00  0.00     0.142 A 
ATOM      5  C   UNL     1      15.818  20.438  19.634  1.00  0.00     0.022 A 
ATOM      6  C   UNL     1      15.402  21.380  20.586  1.00  0.00     0.062 A 
ATOM      7  C   UNL     1      14.926  19.515  19.080  1.00  0.00     0.019 A 
ATOM      8  C   UNL     1      15.388  18.597  18.137  1.00  0.00     0.094 A 
ATOM      9  C   UNL     1      16.738  18.626  17.769  1.00  0.00     0.336 A 
ATOM     10  O   UNL     1      17.175  17.806  16.919  1.00  0.00    -0.246 OA
ATOM     11  O   UNL     1      17.565  19.514  18.313  1.00  0.00    -0.423 OA
ENDROOT
BRANCH   1  12
ATOM     12  O   UNL     1      15.955  23.257  22.080  1.00  0.00    -0.493 OA
ATOM     13  C   UNL     1      15.624  22.963  23.434  1.00  0.00     0.278 C 
ENDBRANCH   1  12
BRANCH   2  14
ATOM     14  O   UNL     1      18.579  23.165  21.236  1.00  0.00    -0.504 OA
ATOM     15  H   UNL     1      19.470  22.861  21.611  1.00  0.00     0.293 HD
ENDBRANCH   2  14
TORSDOF 2
ENDMDL
MODEL 7
REMARK VINA RESULT:    -5.051      1.172      4.884
REMARK INTER + INTRA:          -5.552
REMARK INTER:                  -5.496
REMARK INTRA:                  -0.057
REMARK UNBOUND:                -0.059
REMARK SMILES COc1cc2ccc(=O)oc2cc1O
REMARK SMILES IDX 3 1 13 2 12 3 11 4 5 5 4 6 6 7 7 8 8 9 9 10 10 11 2 12 1 13
REMARK SMILES IDX 14 14
REMARK H PARENT 14 15
REMARK Flexibility Score: inf
ROOT
ATOM      1  C   UNL     1      16.395  21.845  20.715  1.00  0.00     0.161 A 
ATOM      2  C   UNL     1      15.011  21.623  20.794  1.00  0.00     0.161 A 
ATOM      3  C   UNL     1      14.419  20.577  20.071  1.00  0.00     0.098 A 
ATOM      4  C   UNL     1      15.201  19.747  19.266  1.00  0.00     0.142 A 
ATOM      5  C   UNL     1      16.593  19.961  19.181  1.00  0.00     0.022 A 
ATOM      6  C   UNL     1      17.186  21.007  19.903  1.00  0.00     0.062 A 
ATOM      7  C   UNL     1      17.350  19.113  18.367  1.00  0.00     0.019 A 
ATOM      8  C   UNL     1      16.714  18.087  17.667  1.00  0.00     0.094 A 
ATOM      9  C   UNL     1      15.330  17.934  17.801  1.00  0.00     0.336 A 
ATOM     10  O   UNL     1      14.737  17.014  17.179  1.00  0.00    -0.246 OA
ATOM     11  O   UNL     1      14.633  18.756  18.582  1.00  0.00    -0.423 OA
ENDROOT
BRANCH   1  12
ATOM     12  O   UNL     1      16.944  22.903  21.455  1.00  0.00    -0.493 OA
ATOM     13  C   UNL     1      17.762  23.932  20.907  1.00  0.00     0.278 C 
ENDBRANCH   1  12
BRANCH   2  14
ATOM     14  O   UNL     1      14.227  22.451  21.596  1.00  0.00    -0.504 OA
ATOM     15  H   UNL     1      14.172  22.321  22.599  1.00  0.00     0.293 HD
ENDBRANCH   2  14
TORSDOF 2
ENDMDL
MODEL 8
REMARK VINA RESULT:    -4.957      4.346      6.286
REMARK INTER + INTRA:          -5.450
REMARK INTER:                  -5.385
REMARK INTRA:                  -0.065
REMARK UNBOUND:                -0.059
REMARK SMILES COc1cc2ccc(=O)oc2cc1O
REMARK SMILES IDX 3 1 13 2 12 3 11 4 5 5 4 6 6 7 7 8 8 9 9 10 10 11 2 12 1 13
REMARK SMILES IDX 14 14
REMARK H PARENT 14 15
REMARK Flexibility Score: inf
ROOT
ATOM      1  C   UNL     1      12.133  20.590  20.779  1.00  0.00     0.161 A 
ATOM      2  C   UNL     1      13.416  21.037  21.132  1.00  0.00     0.161 A 
ATOM      3  C   UNL     1      14.105  20.442  22.198  1.00  0.00     0.098 A 
ATOM      4  C   UNL     1      13.521  19.398  22.919  1.00  0.00     0.142 A 
ATOM      5  C   UNL     1      12.231  18.942  22.572  1.00  0.00     0.022 A 
ATOM      6  C   UNL     1      11.542  19.537  21.506  1.00  0.00     0.062 A 
ATOM      7  C   UNL     1      11.673  17.896  23.312  1.00  0.00     0.019 A 
ATOM      8  C   UNL     1      12.398  17.337  24.365  1.00  0.00     0.094 A 
ATOM      9  C   UNL     1      13.672  17.841  24.651  1.00  0.00     0.336 A 
ATOM     10  O   UNL     1      14.343  17.350  25.596  1.00  0.00    -0.246 OA
ATOM     11  O   UNL     1      14.180  18.838  23.931  1.00  0.00    -0.423 OA
ENDROOT
BRANCH   1  12
ATOM     12  O   UNL     1      11.480  21.215  19.705  1.00  0.00    -0.493 OA
ATOM     13  C   UNL     1      11.321  20.639  18.413  1.00  0.00     0.278 C 
ENDBRANCH   1  12
BRANCH   2  14
ATOM     14  O   UNL     1      14.002  22.079  20.414  1.00  0.00    -0.504 OA
ATOM     15  H   UNL     1      14.662  21.902  19.667  1.00  0.00     0.293 HD
ENDBRANCH   2  14
TORSDOF 2
ENDMDL
