MODEL 1
REMARK VINA RESULT:    -4.885      0.000      0.000
REMARK INTER + INTRA:         -11.146
REMARK INTER:                  -8.883
REMARK INTRA:                  -2.263
REMARK UNBOUND:                -2.263
REMARK SMILES CCCCCCCCCCCCCCCC(=O)[O-]
REMARK SMILES IDX 9 1 10 2 11 3 12 4 13 5 14 6 15 7 16 8 17 9 18 10 8 11 7 12
REMARK SMILES IDX 6 13 5 14 4 15 3 16 2 17 1 18
REMARK H PARENT
REMARK Flexibility Score: inf
ROOT
ATOM      1  C   UNL     1     141.588 139.466 111.457  1.00  0.00     0.000 C 
ENDROOT
BRANCH   1   2
ATOM      2  C   UNL     1     140.143 139.922 111.718  1.00  0.00     0.000 C 
BRANCH   2   3
ATOM      3  C   UNL     1     139.205 138.758 112.079  1.00  0.00     0.000 C 
BRANCH   3   4
ATOM      4  C   UNL     1     138.850 138.697 113.580  1.00  0.00     0.000 C 
BRANCH   4   5
ATOM      5  C   UNL     1     139.121 140.032 114.296  1.00  0.00     0.000 C 
BRANCH   5   6
ATOM      6  C   UNL     1     140.005 139.868 115.543  1.00  0.00     0.006 C 
BRANCH   6   7
ATOM      7  C   UNL     1     139.544 140.745 116.713  1.00  0.00     0.053 C 
BRANCH   7   8
ATOM      8  C   UNL     1     140.627 140.854 117.740  1.00  0.00     0.041 C 
ATOM      9  O   UNL     1     141.590 140.044 117.733  1.00  0.00    -0.550 OA
ATOM     10  O   UNL     1     140.545 141.818 118.737  1.00  0.00    -0.550 OA
ENDBRANCH   7   8
ENDBRANCH   6   7
ENDBRANCH   5   6
ENDBRANCH   4   5
ENDBRANCH   3   4
ENDBRANCH   2   3
ENDBRANCH   1   2
BRANCH   1  11
ATOM     11  C   UNL     1     142.412 139.355 112.750  1.00  0.00     0.000 C 
BRANCH  11  12
ATOM     12  C   UNL     1     143.853 139.865 112.573  1.00  0.00    -0.000 C 
BRANCH  12  13
ATOM     13  C   UNL     1     144.362 140.637 113.801  1.00  0.00    -0.000 C 
BRANCH  13  14
ATOM     14  C   UNL     1     143.280 140.805 114.882  1.00  0.00    -0.000 C 
BRANCH  14  15
ATOM     15  C   UNL     1     142.908 142.277 115.123  1.00  0.00    -0.000 C 
BRANCH  15  16
ATOM     16  C   UNL     1     142.447 142.991 113.843  1.00  0.00    -0.000 C 
BRANCH  16  17
ATOM     17  C   UNL     1     140.923 142.923 113.697  1.00  0.00    -0.003 C 
ATOM     18  C   UNL     1     140.227 143.759 114.769  1.00  0.00     0.004 C 
ENDBRANCH  16  17
ENDBRANCH  15  16
ENDBRANCH  14  15
ENDBRANCH  13  14
ENDBRANCH  12  13
ENDBRANCH  11  12
ENDBRANCH   1  11
TORSDOF 14
ENDMDL
MODEL 2
REMARK VINA RESULT:    -4.798      4.723      7.779
REMARK INTER + INTRA:         -10.989
REMARK INTER:                  -9.354
REMARK INTRA:                  -1.635
REMARK UNBOUND:                -2.263
REMARK SMILES CCCCCCCCCCCCCCCC(=O)[O-]
REMARK SMILES IDX 9 1 10 2 11 3 12 4 13 5 14 6 15 7 16 8 17 9 18 10 8 11 7 12
REMARK SMILES IDX 6 13 5 14 4 15 3 16 2 17 1 18
REMARK H PARENT
REMARK Flexibility Score: inf
ROOT
ATOM      1  C   UNL     1     134.333 136.500 114.457  1.00  0.00     0.000 C 
ENDROOT
BRANCH   1   2
ATOM      2  C   UNL     1     135.333 137.132 113.474  1.00  0.00     0.000 C 
BRANCH   2   3
ATOM      3  C   UNL     1     136.714 136.456 113.511  1.00  0.00     0.000 C 
BRANCH   3   4
ATOM      4  C   UNL     1     137.686 137.099 114.524  1.00  0.00     0.000 C 
BRANCH   4   5
ATOM      5  C   UNL     1     137.962 138.579 114.207  1.00  0.00     0.000 C 
BRANCH   5   6
ATOM      6  C   UNL     1     139.449 138.944 114.333  1.00  0.00     0.006 C 
BRANCH   6   7
ATOM      7  C   UNL     1     139.719 140.427 114.049  1.00  0.00     0.053 C 
BRANCH   7   8
ATOM      8  C   UNL     1     139.657 141.220 115.316  1.00  0.00     0.041 C 
ATOM      9  O   UNL     1     139.482 140.639 116.420  1.00  0.00    -0.550 OA
ATOM     10  O   UNL     1     139.739 142.606 115.274  1.00  0.00    -0.550 OA
ENDBRANCH   7   8
ENDBRANCH   6   7
ENDBRANCH   5   6
ENDBRANCH   4   5
ENDBRANCH   3   4
ENDBRANCH   2   3
ENDBRANCH   1   2
BRANCH   1  11
ATOM     11  C   UNL     1     133.277 135.639 113.747  1.00  0.00     0.000 C 
BRANCH  11  12
ATOM     12  C   UNL     1     133.746 134.188 113.537  1.00  0.00    -0.000 C 
BRANCH  12  13
ATOM     13  C   UNL     1     134.354 133.573 114.808  1.00  0.00    -0.000 C 
BRANCH  13  14
ATOM     14  C   UNL     1     135.815 133.134 114.610  1.00  0.00    -0.000 C 
BRANCH  14  15
ATOM     15  C   UNL     1     136.704 133.473 115.817  1.00  0.00    -0.000 C 
BRANCH  15  16
ATOM     16  C   UNL     1     135.986 134.346 116.857  1.00  0.00    -0.000 C 
BRANCH  16  17
ATOM     17  C   UNL     1     136.984 135.227 117.616  1.00  0.00    -0.003 C 
ATOM     18  C   UNL     1     136.353 135.819 118.874  1.00  0.00     0.004 C 
ENDBRANCH  16  17
ENDBRANCH  15  16
ENDBRANCH  14  15
ENDBRANCH  13  14
ENDBRANCH  12  13
ENDBRANCH  11  12
ENDBRANCH   1  11
TORSDOF 14
ENDMDL
MODEL 3
REMARK VINA RESULT:    -4.756      4.381      7.522
REMARK INTER + INTRA:         -10.911
REMARK INTER:                  -9.648
REMARK INTRA:                  -1.263
REMARK UNBOUND:                -2.263
REMARK SMILES CCCCCCCCCCCCCCCC(=O)[O-]
REMARK SMILES IDX 9 1 10 2 11 3 12 4 13 5 14 6 15 7 16 8 17 9 18 10 8 11 7 12
REMARK SMILES IDX 6 13 5 14 4 15 3 16 2 17 1 18
REMARK H PARENT
REMARK Flexibility Score: inf
ROOT
ATOM      1  C   UNL     1     136.864 136.050 113.933  1.00  0.00     0.000 C 
ENDROOT
BRANCH   1   2
ATOM      2  C   UNL     1     137.176 137.526 113.630  1.00  0.00     0.000 C 
BRANCH   2   3
ATOM      3  C   UNL     1     138.509 137.991 114.241  1.00  0.00     0.000 C 
BRANCH   3   4
ATOM      4  C   UNL     1     138.807 139.486 113.999  1.00  0.00     0.000 C 
BRANCH   4   5
ATOM      5  C   UNL     1     139.182 140.222 115.296  1.00  0.00     0.000 C 
BRANCH   5   6
ATOM      6  C   UNL     1     139.833 141.590 115.035  1.00  0.00     0.006 C 
BRANCH   6   7
ATOM      7  C   UNL     1     139.786 142.511 116.260  1.00  0.00     0.053 C 
BRANCH   7   8
ATOM      8  C   UNL     1     140.816 142.096 117.263  1.00  0.00     0.041 C 
ATOM      9  O   UNL     1     142.030 142.033 116.935  1.00  0.00    -0.550 OA
ATOM     10  O   UNL     1     140.429 141.730 118.546  1.00  0.00    -0.550 OA
ENDBRANCH   7   8
ENDBRANCH   6   7
ENDBRANCH   5   6
ENDBRANCH   4   5
ENDBRANCH   3   4
ENDBRANCH   2   3
ENDBRANCH   1   2
BRANCH   1  11
ATOM     11  C   UNL     1     136.949 135.727 115.433  1.00  0.00     0.000 C 
BRANCH  11  12
ATOM     12  C   UNL     1     136.372 134.340 115.769  1.00  0.00    -0.000 C 
BRANCH  12  13
ATOM     13  C   UNL     1     136.150 133.473 114.520  1.00  0.00    -0.000 C 
BRANCH  13  14
ATOM     14  C   UNL     1     134.671 133.101 114.316  1.00  0.00    -0.000 C 
BRANCH  14  15
ATOM     15  C   UNL     1     133.729 133.896 115.235  1.00  0.00    -0.000 C 
BRANCH  15  16
ATOM     16  C   UNL     1     132.890 134.932 114.472  1.00  0.00    -0.000 C 
BRANCH  16  17
ATOM     17  C   UNL     1     133.275 134.964 112.989  1.00  0.00    -0.003 C 
ATOM     18  C   UNL     1     133.408 136.399 112.484  1.00  0.00     0.004 C 
ENDBRANCH  16  17
ENDBRANCH  15  16
ENDBRANCH  14  15
ENDBRANCH  13  14
ENDBRANCH  12  13
ENDBRANCH  11  12
ENDBRANCH   1  11
TORSDOF 14
ENDMDL
MODEL 4
REMARK VINA RESULT:    -4.681      3.547      4.574
REMARK INTER + INTRA:         -10.775
REMARK INTER:                  -9.264
REMARK INTRA:                  -1.512
REMARK UNBOUND:                -2.263
REMARK SMILES CCCCCCCCCCCCCCCC(=O)[O-]
REMARK SMILES IDX 9 1 10 2 11 3 12 4 13 5 14 6 15 7 16 8 17 9 18 10 8 11 7 12
REMARK SMILES IDX 6 13 5 14 4 15 3 16 2 17 1 18
REMARK H PARENT
REMARK Flexibility Score: inf
ROOT
ATOM      1  C   UNL     1     140.695 139.460 114.590  1.00  0.00     0.000 C 
ENDROOT
BRANCH   1   2
ATOM      2  C   UNL     1     139.522 139.908 113.702  1.00  0.00     0.000 C 
BRANCH   2   3
ATOM      3  C   UNL     1     138.669 138.730 113.201  1.00  0.00     0.000 C 
BRANCH   3   4
ATOM      4  C   UNL     1     138.262 137.747 114.319  1.00  0.00     0.000 C 
BRANCH   4   5
ATOM      5  C   UNL     1     136.946 137.017 114.001  1.00  0.00     0.000 C 
BRANCH   5   6
ATOM      6  C   UNL     1     136.866 135.628 114.653  1.00  0.00     0.006 C 
BRANCH   6   7
ATOM      7  C   UNL     1     136.866 135.694 116.186  1.00  0.00     0.053 C 
BRANCH   7   8
ATOM      8  C   UNL     1     136.523 134.358 116.765  1.00  0.00     0.041 C 
ATOM      9  O   UNL     1     135.960 134.280 117.888  1.00  0.00    -0.550 OA
ATOM     10  O   UNL     1     136.872 133.196 116.088  1.00  0.00    -0.550 OA
ENDBRANCH   7   8
ENDBRANCH   6   7
ENDBRANCH   5   6
ENDBRANCH   4   5
ENDBRANCH   3   4
ENDBRANCH   2   3
ENDBRANCH   1   2
BRANCH   1  11
ATOM     11  C   UNL     1     142.060 139.717 113.934  1.00  0.00     0.000 C 
BRANCH  11  12
ATOM     12  C   UNL     1     142.867 140.806 114.663  1.00  0.00    -0.000 C 
BRANCH  12  13
ATOM     13  C   UNL     1     142.772 142.176 113.972  1.00  0.00    -0.000 C 
BRANCH  13  14
ATOM     14  C   UNL     1     142.010 143.211 114.818  1.00  0.00    -0.000 C 
BRANCH  14  15
ATOM     15  C   UNL     1     140.517 143.285 114.460  1.00  0.00    -0.000 C 
BRANCH  15  16
ATOM     16  C   UNL     1     139.603 143.100 115.681  1.00  0.00    -0.000 C 
BRANCH  16  17
ATOM     17  C   UNL     1     140.361 142.437 116.837  1.00  0.00    -0.003 C 
ATOM     18  C   UNL     1     139.517 141.352 117.501  1.00  0.00     0.004 C 
ENDBRANCH  16  17
ENDBRANCH  15  16
ENDBRANCH  14  15
ENDBRANCH  13  14
ENDBRANCH  12  13
ENDBRANCH  11  12
ENDBRANCH   1  11
TORSDOF 14
ENDMDL
MODEL 5
REMARK VINA RESULT:    -4.674      4.986      6.855
REMARK INTER + INTRA:         -10.762
REMARK INTER:                  -9.181
REMARK INTRA:                  -1.581
REMARK UNBOUND:                -2.263
REMARK SMILES CCCCCCCCCCCCCCCC(=O)[O-]
REMARK SMILES IDX 9 1 10 2 11 3 12 4 13 5 14 6 15 7 16 8 17 9 18 10 8 11 7 12
REMARK SMILES IDX 6 13 5 14 4 15 3 16 2 17 1 18
REMARK H PARENT
REMARK Flexibility Score: inf
ROOT
ATOM      1  C   UNL     1     134.227 136.856 113.525  1.00  0.00     0.000 C 
ENDROOT
BRANCH   1   2
ATOM      2  C   UNL     1     133.670 135.883 114.577  1.00  0.00     0.000 C 
BRANCH   2   3
ATOM      3  C   UNL     1     133.194 134.553 113.967  1.00  0.00     0.000 C 
BRANCH   3   4
ATOM      4  C   UNL     1     134.064 133.345 114.373  1.00  0.00     0.000 C 
BRANCH   4   5
ATOM      5  C   UNL     1     135.558 133.583 114.094  1.00  0.00     0.000 C 
BRANCH   5   6
ATOM      6  C   UNL     1     136.441 133.312 115.322  1.00  0.00     0.006 C 
BRANCH   6   7
ATOM      7  C   UNL     1     136.928 134.601 115.996  1.00  0.00     0.053 C 
BRANCH   7   8
ATOM      8  C   UNL     1     136.390 134.696 117.389  1.00  0.00     0.041 C 
ATOM      9  O   UNL     1     135.226 134.292 117.647  1.00  0.00    -0.550 OA
ATOM     10  O   UNL     1     137.155 135.279 118.391  1.00  0.00    -0.550 OA
ENDBRANCH   7   8
ENDBRANCH   6   7
ENDBRANCH   5   6
ENDBRANCH   4   5
ENDBRANCH   3   4
ENDBRANCH   2   3
ENDBRANCH   1   2
BRANCH   1  11
ATOM     11  C   UNL     1     135.684 137.254 113.806  1.00  0.00     0.000 C 
BRANCH  11  12
ATOM     12  C   UNL     1     136.585 137.100 112.567  1.00  0.00    -0.000 C 
BRANCH  12  13
ATOM     13  C   UNL     1     137.964 137.753 112.753  1.00  0.00    -0.000 C 
BRANCH  13  14
ATOM     14  C   UNL     1     138.320 137.967 114.234  1.00  0.00    -0.000 C 
BRANCH  14  15
ATOM     15  C   UNL     1     138.773 139.405 114.532  1.00  0.00    -0.000 C 
BRANCH  15  16
ATOM     16  C   UNL     1     139.780 139.936 113.501  1.00  0.00    -0.000 C 
BRANCH  16  17
ATOM     17  C   UNL     1     141.218 139.611 113.922  1.00  0.00    -0.003 C 
ATOM     18  C   UNL     1     141.410 139.802 115.424  1.00  0.00     0.004 C 
ENDBRANCH  16  17
ENDBRANCH  15  16
ENDBRANCH  14  15
ENDBRANCH  13  14
ENDBRANCH  12  13
ENDBRANCH  11  12
ENDBRANCH   1  11
TORSDOF 14
ENDMDL
MODEL 6
REMARK VINA RESULT:    -4.659      4.394      5.497
REMARK INTER + INTRA:         -10.736
REMARK INTER:                  -9.302
REMARK INTRA:                  -1.434
REMARK UNBOUND:                -2.263
REMARK SMILES CCCCCCCCCCCCCCCC(=O)[O-]
REMARK SMILES IDX 9 1 10 2 11 3 12 4 13 5 14 6 15 7 16 8 17 9 18 10 8 11 7 12
REMARK SMILES IDX 6 13 5 14 4 15 3 16 2 17 1 18
REMARK H PARENT
REMARK Flexibility Score: inf
ROOT
ATOM      1  C   UNL     1     139.117 139.581 113.230  1.00  0.00     0.000 C 
ENDROOT
BRANCH   1   2
ATOM      2  C   UNL     1     138.626 138.359 112.436  1.00  0.00     0.000 C 
BRANCH   2   3
ATOM      3  C   UNL     1     137.478 137.613 113.137  1.00  0.00     0.000 C 
BRANCH   3   4
ATOM      4  C   UNL     1     137.815 137.185 114.581  1.00  0.00     0.000 C 
BRANCH   4   5
ATOM      5  C   UNL     1     136.842 136.119 115.114  1.00  0.00     0.000 C 
BRANCH   5   6
ATOM      6  C   UNL     1     135.390 136.619 115.172  1.00  0.00     0.006 C 
BRANCH   6   7
ATOM      7  C   UNL     1     134.466 135.664 115.938  1.00  0.00     0.053 C 
BRANCH   7   8
ATOM      8  C   UNL     1     133.789 134.724 114.992  1.00  0.00     0.041 C 
ATOM      9  O   UNL     1     134.317 133.615 114.713  1.00  0.00    -0.550 OA
ATOM     10  O   UNL     1     132.600 135.093 114.377  1.00  0.00    -0.550 OA
ENDBRANCH   7   8
ENDBRANCH   6   7
ENDBRANCH   5   6
ENDBRANCH   4   5
ENDBRANCH   3   4
ENDBRANCH   2   3
ENDBRANCH   1   2
BRANCH   1  11
ATOM     11  C   UNL     1     140.516 139.369 113.829  1.00  0.00     0.000 C 
BRANCH  11  12
ATOM     12  C   UNL     1     140.575 139.724 115.325  1.00  0.00    -0.000 C 
BRANCH  12  13
ATOM     13  C   UNL     1     139.564 140.815 115.715  1.00  0.00    -0.000 C 
BRANCH  13  14
ATOM     14  C   UNL     1     140.245 142.140 116.097  1.00  0.00    -0.000 C 
BRANCH  14  15
ATOM     15  C   UNL     1     140.232 143.165 114.951  1.00  0.00    -0.000 C 
BRANCH  15  16
ATOM     16  C   UNL     1     141.467 143.058 114.045  1.00  0.00    -0.000 C 
BRANCH  16  17
ATOM     17  C   UNL     1     142.732 142.798 114.872  1.00  0.00    -0.003 C 
ATOM     18  C   UNL     1     143.548 141.648 114.286  1.00  0.00     0.004 C 
ENDBRANCH  16  17
ENDBRANCH  15  16
ENDBRANCH  14  15
ENDBRANCH  13  14
ENDBRANCH  12  13
ENDBRANCH  11  12
ENDBRANCH   1  11
TORSDOF 14
ENDMDL
MODEL 7
REMARK VINA RESULT:    -4.646      3.995      5.233
REMARK INTER + INTRA:         -10.712
REMARK INTER:                  -9.487
REMARK INTRA:                  -1.225
REMARK UNBOUND:                -2.263
REMARK SMILES CCCCCCCCCCCCCCCC(=O)[O-]
REMARK SMILES IDX 9 1 10 2 11 3 12 4 13 5 14 6 15 7 16 8 17 9 18 10 8 11 7 12
REMARK SMILES IDX 6 13 5 14 4 15 3 16 2 17 1 18
REMARK H PARENT
REMARK Flexibility Score: inf
ROOT
ATOM      1  C   UNL     1     138.680 138.232 114.573  1.00  0.00     0.000 C 
ENDROOT
BRANCH   1   2
ATOM      2  C   UNL     1     137.715 137.178 114.005  1.00  0.00     0.000 C 
BRANCH   2   3
ATOM      3  C   UNL     1     136.259 137.401 114.448  1.00  0.00     0.000 C 
BRANCH   3   4
ATOM      4  C   UNL     1     135.255 136.451 113.761  1.00  0.00     0.000 C 
BRANCH   4   5
ATOM      5  C   UNL     1     134.145 135.986 114.719  1.00  0.00     0.000 C 
BRANCH   5   6
ATOM      6  C   UNL     1     134.559 136.081 116.196  1.00  0.00     0.006 C 
BRANCH   6   7
ATOM      7  C   UNL     1     134.908 134.715 116.800  1.00  0.00     0.053 C 
BRANCH   7   8
ATOM      8  C   UNL     1     136.387 134.491 116.762  1.00  0.00     0.041 C 
ATOM      9  O   UNL     1     136.885 133.690 115.928  1.00  0.00    -0.550 OA
ATOM     10  O   UNL     1     137.210 135.125 117.683  1.00  0.00    -0.550 OA
ENDBRANCH   7   8
ENDBRANCH   6   7
ENDBRANCH   5   6
ENDBRANCH   4   5
ENDBRANCH   3   4
ENDBRANCH   2   3
ENDBRANCH   1   2
BRANCH   1  11
ATOM     11  C   UNL     1     139.645 138.779 113.510  1.00  0.00     0.000 C 
BRANCH  11  12
ATOM     12  C   UNL     1     139.929 140.281 113.691  1.00  0.00    -0.000 C 
BRANCH  12  13
ATOM     13  C   UNL     1     139.448 140.815 115.050  1.00  0.00    -0.000 C 
BRANCH  13  14
ATOM     14  C   UNL     1     140.017 142.208 115.371  1.00  0.00    -0.000 C 
BRANCH  14  15
ATOM     15  C   UNL     1     140.585 142.915 114.130  1.00  0.00    -0.000 C 
BRANCH  15  16
ATOM     16  C   UNL     1     142.042 143.365 114.317  1.00  0.00    -0.000 C 
BRANCH  16  17
ATOM     17  C   UNL     1     142.816 142.364 115.182  1.00  0.00    -0.003 C 
ATOM     18  C   UNL     1     143.580 141.362 114.318  1.00  0.00     0.004 C 
ENDBRANCH  16  17
ENDBRANCH  15  16
ENDBRANCH  14  15
ENDBRANCH  13  14
ENDBRANCH  12  13
ENDBRANCH  11  12
ENDBRANCH   1  11
TORSDOF 14
ENDMDL
MODEL 8
REMARK VINA RESULT:    -4.617      4.741      8.080
REMARK INTER + INTRA:         -10.659
REMARK INTER:                  -9.249
REMARK INTRA:                  -1.410
REMARK UNBOUND:                -2.263
REMARK SMILES CCCCCCCCCCCCCCCC(=O)[O-]
REMARK SMILES IDX 9 1 10 2 11 3 12 4 13 5 14 6 15 7 16 8 17 9 18 10 8 11 7 12
REMARK SMILES IDX 6 13 5 14 4 15 3 16 2 17 1 18
REMARK H PARENT
REMARK Flexibility Score: inf
ROOT
ATOM      1  C   UNL     1     135.265 136.391 111.586  1.00  0.00     0.000 C 
ENDROOT
BRANCH   1   2
ATOM      2  C   UNL     1     135.673 137.234 112.806  1.00  0.00     0.000 C 
BRANCH   2   3
ATOM      3  C   UNL     1     137.189 137.215 113.065  1.00  0.00     0.000 C 
BRANCH   3   4
ATOM      4  C   UNL     1     137.623 138.119 114.239  1.00  0.00     0.000 C 
BRANCH   4   5
ATOM      5  C   UNL     1     138.767 139.070 113.848  1.00  0.00     0.000 C 
BRANCH   5   6
ATOM      6  C   UNL     1     139.075 140.106 114.941  1.00  0.00     0.006 C 
BRANCH   6   7
ATOM      7  C   UNL     1     140.001 141.226 114.449  1.00  0.00     0.053 C 
BRANCH   7   8
ATOM      8  C   UNL     1     140.321 142.167 115.567  1.00  0.00     0.041 C 
ATOM      9  O   UNL     1     139.452 142.980 115.979  1.00  0.00    -0.550 OA
ATOM     10  O   UNL     1     141.595 142.182 116.120  1.00  0.00    -0.550 OA
ENDBRANCH   7   8
ENDBRANCH   6   7
ENDBRANCH   5   6
ENDBRANCH   4   5
ENDBRANCH   3   4
ENDBRANCH   2   3
ENDBRANCH   1   2
BRANCH   1  11
ATOM     11  C   UNL     1     133.886 135.736 111.759  1.00  0.00     0.000 C 
BRANCH  11  12
ATOM     12  C   UNL     1     132.985 136.513 112.735  1.00  0.00    -0.000 C 
BRANCH  12  13
ATOM     13  C   UNL     1     132.412 135.621 113.849  1.00  0.00    -0.000 C 
BRANCH  13  14
ATOM     14  C   UNL     1     133.437 135.335 114.960  1.00  0.00    -0.000 C 
BRANCH  14  15
ATOM     15  C   UNL     1     133.600 133.832 115.242  1.00  0.00    -0.000 C 
BRANCH  15  16
ATOM     16  C   UNL     1     134.634 133.164 114.324  1.00  0.00    -0.000 C 
BRANCH  16  17
ATOM     17  C   UNL     1     135.972 133.910 114.372  1.00  0.00    -0.003 C 
ATOM     18  C   UNL     1     136.712 133.634 115.679  1.00  0.00     0.004 C 
ENDBRANCH  16  17
ENDBRANCH  15  16
ENDBRANCH  14  15
ENDBRANCH  13  14
ENDBRANCH  12  13
ENDBRANCH  11  12
ENDBRANCH   1  11
TORSDOF 14
ENDMDL
MODEL 9
REMARK VINA RESULT:    -4.604      4.652      5.882
REMARK INTER + INTRA:         -10.636
REMARK INTER:                  -9.400
REMARK INTRA:                  -1.236
REMARK UNBOUND:                -2.263
REMARK SMILES CCCCCCCCCCCCCCCC(=O)[O-]
REMARK SMILES IDX 9 1 10 2 11 3 12 4 13 5 14 6 15 7 16 8 17 9 18 10 8 11 7 12
REMARK SMILES IDX 6 13 5 14 4 15 3 16 2 17 1 18
REMARK H PARENT
REMARK Flexibility Score: inf
ROOT
ATOM      1  C   UNL     1     138.896 138.417 114.207  1.00  0.00     0.000 C 
ENDROOT
BRANCH   1   2
ATOM      2  C   UNL     1     138.006 137.673 113.198  1.00  0.00     0.000 C 
BRANCH   2   3
ATOM      3  C   UNL     1     137.112 136.611 113.860  1.00  0.00     0.000 C 
BRANCH   3   4
ATOM      4  C   UNL     1     135.738 137.155 114.306  1.00  0.00     0.000 C 
BRANCH   4   5
ATOM      5  C   UNL     1     135.170 136.383 115.509  1.00  0.00     0.000 C 
BRANCH   5   6
ATOM      6  C   UNL     1     133.815 135.724 115.202  1.00  0.00     0.006 C 
BRANCH   6   7
ATOM      7  C   UNL     1     133.874 134.193 115.272  1.00  0.00     0.053 C 
BRANCH   7   8
ATOM      8  C   UNL     1     134.789 133.658 114.216  1.00  0.00     0.041 C 
ATOM      9  O   UNL     1     134.548 133.875 113.000  1.00  0.00    -0.550 OA
ATOM     10  O   UNL     1     135.879 132.875 114.573  1.00  0.00    -0.550 OA
ENDBRANCH   7   8
ENDBRANCH   6   7
ENDBRANCH   5   6
ENDBRANCH   4   5
ENDBRANCH   3   4
ENDBRANCH   2   3
ENDBRANCH   1   2
BRANCH   1  11
ATOM     11  C   UNL     1     139.156 139.876 113.798  1.00  0.00     0.000 C 
BRANCH  11  12
ATOM     12  C   UNL     1     140.369 140.015 112.860  1.00  0.00    -0.000 C 
BRANCH  12  13
ATOM     13  C   UNL     1     140.643 141.474 112.460  1.00  0.00    -0.000 C 
BRANCH  13  14
ATOM     14  C   UNL     1     142.068 141.926 112.822  1.00  0.00    -0.000 C 
BRANCH  14  15
ATOM     15  C   UNL     1     142.093 142.926 113.989  1.00  0.00    -0.000 C 
BRANCH  15  16
ATOM     16  C   UNL     1     142.793 142.366 115.236  1.00  0.00    -0.000 C 
BRANCH  16  17
ATOM     17  C   UNL     1     141.805 141.594 116.118  1.00  0.00    -0.003 C 
ATOM     18  C   UNL     1     142.139 140.104 116.148  1.00  0.00     0.004 C 
ENDBRANCH  16  17
ENDBRANCH  15  16
ENDBRANCH  14  15
ENDBRANCH  13  14
ENDBRANCH  12  13
ENDBRANCH  11  12
ENDBRANCH   1  11
TORSDOF 14
ENDMDL
