MODEL 1
REMARK VINA RESULT:    -4.939      0.000      0.000
REMARK INTER + INTRA:         -14.900
REMARK INTER:                 -11.292
REMARK INTRA:                  -3.608
REMARK UNBOUND:                -3.608
REMARK SMILES CCCCCCCCCCCCCCCCCCCCCCCC(=O)[O-]
REMARK SMILES IDX 13 1 14 2 15 3 16 4 17 5 18 6 19 7 20 8 21 9 22 10 23 11
REMARK SMILES IDX 24 12 25 13 26 14 12 15 11 16 10 17 9 18 8 19 7 20 6 21 5 22
REMARK SMILES IDX 4 23 3 24 2 25 1 26
REMARK H PARENT
REMARK Flexibility Score: inf
ROOT
ATOM      1  C   UNL     1      13.201  20.683  28.458  1.00  0.00     0.000 C 
ENDROOT
BRANCH   1   2
ATOM      2  C   UNL     1      13.169  19.171  28.736  1.00  0.00     0.000 C 
BRANCH   2   3
ATOM      3  C   UNL     1      12.801  18.875  30.202  1.00  0.00     0.000 C 
BRANCH   3   4
ATOM      4  C   UNL     1      12.328  20.125  30.958  1.00  0.00     0.000 C 
BRANCH   4   5
ATOM      5  C   UNL     1      10.867  20.018  31.428  1.00  0.00     0.000 C 
BRANCH   5   6
ATOM      6  C   UNL     1       9.879  19.988  30.250  1.00  0.00     0.000 C 
BRANCH   6   7
ATOM      7  C   UNL     1       8.818  21.095  30.342  1.00  0.00     0.000 C 
BRANCH   7   8
ATOM      8  C   UNL     1       9.071  22.003  31.552  1.00  0.00     0.000 C 
BRANCH   8   9
ATOM      9  C   UNL     1       9.386  23.439  31.107  1.00  0.00     0.000 C 
BRANCH   9  10
ATOM     10  C   UNL     1      10.855  23.824  31.337  1.00  0.00     0.006 C 
BRANCH  10  11
ATOM     11  C   UNL     1      11.677  23.834  30.042  1.00  0.00     0.053 C 
BRANCH  11  12
ATOM     12  C   UNL     1      13.042  24.388  30.297  1.00  0.00     0.041 C 
ATOM     13  O   UNL     1      13.969  24.192  29.467  1.00  0.00    -0.550 OA
ATOM     14  O   UNL     1      13.276  25.172  31.419  1.00  0.00    -0.550 OA
ENDBRANCH  11  12
ENDBRANCH  10  11
ENDBRANCH   9  10
ENDBRANCH   8   9
ENDBRANCH   7   8
ENDBRANCH   6   7
ENDBRANCH   5   6
ENDBRANCH   4   5
ENDBRANCH   3   4
ENDBRANCH   2   3
ENDBRANCH   1   2
BRANCH   1  15
ATOM     15  C   UNL     1      14.541  21.130  27.839  1.00  0.00     0.000 C 
BRANCH  15  16
ATOM     16  C   UNL     1      14.405  21.538  26.363  1.00  0.00     0.000 C 
BRANCH  16  17
ATOM     17  C   UNL     1      15.768  21.899  25.744  1.00  0.00     0.000 C 
BRANCH  17  18
ATOM     18  C   UNL     1      16.862  22.118  26.800  1.00  0.00    -0.000 C 
BRANCH  18  19
ATOM     19  C   UNL     1      17.010  23.596  27.197  1.00  0.00    -0.000 C 
BRANCH  19  20
ATOM     20  C   UNL     1      17.014  23.761  28.722  1.00  0.00    -0.000 C 
BRANCH  20  21
ATOM     21  C   UNL     1      17.481  22.470  29.411  1.00  0.00    -0.000 C 
BRANCH  21  22
ATOM     22  C   UNL     1      16.992  22.374  30.867  1.00  0.00    -0.000 C 
BRANCH  22  23
ATOM     23  C   UNL     1      15.781  21.431  31.047  1.00  0.00    -0.000 C 
BRANCH  23  24
ATOM     24  C   UNL     1      15.998  20.339  32.112  1.00  0.00    -0.000 C 
BRANCH  24  25
ATOM     25  C   UNL     1      16.692  19.069  31.591  1.00  0.00    -0.003 C 
ATOM     26  C   UNL     1      16.630  18.940  30.068  1.00  0.00     0.004 C 
ENDBRANCH  24  25
ENDBRANCH  23  24
ENDBRANCH  22  23
ENDBRANCH  21  22
ENDBRANCH  20  21
ENDBRANCH  19  20
ENDBRANCH  18  19
ENDBRANCH  17  18
ENDBRANCH  16  17
ENDBRANCH  15  16
ENDBRANCH   1  15
TORSDOF 22
ENDMDL
MODEL 2
REMARK VINA RESULT:    -4.725      2.151      5.495
REMARK INTER + INTRA:         -14.410
REMARK INTER:                 -10.748
REMARK INTRA:                  -3.662
REMARK UNBOUND:                -3.608
REMARK SMILES CCCCCCCCCCCCCCCCCCCCCCCC(=O)[O-]
REMARK SMILES IDX 13 1 14 2 15 3 16 4 17 5 18 6 19 7 20 8 21 9 22 10 23 11
REMARK SMILES IDX 24 12 25 13 26 14 12 15 11 16 10 17 9 18 8 19 7 20 6 21 5 22
REMARK SMILES IDX 4 23 3 24 2 25 1 26
REMARK H PARENT
REMARK Flexibility Score: inf
ROOT
ATOM      1  C   UNL     1      10.385  22.223  29.070  1.00  0.00     0.000 C 
ENDROOT
BRANCH   1   2
ATOM      2  C   UNL     1       9.194  22.424  30.022  1.00  0.00     0.000 C 
BRANCH   2   3
ATOM      3  C   UNL     1       9.608  23.193  31.289  1.00  0.00     0.000 C 
BRANCH   3   4
ATOM      4  C   UNL     1      11.132  23.257  31.473  1.00  0.00     0.000 C 
BRANCH   4   5
ATOM      5  C   UNL     1      11.690  24.682  31.312  1.00  0.00     0.000 C 
BRANCH   5   6
ATOM      6  C   UNL     1      13.203  24.685  31.034  1.00  0.00     0.000 C 
BRANCH   6   7
ATOM      7  C   UNL     1      13.687  23.379  30.386  1.00  0.00     0.000 C 
BRANCH   7   8
ATOM      8  C   UNL     1      15.047  23.571  29.707  1.00  0.00     0.000 C 
BRANCH   8   9
ATOM      9  C   UNL     1      14.951  23.306  28.196  1.00  0.00     0.000 C 
BRANCH   9  10
ATOM     10  C   UNL     1      16.305  22.938  27.570  1.00  0.00     0.006 C 
BRANCH  10  11
ATOM     11  C   UNL     1      16.172  21.951  26.404  1.00  0.00     0.053 C 
BRANCH  11  12
ATOM     12  C   UNL     1      16.133  22.687  25.102  1.00  0.00     0.041 C 
ATOM     13  O   UNL     1      16.108  23.946  25.088  1.00  0.00    -0.550 OA
ATOM     14  O   UNL     1      16.185  21.985  23.905  1.00  0.00    -0.550 OA
ENDBRANCH  11  12
ENDBRANCH  10  11
ENDBRANCH   9  10
ENDBRANCH   8   9
ENDBRANCH   7   8
ENDBRANCH   6   7
ENDBRANCH   5   6
ENDBRANCH   4   5
ENDBRANCH   3   4
ENDBRANCH   2   3
ENDBRANCH   1   2
BRANCH   1  15
ATOM     15  C   UNL     1      10.863  20.757  29.041  1.00  0.00     0.000 C 
BRANCH  15  16
ATOM     16  C   UNL     1      10.060  19.852  29.990  1.00  0.00     0.000 C 
BRANCH  16  17
ATOM     17  C   UNL     1      10.982  18.978  30.860  1.00  0.00     0.000 C 
BRANCH  17  18
ATOM     18  C   UNL     1      11.469  19.702  32.124  1.00  0.00    -0.000 C 
BRANCH  18  19
ATOM     19  C   UNL     1      12.958  20.077  32.051  1.00  0.00    -0.000 C 
BRANCH  19  20
ATOM     20  C   UNL     1      13.698  19.206  31.028  1.00  0.00    -0.000 C 
BRANCH  20  21
ATOM     21  C   UNL     1      14.375  20.074  29.957  1.00  0.00    -0.000 C 
BRANCH  21  22
ATOM     22  C   UNL     1      15.774  19.555  29.582  1.00  0.00    -0.000 C 
BRANCH  22  23
ATOM     23  C   UNL     1      16.518  18.889  30.762  1.00  0.00    -0.000 C 
BRANCH  23  24
ATOM     24  C   UNL     1      17.747  19.681  31.248  1.00  0.00    -0.000 C 
BRANCH  24  25
ATOM     25  C   UNL     1      17.817  21.129  30.734  1.00  0.00    -0.003 C 
ATOM     26  C   UNL     1      17.484  22.159  31.815  1.00  0.00     0.004 C 
ENDBRANCH  24  25
ENDBRANCH  23  24
ENDBRANCH  22  23
ENDBRANCH  21  22
ENDBRANCH  20  21
ENDBRANCH  19  20
ENDBRANCH  18  19
ENDBRANCH  17  18
ENDBRANCH  16  17
ENDBRANCH  15  16
ENDBRANCH   1  15
TORSDOF 22
ENDMDL
MODEL 3
REMARK VINA RESULT:    -4.308      2.120      6.739
REMARK INTER + INTRA:         -13.457
REMARK INTER:                 -10.485
REMARK INTRA:                  -2.972
REMARK UNBOUND:                -3.608
REMARK SMILES CCCCCCCCCCCCCCCCCCCCCCCC(=O)[O-]
REMARK SMILES IDX 13 1 14 2 15 3 16 4 17 5 18 6 19 7 20 8 21 9 22 10 23 11
REMARK SMILES IDX 24 12 25 13 26 14 12 15 11 16 10 17 9 18 8 19 7 20 6 21 5 22
REMARK SMILES IDX 4 23 3 24 2 25 1 26
REMARK H PARENT
REMARK Flexibility Score: inf
ROOT
ATOM      1  C   UNL     1      12.001  23.829  30.377  1.00  0.00     0.000 C 
ENDROOT
BRANCH   1   2
ATOM      2  C   UNL     1      13.191  24.790  30.228  1.00  0.00     0.000 C 
BRANCH   2   3
ATOM      3  C   UNL     1      14.484  24.035  29.867  1.00  0.00     0.000 C 
BRANCH   3   4
ATOM      4  C   UNL     1      14.663  22.744  30.681  1.00  0.00     0.000 C 
BRANCH   4   5
ATOM      5  C   UNL     1      16.124  22.262  30.715  1.00  0.00     0.000 C 
BRANCH   5   6
ATOM      6  C   UNL     1      16.401  21.170  29.668  1.00  0.00     0.000 C 
BRANCH   6   7
ATOM      7  C   UNL     1      17.112  21.716  28.420  1.00  0.00     0.000 C 
BRANCH   7   8
ATOM      8  C   UNL     1      17.659  23.126  28.670  1.00  0.00     0.000 C 
BRANCH   8   9
ATOM      9  C   UNL     1      17.308  24.067  27.507  1.00  0.00     0.000 C 
BRANCH   9  10
ATOM     10  C   UNL     1      16.054  23.623  26.741  1.00  0.00     0.006 C 
BRANCH  10  11
ATOM     11  C   UNL     1      16.275  23.555  25.224  1.00  0.00     0.053 C 
BRANCH  11  12
ATOM     12  C   UNL     1      15.725  22.278  24.675  1.00  0.00     0.041 C 
ATOM     13  O   UNL     1      14.932  21.583  25.364  1.00  0.00    -0.550 OA
ATOM     14  O   UNL     1      16.038  21.885  23.380  1.00  0.00    -0.550 OA
ENDBRANCH  11  12
ENDBRANCH  10  11
ENDBRANCH   9  10
ENDBRANCH   8   9
ENDBRANCH   7   8
ENDBRANCH   6   7
ENDBRANCH   5   6
ENDBRANCH   4   5
ENDBRANCH   3   4
ENDBRANCH   2   3
ENDBRANCH   1   2
BRANCH   1  15
ATOM     15  C   UNL     1      10.909  24.398  31.307  1.00  0.00     0.000 C 
BRANCH  15  16
ATOM     16  C   UNL     1      10.140  23.301  32.060  1.00  0.00     0.000 C 
BRANCH  16  17
ATOM     17  C   UNL     1       9.003  22.713  31.205  1.00  0.00     0.000 C 
BRANCH  17  18
ATOM     18  C   UNL     1       9.514  21.786  30.091  1.00  0.00    -0.000 C 
BRANCH  18  19
ATOM     19  C   UNL     1       9.474  20.303  30.493  1.00  0.00    -0.000 C 
BRANCH  19  20
ATOM     20  C   UNL     1       9.960  20.109  31.935  1.00  0.00    -0.000 C 
BRANCH  20  21
ATOM     21  C   UNL     1      11.234  19.251  31.973  1.00  0.00    -0.000 C 
BRANCH  21  22
ATOM     22  C   UNL     1      12.492  20.058  31.608  1.00  0.00    -0.000 C 
BRANCH  22  23
ATOM     23  C   UNL     1      13.612  19.198  30.977  1.00  0.00    -0.000 C 
BRANCH  23  24
ATOM     24  C   UNL     1      13.394  18.897  29.482  1.00  0.00    -0.000 C 
BRANCH  24  25
ATOM     25  C   UNL     1      12.472  19.891  28.758  1.00  0.00    -0.003 C 
ATOM     26  C   UNL     1      13.243  20.989  28.022  1.00  0.00     0.004 C 
ENDBRANCH  24  25
ENDBRANCH  23  24
ENDBRANCH  22  23
ENDBRANCH  21  22
ENDBRANCH  20  21
ENDBRANCH  19  20
ENDBRANCH  18  19
ENDBRANCH  17  18
ENDBRANCH  16  17
ENDBRANCH  15  16
ENDBRANCH   1  15
TORSDOF 22
ENDMDL
MODEL 4
REMARK VINA RESULT:    -4.186      2.032      6.710
REMARK INTER + INTRA:         -13.178
REMARK INTER:                  -9.890
REMARK INTRA:                  -3.288
REMARK UNBOUND:                -3.608
REMARK SMILES CCCCCCCCCCCCCCCCCCCCCCCC(=O)[O-]
REMARK SMILES IDX 13 1 14 2 15 3 16 4 17 5 18 6 19 7 20 8 21 9 22 10 23 11
REMARK SMILES IDX 24 12 25 13 26 14 12 15 11 16 10 17 9 18 8 19 7 20 6 21 5 22
REMARK SMILES IDX 4 23 3 24 2 25 1 26
REMARK H PARENT
REMARK Flexibility Score: inf
ROOT
ATOM      1  C   UNL     1      14.251  23.850  29.655  1.00  0.00     0.000 C 
ENDROOT
BRANCH   1   2
ATOM      2  C   UNL     1      14.783  23.239  30.961  1.00  0.00     0.000 C 
BRANCH   2   3
ATOM      3  C   UNL     1      14.480  21.732  31.044  1.00  0.00     0.000 C 
BRANCH   3   4
ATOM      4  C   UNL     1      15.605  20.938  31.725  1.00  0.00     0.000 C 
BRANCH   4   5
ATOM      5  C   UNL     1      16.945  21.693  31.731  1.00  0.00     0.000 C 
BRANCH   5   6
ATOM      6  C   UNL     1      17.991  21.026  30.821  1.00  0.00     0.000 C 
BRANCH   6   7
ATOM      7  C   UNL     1      17.366  20.021  29.842  1.00  0.00     0.000 C 
BRANCH   7   8
ATOM      8  C   UNL     1      16.990  20.701  28.520  1.00  0.00     0.000 C 
BRANCH   8   9
ATOM      9  C   UNL     1      17.308  22.204  28.563  1.00  0.00     0.000 C 
BRANCH   9  10
ATOM     10  C   UNL     1      16.976  22.919  27.245  1.00  0.00     0.006 C 
BRANCH  10  11
ATOM     11  C   UNL     1      16.662  21.946  26.102  1.00  0.00     0.053 C 
BRANCH  11  12
ATOM     12  C   UNL     1      16.119  22.688  24.922  1.00  0.00     0.041 C 
ATOM     13  O   UNL     1      15.999  23.941  24.964  1.00  0.00    -0.550 OA
ATOM     14  O   UNL     1      15.803  22.004  23.756  1.00  0.00    -0.550 OA
ENDBRANCH  11  12
ENDBRANCH  10  11
ENDBRANCH   9  10
ENDBRANCH   8   9
ENDBRANCH   7   8
ENDBRANCH   6   7
ENDBRANCH   5   6
ENDBRANCH   4   5
ENDBRANCH   3   4
ENDBRANCH   2   3
ENDBRANCH   1   2
BRANCH   1  15
ATOM     15  C   UNL     1      12.843  24.456  29.829  1.00  0.00     0.000 C 
BRANCH  15  16
ATOM     16  C   UNL     1      12.536  24.833  31.287  1.00  0.00     0.000 C 
BRANCH  16  17
ATOM     17  C   UNL     1      11.352  24.022  31.847  1.00  0.00     0.000 C 
BRANCH  17  18
ATOM     18  C   UNL     1      10.065  24.207  31.030  1.00  0.00    -0.000 C 
BRANCH  18  19
ATOM     19  C   UNL     1       9.302  22.888  30.827  1.00  0.00    -0.000 C 
BRANCH  19  20
ATOM     20  C   UNL     1       9.821  21.798  31.773  1.00  0.00    -0.000 C 
BRANCH  20  21
ATOM     21  C   UNL     1       9.702  20.410  31.126  1.00  0.00    -0.000 C 
BRANCH  21  22
ATOM     22  C   UNL     1      10.918  19.517  31.431  1.00  0.00    -0.000 C 
BRANCH  22  23
ATOM     23  C   UNL     1      11.894  19.380  30.240  1.00  0.00    -0.000 C 
BRANCH  23  24
ATOM     24  C   UNL     1      11.363  19.989  28.929  1.00  0.00    -0.000 C 
BRANCH  24  25
ATOM     25  C   UNL     1      12.092  21.266  28.477  1.00  0.00    -0.003 C 
ATOM     26  C   UNL     1      13.403  20.973  27.744  1.00  0.00     0.004 C 
ENDBRANCH  24  25
ENDBRANCH  23  24
ENDBRANCH  22  23
ENDBRANCH  21  22
ENDBRANCH  20  21
ENDBRANCH  19  20
ENDBRANCH  18  19
ENDBRANCH  17  18
ENDBRANCH  16  17
ENDBRANCH  15  16
ENDBRANCH   1  15
TORSDOF 22
ENDMDL
MODEL 5
REMARK VINA RESULT:    -4.046     21.530     24.184
REMARK INTER + INTRA:         -12.858
REMARK INTER:                  -9.987
REMARK INTRA:                  -2.871
REMARK UNBOUND:                -3.608
REMARK SMILES CCCCCCCCCCCCCCCCCCCCCCCC(=O)[O-]
REMARK SMILES IDX 13 1 14 2 15 3 16 4 17 5 18 6 19 7 20 8 21 9 22 10 23 11
REMARK SMILES IDX 24 12 25 13 26 14 12 15 11 16 10 17 9 18 8 19 7 20 6 21 5 22
REMARK SMILES IDX 4 23 3 24 2 25 1 26
REMARK H PARENT
REMARK Flexibility Score: inf
ROOT
ATOM      1  C   UNL     1       2.189  36.072  15.363  1.00  0.00     0.000 C 
ENDROOT
BRANCH   1   2
ATOM      2  C   UNL     1       2.382  37.597  15.350  1.00  0.00     0.000 C 
BRANCH   2   3
ATOM      3  C   UNL     1       2.634  38.121  13.924  1.00  0.00     0.000 C 
BRANCH   3   4
ATOM      4  C   UNL     1       3.818  39.097  13.852  1.00  0.00     0.000 C 
BRANCH   4   5
ATOM      5  C   UNL     1       4.759  38.981  15.064  1.00  0.00     0.000 C 
BRANCH   5   6
ATOM      6  C   UNL     1       6.235  38.881  14.646  1.00  0.00     0.000 C 
BRANCH   6   7
ATOM      7  C   UNL     1       6.817  37.477  14.868  1.00  0.00     0.000 C 
BRANCH   7   8
ATOM      8  C   UNL     1       5.772  36.536  15.479  1.00  0.00     0.000 C 
BRANCH   8   9
ATOM      9  C   UNL     1       6.166  36.125  16.906  1.00  0.00     0.000 C 
BRANCH   9  10
ATOM     10  C   UNL     1       5.455  34.848  17.375  1.00  0.00     0.006 C 
BRANCH  10  11
ATOM     11  C   UNL     1       6.359  33.937  18.215  1.00  0.00     0.053 C 
BRANCH  11  12
ATOM     12  C   UNL     1       5.547  33.178  19.216  1.00  0.00     0.041 C 
ATOM     13  O   UNL     1       5.408  33.624  20.385  1.00  0.00    -0.550 OA
ATOM     14  O   UNL     1       4.894  32.012  18.841  1.00  0.00    -0.550 OA
ENDBRANCH  11  12
ENDBRANCH  10  11
ENDBRANCH   9  10
ENDBRANCH   8   9
ENDBRANCH   7   8
ENDBRANCH   6   7
ENDBRANCH   5   6
ENDBRANCH   4   5
ENDBRANCH   3   4
ENDBRANCH   2   3
ENDBRANCH   1   2
BRANCH   1  15
ATOM     15  C   UNL     1       2.703  35.410  14.068  1.00  0.00     0.000 C 
BRANCH  15  16
ATOM     16  C   UNL     1       1.615  35.294  12.989  1.00  0.00     0.000 C 
BRANCH  16  17
ATOM     17  C   UNL     1       0.217  35.107  13.606  1.00  0.00     0.000 C 
BRANCH  17  18
ATOM     18  C   UNL     1      -0.917  35.443  12.626  1.00  0.00    -0.000 C 
BRANCH  18  19
ATOM     19  C   UNL     1      -0.968  36.939  12.275  1.00  0.00    -0.000 C 
BRANCH  19  20
ATOM     20  C   UNL     1      -0.715  37.806  13.515  1.00  0.00    -0.000 C 
BRANCH  20  21
ATOM     21  C   UNL     1      -2.036  38.157  14.216  1.00  0.00    -0.000 C 
BRANCH  21  22
ATOM     22  C   UNL     1      -1.875  38.271  15.742  1.00  0.00    -0.000 C 
BRANCH  22  23
ATOM     23  C   UNL     1      -1.332  36.982  16.401  1.00  0.00    -0.000 C 
BRANCH  23  24
ATOM     24  C   UNL     1      -2.125  35.715  16.029  1.00  0.00    -0.000 C 
BRANCH  24  25
ATOM     25  C   UNL     1      -1.609  34.423  16.685  1.00  0.00    -0.003 C 
ATOM     26  C   UNL     1      -0.169  34.546  17.187  1.00  0.00     0.004 C 
ENDBRANCH  24  25
ENDBRANCH  23  24
ENDBRANCH  22  23
ENDBRANCH  21  22
ENDBRANCH  20  21
ENDBRANCH  19  20
ENDBRANCH  18  19
ENDBRANCH  17  18
ENDBRANCH  16  17
ENDBRANCH  15  16
ENDBRANCH   1  15
TORSDOF 22
ENDMDL
MODEL 6
REMARK VINA RESULT:    -3.949      1.621      4.665
REMARK INTER + INTRA:         -12.636
REMARK INTER:                 -10.349
REMARK INTRA:                  -2.287
REMARK UNBOUND:                -3.608
REMARK SMILES CCCCCCCCCCCCCCCCCCCCCCCC(=O)[O-]
REMARK SMILES IDX 13 1 14 2 15 3 16 4 17 5 18 6 19 7 20 8 21 9 22 10 23 11
REMARK SMILES IDX 24 12 25 13 26 14 12 15 11 16 10 17 9 18 8 19 7 20 6 21 5 22
REMARK SMILES IDX 4 23 3 24 2 25 1 26
REMARK H PARENT
REMARK Flexibility Score: inf
ROOT
ATOM      1  C   UNL     1      11.589  24.434  30.053  1.00  0.00     0.000 C 
ENDROOT
BRANCH   1   2
ATOM      2  C   UNL     1      11.030  23.988  31.414  1.00  0.00     0.000 C 
BRANCH   2   3
ATOM      3  C   UNL     1       9.504  23.792  31.361  1.00  0.00     0.000 C 
BRANCH   3   4
ATOM      4  C   UNL     1       9.043  22.529  32.103  1.00  0.00     0.000 C 
BRANCH   4   5
ATOM      5  C   UNL     1       8.377  21.502  31.171  1.00  0.00     0.000 C 
BRANCH   5   6
ATOM      6  C   UNL     1       9.392  20.820  30.238  1.00  0.00     0.000 C 
BRANCH   6   7
ATOM      7  C   UNL     1      10.210  19.733  30.951  1.00  0.00     0.000 C 
BRANCH   7   8
ATOM      8  C   UNL     1      11.562  20.282  31.425  1.00  0.00     0.000 C 
BRANCH   8   9
ATOM      9  C   UNL     1      12.702  19.313  31.075  1.00  0.00     0.000 C 
BRANCH   9  10
ATOM     10  C   UNL     1      12.731  18.941  29.585  1.00  0.00     0.006 C 
BRANCH  10  11
ATOM     11  C   UNL     1      13.787  19.725  28.796  1.00  0.00     0.053 C 
BRANCH  11  12
ATOM     12  C   UNL     1      13.132  20.755  27.931  1.00  0.00     0.041 C 
ATOM     13  O   UNL     1      12.080  21.330  28.319  1.00  0.00    -0.550 OA
ATOM     14  O   UNL     1      13.714  21.123  26.725  1.00  0.00    -0.550 OA
ENDBRANCH  11  12
ENDBRANCH  10  11
ENDBRANCH   9  10
ENDBRANCH   8   9
ENDBRANCH   7   8
ENDBRANCH   6   7
ENDBRANCH   5   6
ENDBRANCH   4   5
ENDBRANCH   3   4
ENDBRANCH   2   3
ENDBRANCH   1   2
BRANCH   1  15
ATOM     15  C   UNL     1      13.125  24.567  30.072  1.00  0.00     0.000 C 
BRANCH  15  16
ATOM     16  C   UNL     1      13.833  23.233  30.360  1.00  0.00     0.000 C 
BRANCH  16  17
ATOM     17  C   UNL     1      15.328  23.291  29.996  1.00  0.00     0.000 C 
BRANCH  17  18
ATOM     18  C   UNL     1      16.224  22.623  31.051  1.00  0.00    -0.000 C 
BRANCH  18  19
ATOM     19  C   UNL     1      15.747  21.208  31.418  1.00  0.00    -0.000 C 
BRANCH  19  20
ATOM     20  C   UNL     1      16.672  20.141  30.819  1.00  0.00    -0.000 C 
BRANCH  20  21
ATOM     21  C   UNL     1      17.698  20.776  29.870  1.00  0.00    -0.000 C 
BRANCH  21  22
ATOM     22  C   UNL     1      17.307  20.610  28.391  1.00  0.00    -0.000 C 
BRANCH  22  23
ATOM     23  C   UNL     1      17.060  21.953  27.666  1.00  0.00    -0.000 C 
BRANCH  23  24
ATOM     24  C   UNL     1      16.959  21.823  26.135  1.00  0.00    -0.000 C 
BRANCH  24  25
ATOM     25  C   UNL     1      15.915  22.744  25.482  1.00  0.00    -0.003 C 
ATOM     26  C   UNL     1      16.194  24.227  25.729  1.00  0.00     0.004 C 
ENDBRANCH  24  25
ENDBRANCH  23  24
ENDBRANCH  22  23
ENDBRANCH  21  22
ENDBRANCH  20  21
ENDBRANCH  19  20
ENDBRANCH  18  19
ENDBRANCH  17  18
ENDBRANCH  16  17
ENDBRANCH  15  16
ENDBRANCH   1  15
TORSDOF 22
ENDMDL
MODEL 7
REMARK VINA RESULT:    -3.627     21.218     23.704
REMARK INTER + INTRA:         -11.901
REMARK INTER:                  -8.754
REMARK INTRA:                  -3.146
REMARK UNBOUND:                -3.608
REMARK SMILES CCCCCCCCCCCCCCCCCCCCCCCC(=O)[O-]
REMARK SMILES IDX 13 1 14 2 15 3 16 4 17 5 18 6 19 7 20 8 21 9 22 10 23 11
REMARK SMILES IDX 24 12 25 13 26 14 12 15 11 16 10 17 9 18 8 19 7 20 6 21 5 22
REMARK SMILES IDX 4 23 3 24 2 25 1 26
REMARK H PARENT
REMARK Flexibility Score: inf
ROOT
ATOM      1  C   UNL     1       0.147  34.783  16.417  1.00  0.00     0.000 C 
ENDROOT
BRANCH   1   2
ATOM      2  C   UNL     1       0.331  33.673  17.464  1.00  0.00     0.000 C 
BRANCH   2   3
ATOM      3  C   UNL     1       1.813  33.497  17.846  1.00  0.00     0.000 C 
BRANCH   3   4
ATOM      4  C   UNL     1       2.079  32.184  18.597  1.00  0.00     0.000 C 
BRANCH   4   5
ATOM      5  C   UNL     1       3.563  32.000  18.962  1.00  0.00     0.000 C 
BRANCH   5   6
ATOM      6  C   UNL     1       4.304  33.343  19.077  1.00  0.00     0.000 C 
BRANCH   6   7
ATOM      7  C   UNL     1       5.713  33.292  18.469  1.00  0.00     0.000 C 
BRANCH   7   8
ATOM      8  C   UNL     1       6.082  34.631  17.818  1.00  0.00     0.000 C 
BRANCH   8   9
ATOM      9  C   UNL     1       4.998  35.076  16.823  1.00  0.00     0.000 C 
BRANCH   9  10
ATOM     10  C   UNL     1       5.536  36.030  15.746  1.00  0.00     0.006 C 
BRANCH  10  11
ATOM     11  C   UNL     1       5.105  37.485  15.971  1.00  0.00     0.053 C 
BRANCH  11  12
ATOM     12  C   UNL     1       5.903  38.403  15.100  1.00  0.00     0.041 C 
ATOM     13  O   UNL     1       7.151  38.484  15.243  1.00  0.00    -0.550 OA
ATOM     14  O   UNL     1       5.277  39.125  14.093  1.00  0.00    -0.550 OA
ENDBRANCH  11  12
ENDBRANCH  10  11
ENDBRANCH   9  10
ENDBRANCH   8   9
ENDBRANCH   7   8
ENDBRANCH   6   7
ENDBRANCH   5   6
ENDBRANCH   4   5
ENDBRANCH   3   4
ENDBRANCH   2   3
ENDBRANCH   1   2
BRANCH   1  15
ATOM     15  C   UNL     1      -1.262  35.407  16.475  1.00  0.00     0.000 C 
BRANCH  15  16
ATOM     16  C   UNL     1      -2.072  35.164  15.192  1.00  0.00     0.000 C 
BRANCH  16  17
ATOM     17  C   UNL     1      -1.660  36.131  14.066  1.00  0.00     0.000 C 
BRANCH  17  18
ATOM     18  C   UNL     1      -1.198  35.402  12.795  1.00  0.00    -0.000 C 
BRANCH  18  19
ATOM     19  C   UNL     1       0.235  35.781  12.387  1.00  0.00    -0.000 C 
BRANCH  19  20
ATOM     20  C   UNL     1       1.266  35.129  13.317  1.00  0.00    -0.000 C 
BRANCH  20  21
ATOM     21  C   UNL     1       2.246  36.175  13.867  1.00  0.00    -0.000 C 
BRANCH  21  22
ATOM     22  C   UNL     1       1.967  37.584  13.316  1.00  0.00    -0.000 C 
BRANCH  22  23
ATOM     23  C   UNL     1       1.923  38.675  14.412  1.00  0.00    -0.000 C 
BRANCH  23  24
ATOM     24  C   UNL     1       0.496  39.101  14.806  1.00  0.00    -0.000 C 
BRANCH  24  25
ATOM     25  C   UNL     1       0.219  39.080  16.319  1.00  0.00    -0.003 C 
ATOM     26  C   UNL     1      -1.272  38.985  16.648  1.00  0.00     0.004 C 
ENDBRANCH  24  25
ENDBRANCH  23  24
ENDBRANCH  22  23
ENDBRANCH  21  22
ENDBRANCH  20  21
ENDBRANCH  19  20
ENDBRANCH  18  19
ENDBRANCH  17  18
ENDBRANCH  16  17
ENDBRANCH  15  16
ENDBRANCH   1  15
TORSDOF 22
ENDMDL
MODEL 8
REMARK VINA RESULT:    -3.334     21.209     23.676
REMARK INTER + INTRA:         -11.230
REMARK INTER:                  -8.189
REMARK INTRA:                  -3.041
REMARK UNBOUND:                -3.608
REMARK SMILES CCCCCCCCCCCCCCCCCCCCCCCC(=O)[O-]
REMARK SMILES IDX 13 1 14 2 15 3 16 4 17 5 18 6 19 7 20 8 21 9 22 10 23 11
REMARK SMILES IDX 24 12 25 13 26 14 12 15 11 16 10 17 9 18 8 19 7 20 6 21 5 22
REMARK SMILES IDX 4 23 3 24 2 25 1 26
REMARK H PARENT
REMARK Flexibility Score: inf
ROOT
ATOM      1  C   UNL     1       0.674  34.254  16.988  1.00  0.00     0.000 C 
ENDROOT
BRANCH   1   2
ATOM      2  C   UNL     1       1.068  32.974  17.742  1.00  0.00     0.000 C 
BRANCH   2   3
ATOM      3  C   UNL     1       2.324  33.191  18.604  1.00  0.00     0.000 C 
BRANCH   3   4
ATOM      4  C   UNL     1       3.024  31.874  18.974  1.00  0.00     0.000 C 
BRANCH   4   5
ATOM      5  C   UNL     1       4.558  31.990  18.949  1.00  0.00     0.000 C 
BRANCH   5   6
ATOM      6  C   UNL     1       5.034  33.443  19.111  1.00  0.00     0.000 C 
BRANCH   6   7
ATOM      7  C   UNL     1       6.000  33.875  17.997  1.00  0.00     0.000 C 
BRANCH   7   8
ATOM      8  C   UNL     1       5.380  34.972  17.124  1.00  0.00     0.000 C 
BRANCH   8   9
ATOM      9  C   UNL     1       6.349  36.152  16.951  1.00  0.00     0.000 C 
BRANCH   9  10
ATOM     10  C   UNL     1       5.770  37.273  16.076  1.00  0.00     0.006 C 
BRANCH  10  11
ATOM     11  C   UNL     1       6.821  38.313  15.668  1.00  0.00     0.053 C 
BRANCH  11  12
ATOM     12  C   UNL     1       6.781  38.541  14.191  1.00  0.00     0.041 C 
ATOM     13  O   UNL     1       7.735  38.154  13.465  1.00  0.00    -0.550 OA
ATOM     14  O   UNL     1       5.665  39.125  13.607  1.00  0.00    -0.550 OA
ENDBRANCH  11  12
ENDBRANCH  10  11
ENDBRANCH   9  10
ENDBRANCH   8   9
ENDBRANCH   7   8
ENDBRANCH   6   7
ENDBRANCH   5   6
ENDBRANCH   4   5
ENDBRANCH   3   4
ENDBRANCH   2   3
ENDBRANCH   1   2
BRANCH   1  15
ATOM     15  C   UNL     1      -0.855  34.453  16.941  1.00  0.00     0.000 C 
BRANCH  15  16
ATOM     16  C   UNL     1      -1.330  35.094  15.627  1.00  0.00     0.000 C 
BRANCH  16  17
ATOM     17  C   UNL     1      -1.376  36.630  15.727  1.00  0.00     0.000 C 
BRANCH  17  18
ATOM     18  C   UNL     1      -2.049  37.285  14.511  1.00  0.00    -0.000 C 
BRANCH  18  19
ATOM     19  C   UNL     1      -1.507  38.695  14.226  1.00  0.00    -0.000 C 
BRANCH  19  20
ATOM     20  C   UNL     1      -0.246  38.635  13.354  1.00  0.00    -0.000 C 
BRANCH  20  21
ATOM     21  C   UNL     1      -0.380  37.555  12.270  1.00  0.00    -0.000 C 
BRANCH  21  22
ATOM     22  C   UNL     1       0.913  36.740  12.094  1.00  0.00    -0.000 C 
BRANCH  22  23
ATOM     23  C   UNL     1       0.906  35.401  12.867  1.00  0.00    -0.000 C 
BRANCH  23  24
ATOM     24  C   UNL     1       2.034  35.280  13.908  1.00  0.00    -0.000 C 
BRANCH  24  25
ATOM     25  C   UNL     1       2.757  36.601  14.224  1.00  0.00    -0.003 C 
ATOM     26  C   UNL     1       2.249  37.265  15.505  1.00  0.00     0.004 C 
ENDBRANCH  24  25
ENDBRANCH  23  24
ENDBRANCH  22  23
ENDBRANCH  21  22
ENDBRANCH  20  21
ENDBRANCH  19  20
ENDBRANCH  18  19
ENDBRANCH  17  18
ENDBRANCH  16  17
ENDBRANCH  15  16
ENDBRANCH   1  15
TORSDOF 22
ENDMDL
MODEL 9
REMARK VINA RESULT:    -3.244      2.233      4.254
REMARK INTER + INTRA:         -11.024
REMARK INTER:                  -8.240
REMARK INTRA:                  -2.784
REMARK UNBOUND:                -3.608
REMARK SMILES CCCCCCCCCCCCCCCCCCCCCCCC(=O)[O-]
REMARK SMILES IDX 13 1 14 2 15 3 16 4 17 5 18 6 19 7 20 8 21 9 22 10 23 11
REMARK SMILES IDX 24 12 25 13 26 14 12 15 11 16 10 17 9 18 8 19 7 20 6 21 5 22
REMARK SMILES IDX 4 23 3 24 2 25 1 26
REMARK H PARENT
REMARK Flexibility Score: inf
ROOT
ATOM      1  C   UNL     1      15.279  23.455  26.603  1.00  0.00     0.000 C 
ENDROOT
BRANCH   1   2
ATOM      2  C   UNL     1      15.148  21.980  26.192  1.00  0.00     0.000 C 
BRANCH   2   3
ATOM      3  C   UNL     1      14.368  21.168  27.242  1.00  0.00     0.000 C 
BRANCH   3   4
ATOM      4  C   UNL     1      14.453  21.781  28.648  1.00  0.00     0.000 C 
BRANCH   4   5
ATOM      5  C   UNL     1      13.127  22.415  29.101  1.00  0.00     0.000 C 
BRANCH   5   6
ATOM      6  C   UNL     1      13.327  23.816  29.701  1.00  0.00     0.000 C 
BRANCH   6   7
ATOM      7  C   UNL     1      11.997  24.517  30.019  1.00  0.00     0.000 C 
BRANCH   7   8
ATOM      8  C   UNL     1      11.741  24.555  31.530  1.00  0.00     0.000 C 
BRANCH   8   9
ATOM      9  C   UNL     1      11.286  23.181  32.047  1.00  0.00     0.000 C 
BRANCH   9  10
ATOM     10  C   UNL     1       9.773  22.962  31.899  1.00  0.00     0.006 C 
BRANCH  10  11
ATOM     11  C   UNL     1       9.423  21.944  30.806  1.00  0.00     0.053 C 
BRANCH  11  12
ATOM     12  C   UNL     1       7.941  21.868  30.623  1.00  0.00     0.041 C 
ATOM     13  O   UNL     1       7.205  21.493  31.573  1.00  0.00    -0.550 OA
ATOM     14  O   UNL     1       7.367  22.267  29.423  1.00  0.00    -0.550 OA
ENDBRANCH  11  12
ENDBRANCH  10  11
ENDBRANCH   9  10
ENDBRANCH   8   9
ENDBRANCH   7   8
ENDBRANCH   6   7
ENDBRANCH   5   6
ENDBRANCH   4   5
ENDBRANCH   3   4
ENDBRANCH   2   3
ENDBRANCH   1   2
BRANCH   1  15
ATOM     15  C   UNL     1      16.728  23.827  26.978  1.00  0.00     0.000 C 
BRANCH  15  16
ATOM     16  C   UNL     1      16.864  24.286  28.439  1.00  0.00     0.000 C 
BRANCH  16  17
ATOM     17  C   UNL     1      18.124  23.702  29.104  1.00  0.00     0.000 C 
BRANCH  17  18
ATOM     18  C   UNL     1      18.040  22.182  29.306  1.00  0.00    -0.000 C 
BRANCH  18  19
ATOM     19  C   UNL     1      17.911  21.790  30.787  1.00  0.00    -0.000 C 
BRANCH  19  20
ATOM     20  C   UNL     1      17.803  20.268  30.948  1.00  0.00    -0.000 C 
BRANCH  20  21
ATOM     21  C   UNL     1      16.885  19.906  32.125  1.00  0.00    -0.000 C 
BRANCH  21  22
ATOM     22  C   UNL     1      15.401  20.163  31.810  1.00  0.00    -0.000 C 
BRANCH  22  23
ATOM     23  C   UNL     1      14.546  18.875  31.783  1.00  0.00    -0.000 C 
BRANCH  23  24
ATOM     24  C   UNL     1      13.056  19.113  32.090  1.00  0.00    -0.000 C 
BRANCH  24  25
ATOM     25  C   UNL     1      12.291  19.874  30.994  1.00  0.00    -0.003 C 
ATOM     26  C   UNL     1      12.083  19.041  29.728  1.00  0.00     0.004 C 
ENDBRANCH  24  25
ENDBRANCH  23  24
ENDBRANCH  22  23
ENDBRANCH  21  22
ENDBRANCH  20  21
ENDBRANCH  19  20
ENDBRANCH  18  19
ENDBRANCH  17  18
ENDBRANCH  16  17
ENDBRANCH  15  16
ENDBRANCH   1  15
TORSDOF 22
ENDMDL
