MODEL 1
REMARK VINA RESULT:    -3.970      0.000      0.000
REMARK INTER + INTRA:          -5.100
REMARK INTER:                  -4.782
REMARK INTRA:                  -0.318
REMARK UNBOUND:                -0.318
REMARK SMILES O=c1c(O)c(-c2ccc(O)c(O)c2)oc2cc(O)cc(O)c12
REMARK SMILES IDX 5 1 3 2 2 3 1 4 22 5 20 6 19 7 17 8 16 9 15 10 14 11 6 12
REMARK SMILES IDX 7 13 8 14 9 15 13 16 11 17 10 18 12 20 4 22 21 24 18 26
REMARK H PARENT 10 19 12 21 4 23 21 25 18 27
REMARK Flexibility Score: inf
ROOT
ATOM      1  C   UNL     1      31.263  17.178  16.188  1.00  0.00     0.180 A 
ATOM      2  C   UNL     1      32.615  17.378  16.515  1.00  0.00     0.208 A 
ATOM      3  C   UNL     1      32.961  17.651  17.848  1.00  0.00     0.238 A 
ATOM      4  O   UNL     1      34.178  17.775  18.144  1.00  0.00    -0.285 OA
ATOM      5  C   UNL     1      31.949  17.736  18.834  1.00  0.00     0.111 A 
ATOM      6  C   UNL     1      32.180  18.047  20.208  1.00  0.00     0.134 A 
ATOM      7  C   UNL     1      31.120  17.975  21.121  1.00  0.00     0.093 A 
ATOM      8  C   UNL     1      29.825  17.668  20.696  1.00  0.00     0.123 A 
ATOM      9  C   UNL     1      29.578  17.422  19.349  1.00  0.00     0.094 A 
ATOM     10  C   UNL     1      30.622  17.450  18.420  1.00  0.00     0.146 A 
ATOM     11  O   UNL     1      30.344  17.199  17.146  1.00  0.00    -0.452 OA
ENDROOT
BRANCH   1  12
ATOM     12  C   UNL     1      30.819  16.911  14.800  1.00  0.00     0.025 A 
ATOM     13  C   UNL     1      30.668  15.599  14.319  1.00  0.00     0.016 A 
ATOM     14  C   UNL     1      30.270  15.371  12.999  1.00  0.00     0.051 A 
ATOM     15  C   UNL     1      30.029  16.449  12.138  1.00  0.00     0.157 A 
ATOM     16  C   UNL     1      30.596  17.988  13.927  1.00  0.00     0.062 A 
ATOM     17  C   UNL     1      30.197  17.763  12.604  1.00  0.00     0.158 A 
BRANCH  15  18
ATOM     18  O   UNL     1      29.630  16.218  10.822  1.00  0.00    -0.504 OA
ATOM     19  H   UNL     1      29.935  16.815  10.063  1.00  0.00     0.293 HD
ENDBRANCH  15  18
BRANCH  17  20
ATOM     20  O   UNL     1      29.971  18.858  11.770  1.00  0.00    -0.504 OA
ATOM     21  H   UNL     1      29.050  19.082  11.412  1.00  0.00     0.293 HD
ENDBRANCH  17  20
ENDBRANCH   1  12
BRANCH   2  22
ATOM     22  O   UNL     1      33.600  17.268  15.529  1.00  0.00    -0.502 OA
ATOM     23  H   UNL     1      33.378  17.203  14.543  1.00  0.00     0.293 HD
ENDBRANCH   2  22
BRANCH   6  24
ATOM     24  O   UNL     1      33.416  18.454  20.718  1.00  0.00    -0.507 OA
ATOM     25  H   UNL     1      34.163  17.830  20.983  1.00  0.00     0.293 HD
ENDBRANCH   6  24
BRANCH   8  26
ATOM     26  O   UNL     1      28.773  17.614  21.609  1.00  0.00    -0.508 OA
ATOM     27  H   UNL     1      27.884  17.191  21.368  1.00  0.00     0.293 HD
ENDBRANCH   8  26
TORSDOF 6
ENDMDL
MODEL 2
REMARK VINA RESULT:    -1.065      1.628      7.189
REMARK INTER + INTRA:          -1.601
REMARK INTER:                  -1.286
REMARK INTRA:                  -0.315
REMARK UNBOUND:                -0.318
REMARK SMILES O=c1c(O)c(-c2ccc(O)c(O)c2)oc2cc(O)cc(O)c12
REMARK SMILES IDX 5 1 3 2 2 3 1 4 22 5 20 6 19 7 17 8 16 9 15 10 14 11 6 12
REMARK SMILES IDX 7 13 8 14 9 15 13 16 11 17 10 18 12 20 4 22 21 24 18 26
REMARK H PARENT 10 19 12 21 4 23 21 25 18 27
REMARK Flexibility Score: inf
ROOT
ATOM      1  C   UNL     1      31.198  16.671  15.163  1.00  0.00     0.180 A 
ATOM      2  C   UNL     1      31.560  15.406  14.672  1.00  0.00     0.208 A 
ATOM      3  C   UNL     1      31.251  15.077  13.342  1.00  0.00     0.238 A 
ATOM      4  O   UNL     1      31.626  13.963  12.892  1.00  0.00    -0.285 OA
ATOM      5  C   UNL     1      30.570  16.012  12.526  1.00  0.00     0.111 A 
ATOM      6  C   UNL     1      30.170  15.770  11.177  1.00  0.00     0.134 A 
ATOM      7  C   UNL     1      29.619  16.812  10.423  1.00  0.00     0.093 A 
ATOM      8  C   UNL     1      29.391  18.069  10.990  1.00  0.00     0.123 A 
ATOM      9  C   UNL     1      29.723  18.297  12.323  1.00  0.00     0.094 A 
ATOM     10  C   UNL     1      30.309  17.287  13.091  1.00  0.00     0.146 A 
ATOM     11  O   UNL     1      30.618  17.550  14.354  1.00  0.00    -0.452 OA
ENDROOT
BRANCH   1  12
ATOM     12  C   UNL     1      31.467  17.081  16.561  1.00  0.00     0.025 A 
ATOM     13  C   UNL     1      32.708  17.622  16.939  1.00  0.00     0.016 A 
ATOM     14  C   UNL     1      32.948  17.980  18.268  1.00  0.00     0.051 A 
ATOM     15  C   UNL     1      31.958  17.792  19.241  1.00  0.00     0.157 A 
ATOM     16  C   UNL     1      30.485  16.875  17.543  1.00  0.00     0.062 A 
ATOM     17  C   UNL     1      30.722  17.232  18.876  1.00  0.00     0.158 A 
BRANCH  15  18
ATOM     18  O   UNL     1      32.199  18.151  20.566  1.00  0.00    -0.504 OA
ATOM     19  H   UNL     1      32.475  17.467  21.260  1.00  0.00     0.293 HD
ENDBRANCH  15  18
BRANCH  17  20
ATOM     20  O   UNL     1      29.717  17.025  19.821  1.00  0.00    -0.504 OA
ATOM     21  H   UNL     1      29.924  16.871  20.801  1.00  0.00     0.293 HD
ENDBRANCH  17  20
ENDBRANCH   1  12
BRANCH   2  22
ATOM     22  O   UNL     1      32.252  14.506  15.488  1.00  0.00    -0.502 OA
ATOM     23  H   UNL     1      31.957  14.292  16.433  1.00  0.00     0.293 HD
ENDBRANCH   2  22
BRANCH   6  24
ATOM     24  O   UNL     1      30.268  14.526  10.546  1.00  0.00    -0.507 OA
ATOM     25  H   UNL     1      29.555  14.122   9.959  1.00  0.00     0.293 HD
ENDBRANCH   6  24
BRANCH   8  26
ATOM     26  O   UNL     1      28.828  19.097  10.236  1.00  0.00    -0.508 OA
ATOM     27  H   UNL     1      27.845  19.332  10.312  1.00  0.00     0.293 HD
ENDBRANCH   8  26
TORSDOF 6
ENDMDL
