MODEL 1
REMARK VINA RESULT:    -2.909      0.000      0.000
REMARK INTER + INTRA:          -9.871
REMARK INTER:                  -6.310
REMARK INTRA:                  -3.561
REMARK UNBOUND:                -3.561
REMARK SMILES CCCCCCCCCCCCCCCCCCCCCC(=O)[O-]
REMARK SMILES IDX 12 1 11 2 10 3 9 4 8 5 7 6 6 7 5 8 4 9 3 10 2 11 1 12 13 13
REMARK SMILES IDX 14 14 15 15 16 16 17 17 18 18 19 19 20 20 21 21 22 22 23 23
REMARK SMILES IDX 24 24
REMARK H PARENT
REMARK Flexibility Score: inf
ROOT
ATOM      1  C   UNL     1       6.409  -2.541  -4.602  1.00  0.00     0.000 C 
ENDROOT
BRANCH   1   2
ATOM      2  C   UNL     1       7.852  -2.472  -4.065  1.00  0.00     0.000 C 
BRANCH   2   3
ATOM      3  C   UNL     1       8.864  -3.383  -4.790  1.00  0.00     0.000 C 
BRANCH   3   4
ATOM      4  C   UNL     1      10.293  -2.821  -4.895  1.00  0.00    -0.000 C 
BRANCH   4   5
ATOM      5  C   UNL     1      10.432  -1.423  -4.268  1.00  0.00    -0.000 C 
BRANCH   5   6
ATOM      6  C   UNL     1      10.852  -0.348  -5.289  1.00  0.00    -0.000 C 
BRANCH   6   7
ATOM      7  C   UNL     1      10.139   1.010  -5.144  1.00  0.00    -0.000 C 
BRANCH   7   8
ATOM      8  C   UNL     1       9.171   1.369  -6.289  1.00  0.00    -0.000 C 
BRANCH   8   9
ATOM      9  C   UNL     1       7.932   0.462  -6.403  1.00  0.00    -0.000 C 
BRANCH   9  10
ATOM     10  C   UNL     1       7.759  -0.134  -7.811  1.00  0.00    -0.000 C 
BRANCH  10  11
ATOM     11  C   UNL     1       8.150  -1.618  -7.874  1.00  0.00    -0.003 C 
ATOM     12  C   UNL     1       9.555  -1.839  -8.435  1.00  0.00     0.004 C 
ENDBRANCH  10  11
ENDBRANCH   9  10
ENDBRANCH   8   9
ENDBRANCH   7   8
ENDBRANCH   6   7
ENDBRANCH   5   6
ENDBRANCH   4   5
ENDBRANCH   3   4
ENDBRANCH   2   3
ENDBRANCH   1   2
BRANCH   1  13
ATOM     13  C   UNL     1       5.752  -3.934  -4.526  1.00  0.00     0.000 C 
BRANCH  13  14
ATOM     14  C   UNL     1       4.221  -3.923  -4.335  1.00  0.00     0.000 C 
BRANCH  14  15
ATOM     15  C   UNL     1       3.469  -5.043  -5.074  1.00  0.00     0.000 C 
BRANCH  15  16
ATOM     16  C   UNL     1       3.091  -4.655  -6.515  1.00  0.00     0.000 C 
BRANCH  16  17
ATOM     17  C   UNL     1       2.849  -3.147  -6.675  1.00  0.00     0.000 C 
BRANCH  17  18
ATOM     18  C   UNL     1       3.731  -2.519  -7.770  1.00  0.00     0.000 C 
BRANCH  18  19
ATOM     19  C   UNL     1       4.404  -1.217  -7.306  1.00  0.00     0.000 C 
BRANCH  19  20
ATOM     20  C   UNL     1       3.410  -0.238  -6.661  1.00  0.00     0.006 C 
BRANCH  20  21
ATOM     21  C   UNL     1       4.104   0.637  -5.613  1.00  0.00     0.053 C 
BRANCH  21  22
ATOM     22  C   UNL     1       3.137   1.616  -5.026  1.00  0.00     0.041 C 
ATOM     23  O   UNL     1       3.046   1.744  -3.777  1.00  0.00    -0.550 OA
ATOM     24  O   UNL     1       2.378   2.429  -5.860  1.00  0.00    -0.550 OA
ENDBRANCH  21  22
ENDBRANCH  20  21
ENDBRANCH  19  20
ENDBRANCH  18  19
ENDBRANCH  17  18
ENDBRANCH  16  17
ENDBRANCH  15  16
ENDBRANCH  14  15
ENDBRANCH  13  14
ENDBRANCH   1  13
TORSDOF 20
ENDMDL
MODEL 2
REMARK VINA RESULT:    -2.848      2.725      6.788
REMARK INTER + INTRA:          -9.739
REMARK INTER:                  -7.009
REMARK INTRA:                  -2.730
REMARK UNBOUND:                -3.561
REMARK SMILES CCCCCCCCCCCCCCCCCCCCCC(=O)[O-]
REMARK SMILES IDX 12 1 11 2 10 3 9 4 8 5 7 6 6 7 5 8 4 9 3 10 2 11 1 12 13 13
REMARK SMILES IDX 14 14 15 15 16 16 17 17 18 18 19 19 20 20 21 21 22 22 23 23
REMARK SMILES IDX 24 24
REMARK H PARENT
REMARK Flexibility Score: inf
ROOT
ATOM      1  C   UNL     1       3.591  -6.051  -2.591  1.00  0.00     0.000 C 
ENDROOT
BRANCH   1   2
ATOM      2  C   UNL     1       2.862  -7.397  -2.767  1.00  0.00     0.000 C 
BRANCH   2   3
ATOM      3  C   UNL     1       2.495  -7.757  -4.222  1.00  0.00     0.000 C 
BRANCH   3   4
ATOM      4  C   UNL     1       0.987  -7.889  -4.504  1.00  0.00    -0.000 C 
BRANCH   4   5
ATOM      5  C   UNL     1       0.495  -6.915  -5.587  1.00  0.00    -0.000 C 
BRANCH   5   6
ATOM      6  C   UNL     1      -0.603  -5.961  -5.079  1.00  0.00    -0.000 C 
BRANCH   6   7
ATOM      7  C   UNL     1      -0.237  -4.464  -5.106  1.00  0.00    -0.000 C 
BRANCH   7   8
ATOM      8  C   UNL     1      -1.059  -3.603  -6.085  1.00  0.00    -0.000 C 
BRANCH   8   9
ATOM      9  C   UNL     1      -0.289  -3.111  -7.323  1.00  0.00    -0.000 C 
BRANCH   9  10
ATOM     10  C   UNL     1       1.156  -3.636  -7.372  1.00  0.00    -0.000 C 
BRANCH  10  11
ATOM     11  C   UNL     1       2.195  -2.505  -7.326  1.00  0.00    -0.003 C 
ATOM     12  C   UNL     1       1.577  -1.121  -7.532  1.00  0.00     0.004 C 
ENDBRANCH  10  11
ENDBRANCH   9  10
ENDBRANCH   8   9
ENDBRANCH   7   8
ENDBRANCH   6   7
ENDBRANCH   5   6
ENDBRANCH   4   5
ENDBRANCH   3   4
ENDBRANCH   2   3
ENDBRANCH   1   2
BRANCH   1  13
ATOM     13  C   UNL     1       2.970  -4.868  -3.361  1.00  0.00     0.000 C 
BRANCH  13  14
ATOM     14  C   UNL     1       3.795  -4.367  -4.563  1.00  0.00     0.000 C 
BRANCH  14  15
ATOM     15  C   UNL     1       5.320  -4.489  -4.397  1.00  0.00     0.000 C 
BRANCH  15  16
ATOM     16  C   UNL     1       6.028  -3.122  -4.390  1.00  0.00     0.000 C 
BRANCH  16  17
ATOM     17  C   UNL     1       5.166  -2.009  -5.005  1.00  0.00     0.000 C 
BRANCH  17  18
ATOM     18  C   UNL     1       5.948  -1.141  -6.008  1.00  0.00     0.000 C 
BRANCH  18  19
ATOM     19  C   UNL     1       5.086  -0.018  -6.607  1.00  0.00     0.000 C 
BRANCH  19  20
ATOM     20  C   UNL     1       4.047   0.521  -5.612  1.00  0.00     0.006 C 
BRANCH  20  21
ATOM     21  C   UNL     1       4.020   2.052  -5.622  1.00  0.00     0.053 C 
BRANCH  21  22
ATOM     22  C   UNL     1       2.811   2.559  -4.901  1.00  0.00     0.041 C 
ATOM     23  O   UNL     1       2.458   2.035  -3.811  1.00  0.00    -0.550 OA
ATOM     24  O   UNL     1       2.109   3.649  -5.401  1.00  0.00    -0.550 OA
ENDBRANCH  21  22
ENDBRANCH  20  21
ENDBRANCH  19  20
ENDBRANCH  18  19
ENDBRANCH  17  18
ENDBRANCH  16  17
ENDBRANCH  15  16
ENDBRANCH  14  15
ENDBRANCH  13  14
ENDBRANCH   1  13
TORSDOF 20
ENDMDL
MODEL 3
REMARK VINA RESULT:    -2.837      1.801      5.723
REMARK INTER + INTRA:          -9.714
REMARK INTER:                  -7.189
REMARK INTRA:                  -2.525
REMARK UNBOUND:                -3.561
REMARK SMILES CCCCCCCCCCCCCCCCCCCCCC(=O)[O-]
REMARK SMILES IDX 12 1 11 2 10 3 9 4 8 5 7 6 6 7 5 8 4 9 3 10 2 11 1 12 13 13
REMARK SMILES IDX 14 14 15 15 16 16 17 17 18 18 19 19 20 20 21 21 22 22 23 23
REMARK SMILES IDX 24 24
REMARK H PARENT
REMARK Flexibility Score: inf
ROOT
ATOM      1  C   UNL     1       9.723   0.529  -4.870  1.00  0.00     0.000 C 
ENDROOT
BRANCH   1   2
ATOM      2  C   UNL     1      10.129  -0.911  -4.498  1.00  0.00     0.000 C 
BRANCH   2   3
ATOM      3  C   UNL     1       8.957  -1.847  -4.135  1.00  0.00     0.000 C 
BRANCH   3   4
ATOM      4  C   UNL     1       8.838  -3.113  -5.004  1.00  0.00    -0.000 C 
BRANCH   4   5
ATOM      5  C   UNL     1       7.521  -3.873  -4.774  1.00  0.00    -0.000 C 
BRANCH   5   6
ATOM      6  C   UNL     1       6.377  -2.958  -4.298  1.00  0.00    -0.000 C 
BRANCH   6   7
ATOM      7  C   UNL     1       4.957  -3.518  -4.510  1.00  0.00    -0.000 C 
BRANCH   7   8
ATOM      8  C   UNL     1       4.680  -4.879  -3.841  1.00  0.00    -0.000 C 
BRANCH   8   9
ATOM      9  C   UNL     1       3.299  -5.007  -3.174  1.00  0.00    -0.000 C 
BRANCH   9  10
ATOM     10  C   UNL     1       3.055  -6.403  -2.576  1.00  0.00    -0.000 C 
BRANCH  10  11
ATOM     11  C   UNL     1       4.297  -6.964  -1.865  1.00  0.00    -0.003 C 
ATOM     12  C   UNL     1       4.178  -6.926  -0.341  1.00  0.00     0.004 C 
ENDBRANCH  10  11
ENDBRANCH   9  10
ENDBRANCH   8   9
ENDBRANCH   7   8
ENDBRANCH   6   7
ENDBRANCH   5   6
ENDBRANCH   4   5
ENDBRANCH   3   4
ENDBRANCH   2   3
ENDBRANCH   1   2
BRANCH   1  13
ATOM     13  C   UNL     1       9.841   0.871  -6.369  1.00  0.00     0.000 C 
BRANCH  13  14
ATOM     14  C   UNL     1      10.198  -0.319  -7.283  1.00  0.00     0.000 C 
BRANCH  14  15
ATOM     15  C   UNL     1       9.007  -0.941  -8.031  1.00  0.00     0.000 C 
BRANCH  15  16
ATOM     16  C   UNL     1       7.754  -0.046  -8.003  1.00  0.00     0.000 C 
BRANCH  16  17
ATOM     17  C   UNL     1       6.565  -0.721  -7.303  1.00  0.00     0.000 C 
BRANCH  17  18
ATOM     18  C   UNL     1       5.858   0.216  -6.305  1.00  0.00     0.000 C 
BRANCH  18  19
ATOM     19  C   UNL     1       4.433  -0.255  -5.969  1.00  0.00     0.000 C 
BRANCH  19  20
ATOM     20  C   UNL     1       3.365   0.779  -6.359  1.00  0.00     0.006 C 
BRANCH  20  21
ATOM     21  C   UNL     1       3.752   2.178  -5.870  1.00  0.00     0.053 C 
BRANCH  21  22
ATOM     22  C   UNL     1       2.915   2.570  -4.693  1.00  0.00     0.041 C 
ATOM     23  O   UNL     1       2.921   1.866  -3.649  1.00  0.00    -0.550 OA
ATOM     24  O   UNL     1       2.174   3.745  -4.729  1.00  0.00    -0.550 OA
ENDBRANCH  21  22
ENDBRANCH  20  21
ENDBRANCH  19  20
ENDBRANCH  18  19
ENDBRANCH  17  18
ENDBRANCH  16  17
ENDBRANCH  15  16
ENDBRANCH  14  15
ENDBRANCH  13  14
ENDBRANCH   1  13
TORSDOF 20
ENDMDL
MODEL 4
REMARK VINA RESULT:    -2.831     12.698     15.624
REMARK INTER + INTRA:          -9.701
REMARK INTER:                  -6.275
REMARK INTRA:                  -3.426
REMARK UNBOUND:                -3.561
REMARK SMILES CCCCCCCCCCCCCCCCCCCCCC(=O)[O-]
REMARK SMILES IDX 12 1 11 2 10 3 9 4 8 5 7 6 6 7 5 8 4 9 3 10 2 11 1 12 13 13
REMARK SMILES IDX 14 14 15 15 16 16 17 17 18 18 19 19 20 20 21 21 22 22 23 23
REMARK SMILES IDX 24 24
REMARK H PARENT
REMARK Flexibility Score: inf
ROOT
ATOM      1  C   UNL     1       0.266  -3.842   3.919  1.00  0.00     0.000 C 
ENDROOT
BRANCH   1   2
ATOM      2  C   UNL     1      -0.707  -5.021   4.114  1.00  0.00     0.000 C 
BRANCH   2   3
ATOM      3  C   UNL     1      -2.199  -4.634   4.180  1.00  0.00     0.000 C 
BRANCH   3   4
ATOM      4  C   UNL     1      -2.603  -3.437   3.301  1.00  0.00    -0.000 C 
BRANCH   4   5
ATOM      5  C   UNL     1      -4.031  -2.941   3.588  1.00  0.00    -0.000 C 
BRANCH   5   6
ATOM      6  C   UNL     1      -5.006  -4.086   3.924  1.00  0.00    -0.000 C 
BRANCH   6   7
ATOM      7  C   UNL     1      -6.221  -4.211   2.984  1.00  0.00    -0.000 C 
BRANCH   7   8
ATOM      8  C   UNL     1      -6.191  -5.419   2.028  1.00  0.00    -0.000 C 
BRANCH   8   9
ATOM      9  C   UNL     1      -4.928  -6.293   2.122  1.00  0.00    -0.000 C 
BRANCH   9  10
ATOM     10  C   UNL     1      -3.982  -6.102   0.925  1.00  0.00    -0.000 C 
BRANCH  10  11
ATOM     11  C   UNL     1      -2.882  -7.173   0.866  1.00  0.00    -0.003 C 
ATOM     12  C   UNL     1      -2.502  -7.712   2.246  1.00  0.00     0.004 C 
ENDBRANCH  10  11
ENDBRANCH   9  10
ENDBRANCH   8   9
ENDBRANCH   7   8
ENDBRANCH   6   7
ENDBRANCH   5   6
ENDBRANCH   4   5
ENDBRANCH   3   4
ENDBRANCH   2   3
ENDBRANCH   1   2
BRANCH   1  13
ATOM     13  C   UNL     1       0.627  -3.075   5.206  1.00  0.00     0.000 C 
BRANCH  13  14
ATOM     14  C   UNL     1       0.126  -1.617   5.258  1.00  0.00     0.000 C 
BRANCH  14  15
ATOM     15  C   UNL     1      -0.627  -1.237   6.545  1.00  0.00     0.000 C 
BRANCH  15  16
ATOM     16  C   UNL     1      -1.987  -1.947   6.668  1.00  0.00     0.000 C 
BRANCH  16  17
ATOM     17  C   UNL     1      -3.087  -1.023   7.212  1.00  0.00     0.000 C 
BRANCH  17  18
ATOM     18  C   UNL     1      -4.503  -1.571   6.952  1.00  0.00     0.000 C 
BRANCH  18  19
ATOM     19  C   UNL     1      -5.384  -0.576   6.180  1.00  0.00     0.000 C 
BRANCH  19  20
ATOM     20  C   UNL     1      -6.836  -1.059   6.042  1.00  0.00     0.006 C 
BRANCH  20  21
ATOM     21  C   UNL     1      -7.010  -2.453   6.652  1.00  0.00     0.053 C 
BRANCH  21  22
ATOM     22  C   UNL     1      -8.129  -3.183   5.979  1.00  0.00     0.041 C 
ATOM     23  O   UNL     1      -8.205  -4.437   6.055  1.00  0.00    -0.550 OA
ATOM     24  O   UNL     1      -9.122  -2.471   5.316  1.00  0.00    -0.550 OA
ENDBRANCH  21  22
ENDBRANCH  20  21
ENDBRANCH  19  20
ENDBRANCH  18  19
ENDBRANCH  17  18
ENDBRANCH  16  17
ENDBRANCH  15  16
ENDBRANCH  14  15
ENDBRANCH  13  14
ENDBRANCH   1  13
TORSDOF 20
ENDMDL
MODEL 5
REMARK VINA RESULT:    -2.826     10.068     13.082
REMARK INTER + INTRA:          -9.690
REMARK INTER:                  -7.097
REMARK INTRA:                  -2.593
REMARK UNBOUND:                -3.561
REMARK SMILES CCCCCCCCCCCCCCCCCCCCCC(=O)[O-]
REMARK SMILES IDX 12 1 11 2 10 3 9 4 8 5 7 6 6 7 5 8 4 9 3 10 2 11 1 12 13 13
REMARK SMILES IDX 14 14 15 15 16 16 17 17 18 18 19 19 20 20 21 21 22 22 23 23
REMARK SMILES IDX 24 24
REMARK H PARENT
REMARK Flexibility Score: inf
ROOT
ATOM      1  C   UNL     1       3.847   3.417   4.291  1.00  0.00     0.000 C 
ENDROOT
BRANCH   1   2
ATOM      2  C   UNL     1       4.050   4.084   5.666  1.00  0.00     0.000 C 
BRANCH   2   3
ATOM      3  C   UNL     1       4.322   3.109   6.831  1.00  0.00     0.000 C 
BRANCH   3   4
ATOM      4  C   UNL     1       4.430   1.626   6.432  1.00  0.00    -0.000 C 
BRANCH   4   5
ATOM      5  C   UNL     1       3.291   0.769   7.008  1.00  0.00    -0.000 C 
BRANCH   5   6
ATOM      6  C   UNL     1       2.006   1.578   7.270  1.00  0.00    -0.000 C 
BRANCH   6   7
ATOM      7  C   UNL     1       0.782   1.155   6.435  1.00  0.00    -0.000 C 
BRANCH   7   8
ATOM      8  C   UNL     1       0.986  -0.092   5.553  1.00  0.00    -0.000 C 
BRANCH   8   9
ATOM      9  C   UNL     1       0.650  -1.432   6.232  1.00  0.00    -0.000 C 
BRANCH   9  10
ATOM     10  C   UNL     1      -0.625  -2.081   5.667  1.00  0.00    -0.000 C 
BRANCH  10  11
ATOM     11  C   UNL     1      -0.381  -2.784   4.323  1.00  0.00    -0.003 C 
ATOM     12  C   UNL     1      -1.655  -3.382   3.725  1.00  0.00     0.004 C 
ENDBRANCH  10  11
ENDBRANCH   9  10
ENDBRANCH   8   9
ENDBRANCH   7   8
ENDBRANCH   6   7
ENDBRANCH   5   6
ENDBRANCH   4   5
ENDBRANCH   3   4
ENDBRANCH   2   3
ENDBRANCH   1   2
BRANCH   1  13
ATOM     13  C   UNL     1       2.386   3.364   3.802  1.00  0.00     0.000 C 
BRANCH  13  14
ATOM     14  C   UNL     1       1.382   4.157   4.662  1.00  0.00     0.000 C 
BRANCH  14  15
ATOM     15  C   UNL     1       0.781   5.398   3.978  1.00  0.00     0.000 C 
BRANCH  15  16
ATOM     16  C   UNL     1       1.625   6.666   4.201  1.00  0.00     0.000 C 
BRANCH  16  17
ATOM     17  C   UNL     1       2.179   7.242   2.889  1.00  0.00     0.000 C 
BRANCH  17  18
ATOM     18  C   UNL     1       3.702   7.057   2.758  1.00  0.00     0.000 C 
BRANCH  18  19
ATOM     19  C   UNL     1       4.103   6.428   1.413  1.00  0.00     0.000 C 
BRANCH  19  20
ATOM     20  C   UNL     1       5.088   5.261   1.580  1.00  0.00     0.006 C 
BRANCH  20  21
ATOM     21  C   UNL     1       6.536   5.762   1.585  1.00  0.00     0.053 C 
BRANCH  21  22
ATOM     22  C   UNL     1       7.169   5.546   0.247  1.00  0.00     0.041 C 
ATOM     23  O   UNL     1       7.208   6.482  -0.594  1.00  0.00    -0.550 OA
ATOM     24  O   UNL     1       7.768   4.327  -0.049  1.00  0.00    -0.550 OA
ENDBRANCH  21  22
ENDBRANCH  20  21
ENDBRANCH  19  20
ENDBRANCH  18  19
ENDBRANCH  17  18
ENDBRANCH  16  17
ENDBRANCH  15  16
ENDBRANCH  14  15
ENDBRANCH  13  14
ENDBRANCH   1  13
TORSDOF 20
ENDMDL
MODEL 6
REMARK VINA RESULT:    -2.813     10.098     13.555
REMARK INTER + INTRA:          -9.662
REMARK INTER:                  -8.067
REMARK INTRA:                  -1.595
REMARK UNBOUND:                -3.561
REMARK SMILES CCCCCCCCCCCCCCCCCCCCCC(=O)[O-]
REMARK SMILES IDX 12 1 11 2 10 3 9 4 8 5 7 6 6 7 5 8 4 9 3 10 2 11 1 12 13 13
REMARK SMILES IDX 14 14 15 15 16 16 17 17 18 18 19 19 20 20 21 21 22 22 23 23
REMARK SMILES IDX 24 24
REMARK H PARENT
REMARK Flexibility Score: inf
ROOT
ATOM      1  C   UNL     1       1.018   1.218   6.344  1.00  0.00     0.000 C 
ENDROOT
BRANCH   1   2
ATOM      2  C   UNL     1       1.036  -0.319   6.464  1.00  0.00     0.000 C 
BRANCH   2   3
ATOM      3  C   UNL     1       0.412  -1.075   5.272  1.00  0.00     0.000 C 
BRANCH   3   4
ATOM      4  C   UNL     1       0.376  -2.607   5.416  1.00  0.00    -0.000 C 
BRANCH   4   5
ATOM      5  C   UNL     1       0.186  -3.329   4.071  1.00  0.00    -0.000 C 
BRANCH   5   6
ATOM      6  C   UNL     1      -0.450  -4.723   4.225  1.00  0.00    -0.000 C 
BRANCH   6   7
ATOM      7  C   UNL     1      -1.897  -4.846   3.706  1.00  0.00    -0.000 C 
BRANCH   7   8
ATOM      8  C   UNL     1      -2.566  -3.517   3.304  1.00  0.00    -0.000 C 
BRANCH   8   9
ATOM      9  C   UNL     1      -3.914  -3.233   3.990  1.00  0.00    -0.000 C 
BRANCH   9  10
ATOM     10  C   UNL     1      -3.848  -3.396   5.518  1.00  0.00    -0.000 C 
BRANCH  10  11
ATOM     11  C   UNL     1      -3.065  -2.263   6.199  1.00  0.00    -0.003 C 
ATOM     12  C   UNL     1      -2.786  -2.537   7.677  1.00  0.00     0.004 C 
ENDBRANCH  10  11
ENDBRANCH   9  10
ENDBRANCH   8   9
ENDBRANCH   7   8
ENDBRANCH   6   7
ENDBRANCH   5   6
ENDBRANCH   4   5
ENDBRANCH   3   4
ENDBRANCH   2   3
ENDBRANCH   1   2
BRANCH   1  13
ATOM     13  C   UNL     1       1.914   1.794   5.230  1.00  0.00     0.000 C 
BRANCH  13  14
ATOM     14  C   UNL     1       3.166   2.547   5.725  1.00  0.00     0.000 C 
BRANCH  14  15
ATOM     15  C   UNL     1       4.021   3.181   4.614  1.00  0.00     0.000 C 
BRANCH  15  16
ATOM     16  C   UNL     1       3.223   3.435   3.322  1.00  0.00     0.000 C 
BRANCH  16  17
ATOM     17  C   UNL     1       3.340   4.886   2.833  1.00  0.00     0.000 C 
BRANCH  17  18
ATOM     18  C   UNL     1       4.802   5.356   2.720  1.00  0.00     0.000 C 
BRANCH  18  19
ATOM     19  C   UNL     1       5.138   5.894   1.320  1.00  0.00     0.000 C 
BRANCH  19  20
ATOM     20  C   UNL     1       6.243   5.081   0.626  1.00  0.00     0.006 C 
BRANCH  20  21
ATOM     21  C   UNL     1       7.602   5.774   0.764  1.00  0.00     0.053 C 
BRANCH  21  22
ATOM     22  C   UNL     1       8.711   4.799   0.525  1.00  0.00     0.041 C 
ATOM     23  O   UNL     1       9.608   4.635   1.394  1.00  0.00    -0.550 OA
ATOM     24  O   UNL     1       8.722   4.029  -0.632  1.00  0.00    -0.550 OA
ENDBRANCH  21  22
ENDBRANCH  20  21
ENDBRANCH  19  20
ENDBRANCH  18  19
ENDBRANCH  17  18
ENDBRANCH  16  17
ENDBRANCH  15  16
ENDBRANCH  14  15
ENDBRANCH  13  14
ENDBRANCH   1  13
TORSDOF 20
ENDMDL
MODEL 7
REMARK VINA RESULT:    -2.764     11.073     13.894
REMARK INTER + INTRA:          -9.557
REMARK INTER:                  -6.877
REMARK INTRA:                  -2.680
REMARK UNBOUND:                -3.561
REMARK SMILES CCCCCCCCCCCCCCCCCCCCCC(=O)[O-]
REMARK SMILES IDX 12 1 11 2 10 3 9 4 8 5 7 6 6 7 5 8 4 9 3 10 2 11 1 12 13 13
REMARK SMILES IDX 14 14 15 15 16 16 17 17 18 18 19 19 20 20 21 21 22 22 23 23
REMARK SMILES IDX 24 24
REMARK H PARENT
REMARK Flexibility Score: inf
ROOT
ATOM      1  C   UNL     1      -0.210   7.987  -0.962  1.00  0.00     0.000 C 
ENDROOT
BRANCH   1   2
ATOM      2  C   UNL     1      -0.088   6.817  -1.957  1.00  0.00     0.000 C 
BRANCH   2   3
ATOM      3  C   UNL     1      -1.343   6.553  -2.815  1.00  0.00     0.000 C 
BRANCH   3   4
ATOM      4  C   UNL     1      -2.613   7.295  -2.361  1.00  0.00    -0.000 C 
BRANCH   4   5
ATOM      5  C   UNL     1      -3.627   6.371  -1.666  1.00  0.00    -0.000 C 
BRANCH   5   6
ATOM      6  C   UNL     1      -3.113   4.927  -1.510  1.00  0.00    -0.000 C 
BRANCH   6   7
ATOM      7  C   UNL     1      -2.657   4.541  -0.089  1.00  0.00    -0.000 C 
BRANCH   7   8
ATOM      8  C   UNL     1      -2.520   5.717   0.899  1.00  0.00    -0.000 C 
BRANCH   8   9
ATOM      9  C   UNL     1      -2.457   5.315   2.383  1.00  0.00    -0.000 C 
BRANCH   9  10
ATOM     10  C   UNL     1      -1.627   6.296   3.229  1.00  0.00    -0.000 C 
BRANCH  10  11
ATOM     11  C   UNL     1      -0.231   5.751   3.563  1.00  0.00    -0.003 C 
ATOM     12  C   UNL     1       0.378   6.395   4.809  1.00  0.00     0.004 C 
ENDBRANCH  10  11
ENDBRANCH   9  10
ENDBRANCH   8   9
ENDBRANCH   7   8
ENDBRANCH   6   7
ENDBRANCH   5   6
ENDBRANCH   4   5
ENDBRANCH   3   4
ENDBRANCH   2   3
ENDBRANCH   1   2
BRANCH   1  13
ATOM     13  C   UNL     1       0.483   7.762   0.397  1.00  0.00     0.000 C 
BRANCH  13  14
ATOM     14  C   UNL     1       2.024   7.814   0.359  1.00  0.00     0.000 C 
BRANCH  14  15
ATOM     15  C   UNL     1       2.706   7.796   1.738  1.00  0.00     0.000 C 
BRANCH  15  16
ATOM     16  C   UNL     1       3.510   6.507   1.985  1.00  0.00     0.000 C 
BRANCH  16  17
ATOM     17  C   UNL     1       3.662   6.185   3.480  1.00  0.00     0.000 C 
BRANCH  17  18
ATOM     18  C   UNL     1       4.302   4.806   3.726  1.00  0.00     0.000 C 
BRANCH  18  19
ATOM     19  C   UNL     1       3.593   3.684   2.950  1.00  0.00     0.000 C 
BRANCH  19  20
ATOM     20  C   UNL     1       2.417   3.079   3.734  1.00  0.00     0.006 C 
BRANCH  20  21
ATOM     21  C   UNL     1       2.716   3.054   5.236  1.00  0.00     0.053 C 
BRANCH  21  22
ATOM     22  C   UNL     1       2.344   1.727   5.820  1.00  0.00     0.041 C 
ATOM     23  O   UNL     1       3.169   1.096   6.532  1.00  0.00    -0.550 OA
ATOM     24  O   UNL     1       1.066   1.217   5.628  1.00  0.00    -0.550 OA
ENDBRANCH  21  22
ENDBRANCH  20  21
ENDBRANCH  19  20
ENDBRANCH  18  19
ENDBRANCH  17  18
ENDBRANCH  16  17
ENDBRANCH  15  16
ENDBRANCH  14  15
ENDBRANCH  13  14
ENDBRANCH   1  13
TORSDOF 20
ENDMDL
MODEL 8
REMARK VINA RESULT:    -2.694      9.552     13.241
REMARK INTER + INTRA:          -9.405
REMARK INTER:                  -7.508
REMARK INTRA:                  -1.897
REMARK UNBOUND:                -3.561
REMARK SMILES CCCCCCCCCCCCCCCCCCCCCC(=O)[O-]
REMARK SMILES IDX 12 1 11 2 10 3 9 4 8 5 7 6 6 7 5 8 4 9 3 10 2 11 1 12 13 13
REMARK SMILES IDX 14 14 15 15 16 16 17 17 18 18 19 19 20 20 21 21 22 22 23 23
REMARK SMILES IDX 24 24
REMARK H PARENT
REMARK Flexibility Score: inf
ROOT
ATOM      1  C   UNL     1       2.508   4.053   5.784  1.00  0.00     0.000 C 
ENDROOT
BRANCH   1   2
ATOM      2  C   UNL     1       1.057   4.066   5.264  1.00  0.00     0.000 C 
BRANCH   2   3
ATOM      3  C   UNL     1       0.481   5.466   4.967  1.00  0.00     0.000 C 
BRANCH   3   4
ATOM      4  C   UNL     1      -0.180   5.622   3.586  1.00  0.00    -0.000 C 
BRANCH   4   5
ATOM      5  C   UNL     1      -1.509   6.394   3.643  1.00  0.00    -0.000 C 
BRANCH   5   6
ATOM      6  C   UNL     1      -2.673   5.631   2.983  1.00  0.00    -0.000 C 
BRANCH   6   7
ATOM      7  C   UNL     1      -2.357   5.013   1.607  1.00  0.00    -0.000 C 
BRANCH   7   8
ATOM      8  C   UNL     1      -2.718   5.892   0.393  1.00  0.00    -0.000 C 
BRANCH   8   9
ATOM      9  C   UNL     1      -2.780   5.149  -0.954  1.00  0.00    -0.000 C 
BRANCH   9  10
ATOM     10  C   UNL     1      -2.722   6.101  -2.161  1.00  0.00    -0.000 C 
BRANCH  10  11
ATOM     11  C   UNL     1      -3.447   5.536  -3.391  1.00  0.00    -0.003 C 
ATOM     12  C   UNL     1      -4.872   5.076  -3.083  1.00  0.00     0.004 C 
ENDBRANCH  10  11
ENDBRANCH   9  10
ENDBRANCH   8   9
ENDBRANCH   7   8
ENDBRANCH   6   7
ENDBRANCH   5   6
ENDBRANCH   4   5
ENDBRANCH   3   4
ENDBRANCH   2   3
ENDBRANCH   1   2
BRANCH   1  13
ATOM     13  C   UNL     1       3.521   3.334   4.871  1.00  0.00     0.000 C 
BRANCH  13  14
ATOM     14  C   UNL     1       3.176   3.360   3.368  1.00  0.00     0.000 C 
BRANCH  14  15
ATOM     15  C   UNL     1       4.004   4.352   2.532  1.00  0.00     0.000 C 
BRANCH  15  16
ATOM     16  C   UNL     1       3.458   5.790   2.602  1.00  0.00     0.000 C 
BRANCH  16  17
ATOM     17  C   UNL     1       4.571   6.835   2.766  1.00  0.00     0.000 C 
BRANCH  17  18
ATOM     18  C   UNL     1       5.793   6.284   3.524  1.00  0.00     0.000 C 
BRANCH  18  19
ATOM     19  C   UNL     1       7.076   6.326   2.677  1.00  0.00     0.000 C 
BRANCH  19  20
ATOM     20  C   UNL     1       6.785   6.481   1.176  1.00  0.00     0.006 C 
BRANCH  20  21
ATOM     21  C   UNL     1       7.058   5.173   0.426  1.00  0.00     0.053 C 
BRANCH  21  22
ATOM     22  C   UNL     1       8.480   5.123  -0.035  1.00  0.00     0.041 C 
ATOM     23  O   UNL     1       9.289   4.313   0.491  1.00  0.00    -0.550 OA
ATOM     24  O   UNL     1       8.898   5.929  -1.088  1.00  0.00    -0.550 OA
ENDBRANCH  21  22
ENDBRANCH  20  21
ENDBRANCH  19  20
ENDBRANCH  18  19
ENDBRANCH  17  18
ENDBRANCH  16  17
ENDBRANCH  15  16
ENDBRANCH  14  15
ENDBRANCH  13  14
ENDBRANCH   1  13
TORSDOF 20
ENDMDL
MODEL 9
REMARK VINA RESULT:    -2.677     10.970     14.266
REMARK INTER + INTRA:          -9.369
REMARK INTER:                  -6.285
REMARK INTRA:                  -3.084
REMARK UNBOUND:                -3.561
REMARK SMILES CCCCCCCCCCCCCCCCCCCCCC(=O)[O-]
REMARK SMILES IDX 12 1 11 2 10 3 9 4 8 5 7 6 6 7 5 8 4 9 3 10 2 11 1 12 13 13
REMARK SMILES IDX 14 14 15 15 16 16 17 17 18 18 19 19 20 20 21 21 22 22 23 23
REMARK SMILES IDX 24 24
REMARK H PARENT
REMARK Flexibility Score: inf
ROOT
ATOM      1  C   UNL     1      -2.957   5.939   4.750  1.00  0.00     0.000 C 
ENDROOT
BRANCH   1   2
ATOM      2  C   UNL     1      -3.212   4.437   4.517  1.00  0.00     0.000 C 
BRANCH   2   3
ATOM      3  C   UNL     1      -4.267   3.801   5.446  1.00  0.00     0.000 C 
BRANCH   3   4
ATOM      4  C   UNL     1      -3.760   2.630   6.308  1.00  0.00    -0.000 C 
BRANCH   4   5
ATOM      5  C   UNL     1      -2.548   3.009   7.175  1.00  0.00    -0.000 C 
BRANCH   5   6
ATOM      6  C   UNL     1      -1.271   2.239   6.788  1.00  0.00    -0.000 C 
BRANCH   6   7
ATOM      7  C   UNL     1      -0.011   3.107   6.601  1.00  0.00    -0.000 C 
BRANCH   7   8
ATOM      8  C   UNL     1       1.092   2.485   5.723  1.00  0.00    -0.000 C 
BRANCH   8   9
ATOM      9  C   UNL     1       1.997   3.498   4.999  1.00  0.00    -0.000 C 
BRANCH   9  10
ATOM     10  C   UNL     1       2.502   2.979   3.642  1.00  0.00    -0.000 C 
BRANCH  10  11
ATOM     11  C   UNL     1       3.609   3.865   3.048  1.00  0.00    -0.003 C 
ATOM     12  C   UNL     1       3.793   5.178   3.810  1.00  0.00     0.004 C 
ENDBRANCH  10  11
ENDBRANCH   9  10
ENDBRANCH   8   9
ENDBRANCH   7   8
ENDBRANCH   6   7
ENDBRANCH   5   6
ENDBRANCH   4   5
ENDBRANCH   3   4
ENDBRANCH   2   3
ENDBRANCH   1   2
BRANCH   1  13
ATOM     13  C   UNL     1      -1.865   6.260   5.791  1.00  0.00     0.000 C 
BRANCH  13  14
ATOM     14  C   UNL     1      -0.468   6.546   5.203  1.00  0.00     0.000 C 
BRANCH  14  15
ATOM     15  C   UNL     1      -0.276   6.096   3.745  1.00  0.00     0.000 C 
BRANCH  15  16
ATOM     16  C   UNL     1       0.047   7.267   2.799  1.00  0.00     0.000 C 
BRANCH  16  17
ATOM     17  C   UNL     1      -0.653   7.135   1.438  1.00  0.00     0.000 C 
BRANCH  17  18
ATOM     18  C   UNL     1      -2.135   7.552   1.493  1.00  0.00     0.000 C 
BRANCH  18  19
ATOM     19  C   UNL     1      -3.081   6.402   1.111  1.00  0.00     0.000 C 
BRANCH  19  20
ATOM     20  C   UNL     1      -2.335   5.079   0.877  1.00  0.00     0.006 C 
BRANCH  20  21
ATOM     21  C   UNL     1      -2.703   4.475  -0.481  1.00  0.00     0.053 C 
BRANCH  21  22
ATOM     22  C   UNL     1      -2.369   5.429  -1.585  1.00  0.00     0.041 C 
ATOM     23  O   UNL     1      -1.176   5.786  -1.774  1.00  0.00    -0.550 OA
ATOM     24  O   UNL     1      -3.368   5.877  -2.442  1.00  0.00    -0.550 OA
ENDBRANCH  21  22
ENDBRANCH  20  21
ENDBRANCH  19  20
ENDBRANCH  18  19
ENDBRANCH  17  18
ENDBRANCH  16  17
ENDBRANCH  15  16
ENDBRANCH  14  15
ENDBRANCH  13  14
ENDBRANCH   1  13
TORSDOF 20
ENDMDL
