MODEL 1
REMARK VINA RESULT:    -3.002      0.000      0.000
REMARK INTER + INTRA:          -7.299
REMARK INTER:                  -5.809
REMARK INTRA:                  -1.490
REMARK UNBOUND:                -1.490
REMARK SMILES CCCCCCCCCCCCCCCCCC(=O)[O-]
REMARK SMILES IDX 10 1 11 2 12 3 13 4 14 5 15 6 16 7 17 8 18 9 19 10 20 11
REMARK SMILES IDX 9 12 8 13 7 14 6 15 5 16 4 17 3 18 2 19 1 20
REMARK H PARENT
REMARK Flexibility Score: inf
ROOT
ATOM      1  C   UNL     1      -8.448   6.850   6.415  1.00  0.00     0.000 C 
ENDROOT
BRANCH   1   2
ATOM      2  C   UNL     1      -8.942   5.970   7.577  1.00  0.00     0.000 C 
BRANCH   2   3
ATOM      3  C   UNL     1     -10.118   6.608   8.352  1.00  0.00     0.000 C 
BRANCH   3   4
ATOM      4  C   UNL     1      -9.904   8.094   8.687  1.00  0.00     0.000 C 
BRANCH   4   5
ATOM      5  C   UNL     1      -8.879   8.356   9.805  1.00  0.00     0.000 C 
BRANCH   5   6
ATOM      6  C   UNL     1      -7.582   9.033   9.308  1.00  0.00     0.000 C 
BRANCH   6   7
ATOM      7  C   UNL     1      -6.314   8.342   9.835  1.00  0.00     0.006 C 
BRANCH   7   8
ATOM      8  C   UNL     1      -5.486   7.712   8.708  1.00  0.00     0.053 C 
BRANCH   8   9
ATOM      9  C   UNL     1      -5.068   6.314   9.045  1.00  0.00     0.041 C 
ATOM     10  O   UNL     1      -3.862   5.968   8.937  1.00  0.00    -0.550 OA
ATOM     11  O   UNL     1      -6.007   5.401   9.509  1.00  0.00    -0.550 OA
ENDBRANCH   8   9
ENDBRANCH   7   8
ENDBRANCH   6   7
ENDBRANCH   5   6
ENDBRANCH   4   5
ENDBRANCH   3   4
ENDBRANCH   2   3
ENDBRANCH   1   2
BRANCH   1  12
ATOM     12  C   UNL     1      -9.246   6.627   5.119  1.00  0.00     0.000 C 
BRANCH  12  13
ATOM     13  C   UNL     1      -9.298   7.885   4.235  1.00  0.00    -0.000 C 
BRANCH  13  14
ATOM     14  C   UNL     1      -7.965   8.655   4.215  1.00  0.00    -0.000 C 
BRANCH  14  15
ATOM     15  C   UNL     1      -7.908   9.838   3.228  1.00  0.00    -0.000 C 
BRANCH  15  16
ATOM     16  C   UNL     1      -7.937   9.450   1.736  1.00  0.00    -0.000 C 
BRANCH  16  17
ATOM     17  C   UNL     1      -9.246   9.785   0.999  1.00  0.00    -0.000 C 
BRANCH  17  18
ATOM     18  C   UNL     1      -9.821   8.585   0.230  1.00  0.00    -0.000 C 
BRANCH  18  19
ATOM     19  C   UNL     1      -9.308   8.510  -1.217  1.00  0.00    -0.003 C 
ATOM     20  C   UNL     1      -9.020   9.886  -1.819  1.00  0.00     0.004 C 
ENDBRANCH  18  19
ENDBRANCH  17  18
ENDBRANCH  16  17
ENDBRANCH  15  16
ENDBRANCH  14  15
ENDBRANCH  13  14
ENDBRANCH  12  13
ENDBRANCH   1  12
TORSDOF 16
ENDMDL
MODEL 2
REMARK VINA RESULT:    -2.705      1.800      2.442
REMARK INTER + INTRA:          -6.726
REMARK INTER:                  -5.898
REMARK INTRA:                  -0.828
REMARK UNBOUND:                -1.490
REMARK SMILES CCCCCCCCCCCCCCCCCC(=O)[O-]
REMARK SMILES IDX 10 1 11 2 12 3 13 4 14 5 15 6 16 7 17 8 18 9 19 10 20 11
REMARK SMILES IDX 9 12 8 13 7 14 6 15 5 16 4 17 3 18 2 19 1 20
REMARK H PARENT
REMARK Flexibility Score: inf
ROOT
ATOM      1  C   UNL     1      -8.505   7.197   5.031  1.00  0.00     0.000 C 
ENDROOT
BRANCH   1   2
ATOM      2  C   UNL     1      -9.562   6.771   6.065  1.00  0.00     0.000 C 
BRANCH   2   3
ATOM      3  C   UNL     1      -9.050   5.674   7.026  1.00  0.00     0.000 C 
BRANCH   3   4
ATOM      4  C   UNL     1      -8.728   6.190   8.439  1.00  0.00     0.000 C 
BRANCH   4   5
ATOM      5  C   UNL     1      -8.054   5.154   9.358  1.00  0.00     0.000 C 
BRANCH   5   6
ATOM      6  C   UNL     1      -6.598   5.514   9.730  1.00  0.00     0.000 C 
BRANCH   6   7
ATOM      7  C   UNL     1      -5.880   6.296   8.617  1.00  0.00     0.006 C 
BRANCH   7   8
ATOM      8  C   UNL     1      -4.745   7.171   9.164  1.00  0.00     0.053 C 
BRANCH   8   9
ATOM      9  C   UNL     1      -4.992   8.624   8.900  1.00  0.00     0.041 C 
ATOM     10  O   UNL     1      -5.504   8.993   7.810  1.00  0.00    -0.550 OA
ATOM     11  O   UNL     1      -4.685   9.568   9.871  1.00  0.00    -0.550 OA
ENDBRANCH   8   9
ENDBRANCH   7   8
ENDBRANCH   6   7
ENDBRANCH   5   6
ENDBRANCH   4   5
ENDBRANCH   3   4
ENDBRANCH   2   3
ENDBRANCH   1   2
BRANCH   1  12
ATOM     12  C   UNL     1      -8.095   8.673   5.172  1.00  0.00     0.000 C 
BRANCH  12  13
ATOM     13  C   UNL     1      -7.116   9.122   4.073  1.00  0.00    -0.000 C 
BRANCH  13  14
ATOM     14  C   UNL     1      -7.817   9.410   2.733  1.00  0.00    -0.000 C 
BRANCH  14  15
ATOM     15  C   UNL     1      -9.345   9.600   2.822  1.00  0.00    -0.000 C 
BRANCH  15  16
ATOM     16  C   UNL     1     -10.037   9.987   1.501  1.00  0.00    -0.000 C 
BRANCH  16  17
ATOM     17  C   UNL     1     -10.125   8.860   0.455  1.00  0.00    -0.000 C 
BRANCH  17  18
ATOM     18  C   UNL     1      -9.215   9.102  -0.761  1.00  0.00    -0.000 C 
BRANCH  18  19
ATOM     19  C   UNL     1      -9.743   8.428  -2.037  1.00  0.00    -0.003 C 
ATOM     20  C   UNL     1     -10.125   6.963  -1.822  1.00  0.00     0.004 C 
ENDBRANCH  18  19
ENDBRANCH  17  18
ENDBRANCH  16  17
ENDBRANCH  15  16
ENDBRANCH  14  15
ENDBRANCH  13  14
ENDBRANCH  12  13
ENDBRANCH   1  12
TORSDOF 16
ENDMDL
MODEL 3
REMARK VINA RESULT:    -2.328      4.152      8.473
REMARK INTER + INTRA:          -5.995
REMARK INTER:                  -4.689
REMARK INTRA:                  -1.307
REMARK UNBOUND:                -1.490
REMARK SMILES CCCCCCCCCCCCCCCCCC(=O)[O-]
REMARK SMILES IDX 10 1 11 2 12 3 13 4 14 5 15 6 16 7 17 8 18 9 19 10 20 11
REMARK SMILES IDX 9 12 8 13 7 14 6 15 5 16 4 17 3 18 2 19 1 20
REMARK H PARENT
REMARK Flexibility Score: inf
ROOT
ATOM      1  C   UNL     1      -7.779   7.312   6.522  1.00  0.00     0.000 C 
ENDROOT
BRANCH   1   2
ATOM      2  C   UNL     1      -8.368   8.647   6.034  1.00  0.00     0.000 C 
BRANCH   2   3
ATOM      3  C   UNL     1      -9.576   8.459   5.089  1.00  0.00     0.000 C 
BRANCH   3   4
ATOM      4  C   UNL     1     -10.111   9.775   4.497  1.00  0.00     0.000 C 
BRANCH   4   5
ATOM      5  C   UNL     1     -10.082   9.842   2.959  1.00  0.00     0.000 C 
BRANCH   5   6
ATOM      6  C   UNL     1      -8.665  10.046   2.377  1.00  0.00     0.000 C 
BRANCH   6   7
ATOM      7  C   UNL     1      -8.467   9.318   1.037  1.00  0.00     0.006 C 
BRANCH   7   8
ATOM      8  C   UNL     1      -9.288   9.951  -0.093  1.00  0.00     0.053 C 
BRANCH   8   9
ATOM      9  C   UNL     1      -9.289   9.095  -1.321  1.00  0.00     0.041 C 
ATOM     10  O   UNL     1      -9.615   7.881  -1.248  1.00  0.00    -0.550 OA
ATOM     11  O   UNL     1      -8.960   9.646  -2.553  1.00  0.00    -0.550 OA
ENDBRANCH   8   9
ENDBRANCH   7   8
ENDBRANCH   6   7
ENDBRANCH   5   6
ENDBRANCH   4   5
ENDBRANCH   3   4
ENDBRANCH   2   3
ENDBRANCH   1   2
BRANCH   1  12
ATOM     12  C   UNL     1      -8.771   6.143   6.397  1.00  0.00     0.000 C 
BRANCH  12  13
ATOM     13  C   UNL     1      -9.123   5.519   7.759  1.00  0.00    -0.000 C 
BRANCH  13  14
ATOM     14  C   UNL     1      -9.372   6.575   8.851  1.00  0.00    -0.000 C 
BRANCH  14  15
ATOM     15  C   UNL     1      -8.378   6.545  10.029  1.00  0.00    -0.000 C 
BRANCH  15  16
ATOM     16  C   UNL     1      -7.420   7.750  10.111  1.00  0.00    -0.000 C 
BRANCH  16  17
ATOM     17  C   UNL     1      -5.922   7.393  10.123  1.00  0.00    -0.000 C 
BRANCH  17  18
ATOM     18  C   UNL     1      -5.167   7.948   8.904  1.00  0.00    -0.000 C 
BRANCH  18  19
ATOM     19  C   UNL     1      -4.925   9.463   8.998  1.00  0.00    -0.003 C 
ATOM     20  C   UNL     1      -3.685   9.818   9.820  1.00  0.00     0.004 C 
ENDBRANCH  18  19
ENDBRANCH  17  18
ENDBRANCH  16  17
ENDBRANCH  15  16
ENDBRANCH  14  15
ENDBRANCH  13  14
ENDBRANCH  12  13
ENDBRANCH   1  12
TORSDOF 16
ENDMDL
MODEL 4
REMARK VINA RESULT:    -2.090      2.930      5.481
REMARK INTER + INTRA:          -5.536
REMARK INTER:                  -4.608
REMARK INTRA:                  -0.928
REMARK UNBOUND:                -1.490
REMARK SMILES CCCCCCCCCCCCCCCCCC(=O)[O-]
REMARK SMILES IDX 10 1 11 2 12 3 13 4 14 5 15 6 16 7 17 8 18 9 19 10 20 11
REMARK SMILES IDX 9 12 8 13 7 14 6 15 5 16 4 17 3 18 2 19 1 20
REMARK H PARENT
REMARK Flexibility Score: inf
ROOT
ATOM      1  C   UNL     1      -5.729   5.888   9.875  1.00  0.00     0.000 C 
ENDROOT
BRANCH   1   2
ATOM      2  C   UNL     1      -4.397   6.042   9.120  1.00  0.00     0.000 C 
BRANCH   2   3
ATOM      3  C   UNL     1      -3.874   7.497   9.120  1.00  0.00     0.000 C 
BRANCH   3   4
ATOM      4  C   UNL     1      -4.636   8.429  10.080  1.00  0.00     0.000 C 
BRANCH   4   5
ATOM      5  C   UNL     1      -6.094   8.708   9.674  1.00  0.00     0.000 C 
BRANCH   5   6
ATOM      6  C   UNL     1      -6.233   9.787   8.575  1.00  0.00     0.000 C 
BRANCH   6   7
ATOM      7  C   UNL     1      -6.762   9.216   7.250  1.00  0.00     0.006 C 
BRANCH   7   8
ATOM      8  C   UNL     1      -7.818  10.125   6.608  1.00  0.00     0.053 C 
BRANCH   8   9
ATOM      9  C   UNL     1      -9.185   9.854   7.154  1.00  0.00     0.041 C 
ATOM     10  O   UNL     1     -10.088   9.392   6.407  1.00  0.00    -0.550 OA
ATOM     11  O   UNL     1      -9.454  10.081   8.498  1.00  0.00    -0.550 OA
ENDBRANCH   8   9
ENDBRANCH   7   8
ENDBRANCH   6   7
ENDBRANCH   5   6
ENDBRANCH   4   5
ENDBRANCH   3   4
ENDBRANCH   2   3
ENDBRANCH   1   2
BRANCH   1  12
ATOM     12  C   UNL     1      -6.195   4.426   9.966  1.00  0.00     0.000 C 
BRANCH  12  13
ATOM     13  C   UNL     1      -7.649   4.239   9.496  1.00  0.00    -0.000 C 
BRANCH  13  14
ATOM     14  C   UNL     1      -8.540   5.450   9.826  1.00  0.00    -0.000 C 
BRANCH  14  15
ATOM     15  C   UNL     1      -8.659   6.499   8.702  1.00  0.00    -0.000 C 
BRANCH  15  16
ATOM     16  C   UNL     1      -9.408   6.028   7.440  1.00  0.00    -0.000 C 
BRANCH  16  17
ATOM     17  C   UNL     1      -8.664   6.261   6.112  1.00  0.00    -0.000 C 
BRANCH  17  18
ATOM     18  C   UNL     1      -9.595   6.719   4.978  1.00  0.00    -0.000 C 
BRANCH  18  19
ATOM     19  C   UNL     1      -8.832   7.371   3.815  1.00  0.00    -0.003 C 
ATOM     20  C   UNL     1      -9.754   7.873   2.704  1.00  0.00     0.004 C 
ENDBRANCH  18  19
ENDBRANCH  17  18
ENDBRANCH  16  17
ENDBRANCH  15  16
ENDBRANCH  14  15
ENDBRANCH  13  14
ENDBRANCH  12  13
ENDBRANCH   1  12
TORSDOF 16
ENDMDL
MODEL 5
REMARK VINA RESULT:    -2.021      1.648      2.234
REMARK INTER + INTRA:          -5.403
REMARK INTER:                  -4.838
REMARK INTRA:                  -0.565
REMARK UNBOUND:                -1.490
REMARK SMILES CCCCCCCCCCCCCCCCCC(=O)[O-]
REMARK SMILES IDX 10 1 11 2 12 3 13 4 14 5 15 6 16 7 17 8 18 9 19 10 20 11
REMARK SMILES IDX 9 12 8 13 7 14 6 15 5 16 4 17 3 18 2 19 1 20
REMARK H PARENT
REMARK Flexibility Score: inf
ROOT
ATOM      1  C   UNL     1      -9.058   7.559   4.258  1.00  0.00     0.000 C 
ENDROOT
BRANCH   1   2
ATOM      2  C   UNL     1      -9.845   6.850   5.374  1.00  0.00     0.000 C 
BRANCH   2   3
ATOM      3  C   UNL     1      -9.018   6.670   6.668  1.00  0.00     0.000 C 
BRANCH   3   4
ATOM      4  C   UNL     1      -7.845   7.658   6.795  1.00  0.00     0.000 C 
BRANCH   4   5
ATOM      5  C   UNL     1      -7.990   8.676   7.941  1.00  0.00     0.000 C 
BRANCH   5   6
ATOM      6  C   UNL     1      -7.146   8.325   9.188  1.00  0.00     0.000 C 
BRANCH   6   7
ATOM      7  C   UNL     1      -7.775   7.204  10.031  1.00  0.00     0.006 C 
BRANCH   7   8
ATOM      8  C   UNL     1      -6.896   5.947  10.071  1.00  0.00     0.053 C 
BRANCH   8   9
ATOM      9  C   UNL     1      -7.690   4.709   9.790  1.00  0.00     0.041 C 
ATOM     10  O   UNL     1      -7.107   3.609   9.603  1.00  0.00    -0.550 OA
ATOM     11  O   UNL     1      -9.078   4.764   9.767  1.00  0.00    -0.550 OA
ENDBRANCH   8   9
ENDBRANCH   7   8
ENDBRANCH   6   7
ENDBRANCH   5   6
ENDBRANCH   4   5
ENDBRANCH   3   4
ENDBRANCH   2   3
ENDBRANCH   1   2
BRANCH   1  12
ATOM     12  C   UNL     1      -9.698   8.892   3.834  1.00  0.00     0.000 C 
BRANCH  12  13
ATOM     13  C   UNL     1      -9.044  10.105   4.518  1.00  0.00    -0.000 C 
BRANCH  13  14
ATOM     14  C   UNL     1      -7.509  10.099   4.400  1.00  0.00    -0.000 C 
BRANCH  14  15
ATOM     15  C   UNL     1      -6.948   9.300   3.207  1.00  0.00    -0.000 C 
BRANCH  15  16
ATOM     16  C   UNL     1      -7.144   9.956   1.826  1.00  0.00    -0.000 C 
BRANCH  16  17
ATOM     17  C   UNL     1      -8.231   9.313   0.945  1.00  0.00    -0.000 C 
BRANCH  17  18
ATOM     18  C   UNL     1      -8.424  10.045  -0.393  1.00  0.00    -0.000 C 
BRANCH  18  19
ATOM     19  C   UNL     1      -9.310   9.259  -1.373  1.00  0.00    -0.003 C 
ATOM     20  C   UNL     1      -9.303   9.847  -2.784  1.00  0.00     0.004 C 
ENDBRANCH  18  19
ENDBRANCH  17  18
ENDBRANCH  16  17
ENDBRANCH  15  16
ENDBRANCH  14  15
ENDBRANCH  13  14
ENDBRANCH  12  13
ENDBRANCH   1  12
TORSDOF 16
ENDMDL
MODEL 6
REMARK VINA RESULT:    -2.016      3.989      8.481
REMARK INTER + INTRA:          -5.392
REMARK INTER:                  -4.699
REMARK INTRA:                  -0.693
REMARK UNBOUND:                -1.490
REMARK SMILES CCCCCCCCCCCCCCCCCC(=O)[O-]
REMARK SMILES IDX 10 1 11 2 12 3 13 4 14 5 15 6 16 7 17 8 18 9 19 10 20 11
REMARK SMILES IDX 9 12 8 13 7 14 6 15 5 16 4 17 3 18 2 19 1 20
REMARK H PARENT
REMARK Flexibility Score: inf
ROOT
ATOM      1  C   UNL     1      -8.704   9.319   7.752  1.00  0.00     0.000 C 
ENDROOT
BRANCH   1   2
ATOM      2  C   UNL     1      -8.830   9.234   6.221  1.00  0.00     0.000 C 
BRANCH   2   3
ATOM      3  C   UNL     1      -7.543   8.714   5.542  1.00  0.00     0.000 C 
BRANCH   3   4
ATOM      4  C   UNL     1      -7.289   9.319   4.150  1.00  0.00     0.000 C 
BRANCH   4   5
ATOM      5  C   UNL     1      -7.614   8.377   2.976  1.00  0.00     0.000 C 
BRANCH   5   6
ATOM      6  C   UNL     1      -8.079   9.118   1.702  1.00  0.00     0.000 C 
BRANCH   6   7
ATOM      7  C   UNL     1      -9.584   9.429   1.715  1.00  0.00     0.006 C 
BRANCH   7   8
ATOM      8  C   UNL     1     -10.113   9.795   0.323  1.00  0.00     0.053 C 
BRANCH   8   9
ATOM      9  C   UNL     1      -9.732   8.769  -0.699  1.00  0.00     0.041 C 
ATOM     10  O   UNL     1     -10.125   7.579  -0.581  1.00  0.00    -0.550 OA
ATOM     11  O   UNL     1      -8.969   9.136  -1.800  1.00  0.00    -0.550 OA
ENDBRANCH   8   9
ENDBRANCH   7   8
ENDBRANCH   6   7
ENDBRANCH   5   6
ENDBRANCH   4   5
ENDBRANCH   3   4
ENDBRANCH   2   3
ENDBRANCH   1   2
BRANCH   1  12
ATOM     12  C   UNL     1      -7.678   8.324   8.320  1.00  0.00     0.000 C 
BRANCH  12  13
ATOM     13  C   UNL     1      -6.596   9.012   9.170  1.00  0.00    -0.000 C 
BRANCH  13  14
ATOM     14  C   UNL     1      -5.633   8.010   9.832  1.00  0.00    -0.000 C 
BRANCH  14  15
ATOM     15  C   UNL     1      -5.198   6.832   8.937  1.00  0.00    -0.000 C 
BRANCH  15  16
ATOM     16  C   UNL     1      -5.873   5.482   9.253  1.00  0.00    -0.000 C 
BRANCH  16  17
ATOM     17  C   UNL     1      -7.332   5.578   9.735  1.00  0.00    -0.000 C 
BRANCH  17  18
ATOM     18  C   UNL     1      -7.999   4.202   9.894  1.00  0.00    -0.000 C 
BRANCH  18  19
ATOM     19  C   UNL     1      -9.390   4.141   9.244  1.00  0.00    -0.003 C 
ATOM     20  C   UNL     1      -9.855   5.495   8.705  1.00  0.00     0.004 C 
ENDBRANCH  18  19
ENDBRANCH  17  18
ENDBRANCH  16  17
ENDBRANCH  15  16
ENDBRANCH  14  15
ENDBRANCH  13  14
ENDBRANCH  12  13
ENDBRANCH   1  12
TORSDOF 16
ENDMDL
MODEL 7
REMARK VINA RESULT:    -1.975      1.977      3.084
REMARK INTER + INTRA:          -5.314
REMARK INTER:                  -4.400
REMARK INTRA:                  -0.914
REMARK UNBOUND:                -1.490
REMARK SMILES CCCCCCCCCCCCCCCCCC(=O)[O-]
REMARK SMILES IDX 10 1 11 2 12 3 13 4 14 5 15 6 16 7 17 8 18 9 19 10 20 11
REMARK SMILES IDX 9 12 8 13 7 14 6 15 5 16 4 17 3 18 2 19 1 20
REMARK H PARENT
REMARK Flexibility Score: inf
ROOT
ATOM      1  C   UNL     1      -6.868   9.136   6.151  1.00  0.00     0.000 C 
ENDROOT
BRANCH   1   2
ATOM      2  C   UNL     1      -6.491   9.039   7.640  1.00  0.00     0.000 C 
BRANCH   2   3
ATOM      3  C   UNL     1      -7.039   7.761   8.314  1.00  0.00     0.000 C 
BRANCH   3   4
ATOM      4  C   UNL     1      -8.576   7.691   8.352  1.00  0.00     0.000 C 
BRANCH   4   5
ATOM      5  C   UNL     1      -9.169   6.376   7.816  1.00  0.00     0.000 C 
BRANCH   5   6
ATOM      6  C   UNL     1     -10.118   5.675   8.814  1.00  0.00     0.000 C 
BRANCH   6   7
ATOM      7  C   UNL     1      -9.372   5.072  10.015  1.00  0.00     0.006 C 
BRANCH   7   8
ATOM      8  C   UNL     1      -9.185   3.555   9.880  1.00  0.00     0.053 C 
BRANCH   8   9
ATOM      9  C   UNL     1      -7.747   3.192   9.676  1.00  0.00     0.041 C 
ATOM     10  O   UNL     1      -6.848   4.063   9.805  1.00  0.00    -0.550 OA
ATOM     11  O   UNL     1      -7.398   1.882   9.373  1.00  0.00    -0.550 OA
ENDBRANCH   8   9
ENDBRANCH   7   8
ENDBRANCH   6   7
ENDBRANCH   5   6
ENDBRANCH   4   5
ENDBRANCH   3   4
ENDBRANCH   2   3
ENDBRANCH   1   2
BRANCH   1  12
ATOM     12  C   UNL     1      -8.105  10.016   5.907  1.00  0.00     0.000 C 
BRANCH  12  13
ATOM     13  C   UNL     1      -8.572   9.985   4.441  1.00  0.00    -0.000 C 
BRANCH  13  14
ATOM     14  C   UNL     1      -7.768   8.993   3.582  1.00  0.00    -0.000 C 
BRANCH  14  15
ATOM     15  C   UNL     1      -8.602   7.881   2.914  1.00  0.00    -0.000 C 
BRANCH  15  16
ATOM     16  C   UNL     1      -9.779   8.372   2.049  1.00  0.00    -0.000 C 
BRANCH  16  17
ATOM     17  C   UNL     1      -9.402   9.372   0.940  1.00  0.00    -0.000 C 
BRANCH  17  18
ATOM     18  C   UNL     1     -10.122   9.088  -0.389  1.00  0.00    -0.000 C 
BRANCH  18  19
ATOM     19  C   UNL     1      -9.166   9.098  -1.592  1.00  0.00    -0.003 C 
ATOM     20  C   UNL     1      -9.741   9.833  -2.804  1.00  0.00     0.004 C 
ENDBRANCH  18  19
ENDBRANCH  17  18
ENDBRANCH  16  17
ENDBRANCH  15  16
ENDBRANCH  14  15
ENDBRANCH  13  14
ENDBRANCH  12  13
ENDBRANCH   1  12
TORSDOF 16
ENDMDL
