MODEL 1
REMARK VINA RESULT:    -3.705      0.000      0.000
REMARK INTER + INTRA:         -12.317
REMARK INTER:                  -8.470
REMARK INTRA:                  -3.848
REMARK UNBOUND:                -3.848
REMARK SMILES CCCCCCCCCCCCCCCCCCCCCCCC(=O)[O-]
REMARK SMILES IDX 13 1 14 2 15 3 16 4 17 5 18 6 19 7 20 8 21 9 22 10 23 11
REMARK SMILES IDX 24 12 25 13 26 14 12 15 11 16 10 17 9 18 8 19 7 20 6 21 5 22
REMARK SMILES IDX 4 23 3 24 2 25 1 26
REMARK H PARENT
REMARK Flexibility Score: inf
ROOT
ATOM      1  C   UNL     1       3.781  -6.926   6.239  1.00  0.00     0.000 C 
ENDROOT
BRANCH   1   2
ATOM      2  C   UNL     1       3.600  -7.121   4.726  1.00  0.00     0.000 C 
BRANCH   2   3
ATOM      3  C   UNL     1       3.890  -8.563   4.273  1.00  0.00     0.000 C 
BRANCH   3   4
ATOM      4  C   UNL     1       2.618  -9.428   4.183  1.00  0.00     0.000 C 
BRANCH   4   5
ATOM      5  C   UNL     1       1.303  -8.637   4.044  1.00  0.00     0.000 C 
BRANCH   5   6
ATOM      6  C   UNL     1       0.253  -9.029   5.099  1.00  0.00     0.000 C 
BRANCH   6   7
ATOM      7  C   UNL     1       0.878  -9.267   6.490  1.00  0.00     0.000 C 
BRANCH   7   8
ATOM      8  C   UNL     1       0.211  -8.448   7.609  1.00  0.00     0.000 C 
BRANCH   8   9
ATOM      9  C   UNL     1      -1.296  -8.249   7.384  1.00  0.00     0.000 C 
BRANCH   9  10
ATOM     10  C   UNL     1      -1.738  -6.794   7.618  1.00  0.00     0.006 C 
BRANCH  10  11
ATOM     11  C   UNL     1      -1.553  -5.920   6.369  1.00  0.00     0.053 C 
BRANCH  11  12
ATOM     12  C   UNL     1      -2.352  -4.659   6.480  1.00  0.00     0.041 C 
ATOM     13  O   UNL     1      -1.790  -3.539   6.355  1.00  0.00    -0.550 OA
ATOM     14  O   UNL     1      -3.720  -4.721   6.717  1.00  0.00    -0.550 OA
ENDBRANCH  11  12
ENDBRANCH  10  11
ENDBRANCH   9  10
ENDBRANCH   8   9
ENDBRANCH   7   8
ENDBRANCH   6   7
ENDBRANCH   5   6
ENDBRANCH   4   5
ENDBRANCH   3   4
ENDBRANCH   2   3
ENDBRANCH   1   2
BRANCH   1  15
ATOM     15  C   UNL     1       2.830  -5.867   6.825  1.00  0.00     0.000 C 
BRANCH  15  16
ATOM     16  C   UNL     1       1.833  -5.338   5.780  1.00  0.00     0.000 C 
BRANCH  16  17
ATOM     17  C   UNL     1       1.784  -3.800   5.743  1.00  0.00     0.000 C 
BRANCH  17  18
ATOM     18  C   UNL     1       2.618  -3.147   6.859  1.00  0.00    -0.000 C 
BRANCH  18  19
ATOM     19  C   UNL     1       3.416  -1.900   6.430  1.00  0.00    -0.000 C 
BRANCH  19  20
ATOM     20  C   UNL     1       3.887  -1.898   4.962  1.00  0.00    -0.000 C 
BRANCH  20  21
ATOM     21  C   UNL     1       5.342  -2.360   4.743  1.00  0.00    -0.000 C 
BRANCH  21  22
ATOM     22  C   UNL     1       5.566  -3.876   4.870  1.00  0.00    -0.000 C 
BRANCH  22  23
ATOM     23  C   UNL     1       7.051  -4.269   4.788  1.00  0.00    -0.000 C 
BRANCH  23  24
ATOM     24  C   UNL     1       7.254  -5.797   4.864  1.00  0.00    -0.000 C 
BRANCH  24  25
ATOM     25  C   UNL     1       7.127  -6.501   3.502  1.00  0.00    -0.003 C 
ATOM     26  C   UNL     1       7.869  -5.777   2.381  1.00  0.00     0.004 C 
ENDBRANCH  24  25
ENDBRANCH  23  24
ENDBRANCH  22  23
ENDBRANCH  21  22
ENDBRANCH  20  21
ENDBRANCH  19  20
ENDBRANCH  18  19
ENDBRANCH  17  18
ENDBRANCH  16  17
ENDBRANCH  15  16
ENDBRANCH   1  15
TORSDOF 22
ENDMDL
MODEL 2
REMARK VINA RESULT:    -3.654      3.626      7.743
REMARK INTER + INTRA:         -12.200
REMARK INTER:                 -10.063
REMARK INTRA:                  -2.138
REMARK UNBOUND:                -3.848
REMARK SMILES CCCCCCCCCCCCCCCCCCCCCCCC(=O)[O-]
REMARK SMILES IDX 13 1 14 2 15 3 16 4 17 5 18 6 19 7 20 8 21 9 22 10 23 11
REMARK SMILES IDX 24 12 25 13 26 14 12 15 11 16 10 17 9 18 8 19 7 20 6 21 5 22
REMARK SMILES IDX 4 23 3 24 2 25 1 26
REMARK H PARENT
REMARK Flexibility Score: inf
ROOT
ATOM      1  C   UNL     1       2.101  -3.883   5.886  1.00  0.00     0.000 C 
ENDROOT
BRANCH   1   2
ATOM      2  C   UNL     1       2.824  -3.153   7.029  1.00  0.00     0.000 C 
BRANCH   2   3
ATOM      3  C   UNL     1       3.790  -2.067   6.525  1.00  0.00     0.000 C 
BRANCH   3   4
ATOM      4  C   UNL     1       3.986  -2.104   4.997  1.00  0.00     0.000 C 
BRANCH   4   5
ATOM      5  C   UNL     1       5.393  -2.527   4.533  1.00  0.00     0.000 C 
BRANCH   5   6
ATOM      6  C   UNL     1       6.408  -2.602   5.688  1.00  0.00     0.000 C 
BRANCH   6   7
ATOM      7  C   UNL     1       7.487  -1.503   5.594  1.00  0.00     0.000 C 
BRANCH   7   8
ATOM      8  C   UNL     1       6.966  -0.100   5.952  1.00  0.00     0.000 C 
BRANCH   8   9
ATOM      9  C   UNL     1       7.322   0.955   4.893  1.00  0.00     0.000 C 
BRANCH   9  10
ATOM     10  C   UNL     1       7.129   2.392   5.406  1.00  0.00     0.006 C 
BRANCH  10  11
ATOM     11  C   UNL     1       5.698   2.647   5.902  1.00  0.00     0.053 C 
BRANCH  11  12
ATOM     12  C   UNL     1       5.002   3.642   5.027  1.00  0.00     0.041 C 
ATOM     13  O   UNL     1       5.553   4.742   4.753  1.00  0.00    -0.550 OA
ATOM     14  O   UNL     1       3.744   3.355   4.509  1.00  0.00    -0.550 OA
ENDBRANCH  11  12
ENDBRANCH  10  11
ENDBRANCH   9  10
ENDBRANCH   8   9
ENDBRANCH   7   8
ENDBRANCH   6   7
ENDBRANCH   5   6
ENDBRANCH   4   5
ENDBRANCH   3   4
ENDBRANCH   2   3
ENDBRANCH   1   2
BRANCH   1  15
ATOM     15  C   UNL     1       0.586  -4.012   6.121  1.00  0.00     0.000 C 
BRANCH  15  16
ATOM     16  C   UNL     1       0.086  -5.452   5.919  1.00  0.00     0.000 C 
BRANCH  16  17
ATOM     17  C   UNL     1       1.155  -6.361   5.287  1.00  0.00     0.000 C 
BRANCH  17  18
ATOM     18  C   UNL     1       0.572  -7.668   4.724  1.00  0.00    -0.000 C 
BRANCH  18  19
ATOM     19  C   UNL     1       1.604  -8.622   4.090  1.00  0.00    -0.000 C 
BRANCH  19  20
ATOM     20  C   UNL     1       3.067  -8.372   4.506  1.00  0.00    -0.000 C 
BRANCH  20  21
ATOM     21  C   UNL     1       4.127  -8.988   3.570  1.00  0.00    -0.000 C 
BRANCH  21  22
ATOM     22  C   UNL     1       5.580  -8.598   3.892  1.00  0.00    -0.000 C 
BRANCH  22  23
ATOM     23  C   UNL     1       5.678  -7.481   4.945  1.00  0.00    -0.000 C 
BRANCH  23  24
ATOM     24  C   UNL     1       6.193  -6.157   4.342  1.00  0.00    -0.000 C 
BRANCH  24  25
ATOM     25  C   UNL     1       7.655  -6.227   3.867  1.00  0.00    -0.003 C 
ATOM     26  C   UNL     1       7.860  -5.644   2.470  1.00  0.00     0.004 C 
ENDBRANCH  24  25
ENDBRANCH  23  24
ENDBRANCH  22  23
ENDBRANCH  21  22
ENDBRANCH  20  21
ENDBRANCH  19  20
ENDBRANCH  18  19
ENDBRANCH  17  18
ENDBRANCH  16  17
ENDBRANCH  15  16
ENDBRANCH   1  15
TORSDOF 22
ENDMDL
MODEL 3
REMARK VINA RESULT:    -3.632      2.576      6.624
REMARK INTER + INTRA:         -12.151
REMARK INTER:                  -8.557
REMARK INTRA:                  -3.594
REMARK UNBOUND:                -3.848
REMARK SMILES CCCCCCCCCCCCCCCCCCCCCCCC(=O)[O-]
REMARK SMILES IDX 13 1 14 2 15 3 16 4 17 5 18 6 19 7 20 8 21 9 22 10 23 11
REMARK SMILES IDX 24 12 25 13 26 14 12 15 11 16 10 17 9 18 8 19 7 20 6 21 5 22
REMARK SMILES IDX 4 23 3 24 2 25 1 26
REMARK H PARENT
REMARK Flexibility Score: inf
ROOT
ATOM      1  C   UNL     1       2.560  -8.630   4.044  1.00  0.00     0.000 C 
ENDROOT
BRANCH   1   2
ATOM      2  C   UNL     1       3.177  -9.796   3.256  1.00  0.00     0.000 C 
BRANCH   2   3
ATOM      3  C   UNL     1       4.651  -9.551   2.888  1.00  0.00     0.000 C 
BRANCH   3   4
ATOM      4  C   UNL     1       5.621  -9.933   4.022  1.00  0.00     0.000 C 
BRANCH   4   5
ATOM      5  C   UNL     1       6.199  -8.742   4.811  1.00  0.00     0.000 C 
BRANCH   5   6
ATOM      6  C   UNL     1       6.146  -7.419   4.025  1.00  0.00     0.000 C 
BRANCH   6   7
ATOM      7  C   UNL     1       7.372  -6.523   4.301  1.00  0.00     0.000 C 
BRANCH   7   8
ATOM      8  C   UNL     1       7.302  -5.156   3.598  1.00  0.00     0.000 C 
BRANCH   8   9
ATOM      9  C   UNL     1       7.507  -3.979   4.564  1.00  0.00     0.000 C 
BRANCH   9  10
ATOM     10  C   UNL     1       6.206  -3.566   5.273  1.00  0.00     0.006 C 
BRANCH  10  11
ATOM     11  C   UNL     1       5.325  -2.666   4.395  1.00  0.00     0.053 C 
BRANCH  11  12
ATOM     12  C   UNL     1       5.330  -1.258   4.905  1.00  0.00     0.041 C 
ATOM     13  O   UNL     1       4.311  -0.788   5.480  1.00  0.00    -0.550 OA
ATOM     14  O   UNL     1       6.460  -0.464   4.749  1.00  0.00    -0.550 OA
ENDBRANCH  11  12
ENDBRANCH  10  11
ENDBRANCH   9  10
ENDBRANCH   8   9
ENDBRANCH   7   8
ENDBRANCH   6   7
ENDBRANCH   5   6
ENDBRANCH   4   5
ENDBRANCH   3   4
ENDBRANCH   2   3
ENDBRANCH   1   2
BRANCH   1  15
ATOM     15  C   UNL     1       2.466  -8.911   5.555  1.00  0.00     0.000 C 
BRANCH  15  16
ATOM     16  C   UNL     1       3.083  -7.781   6.397  1.00  0.00     0.000 C 
BRANCH  16  17
ATOM     17  C   UNL     1       3.063  -6.427   5.666  1.00  0.00     0.000 C 
BRANCH  17  18
ATOM     18  C   UNL     1       3.173  -5.229   6.625  1.00  0.00    -0.000 C 
BRANCH  18  19
ATOM     19  C   UNL     1       2.514  -3.929   6.120  1.00  0.00    -0.000 C 
BRANCH  19  20
ATOM     20  C   UNL     1       1.122  -4.107   5.483  1.00  0.00    -0.000 C 
BRANCH  20  21
ATOM     21  C   UNL     1      -0.063  -3.684   6.375  1.00  0.00    -0.000 C 
BRANCH  21  22
ATOM     22  C   UNL     1      -1.130  -4.771   6.590  1.00  0.00    -0.000 C 
BRANCH  22  23
ATOM     23  C   UNL     1      -0.609  -5.966   7.408  1.00  0.00    -0.000 C 
BRANCH  23  24
ATOM     24  C   UNL     1      -0.733  -7.297   6.637  1.00  0.00    -0.000 C 
BRANCH  24  25
ATOM     25  C   UNL     1      -0.508  -7.152   5.122  1.00  0.00    -0.003 C 
ATOM     26  C   UNL     1      -1.386  -8.086   4.292  1.00  0.00     0.004 C 
ENDBRANCH  24  25
ENDBRANCH  23  24
ENDBRANCH  22  23
ENDBRANCH  21  22
ENDBRANCH  20  21
ENDBRANCH  19  20
ENDBRANCH  18  19
ENDBRANCH  17  18
ENDBRANCH  16  17
ENDBRANCH  15  16
ENDBRANCH   1  15
TORSDOF 22
ENDMDL
MODEL 4
REMARK VINA RESULT:    -3.560      2.465      6.775
REMARK INTER + INTRA:         -11.987
REMARK INTER:                  -8.301
REMARK INTRA:                  -3.686
REMARK UNBOUND:                -3.848
REMARK SMILES CCCCCCCCCCCCCCCCCCCCCCCC(=O)[O-]
REMARK SMILES IDX 13 1 14 2 15 3 16 4 17 5 18 6 19 7 20 8 21 9 22 10 23 11
REMARK SMILES IDX 24 12 25 13 26 14 12 15 11 16 10 17 9 18 8 19 7 20 6 21 5 22
REMARK SMILES IDX 4 23 3 24 2 25 1 26
REMARK H PARENT
REMARK Flexibility Score: inf
ROOT
ATOM      1  C   UNL     1      -0.548  -7.786   5.848  1.00  0.00     0.000 C 
ENDROOT
BRANCH   1   2
ATOM      2  C   UNL     1       0.332  -7.619   4.600  1.00  0.00     0.000 C 
BRANCH   2   3
ATOM      3  C   UNL     1       1.279  -8.811   4.375  1.00  0.00     0.000 C 
BRANCH   3   4
ATOM      4  C   UNL     1       2.717  -8.375   4.032  1.00  0.00     0.000 C 
BRANCH   4   5
ATOM      5  C   UNL     1       3.816  -9.027   4.892  1.00  0.00     0.000 C 
BRANCH   5   6
ATOM      6  C   UNL     1       5.034  -8.109   5.105  1.00  0.00     0.000 C 
BRANCH   6   7
ATOM      7  C   UNL     1       5.821  -7.865   3.801  1.00  0.00     0.000 C 
BRANCH   7   8
ATOM      8  C   UNL     1       6.673  -6.584   3.829  1.00  0.00     0.000 C 
BRANCH   8   9
ATOM      9  C   UNL     1       6.226  -5.597   4.919  1.00  0.00     0.000 C 
BRANCH   9  10
ATOM     10  C   UNL     1       6.332  -4.132   4.464  1.00  0.00     0.006 C 
BRANCH  10  11
ATOM     11  C   UNL     1       5.491  -3.188   5.335  1.00  0.00     0.053 C 
BRANCH  11  12
ATOM     12  C   UNL     1       5.204  -1.910   4.610  1.00  0.00     0.041 C 
ATOM     13  O   UNL     1       6.119  -1.063   4.429  1.00  0.00    -0.550 OA
ATOM     14  O   UNL     1       3.925  -1.654   4.131  1.00  0.00    -0.550 OA
ENDBRANCH  11  12
ENDBRANCH  10  11
ENDBRANCH   9  10
ENDBRANCH   8   9
ENDBRANCH   7   8
ENDBRANCH   6   7
ENDBRANCH   5   6
ENDBRANCH   4   5
ENDBRANCH   3   4
ENDBRANCH   2   3
ENDBRANCH   1   2
BRANCH   1  15
ATOM     15  C   UNL     1       0.196  -8.448   7.022  1.00  0.00     0.000 C 
BRANCH  15  16
ATOM     16  C   UNL     1       0.854  -7.415   7.951  1.00  0.00     0.000 C 
BRANCH  16  17
ATOM     17  C   UNL     1       2.390  -7.458   7.881  1.00  0.00     0.000 C 
BRANCH  17  18
ATOM     18  C   UNL     1       3.015  -6.085   7.575  1.00  0.00    -0.000 C 
BRANCH  18  19
ATOM     19  C   UNL     1       2.698  -5.523   6.174  1.00  0.00    -0.000 C 
BRANCH  19  20
ATOM     20  C   UNL     1       2.226  -4.056   6.151  1.00  0.00    -0.000 C 
BRANCH  20  21
ATOM     21  C   UNL     1       0.765  -3.847   5.704  1.00  0.00    -0.000 C 
BRANCH  21  22
ATOM     22  C   UNL     1      -0.201  -3.429   6.825  1.00  0.00    -0.000 C 
BRANCH  22  23
ATOM     23  C   UNL     1      -1.207  -4.535   7.189  1.00  0.00    -0.000 C 
BRANCH  23  24
ATOM     24  C   UNL     1      -2.565  -3.959   7.644  1.00  0.00    -0.000 C 
BRANCH  24  25
ATOM     25  C   UNL     1      -3.575  -3.788   6.496  1.00  0.00    -0.003 C 
ATOM     26  C   UNL     1      -3.680  -2.348   5.999  1.00  0.00     0.004 C 
ENDBRANCH  24  25
ENDBRANCH  23  24
ENDBRANCH  22  23
ENDBRANCH  21  22
ENDBRANCH  20  21
ENDBRANCH  19  20
ENDBRANCH  18  19
ENDBRANCH  17  18
ENDBRANCH  16  17
ENDBRANCH  15  16
ENDBRANCH   1  15
TORSDOF 22
ENDMDL
MODEL 5
REMARK VINA RESULT:    -3.518      4.246      8.925
REMARK INTER + INTRA:         -11.890
REMARK INTER:                  -8.666
REMARK INTRA:                  -3.224
REMARK UNBOUND:                -3.848
REMARK SMILES CCCCCCCCCCCCCCCCCCCCCCCC(=O)[O-]
REMARK SMILES IDX 13 1 14 2 15 3 16 4 17 5 18 6 19 7 20 8 21 9 22 10 23 11
REMARK SMILES IDX 24 12 25 13 26 14 12 15 11 16 10 17 9 18 8 19 7 20 6 21 5 22
REMARK SMILES IDX 4 23 3 24 2 25 1 26
REMARK H PARENT
REMARK Flexibility Score: inf
ROOT
ATOM      1  C   UNL     1       3.942  -2.458   5.748  1.00  0.00     0.000 C 
ENDROOT
BRANCH   1   2
ATOM      2  C   UNL     1       4.586  -1.112   5.381  1.00  0.00     0.000 C 
BRANCH   2   3
ATOM      3  C   UNL     1       5.177  -0.383   6.600  1.00  0.00     0.000 C 
BRANCH   3   4
ATOM      4  C   UNL     1       6.686  -0.111   6.460  1.00  0.00     0.000 C 
BRANCH   4   5
ATOM      5  C   UNL     1       7.167   0.160   5.021  1.00  0.00     0.000 C 
BRANCH   5   6
ATOM      6  C   UNL     1       8.081   1.393   4.916  1.00  0.00     0.000 C 
BRANCH   6   7
ATOM      7  C   UNL     1       8.299   2.081   6.281  1.00  0.00     0.000 C 
BRANCH   7   8
ATOM      8  C   UNL     1       7.700   3.497   6.356  1.00  0.00     0.000 C 
BRANCH   8   9
ATOM      9  C   UNL     1       6.585   3.616   7.406  1.00  0.00     0.000 C 
BRANCH   9  10
ATOM     10  C   UNL     1       5.221   3.953   6.779  1.00  0.00     0.006 C 
BRANCH  10  11
ATOM     11  C   UNL     1       5.140   3.542   5.303  1.00  0.00     0.053 C 
BRANCH  11  12
ATOM     12  C   UNL     1       3.887   4.066   4.673  1.00  0.00     0.041 C 
ATOM     13  O   UNL     1       3.774   5.293   4.410  1.00  0.00    -0.550 OA
ATOM     14  O   UNL     1       2.843   3.199   4.374  1.00  0.00    -0.550 OA
ENDBRANCH  11  12
ENDBRANCH  10  11
ENDBRANCH   9  10
ENDBRANCH   8   9
ENDBRANCH   7   8
ENDBRANCH   6   7
ENDBRANCH   5   6
ENDBRANCH   4   5
ENDBRANCH   3   4
ENDBRANCH   2   3
ENDBRANCH   1   2
BRANCH   1  15
ATOM     15  C   UNL     1       4.930  -3.636   5.674  1.00  0.00     0.000 C 
BRANCH  15  16
ATOM     16  C   UNL     1       6.045  -3.396   4.642  1.00  0.00     0.000 C 
BRANCH  16  17
ATOM     17  C   UNL     1       7.449  -3.597   5.239  1.00  0.00     0.000 C 
BRANCH  17  18
ATOM     18  C   UNL     1       8.517  -3.892   4.172  1.00  0.00    -0.000 C 
BRANCH  18  19
ATOM     19  C   UNL     1       8.695  -5.384   3.823  1.00  0.00    -0.000 C 
BRANCH  19  20
ATOM     20  C   UNL     1       7.666  -5.949   2.824  1.00  0.00    -0.000 C 
BRANCH  20  21
ATOM     21  C   UNL     1       6.644  -6.934   3.428  1.00  0.00    -0.000 C 
BRANCH  21  22
ATOM     22  C   UNL     1       6.787  -7.169   4.941  1.00  0.00    -0.000 C 
BRANCH  22  23
ATOM     23  C   UNL     1       5.432  -7.338   5.649  1.00  0.00    -0.000 C 
BRANCH  23  24
ATOM     24  C   UNL     1       4.271  -7.514   4.649  1.00  0.00    -0.000 C 
BRANCH  24  25
ATOM     25  C   UNL     1       2.977  -6.799   5.076  1.00  0.00    -0.003 C 
ATOM     26  C   UNL     1       1.716  -7.601   4.760  1.00  0.00     0.004 C 
ENDBRANCH  24  25
ENDBRANCH  23  24
ENDBRANCH  22  23
ENDBRANCH  21  22
ENDBRANCH  20  21
ENDBRANCH  19  20
ENDBRANCH  18  19
ENDBRANCH  17  18
ENDBRANCH  16  17
ENDBRANCH  15  16
ENDBRANCH   1  15
TORSDOF 22
ENDMDL
MODEL 6
REMARK VINA RESULT:    -3.477      3.614      7.970
REMARK INTER + INTRA:         -11.797
REMARK INTER:                  -9.344
REMARK INTRA:                  -2.452
REMARK UNBOUND:                -3.848
REMARK SMILES CCCCCCCCCCCCCCCCCCCCCCCC(=O)[O-]
REMARK SMILES IDX 13 1 14 2 15 3 16 4 17 5 18 6 19 7 20 8 21 9 22 10 23 11
REMARK SMILES IDX 24 12 25 13 26 14 12 15 11 16 10 17 9 18 8 19 7 20 6 21 5 22
REMARK SMILES IDX 4 23 3 24 2 25 1 26
REMARK H PARENT
REMARK Flexibility Score: inf
ROOT
ATOM      1  C   UNL     1       8.154  -4.262   5.131  1.00  0.00     0.000 C 
ENDROOT
BRANCH   1   2
ATOM      2  C   UNL     1       7.148  -3.170   5.527  1.00  0.00     0.000 C 
BRANCH   2   3
ATOM      3  C   UNL     1       5.829  -3.261   4.739  1.00  0.00     0.000 C 
BRANCH   3   4
ATOM      4  C   UNL     1       4.667  -3.819   5.582  1.00  0.00     0.000 C 
BRANCH   4   5
ATOM      5  C   UNL     1       3.398  -2.946   5.598  1.00  0.00     0.000 C 
BRANCH   5   6
ATOM      6  C   UNL     1       3.030  -2.449   7.008  1.00  0.00     0.000 C 
BRANCH   6   7
ATOM      7  C   UNL     1       3.743  -1.130   7.370  1.00  0.00     0.000 C 
BRANCH   7   8
ATOM      8  C   UNL     1       4.069  -0.253   6.148  1.00  0.00     0.000 C 
BRANCH   8   9
ATOM      9  C   UNL     1       4.279   1.225   6.515  1.00  0.00     0.000 C 
BRANCH   9  10
ATOM     10  C   UNL     1       2.987   2.050   6.391  1.00  0.00     0.006 C 
BRANCH  10  11
ATOM     11  C   UNL     1       3.003   2.979   5.170  1.00  0.00     0.053 C 
BRANCH  11  12
ATOM     12  C   UNL     1       3.733   4.249   5.477  1.00  0.00     0.041 C 
ATOM     13  O   UNL     1       3.660   4.760   6.627  1.00  0.00    -0.550 OA
ATOM     14  O   UNL     1       4.497   4.869   4.496  1.00  0.00    -0.550 OA
ENDBRANCH  11  12
ENDBRANCH  10  11
ENDBRANCH   9  10
ENDBRANCH   8   9
ENDBRANCH   7   8
ENDBRANCH   6   7
ENDBRANCH   5   6
ENDBRANCH   4   5
ENDBRANCH   3   4
ENDBRANCH   2   3
ENDBRANCH   1   2
BRANCH   1  15
ATOM     15  C   UNL     1       8.233  -4.480   3.610  1.00  0.00     0.000 C 
BRANCH  15  16
ATOM     16  C   UNL     1       7.894  -5.926   3.210  1.00  0.00     0.000 C 
BRANCH  16  17
ATOM     17  C   UNL     1       7.405  -6.765   4.403  1.00  0.00     0.000 C 
BRANCH  17  18
ATOM     18  C   UNL     1       5.931  -7.188   4.274  1.00  0.00    -0.000 C 
BRANCH  18  19
ATOM     19  C   UNL     1       5.680  -8.707   4.362  1.00  0.00    -0.000 C 
BRANCH  19  20
ATOM     20  C   UNL     1       5.121  -9.353   3.079  1.00  0.00    -0.000 C 
BRANCH  20  21
ATOM     21  C   UNL     1       3.625  -9.722   3.132  1.00  0.00    -0.000 C 
BRANCH  21  22
ATOM     22  C   UNL     1       3.071  -9.978   4.543  1.00  0.00    -0.000 C 
BRANCH  22  23
ATOM     23  C   UNL     1       1.573  -9.648   4.666  1.00  0.00    -0.000 C 
BRANCH  23  24
ATOM     24  C   UNL     1       1.270  -8.178   4.308  1.00  0.00    -0.000 C 
BRANCH  24  25
ATOM     25  C   UNL     1       1.977  -7.165   5.225  1.00  0.00    -0.003 C 
ATOM     26  C   UNL     1       1.140  -5.917   5.497  1.00  0.00     0.004 C 
ENDBRANCH  24  25
ENDBRANCH  23  24
ENDBRANCH  22  23
ENDBRANCH  21  22
ENDBRANCH  20  21
ENDBRANCH  19  20
ENDBRANCH  18  19
ENDBRANCH  17  18
ENDBRANCH  16  17
ENDBRANCH  15  16
ENDBRANCH   1  15
TORSDOF 22
ENDMDL
MODEL 7
REMARK VINA RESULT:    -3.450      3.510      8.028
REMARK INTER + INTRA:         -11.735
REMARK INTER:                  -9.319
REMARK INTRA:                  -2.416
REMARK UNBOUND:                -3.848
REMARK SMILES CCCCCCCCCCCCCCCCCCCCCCCC(=O)[O-]
REMARK SMILES IDX 13 1 14 2 15 3 16 4 17 5 18 6 19 7 20 8 21 9 22 10 23 11
REMARK SMILES IDX 24 12 25 13 26 14 12 15 11 16 10 17 9 18 8 19 7 20 6 21 5 22
REMARK SMILES IDX 4 23 3 24 2 25 1 26
REMARK H PARENT
REMARK Flexibility Score: inf
ROOT
ATOM      1  C   UNL     1       7.588  -5.925   3.085  1.00  0.00     0.000 C 
ENDROOT
BRANCH   1   2
ATOM      2  C   UNL     1       8.232  -4.578   3.448  1.00  0.00     0.000 C 
BRANCH   2   3
ATOM      3  C   UNL     1       8.076  -4.224   4.937  1.00  0.00     0.000 C 
BRANCH   3   4
ATOM      4  C   UNL     1       7.080  -3.074   5.176  1.00  0.00     0.000 C 
BRANCH   4   5
ATOM      5  C   UNL     1       5.638  -3.518   5.491  1.00  0.00     0.000 C 
BRANCH   5   6
ATOM      6  C   UNL     1       4.581  -2.509   5.006  1.00  0.00     0.000 C 
BRANCH   6   7
ATOM      7  C   UNL     1       3.753  -1.922   6.169  1.00  0.00     0.000 C 
BRANCH   7   8
ATOM      8  C   UNL     1       4.463  -0.776   6.910  1.00  0.00     0.000 C 
BRANCH   8   9
ATOM      9  C   UNL     1       5.146   0.217   5.955  1.00  0.00     0.000 C 
BRANCH   9  10
ATOM     10  C   UNL     1       4.844   1.681   6.315  1.00  0.00     0.006 C 
BRANCH  10  11
ATOM     11  C   UNL     1       5.795   2.662   5.615  1.00  0.00     0.053 C 
BRANCH  11  12
ATOM     12  C   UNL     1       5.030   3.773   4.967  1.00  0.00     0.041 C 
ATOM     13  O   UNL     1       5.540   4.921   4.867  1.00  0.00    -0.550 OA
ATOM     14  O   UNL     1       3.753   3.542   4.469  1.00  0.00    -0.550 OA
ENDBRANCH  11  12
ENDBRANCH  10  11
ENDBRANCH   9  10
ENDBRANCH   8   9
ENDBRANCH   7   8
ENDBRANCH   6   7
ENDBRANCH   5   6
ENDBRANCH   4   5
ENDBRANCH   3   4
ENDBRANCH   2   3
ENDBRANCH   1   2
BRANCH   1  15
ATOM     15  C   UNL     1       7.226  -6.768   4.321  1.00  0.00     0.000 C 
BRANCH  15  16
ATOM     16  C   UNL     1       5.733  -7.133   4.360  1.00  0.00     0.000 C 
BRANCH  16  17
ATOM     17  C   UNL     1       5.436  -8.465   3.648  1.00  0.00     0.000 C 
BRANCH  17  18
ATOM     18  C   UNL     1       4.358  -9.298   4.362  1.00  0.00    -0.000 C 
BRANCH  18  19
ATOM     19  C   UNL     1       2.986  -9.328   3.659  1.00  0.00    -0.000 C 
BRANCH  19  20
ATOM     20  C   UNL     1       1.858  -8.580   4.396  1.00  0.00    -0.000 C 
BRANCH  20  21
ATOM     21  C   UNL     1       2.173  -7.114   4.755  1.00  0.00    -0.000 C 
BRANCH  21  22
ATOM     22  C   UNL     1       2.386  -6.847   6.255  1.00  0.00    -0.000 C 
BRANCH  22  23
ATOM     23  C   UNL     1       2.232  -5.361   6.624  1.00  0.00    -0.000 C 
BRANCH  23  24
ATOM     24  C   UNL     1       1.181  -4.650   5.745  1.00  0.00    -0.000 C 
BRANCH  24  25
ATOM     25  C   UNL     1       0.456  -3.499   6.465  1.00  0.00    -0.003 C 
ATOM     26  C   UNL     1      -1.049  -3.723   6.589  1.00  0.00     0.004 C 
ENDBRANCH  24  25
ENDBRANCH  23  24
ENDBRANCH  22  23
ENDBRANCH  21  22
ENDBRANCH  20  21
ENDBRANCH  19  20
ENDBRANCH  18  19
ENDBRANCH  17  18
ENDBRANCH  16  17
ENDBRANCH  15  16
ENDBRANCH   1  15
TORSDOF 22
ENDMDL
MODEL 8
REMARK VINA RESULT:    -3.437      1.760      4.415
REMARK INTER + INTRA:         -11.706
REMARK INTER:                  -8.509
REMARK INTRA:                  -3.196
REMARK UNBOUND:                -3.848
REMARK SMILES CCCCCCCCCCCCCCCCCCCCCCCC(=O)[O-]
REMARK SMILES IDX 13 1 14 2 15 3 16 4 17 5 18 6 19 7 20 8 21 9 22 10 23 11
REMARK SMILES IDX 24 12 25 13 26 14 12 15 11 16 10 17 9 18 8 19 7 20 6 21 5 22
REMARK SMILES IDX 4 23 3 24 2 25 1 26
REMARK H PARENT
REMARK Flexibility Score: inf
ROOT
ATOM      1  C   UNL     1       2.841  -9.727   4.220  1.00  0.00     0.000 C 
ENDROOT
BRANCH   1   2
ATOM      2  C   UNL     1       1.522  -8.965   4.018  1.00  0.00     0.000 C 
BRANCH   2   3
ATOM      3  C   UNL     1       1.516  -7.591   4.712  1.00  0.00     0.000 C 
BRANCH   3   4
ATOM      4  C   UNL     1       2.828  -7.296   5.463  1.00  0.00     0.000 C 
BRANCH   4   5
ATOM      5  C   UNL     1       3.178  -5.801   5.596  1.00  0.00     0.000 C 
BRANCH   5   6
ATOM      6  C   UNL     1       3.719  -5.434   6.989  1.00  0.00     0.000 C 
BRANCH   6   7
ATOM      7  C   UNL     1       2.660  -4.731   7.864  1.00  0.00     0.000 C 
BRANCH   7   8
ATOM      8  C   UNL     1       1.689  -3.848   7.060  1.00  0.00     0.000 C 
BRANCH   8   9
ATOM      9  C   UNL     1       0.256  -4.405   7.043  1.00  0.00     0.000 C 
BRANCH   9  10
ATOM     10  C   UNL     1      -0.726  -3.476   6.308  1.00  0.00     0.006 C 
BRANCH  10  11
ATOM     11  C   UNL     1      -2.082  -3.380   7.022  1.00  0.00     0.053 C 
BRANCH  11  12
ATOM     12  C   UNL     1      -3.087  -4.282   6.377  1.00  0.00     0.041 C 
ATOM     13  O   UNL     1      -3.687  -3.919   5.330  1.00  0.00    -0.550 OA
ATOM     14  O   UNL     1      -3.361  -5.528   6.930  1.00  0.00    -0.550 OA
ENDBRANCH  11  12
ENDBRANCH  10  11
ENDBRANCH   9  10
ENDBRANCH   8   9
ENDBRANCH   7   8
ENDBRANCH   6   7
ENDBRANCH   5   6
ENDBRANCH   4   5
ENDBRANCH   3   4
ENDBRANCH   2   3
ENDBRANCH   1   2
BRANCH   1  15
ATOM     15  C   UNL     1       3.512 -10.124   2.894  1.00  0.00     0.000 C 
BRANCH  15  16
ATOM     16  C   UNL     1       4.872  -9.433   2.700  1.00  0.00     0.000 C 
BRANCH  16  17
ATOM     17  C   UNL     1       5.613  -9.212   4.030  1.00  0.00     0.000 C 
BRANCH  17  18
ATOM     18  C   UNL     1       6.091  -7.762   4.215  1.00  0.00    -0.000 C 
BRANCH  18  19
ATOM     19  C   UNL     1       6.600  -7.420   5.630  1.00  0.00    -0.000 C 
BRANCH  19  20
ATOM     20  C   UNL     1       7.118  -5.979   5.808  1.00  0.00    -0.000 C 
BRANCH  20  21
ATOM     21  C   UNL     1       7.179  -5.143   4.513  1.00  0.00    -0.000 C 
BRANCH  21  22
ATOM     22  C   UNL     1       7.649  -3.691   4.701  1.00  0.00    -0.000 C 
BRANCH  22  23
ATOM     23  C   UNL     1       6.561  -2.786   5.306  1.00  0.00    -0.000 C 
BRANCH  23  24
ATOM     24  C   UNL     1       5.178  -3.033   4.668  1.00  0.00    -0.000 C 
BRANCH  24  25
ATOM     25  C   UNL     1       4.173  -1.896   4.922  1.00  0.00    -0.003 C 
ATOM     26  C   UNL     1       4.330  -1.253   6.298  1.00  0.00     0.004 C 
ENDBRANCH  24  25
ENDBRANCH  23  24
ENDBRANCH  22  23
ENDBRANCH  21  22
ENDBRANCH  20  21
ENDBRANCH  19  20
ENDBRANCH  18  19
ENDBRANCH  17  18
ENDBRANCH  16  17
ENDBRANCH  15  16
ENDBRANCH   1  15
TORSDOF 22
ENDMDL
MODEL 9
REMARK VINA RESULT:    -3.369      3.309      5.999
REMARK INTER + INTRA:         -11.551
REMARK INTER:                  -9.306
REMARK INTRA:                  -2.245
REMARK UNBOUND:                -3.848
REMARK SMILES CCCCCCCCCCCCCCCCCCCCCCCC(=O)[O-]
REMARK SMILES IDX 13 1 14 2 15 3 16 4 17 5 18 6 19 7 20 8 21 9 22 10 23 11
REMARK SMILES IDX 24 12 25 13 26 14 12 15 11 16 10 17 9 18 8 19 7 20 6 21 5 22
REMARK SMILES IDX 4 23 3 24 2 25 1 26
REMARK H PARENT
REMARK Flexibility Score: inf
ROOT
ATOM      1  C   UNL     1       4.742  -3.958   5.471  1.00  0.00     0.000 C 
ENDROOT
BRANCH   1   2
ATOM      2  C   UNL     1       5.984  -3.462   4.714  1.00  0.00     0.000 C 
BRANCH   2   3
ATOM      3  C   UNL     1       7.208  -4.371   4.920  1.00  0.00     0.000 C 
BRANCH   3   4
ATOM      4  C   UNL     1       7.756  -4.943   3.599  1.00  0.00     0.000 C 
BRANCH   4   5
ATOM      5  C   UNL     1       7.182  -6.316   3.198  1.00  0.00     0.000 C 
BRANCH   5   6
ATOM      6  C   UNL     1       6.581  -7.085   4.389  1.00  0.00     0.000 C 
BRANCH   6   7
ATOM      7  C   UNL     1       5.321  -7.885   3.996  1.00  0.00     0.000 C 
BRANCH   7   8
ATOM      8  C   UNL     1       4.081  -7.524   4.832  1.00  0.00     0.000 C 
BRANCH   8   9
ATOM      9  C   UNL     1       2.817  -8.267   4.372  1.00  0.00     0.000 C 
BRANCH   9  10
ATOM     10  C   UNL     1       1.526  -7.516   4.743  1.00  0.00     0.006 C 
BRANCH  10  11
ATOM     11  C   UNL     1       0.452  -8.452   5.314  1.00  0.00     0.053 C 
BRANCH  11  12
ATOM     12  C   UNL     1      -0.913  -8.030   4.866  1.00  0.00     0.041 C 
ATOM     13  O   UNL     1      -1.170  -7.916   3.637  1.00  0.00    -0.550 OA
ATOM     14  O   UNL     1      -1.904  -7.765   5.804  1.00  0.00    -0.550 OA
ENDBRANCH  11  12
ENDBRANCH  10  11
ENDBRANCH   9  10
ENDBRANCH   8   9
ENDBRANCH   7   8
ENDBRANCH   6   7
ENDBRANCH   5   6
ENDBRANCH   4   5
ENDBRANCH   3   4
ENDBRANCH   2   3
ENDBRANCH   1   2
BRANCH   1  15
ATOM     15  C   UNL     1       3.610  -2.916   5.513  1.00  0.00     0.000 C 
BRANCH  15  16
ATOM     16  C   UNL     1       3.215  -2.542   6.951  1.00  0.00     0.000 C 
BRANCH  16  17
ATOM     17  C   UNL     1       3.444  -1.051   7.253  1.00  0.00     0.000 C 
BRANCH  17  18
ATOM     18  C   UNL     1       4.344  -0.361   6.214  1.00  0.00    -0.000 C 
BRANCH  18  19
ATOM     19  C   UNL     1       5.822  -0.210   6.629  1.00  0.00    -0.000 C 
BRANCH  19  20
ATOM     20  C   UNL     1       6.744   0.400   5.555  1.00  0.00    -0.000 C 
BRANCH  20  21
ATOM     21  C   UNL     1       6.614   1.926   5.375  1.00  0.00    -0.000 C 
BRANCH  21  22
ATOM     22  C   UNL     1       6.450   2.721   6.681  1.00  0.00    -0.000 C 
BRANCH  22  23
ATOM     23  C   UNL     1       5.111   3.476   6.757  1.00  0.00    -0.000 C 
BRANCH  23  24
ATOM     24  C   UNL     1       4.194   3.153   5.558  1.00  0.00    -0.000 C 
BRANCH  24  25
ATOM     25  C   UNL     1       3.350   4.352   5.091  1.00  0.00    -0.003 C 
ATOM     26  C   UNL     1       4.127   5.667   5.087  1.00  0.00     0.004 C 
ENDBRANCH  24  25
ENDBRANCH  23  24
ENDBRANCH  22  23
ENDBRANCH  21  22
ENDBRANCH  20  21
ENDBRANCH  19  20
ENDBRANCH  18  19
ENDBRANCH  17  18
ENDBRANCH  16  17
ENDBRANCH  15  16
ENDBRANCH   1  15
TORSDOF 22
ENDMDL
