MODEL 1
REMARK VINA RESULT:    -0.552      0.000      0.000
REMARK INTER + INTRA:          -2.179
REMARK INTER:                  -1.392
REMARK INTRA:                  -0.787
REMARK UNBOUND:                -0.787
REMARK SMILES CCCCCCCCCCCCCCCCCCCCCCCCCCCC(=O)[O-]
REMARK SMILES IDX 15 1 16 2 17 3 18 4 19 5 20 6 21 7 22 8 23 9 24 10 25 11
REMARK SMILES IDX 26 12 27 13 28 14 29 15 30 16 14 17 13 18 12 19 11 20 10 21
REMARK SMILES IDX 9 22 8 23 7 24 6 25 5 26 4 27 3 28 2 29 1 30
REMARK H PARENT
REMARK Flexibility Score: inf
ROOT
ATOM      1  C   UNL     1      55.569   2.070  24.592  1.00  0.00     0.000 C 
ENDROOT
BRANCH   1   2
ATOM      2  C   UNL     1      56.566   0.996  25.056  1.00  0.00     0.000 C 
BRANCH   2   3
ATOM      3  C   UNL     1      58.025   1.491  25.086  1.00  0.00     0.000 C 
BRANCH   3   4
ATOM      4  C   UNL     1      59.094   0.402  24.875  1.00  0.00     0.000 C 
BRANCH   4   5
ATOM      5  C   UNL     1      60.547   0.849  25.123  1.00  0.00     0.000 C 
BRANCH   5   6
ATOM      6  C   UNL     1      61.586  -0.289  25.019  1.00  0.00     0.000 C 
BRANCH   6   7
ATOM      7  C   UNL     1      61.072  -1.496  24.212  1.00  0.00     0.000 C 
BRANCH   7   8
ATOM      8  C   UNL     1      60.150  -2.410  25.037  1.00  0.00     0.000 C 
BRANCH   8   9
ATOM      9  C   UNL     1      58.946  -2.913  24.225  1.00  0.00     0.000 C 
BRANCH   9  10
ATOM     10  C   UNL     1      59.056  -2.488  22.756  1.00  0.00     0.000 C 
BRANCH  10  11
ATOM     11  C   UNL     1      57.703  -2.644  22.040  1.00  0.00     0.000 C 
BRANCH  11  12
ATOM     12  C   UNL     1      57.438  -1.530  21.007  1.00  0.00     0.006 C 
BRANCH  12  13
ATOM     13  C   UNL     1      57.786  -0.121  21.516  1.00  0.00     0.053 C 
BRANCH  13  14
ATOM     14  C   UNL     1      56.594   0.780  21.567  1.00  0.00     0.041 C 
ATOM     15  O   UNL     1      56.743   2.022  21.723  1.00  0.00    -0.550 OA
ATOM     16  O   UNL     1      55.314   0.249  21.458  1.00  0.00    -0.550 OA
ENDBRANCH  13  14
ENDBRANCH  12  13
ENDBRANCH  11  12
ENDBRANCH  10  11
ENDBRANCH   9  10
ENDBRANCH   8   9
ENDBRANCH   7   8
ENDBRANCH   6   7
ENDBRANCH   5   6
ENDBRANCH   4   5
ENDBRANCH   3   4
ENDBRANCH   2   3
ENDBRANCH   1   2
BRANCH   1  17
ATOM     17  C   UNL     1      54.144   1.719  25.047  1.00  0.00     0.000 C 
BRANCH  17  18
ATOM     18  C   UNL     1      53.062   2.476  24.263  1.00  0.00     0.000 C 
BRANCH  18  19
ATOM     19  C   UNL     1      53.606   3.120  22.975  1.00  0.00     0.000 C 
BRANCH  19  20
ATOM     20  C   UNL     1      53.319   2.270  21.722  1.00  0.00     0.000 C 
BRANCH  20  21
ATOM     21  C   UNL     1      52.399   2.959  20.697  1.00  0.00     0.000 C 
BRANCH  21  22
ATOM     22  C   UNL     1      50.907   2.813  21.053  1.00  0.00    -0.000 C 
BRANCH  22  23
ATOM     23  C   UNL     1      50.461   1.340  21.117  1.00  0.00    -0.000 C 
BRANCH  23  24
ATOM     24  C   UNL     1      50.791   0.540  19.836  1.00  0.00    -0.000 C 
BRANCH  24  25
ATOM     25  C   UNL     1      49.987  -0.768  19.694  1.00  0.00    -0.000 C 
BRANCH  25  26
ATOM     26  C   UNL     1      50.365  -1.809  20.760  1.00  0.00    -0.000 C 
BRANCH  26  27
ATOM     27  C   UNL     1      50.451  -1.166  22.150  1.00  0.00    -0.000 C 
BRANCH  27  28
ATOM     28  C   UNL     1      50.424  -2.231  23.251  1.00  0.00    -0.000 C 
BRANCH  28  29
ATOM     29  C   UNL     1      50.003  -1.622  24.593  1.00  0.00    -0.003 C 
ATOM     30  C   UNL     1      49.878  -0.103  24.493  1.00  0.00     0.004 C 
ENDBRANCH  28  29
ENDBRANCH  27  28
ENDBRANCH  26  27
ENDBRANCH  25  26
ENDBRANCH  24  25
ENDBRANCH  23  24
ENDBRANCH  22  23
ENDBRANCH  21  22
ENDBRANCH  20  21
ENDBRANCH  19  20
ENDBRANCH  18  19
ENDBRANCH  17  18
ENDBRANCH   1  17
TORSDOF 26
ENDMDL
MODEL 2
REMARK VINA RESULT:    -0.490      2.308      5.715
REMARK INTER + INTRA:          -2.023
REMARK INTER:                  -1.025
REMARK INTRA:                  -0.998
REMARK UNBOUND:                -0.787
REMARK SMILES CCCCCCCCCCCCCCCCCCCCCCCCCCCC(=O)[O-]
REMARK SMILES IDX 15 1 16 2 17 3 18 4 19 5 20 6 21 7 22 8 23 9 24 10 25 11
REMARK SMILES IDX 26 12 27 13 28 14 29 15 30 16 14 17 13 18 12 19 11 20 10 21
REMARK SMILES IDX 9 22 8 23 7 24 6 25 5 26 4 27 3 28 2 29 1 30
REMARK H PARENT
REMARK Flexibility Score: inf
ROOT
ATOM      1  C   UNL     1      58.231  -1.522  22.256  1.00  0.00     0.000 C 
ENDROOT
BRANCH   1   2
ATOM      2  C   UNL     1      57.228  -1.386  23.412  1.00  0.00     0.000 C 
BRANCH   2   3
ATOM      3  C   UNL     1      57.717  -0.454  24.538  1.00  0.00     0.000 C 
BRANCH   3   4
ATOM      4  C   UNL     1      57.641   1.052  24.226  1.00  0.00     0.000 C 
BRANCH   4   5
ATOM      5  C   UNL     1      56.604   1.843  25.046  1.00  0.00     0.000 C 
BRANCH   5   6
ATOM      6  C   UNL     1      55.287   2.132  24.292  1.00  0.00     0.000 C 
BRANCH   6   7
ATOM      7  C   UNL     1      54.295   2.968  25.122  1.00  0.00     0.000 C 
BRANCH   7   8
ATOM      8  C   UNL     1      52.930   3.125  24.430  1.00  0.00     0.000 C 
BRANCH   8   9
ATOM      9  C   UNL     1      52.509   1.854  23.673  1.00  0.00     0.000 C 
BRANCH   9  10
ATOM     10  C   UNL     1      51.027   1.539  23.908  1.00  0.00     0.000 C 
BRANCH  10  11
ATOM     11  C   UNL     1      50.139   2.698  23.425  1.00  0.00     0.000 C 
BRANCH  11  12
ATOM     12  C   UNL     1      50.302   2.993  21.920  1.00  0.00     0.006 C 
BRANCH  12  13
ATOM     13  C   UNL     1      50.048   1.771  21.021  1.00  0.00     0.053 C 
BRANCH  13  14
ATOM     14  C   UNL     1      50.548   1.972  19.627  1.00  0.00     0.041 C 
ATOM     15  O   UNL     1      50.201   1.181  18.708  1.00  0.00    -0.550 OA
ATOM     16  O   UNL     1      51.410   3.024  19.341  1.00  0.00    -0.550 OA
ENDBRANCH  13  14
ENDBRANCH  12  13
ENDBRANCH  11  12
ENDBRANCH  10  11
ENDBRANCH   9  10
ENDBRANCH   8   9
ENDBRANCH   7   8
ENDBRANCH   6   7
ENDBRANCH   5   6
ENDBRANCH   4   5
ENDBRANCH   3   4
ENDBRANCH   2   3
ENDBRANCH   1   2
BRANCH   1  17
ATOM     17  C   UNL     1      57.962  -0.462  21.176  1.00  0.00     0.000 C 
BRANCH  17  18
ATOM     18  C   UNL     1      56.678   0.341  21.433  1.00  0.00     0.000 C 
BRANCH  18  19
ATOM     19  C   UNL     1      55.480  -0.181  20.621  1.00  0.00     0.000 C 
BRANCH  19  20
ATOM     20  C   UNL     1      54.141   0.424  21.087  1.00  0.00     0.000 C 
BRANCH  20  21
ATOM     21  C   UNL     1      53.108  -0.624  21.544  1.00  0.00     0.000 C 
BRANCH  21  22
ATOM     22  C   UNL     1      51.762  -0.483  20.808  1.00  0.00    -0.000 C 
BRANCH  22  23
ATOM     23  C   UNL     1      51.122  -1.848  20.490  1.00  0.00    -0.000 C 
BRANCH  23  24
ATOM     24  C   UNL     1      49.883  -2.167  21.359  1.00  0.00    -0.000 C 
BRANCH  24  25
ATOM     25  C   UNL     1      49.898  -1.480  22.740  1.00  0.00    -0.000 C 
BRANCH  25  26
ATOM     26  C   UNL     1      50.683  -2.286  23.788  1.00  0.00    -0.000 C 
BRANCH  26  27
ATOM     27  C   UNL     1      49.998  -3.629  24.075  1.00  0.00    -0.000 C 
BRANCH  27  28
ATOM     28  C   UNL     1      51.027  -4.705  24.433  1.00  0.00    -0.000 C 
BRANCH  28  29
ATOM     29  C   UNL     1      50.336  -6.001  24.870  1.00  0.00    -0.003 C 
ATOM     30  C   UNL     1      49.944  -6.851  23.664  1.00  0.00     0.004 C 
ENDBRANCH  28  29
ENDBRANCH  27  28
ENDBRANCH  26  27
ENDBRANCH  25  26
ENDBRANCH  24  25
ENDBRANCH  23  24
ENDBRANCH  22  23
ENDBRANCH  21  22
ENDBRANCH  20  21
ENDBRANCH  19  20
ENDBRANCH  18  19
ENDBRANCH  17  18
ENDBRANCH   1  17
TORSDOF 26
ENDMDL
MODEL 3
REMARK VINA RESULT:    -0.316     19.231     23.063
REMARK INTER + INTRA:          -1.584
REMARK INTER:                   0.234
REMARK INTRA:                  -1.818
REMARK UNBOUND:                -0.787
REMARK SMILES CCCCCCCCCCCCCCCCCCCCCCCCCCCC(=O)[O-]
REMARK SMILES IDX 15 1 16 2 17 3 18 4 19 5 20 6 21 7 22 8 23 9 24 10 25 11
REMARK SMILES IDX 26 12 27 13 28 14 29 15 30 16 14 17 13 18 12 19 11 20 10 21
REMARK SMILES IDX 9 22 8 23 7 24 6 25 5 26 4 27 3 28 2 29 1 30
REMARK H PARENT
REMARK Flexibility Score: inf
ROOT
ATOM      1  C   UNL     1      61.260 -17.125  12.421  1.00  0.00     0.000 C 
ENDROOT
BRANCH   1   2
ATOM      2  C   UNL     1      59.797 -17.103  12.891  1.00  0.00     0.000 C 
BRANCH   2   3
ATOM      3  C   UNL     1      59.467 -15.905  13.803  1.00  0.00     0.000 C 
BRANCH   3   4
ATOM      4  C   UNL     1      57.967 -15.616  13.993  1.00  0.00     0.000 C 
BRANCH   4   5
ATOM      5  C   UNL     1      57.025 -16.796  13.685  1.00  0.00     0.000 C 
BRANCH   5   6
ATOM      6  C   UNL     1      55.548 -16.392  13.486  1.00  0.00     0.000 C 
BRANCH   6   7
ATOM      7  C   UNL     1      55.220 -16.021  12.027  1.00  0.00     0.000 C 
BRANCH   7   8
ATOM      8  C   UNL     1      55.658 -17.107  11.029  1.00  0.00     0.000 C 
BRANCH   8   9
ATOM      9  C   UNL     1      56.910 -16.701  10.235  1.00  0.00     0.000 C 
BRANCH   9  10
ATOM     10  C   UNL     1      56.718 -15.336   9.564  1.00  0.00     0.000 C 
BRANCH  10  11
ATOM     11  C   UNL     1      56.533 -15.495   8.045  1.00  0.00     0.000 C 
BRANCH  11  12
ATOM     12  C   UNL     1      55.109 -15.138   7.573  1.00  0.00     0.006 C 
BRANCH  12  13
ATOM     13  C   UNL     1      54.619 -15.989   6.390  1.00  0.00     0.053 C 
BRANCH  13  14
ATOM     14  C   UNL     1      53.128 -16.085   6.333  1.00  0.00     0.041 C 
ATOM     15  O   UNL     1      52.460 -15.216   5.709  1.00  0.00    -0.550 OA
ATOM     16  O   UNL     1      52.472 -17.125   6.979  1.00  0.00    -0.550 OA
ENDBRANCH  13  14
ENDBRANCH  12  13
ENDBRANCH  11  12
ENDBRANCH  10  11
ENDBRANCH   9  10
ENDBRANCH   8   9
ENDBRANCH   7   8
ENDBRANCH   6   7
ENDBRANCH   5   6
ENDBRANCH   4   5
ENDBRANCH   3   4
ENDBRANCH   2   3
ENDBRANCH   1   2
BRANCH   1  17
ATOM     17  C   UNL     1      62.188 -16.565  13.510  1.00  0.00     0.000 C 
BRANCH  17  18
ATOM     18  C   UNL     1      63.483 -15.966  12.942  1.00  0.00     0.000 C 
BRANCH  18  19
ATOM     19  C   UNL     1      64.588 -17.020  12.748  1.00  0.00     0.000 C 
BRANCH  19  20
ATOM     20  C   UNL     1      65.136 -17.044  11.307  1.00  0.00     0.000 C 
BRANCH  20  21
ATOM     21  C   UNL     1      66.208 -15.974  11.030  1.00  0.00     0.000 C 
BRANCH  21  22
ATOM     22  C   UNL     1      66.542 -15.137  12.280  1.00  0.00    -0.000 C 
BRANCH  22  23
ATOM     23  C   UNL     1      67.993 -14.621  12.270  1.00  0.00    -0.000 C 
BRANCH  23  24
ATOM     24  C   UNL     1      68.995 -15.609  11.629  1.00  0.00    -0.000 C 
BRANCH  24  25
ATOM     25  C   UNL     1      69.040 -16.987  12.320  1.00  0.00    -0.000 C 
BRANCH  25  26
ATOM     26  C   UNL     1      70.042 -17.028  13.485  1.00  0.00    -0.000 C 
BRANCH  26  27
ATOM     27  C   UNL     1      69.315 -17.094  14.834  1.00  0.00    -0.000 C 
BRANCH  27  28
ATOM     28  C   UNL     1      67.796 -17.125  14.639  1.00  0.00    -0.000 C 
BRANCH  28  29
ATOM     29  C   UNL     1      67.067 -16.859  15.960  1.00  0.00    -0.003 C 
ATOM     30  C   UNL     1      68.021 -16.969  17.147  1.00  0.00     0.004 C 
ENDBRANCH  28  29
ENDBRANCH  27  28
ENDBRANCH  26  27
ENDBRANCH  25  26
ENDBRANCH  24  25
ENDBRANCH  23  24
ENDBRANCH  22  23
ENDBRANCH  21  22
ENDBRANCH  20  21
ENDBRANCH  19  20
ENDBRANCH  18  19
ENDBRANCH  17  18
ENDBRANCH   1  17
TORSDOF 26
ENDMDL
MODEL 4
REMARK VINA RESULT:    -0.041      2.040      6.102
REMARK INTER + INTRA:          -0.892
REMARK INTER:                  -1.009
REMARK INTRA:                   0.118
REMARK UNBOUND:                -0.787
REMARK SMILES CCCCCCCCCCCCCCCCCCCCCCCCCCCC(=O)[O-]
REMARK SMILES IDX 15 1 16 2 17 3 18 4 19 5 20 6 21 7 22 8 23 9 24 10 25 11
REMARK SMILES IDX 26 12 27 13 28 14 29 15 30 16 14 17 13 18 12 19 11 20 10 21
REMARK SMILES IDX 9 22 8 23 7 24 6 25 5 26 4 27 3 28 2 29 1 30
REMARK H PARENT
REMARK Flexibility Score: inf
ROOT
ATOM      1  C   UNL     1      58.250  -2.072  23.475  1.00  0.00     0.000 C 
ENDROOT
BRANCH   1   2
ATOM      2  C   UNL     1      58.274  -1.216  22.198  1.00  0.00     0.000 C 
BRANCH   2   3
ATOM      3  C   UNL     1      56.872  -0.780  21.730  1.00  0.00     0.000 C 
BRANCH   3   4
ATOM      4  C   UNL     1      55.783  -0.788  22.818  1.00  0.00     0.000 C 
BRANCH   4   5
ATOM      5  C   UNL     1      54.782  -1.957  22.739  1.00  0.00     0.000 C 
BRANCH   5   6
ATOM      6  C   UNL     1      53.374  -1.554  22.251  1.00  0.00     0.000 C 
BRANCH   6   7
ATOM      7  C   UNL     1      53.265  -0.055  21.913  1.00  0.00     0.000 C 
BRANCH   7   8
ATOM      8  C   UNL     1      53.620   0.248  20.447  1.00  0.00     0.000 C 
BRANCH   8   9
ATOM      9  C   UNL     1      52.377   0.548  19.594  1.00  0.00     0.000 C 
BRANCH   9  10
ATOM     10  C   UNL     1      51.240  -0.429  19.914  1.00  0.00     0.000 C 
BRANCH  10  11
ATOM     11  C   UNL     1      49.881   0.163  19.504  1.00  0.00     0.000 C 
BRANCH  11  12
ATOM     12  C   UNL     1      50.004   1.265  18.432  1.00  0.00     0.006 C 
BRANCH  12  13
ATOM     13  C   UNL     1      49.933   2.691  19.002  1.00  0.00     0.053 C 
BRANCH  13  14
ATOM     14  C   UNL     1      50.894   2.907  20.126  1.00  0.00     0.041 C 
ATOM     15  O   UNL     1      52.123   3.060  19.889  1.00  0.00    -0.550 OA
ATOM     16  O   UNL     1      50.439   2.924  21.439  1.00  0.00    -0.550 OA
ENDBRANCH  13  14
ENDBRANCH  12  13
ENDBRANCH  11  12
ENDBRANCH  10  11
ENDBRANCH   9  10
ENDBRANCH   8   9
ENDBRANCH   7   8
ENDBRANCH   6   7
ENDBRANCH   5   6
ENDBRANCH   4   5
ENDBRANCH   3   4
ENDBRANCH   2   3
ENDBRANCH   1   2
BRANCH   1  17
ATOM     17  C   UNL     1      58.616  -1.224  24.703  1.00  0.00     0.000 C 
BRANCH  17  18
ATOM     18  C   UNL     1      58.720   0.275  24.385  1.00  0.00     0.000 C 
BRANCH  18  19
ATOM     19  C   UNL     1      57.662   1.112  25.125  1.00  0.00     0.000 C 
BRANCH  19  20
ATOM     20  C   UNL     1      57.142   2.291  24.278  1.00  0.00     0.000 C 
BRANCH  20  21
ATOM     21  C   UNL     1      55.699   2.713  24.614  1.00  0.00     0.000 C 
BRANCH  21  22
ATOM     22  C   UNL     1      54.652   1.755  24.013  1.00  0.00    -0.000 C 
BRANCH  22  23
ATOM     23  C   UNL     1      53.289   2.440  23.795  1.00  0.00    -0.000 C 
BRANCH  23  24
ATOM     24  C   UNL     1      52.444   2.558  25.085  1.00  0.00    -0.000 C 
BRANCH  24  25
ATOM     25  C   UNL     1      51.014   3.082  24.848  1.00  0.00    -0.000 C 
BRANCH  25  26
ATOM     26  C   UNL     1      49.960   1.964  24.911  1.00  0.00    -0.000 C 
BRANCH  26  27
ATOM     27  C   UNL     1      50.625   0.582  24.916  1.00  0.00    -0.000 C 
BRANCH  27  28
ATOM     28  C   UNL     1      50.273  -0.203  23.648  1.00  0.00    -0.000 C 
BRANCH  28  29
ATOM     29  C   UNL     1      50.013  -1.678  23.970  1.00  0.00    -0.003 C 
ATOM     30  C   UNL     1      50.425  -2.577  22.807  1.00  0.00     0.004 C 
ENDBRANCH  28  29
ENDBRANCH  27  28
ENDBRANCH  26  27
ENDBRANCH  25  26
ENDBRANCH  24  25
ENDBRANCH  23  24
ENDBRANCH  22  23
ENDBRANCH  21  22
ENDBRANCH  20  21
ENDBRANCH  19  20
ENDBRANCH  18  19
ENDBRANCH  17  18
ENDBRANCH   1  17
TORSDOF 26
ENDMDL
MODEL 5
REMARK VINA RESULT:     0.415     19.013     22.484
REMARK INTER + INTRA:           0.259
REMARK INTER:                  -0.602
REMARK INTRA:                   0.860
REMARK UNBOUND:                -0.787
REMARK SMILES CCCCCCCCCCCCCCCCCCCCCCCCCCCC(=O)[O-]
REMARK SMILES IDX 15 1 16 2 17 3 18 4 19 5 20 6 21 7 22 8 23 9 24 10 25 11
REMARK SMILES IDX 26 12 27 13 28 14 29 15 30 16 14 17 13 18 12 19 11 20 10 21
REMARK SMILES IDX 9 22 8 23 7 24 6 25 5 26 4 27 3 28 2 29 1 30
REMARK H PARENT
REMARK Flexibility Score: inf
ROOT
ATOM      1  C   UNL     1      58.362 -14.564   7.524  1.00  0.00     0.000 C 
ENDROOT
BRANCH   1   2
ATOM      2  C   UNL     1      58.764 -14.273   6.069  1.00  0.00     0.000 C 
BRANCH   2   3
ATOM      3  C   UNL     1      57.773 -14.846   5.036  1.00  0.00     0.000 C 
BRANCH   3   4
ATOM      4  C   UNL     1      57.747 -16.382   4.932  1.00  0.00     0.000 C 
BRANCH   4   5
ATOM      5  C   UNL     1      56.421 -17.047   5.347  1.00  0.00     0.000 C 
BRANCH   5   6
ATOM      6  C   UNL     1      55.271 -16.053   5.621  1.00  0.00     0.000 C 
BRANCH   6   7
ATOM      7  C   UNL     1      54.071 -16.709   6.329  1.00  0.00     0.000 C 
BRANCH   7   8
ATOM      8  C   UNL     1      52.791 -16.673   5.477  1.00  0.00     0.000 C 
BRANCH   8   9
ATOM      9  C   UNL     1      52.527 -15.283   4.875  1.00  0.00     0.000 C 
BRANCH   9  10
ATOM     10  C   UNL     1      51.721 -14.408   5.842  1.00  0.00     0.000 C 
BRANCH  10  11
ATOM     11  C   UNL     1      50.255 -14.869   5.903  1.00  0.00     0.000 C 
BRANCH  11  12
ATOM     12  C   UNL     1      50.015 -15.972   6.953  1.00  0.00     0.006 C 
BRANCH  12  13
ATOM     13  C   UNL     1      50.202 -15.494   8.403  1.00  0.00     0.053 C 
BRANCH  13  14
ATOM     14  C   UNL     1      50.787 -16.551   9.283  1.00  0.00     0.041 C 
ATOM     15  O   UNL     1      50.072 -17.124  10.149  1.00  0.00    -0.550 OA
ATOM     16  O   UNL     1      52.127 -16.898   9.159  1.00  0.00    -0.550 OA
ENDBRANCH  13  14
ENDBRANCH  12  13
ENDBRANCH  11  12
ENDBRANCH  10  11
ENDBRANCH   9  10
ENDBRANCH   8   9
ENDBRANCH   7   8
ENDBRANCH   6   7
ENDBRANCH   5   6
ENDBRANCH   4   5
ENDBRANCH   3   4
ENDBRANCH   2   3
ENDBRANCH   1   2
BRANCH   1  17
ATOM     17  C   UNL     1      58.343 -16.078   7.788  1.00  0.00     0.000 C 
BRANCH  17  18
ATOM     18  C   UNL     1      58.450 -16.425   9.281  1.00  0.00     0.000 C 
BRANCH  18  19
ATOM     19  C   UNL     1      57.111 -16.895   9.877  1.00  0.00     0.000 C 
BRANCH  19  20
ATOM     20  C   UNL     1      57.134 -16.943  11.417  1.00  0.00     0.000 C 
BRANCH  20  21
ATOM     21  C   UNL     1      58.541 -17.125  12.015  1.00  0.00     0.000 C 
BRANCH  21  22
ATOM     22  C   UNL     1      58.876 -16.052  13.069  1.00  0.00    -0.000 C 
BRANCH  22  23
ATOM     23  C   UNL     1      57.849 -16.017  14.218  1.00  0.00    -0.000 C 
BRANCH  23  24
ATOM     24  C   UNL     1      56.764 -17.113  14.108  1.00  0.00    -0.000 C 
BRANCH  24  25
ATOM     25  C   UNL     1      55.339 -16.561  13.903  1.00  0.00    -0.000 C 
BRANCH  25  26
ATOM     26  C   UNL     1      54.765 -16.915  12.522  1.00  0.00    -0.000 C 
BRANCH  26  27
ATOM     27  C   UNL     1      53.308 -16.449  12.397  1.00  0.00    -0.000 C 
BRANCH  27  28
ATOM     28  C   UNL     1      52.540 -16.690  13.699  1.00  0.00    -0.000 C 
BRANCH  28  29
ATOM     29  C   UNL     1      51.153 -16.040  13.647  1.00  0.00    -0.003 C 
ATOM     30  C   UNL     1      50.133 -16.854  14.439  1.00  0.00     0.004 C 
ENDBRANCH  28  29
ENDBRANCH  27  28
ENDBRANCH  26  27
ENDBRANCH  25  26
ENDBRANCH  24  25
ENDBRANCH  23  24
ENDBRANCH  22  23
ENDBRANCH  21  22
ENDBRANCH  20  21
ENDBRANCH  19  20
ENDBRANCH  18  19
ENDBRANCH  17  18
ENDBRANCH   1  17
TORSDOF 26
ENDMDL
MODEL 6
REMARK VINA RESULT:     0.450      1.968      3.637
REMARK INTER + INTRA:           0.347
REMARK INTER:                   1.000
REMARK INTRA:                  -0.653
REMARK UNBOUND:                -0.787
REMARK SMILES CCCCCCCCCCCCCCCCCCCCCCCCCCCC(=O)[O-]
REMARK SMILES IDX 15 1 16 2 17 3 18 4 19 5 20 6 21 7 22 8 23 9 24 10 25 11
REMARK SMILES IDX 26 12 27 13 28 14 29 15 30 16 14 17 13 18 12 19 11 20 10 21
REMARK SMILES IDX 9 22 8 23 7 24 6 25 5 26 4 27 3 28 2 29 1 30
REMARK H PARENT
REMARK Flexibility Score: inf
ROOT
ATOM      1  C   UNL     1      56.391   0.200  24.361  1.00  0.00     0.000 C 
ENDROOT
BRANCH   1   2
ATOM      2  C   UNL     1      57.718   0.905  24.042  1.00  0.00     0.000 C 
BRANCH   2   3
ATOM      3  C   UNL     1      58.848   0.555  25.029  1.00  0.00     0.000 C 
BRANCH   3   4
ATOM      4  C   UNL     1      59.198  -0.941  25.125  1.00  0.00     0.000 C 
BRANCH   4   5
ATOM      5  C   UNL     1      59.922  -1.528  23.897  1.00  0.00     0.000 C 
BRANCH   5   6
ATOM      6  C   UNL     1      59.227  -2.762  23.282  1.00  0.00     0.000 C 
BRANCH   6   7
ATOM      7  C   UNL     1      58.393  -2.417  22.034  1.00  0.00     0.000 C 
BRANCH   7   8
ATOM      8  C   UNL     1      56.947  -2.021  22.379  1.00  0.00     0.000 C 
BRANCH   8   9
ATOM      9  C   UNL     1      56.250  -1.284  21.224  1.00  0.00     0.000 C 
BRANCH   9  10
ATOM     10  C   UNL     1      56.718   0.174  21.138  1.00  0.00     0.000 C 
BRANCH  10  11
ATOM     11  C   UNL     1      55.516   1.128  21.040  1.00  0.00     0.000 C 
BRANCH  11  12
ATOM     12  C   UNL     1      54.171   0.433  21.334  1.00  0.00     0.006 C 
BRANCH  12  13
ATOM     13  C   UNL     1      53.172   0.502  20.167  1.00  0.00     0.053 C 
BRANCH  13  14
ATOM     14  C   UNL     1      51.947  -0.319  20.413  1.00  0.00     0.041 C 
ATOM     15  O   UNL     1      50.848   0.009  19.888  1.00  0.00    -0.550 OA
ATOM     16  O   UNL     1      52.012  -1.439  21.232  1.00  0.00    -0.550 OA
ENDBRANCH  13  14
ENDBRANCH  12  13
ENDBRANCH  11  12
ENDBRANCH  10  11
ENDBRANCH   9  10
ENDBRANCH   8   9
ENDBRANCH   7   8
ENDBRANCH   6   7
ENDBRANCH   5   6
ENDBRANCH   4   5
ENDBRANCH   3   4
ENDBRANCH   2   3
ENDBRANCH   1   2
BRANCH   1  17
ATOM     17  C   UNL     1      55.200   1.038  23.869  1.00  0.00     0.000 C 
BRANCH  17  18
ATOM     18  C   UNL     1      55.133   2.426  24.524  1.00  0.00     0.000 C 
BRANCH  18  19
ATOM     19  C   UNL     1      53.691   2.871  24.822  1.00  0.00     0.000 C 
BRANCH  19  20
ATOM     20  C   UNL     1      52.852   3.056  23.541  1.00  0.00     0.000 C 
BRANCH  20  21
ATOM     21  C   UNL     1      51.333   3.084  23.790  1.00  0.00     0.000 C 
BRANCH  21  22
ATOM     22  C   UNL     1      50.545   2.321  22.707  1.00  0.00    -0.000 C 
BRANCH  22  23
ATOM     23  C   UNL     1      49.899   1.032  23.251  1.00  0.00    -0.000 C 
BRANCH  23  24
ATOM     24  C   UNL     1      50.423   0.621  24.647  1.00  0.00    -0.000 C 
BRANCH  24  25
ATOM     25  C   UNL     1      50.232  -0.875  24.968  1.00  0.00    -0.000 C 
BRANCH  25  26
ATOM     26  C   UNL     1      49.878  -1.703  23.722  1.00  0.00    -0.000 C 
BRANCH  26  27
ATOM     27  C   UNL     1      50.634  -3.038  23.715  1.00  0.00    -0.000 C 
BRANCH  27  28
ATOM     28  C   UNL     1      49.879  -4.101  24.518  1.00  0.00    -0.000 C 
BRANCH  28  29
ATOM     29  C   UNL     1      50.766  -5.323  24.781  1.00  0.00    -0.003 C 
ATOM     30  C   UNL     1      49.930  -6.597  24.890  1.00  0.00     0.004 C 
ENDBRANCH  28  29
ENDBRANCH  27  28
ENDBRANCH  26  27
ENDBRANCH  25  26
ENDBRANCH  24  25
ENDBRANCH  23  24
ENDBRANCH  22  23
ENDBRANCH  21  22
ENDBRANCH  20  21
ENDBRANCH  19  20
ENDBRANCH  18  19
ENDBRANCH  17  18
ENDBRANCH   1  17
TORSDOF 26
ENDMDL
MODEL 7
REMARK VINA RESULT:     0.522      2.500      5.745
REMARK INTER + INTRA:           0.529
REMARK INTER:                  -0.547
REMARK INTRA:                   1.076
REMARK UNBOUND:                -0.787
REMARK SMILES CCCCCCCCCCCCCCCCCCCCCCCCCCCC(=O)[O-]
REMARK SMILES IDX 15 1 16 2 17 3 18 4 19 5 20 6 21 7 22 8 23 9 24 10 25 11
REMARK SMILES IDX 26 12 27 13 28 14 29 15 30 16 14 17 13 18 12 19 11 20 10 21
REMARK SMILES IDX 9 22 8 23 7 24 6 25 5 26 4 27 3 28 2 29 1 30
REMARK H PARENT
REMARK Flexibility Score: inf
ROOT
ATOM      1  C   UNL     1      58.150  -2.936  22.311  1.00  0.00     0.000 C 
ENDROOT
BRANCH   1   2
ATOM      2  C   UNL     1      58.511  -2.316  23.670  1.00  0.00     0.000 C 
BRANCH   2   3
ATOM      3  C   UNL     1      57.463  -1.307  24.178  1.00  0.00     0.000 C 
BRANCH   3   4
ATOM      4  C   UNL     1      58.037  -0.028  24.816  1.00  0.00     0.000 C 
BRANCH   4   5
ATOM      5  C   UNL     1      57.134   1.217  24.723  1.00  0.00     0.000 C 
BRANCH   5   6
ATOM      6  C   UNL     1      55.661   0.961  25.110  1.00  0.00     0.000 C 
BRANCH   6   7
ATOM      7  C   UNL     1      54.801   2.238  25.064  1.00  0.00     0.000 C 
BRANCH   7   8
ATOM      8  C   UNL     1      53.545   2.074  24.190  1.00  0.00     0.000 C 
BRANCH   8   9
ATOM      9  C   UNL     1      52.337   2.841  24.753  1.00  0.00     0.000 C 
BRANCH   9  10
ATOM     10  C   UNL     1      51.181   1.887  25.078  1.00  0.00     0.000 C 
BRANCH  10  11
ATOM     11  C   UNL     1      51.392   0.523  24.398  1.00  0.00     0.000 C 
BRANCH  11  12
ATOM     12  C   UNL     1      50.068  -0.205  24.088  1.00  0.00     0.006 C 
BRANCH  12  13
ATOM     13  C   UNL     1      50.230  -1.402  23.137  1.00  0.00     0.053 C 
BRANCH  13  14
ATOM     14  C   UNL     1      50.002  -2.712  23.822  1.00  0.00     0.041 C 
ATOM     15  O   UNL     1      49.929  -2.766  25.080  1.00  0.00    -0.550 OA
ATOM     16  O   UNL     1      49.884  -3.877  23.075  1.00  0.00    -0.550 OA
ENDBRANCH  13  14
ENDBRANCH  12  13
ENDBRANCH  11  12
ENDBRANCH  10  11
ENDBRANCH   9  10
ENDBRANCH   8   9
ENDBRANCH   7   8
ENDBRANCH   6   7
ENDBRANCH   5   6
ENDBRANCH   4   5
ENDBRANCH   3   4
ENDBRANCH   2   3
ENDBRANCH   1   2
BRANCH   1  17
ATOM     17  C   UNL     1      57.288  -1.968  21.485  1.00  0.00     0.000 C 
BRANCH  17  18
ATOM     18  C   UNL     1      57.345  -0.524  22.005  1.00  0.00     0.000 C 
BRANCH  18  19
ATOM     19  C   UNL     1      56.558   0.456  21.118  1.00  0.00     0.000 C 
BRANCH  19  20
ATOM     20  C   UNL     1      55.095   0.623  21.574  1.00  0.00     0.000 C 
BRANCH  20  21
ATOM     21  C   UNL     1      54.207   1.371  20.562  1.00  0.00     0.000 C 
BRANCH  21  22
ATOM     22  C   UNL     1      53.791   2.768  21.064  1.00  0.00    -0.000 C 
BRANCH  22  23
ATOM     23  C   UNL     1      52.268   2.990  20.984  1.00  0.00    -0.000 C 
BRANCH  23  24
ATOM     24  C   UNL     1      51.740   3.125  19.537  1.00  0.00    -0.000 C 
BRANCH  24  25
ATOM     25  C   UNL     1      50.219   2.904  19.406  1.00  0.00    -0.000 C 
BRANCH  25  26
ATOM     26  C   UNL     1      49.875   1.623  18.630  1.00  0.00    -0.000 C 
BRANCH  26  27
ATOM     27  C   UNL     1      50.078   0.379  19.506  1.00  0.00    -0.000 C 
BRANCH  27  28
ATOM     28  C   UNL     1      51.427  -0.285  19.213  1.00  0.00    -0.000 C 
BRANCH  28  29
ATOM     29  C   UNL     1      51.750  -1.355  20.262  1.00  0.00    -0.003 C 
ATOM     30  C   UNL     1      52.719  -0.820  21.314  1.00  0.00     0.004 C 
ENDBRANCH  28  29
ENDBRANCH  27  28
ENDBRANCH  26  27
ENDBRANCH  25  26
ENDBRANCH  24  25
ENDBRANCH  23  24
ENDBRANCH  22  23
ENDBRANCH  21  22
ENDBRANCH  20  21
ENDBRANCH  19  20
ENDBRANCH  18  19
ENDBRANCH  17  18
ENDBRANCH   1  17
TORSDOF 26
ENDMDL
