MODEL 1
REMARK VINA RESULT:    -5.305      0.000      0.000
REMARK INTER + INTRA:          -5.834
REMARK INTER:                  -5.771
REMARK INTRA:                  -0.063
REMARK UNBOUND:                -0.063
REMARK SMILES COc1cc2ccc(=O)oc2cc1O
REMARK SMILES IDX 3 1 13 2 12 3 11 4 5 5 4 6 6 7 7 8 8 9 9 10 10 11 2 12 1 13
REMARK SMILES IDX 14 14
REMARK H PARENT 14 15
REMARK Flexibility Score: inf
ROOT
ATOM      1  C   UNL     1      27.662   3.562  29.813  1.00  0.00     0.161 A 
ATOM      2  C   UNL     1      26.918   2.978  28.768  1.00  0.00     0.161 A 
ATOM      3  C   UNL     1      26.665   1.601  28.769  1.00  0.00     0.098 A 
ATOM      4  C   UNL     1      27.144   0.794  29.802  1.00  0.00     0.142 A 
ATOM      5  C   UNL     1      27.888   1.369  30.852  1.00  0.00     0.022 A 
ATOM      6  C   UNL     1      28.145   2.747  30.856  1.00  0.00     0.062 A 
ATOM      7  C   UNL     1      28.355   0.535  31.874  1.00  0.00     0.019 A 
ATOM      8  C   UNL     1      28.073  -0.830  31.826  1.00  0.00     0.094 A 
ATOM      9  C   UNL     1      27.329  -1.330  30.752  1.00  0.00     0.336 A 
ATOM     10  O   UNL     1      27.063  -2.559  30.690  1.00  0.00    -0.246 OA
ATOM     11  O   UNL     1      26.896  -0.514  29.794  1.00  0.00    -0.423 OA
ENDROOT
BRANCH   1  12
ATOM     12  O   UNL     1      27.898   4.946  29.781  1.00  0.00    -0.493 OA
ATOM     13  C   UNL     1      27.285   5.891  30.651  1.00  0.00     0.278 C 
ENDBRANCH   1  12
BRANCH   2  14
ATOM     14  O   UNL     1      26.424   3.750  27.718  1.00  0.00    -0.504 OA
ATOM     15  H   UNL     1      26.990   4.444  27.244  1.00  0.00     0.293 HD
ENDBRANCH   2  14
TORSDOF 2
ENDMDL
MODEL 2
REMARK VINA RESULT:    -5.175      1.879      2.863
REMARK INTER + INTRA:          -5.692
REMARK INTER:                  -5.628
REMARK INTRA:                  -0.064
REMARK UNBOUND:                -0.063
REMARK SMILES COc1cc2ccc(=O)oc2cc1O
REMARK SMILES IDX 3 1 13 2 12 3 11 4 5 5 4 6 6 7 7 8 8 9 9 10 10 11 2 12 1 13
REMARK SMILES IDX 14 14
REMARK H PARENT 14 15
REMARK Flexibility Score: inf
ROOT
ATOM      1  C   UNL     1      28.071   3.591  30.824  1.00  0.00     0.161 A 
ATOM      2  C   UNL     1      28.893   3.125  31.869  1.00  0.00     0.161 A 
ATOM      3  C   UNL     1      29.360   1.805  31.863  1.00  0.00     0.098 A 
ATOM      4  C   UNL     1      29.017   0.939  30.824  1.00  0.00     0.142 A 
ATOM      5  C   UNL     1      28.195   1.396  29.773  1.00  0.00     0.022 A 
ATOM      6  C   UNL     1      27.726   2.716  29.775  1.00  0.00     0.062 A 
ATOM      7  C   UNL     1      27.869   0.504  28.745  1.00  0.00     0.019 A 
ATOM      8  C   UNL     1      28.361  -0.800  28.788  1.00  0.00     0.094 A 
ATOM      9  C   UNL     1      29.171  -1.183  29.862  1.00  0.00     0.336 A 
ATOM     10  O   UNL     1      29.626  -2.355  29.919  1.00  0.00    -0.246 OA
ATOM     11  O   UNL     1      29.467  -0.315  30.826  1.00  0.00    -0.423 OA
ENDROOT
BRANCH   1  12
ATOM     12  O   UNL     1      27.620   4.921  30.862  1.00  0.00    -0.493 OA
ATOM     13  C   UNL     1      28.108   5.963  30.024  1.00  0.00     0.278 C 
ENDBRANCH   1  12
BRANCH   2  14
ATOM     14  O   UNL     1      29.257   3.960  32.925  1.00  0.00    -0.504 OA
ATOM     15  H   UNL     1      29.877   4.750  32.800  1.00  0.00     0.293 HD
ENDBRANCH   2  14
TORSDOF 2
ENDMDL
MODEL 3
REMARK VINA RESULT:    -5.139      2.038      5.771
REMARK INTER + INTRA:          -5.653
REMARK INTER:                  -5.591
REMARK INTRA:                  -0.062
REMARK UNBOUND:                -0.063
REMARK SMILES COc1cc2ccc(=O)oc2cc1O
REMARK SMILES IDX 3 1 13 2 12 3 11 4 5 5 4 6 6 7 7 8 8 9 9 10 10 11 2 12 1 13
REMARK SMILES IDX 14 14
REMARK H PARENT 14 15
REMARK Flexibility Score: inf
ROOT
ATOM      1  C   UNL     1      28.015  -2.971  30.433  1.00  0.00     0.161 A 
ATOM      2  C   UNL     1      26.675  -2.564  30.596  1.00  0.00     0.161 A 
ATOM      3  C   UNL     1      26.313  -1.229  30.376  1.00  0.00     0.098 A 
ATOM      4  C   UNL     1      27.271  -0.290  29.992  1.00  0.00     0.142 A 
ATOM      5  C   UNL     1      28.613  -0.687  29.825  1.00  0.00     0.022 A 
ATOM      6  C   UNL     1      28.982  -2.021  30.045  1.00  0.00     0.062 A 
ATOM      7  C   UNL     1      29.552   0.277  29.440  1.00  0.00     0.019 A 
ATOM      8  C   UNL     1      29.136   1.592  29.233  1.00  0.00     0.094 A 
ATOM      9  C   UNL     1      27.787   1.913  29.418  1.00  0.00     0.336 A 
ATOM     10  O   UNL     1      27.391   3.094  29.236  1.00  0.00    -0.246 OA
ATOM     11  O   UNL     1      26.916   0.976  29.784  1.00  0.00    -0.423 OA
ENDROOT
BRANCH   1  12
ATOM     12  O   UNL     1      28.344  -4.316  30.662  1.00  0.00    -0.493 OA
ATOM     13  C   UNL     1      28.725  -5.239  29.647  1.00  0.00     0.278 C 
ENDBRANCH   1  12
BRANCH   2  14
ATOM     14  O   UNL     1      25.690  -3.472  30.980  1.00  0.00    -0.504 OA
ATOM     15  H   UNL     1      24.805  -3.547  30.493  1.00  0.00     0.293 HD
ENDBRANCH   2  14
TORSDOF 2
ENDMDL
MODEL 4
REMARK VINA RESULT:    -5.132      2.578      5.879
REMARK INTER + INTRA:          -5.645
REMARK INTER:                  -5.593
REMARK INTRA:                  -0.052
REMARK UNBOUND:                -0.063
REMARK SMILES COc1cc2ccc(=O)oc2cc1O
REMARK SMILES IDX 3 1 13 2 12 3 11 4 5 5 4 6 6 7 7 8 8 9 9 10 10 11 2 12 1 13
REMARK SMILES IDX 14 14
REMARK H PARENT 14 15
REMARK Flexibility Score: inf
ROOT
ATOM      1  C   UNL     1      29.133  -2.791  30.074  1.00  0.00     0.161 A 
ATOM      2  C   UNL     1      30.352  -2.088  29.992  1.00  0.00     0.161 A 
ATOM      3  C   UNL     1      30.392  -0.715  30.262  1.00  0.00     0.098 A 
ATOM      4  C   UNL     1      29.229  -0.029  30.613  1.00  0.00     0.142 A 
ATOM      5  C   UNL     1      28.005  -0.723  30.698  1.00  0.00     0.022 A 
ATOM      6  C   UNL     1      27.959  -2.098  30.430  1.00  0.00     0.062 A 
ATOM      7  C   UNL     1      26.855  -0.009  31.054  1.00  0.00     0.019 A 
ATOM      8  C   UNL     1      26.952   1.359  31.311  1.00  0.00     0.094 A 
ATOM      9  C   UNL     1      28.201   1.981  31.207  1.00  0.00     0.336 A 
ATOM     10  O   UNL     1      28.309   3.214  31.436  1.00  0.00    -0.246 OA
ATOM     11  O   UNL     1      29.277   1.277  30.868  1.00  0.00    -0.423 OA
ENDROOT
BRANCH   1  12
ATOM     12  O   UNL     1      29.128  -4.168  29.797  1.00  0.00    -0.493 OA
ATOM     13  C   UNL     1      28.543  -5.159  30.635  1.00  0.00     0.278 C 
ENDBRANCH   1  12
BRANCH   2  14
ATOM     14  O   UNL     1      31.535  -2.738  29.643  1.00  0.00    -0.504 OA
ATOM     15  H   UNL     1      32.392  -2.620  30.169  1.00  0.00     0.293 HD
ENDBRANCH   2  14
TORSDOF 2
ENDMDL
MODEL 5
REMARK VINA RESULT:    -5.016      1.222      4.963
REMARK INTER + INTRA:          -5.519
REMARK INTER:                  -5.581
REMARK INTRA:                   0.062
REMARK UNBOUND:                -0.063
REMARK SMILES COc1cc2ccc(=O)oc2cc1O
REMARK SMILES IDX 3 1 13 2 12 3 11 4 5 5 4 6 6 7 7 8 8 9 9 10 10 11 2 12 1 13
REMARK SMILES IDX 14 14
REMARK H PARENT 14 15
REMARK Flexibility Score: inf
ROOT
ATOM      1  C   UNL     1      27.774   0.517  30.518  1.00  0.00     0.161 A 
ATOM      2  C   UNL     1      27.220   0.841  29.263  1.00  0.00     0.161 A 
ATOM      3  C   UNL     1      27.108   2.180  28.867  1.00  0.00     0.098 A 
ATOM      4  C   UNL     1      27.544   3.205  29.708  1.00  0.00     0.142 A 
ATOM      5  C   UNL     1      28.101   2.890  30.965  1.00  0.00     0.022 A 
ATOM      6  C   UNL     1      28.214   1.552  31.366  1.00  0.00     0.062 A 
ATOM      7  C   UNL     1      28.529   3.939  31.787  1.00  0.00     0.019 A 
ATOM      8  C   UNL     1      28.395   5.254  31.343  1.00  0.00     0.094 A 
ATOM      9  C   UNL     1      27.833   5.490  30.083  1.00  0.00     0.336 A 
ATOM     10  O   UNL     1      27.703   6.670  29.664  1.00  0.00    -0.246 OA
ATOM     11  O   UNL     1      27.435   4.474  29.323  1.00  0.00    -0.423 OA
ENDROOT
BRANCH   1  12
ATOM     12  O   UNL     1      27.871  -0.836  30.884  1.00  0.00    -0.493 OA
ATOM     13  C   UNL     1      28.805  -1.757  30.332  1.00  0.00     0.278 C 
ENDBRANCH   1  12
BRANCH   2  14
ATOM     14  O   UNL     1      26.772  -0.154  28.396  1.00  0.00    -0.504 OA
ATOM     15  H   UNL     1      27.405  -0.803  27.945  1.00  0.00     0.293 HD
ENDBRANCH   2  14
TORSDOF 2
ENDMDL
MODEL 6
REMARK VINA RESULT:    -4.987      2.273      3.611
REMARK INTER + INTRA:          -5.487
REMARK INTER:                  -5.530
REMARK INTRA:                   0.043
REMARK UNBOUND:                -0.063
REMARK SMILES COc1cc2ccc(=O)oc2cc1O
REMARK SMILES IDX 3 1 13 2 12 3 11 4 5 5 4 6 6 7 7 8 8 9 9 10 10 11 2 12 1 13
REMARK SMILES IDX 14 14
REMARK H PARENT 14 15
REMARK Flexibility Score: inf
ROOT
ATOM      1  C   UNL     1      28.096   0.357  30.108  1.00  0.00     0.161 A 
ATOM      2  C   UNL     1      26.813  -0.102  30.469  1.00  0.00     0.161 A 
ATOM      3  C   UNL     1      26.573  -1.473  30.622  1.00  0.00     0.098 A 
ATOM      4  C   UNL     1      27.598  -2.398  30.419  1.00  0.00     0.142 A 
ATOM      5  C   UNL     1      28.886  -1.949  30.058  1.00  0.00     0.022 A 
ATOM      6  C   UNL     1      29.131  -0.578  29.904  1.00  0.00     0.062 A 
ATOM      7  C   UNL     1      29.894  -2.899  29.862  1.00  0.00     0.019 A 
ATOM      8  C   UNL     1      29.600  -4.252  30.028  1.00  0.00     0.094 A 
ATOM      9  C   UNL     1      28.300  -4.624  30.387  1.00  0.00     0.336 A 
ATOM     10  O   UNL     1      28.014  -5.840  30.542  1.00  0.00    -0.246 OA
ATOM     11  O   UNL     1      27.361  -3.700  30.568  1.00  0.00    -0.423 OA
ENDROOT
BRANCH   1  12
ATOM     12  O   UNL     1      28.302   1.738  29.963  1.00  0.00    -0.493 OA
ATOM     13  C   UNL     1      28.411   2.657  31.044  1.00  0.00     0.278 C 
ENDBRANCH   1  12
BRANCH   2  14
ATOM     14  O   UNL     1      25.763   0.790  30.679  1.00  0.00    -0.504 OA
ATOM     15  H   UNL     1      25.287   1.254  29.915  1.00  0.00     0.293 HD
ENDBRANCH   2  14
TORSDOF 2
ENDMDL
MODEL 7
REMARK VINA RESULT:    -4.974      1.640      5.453
REMARK INTER + INTRA:          -5.474
REMARK INTER:                  -5.486
REMARK INTRA:                   0.013
REMARK UNBOUND:                -0.063
REMARK SMILES COc1cc2ccc(=O)oc2cc1O
REMARK SMILES IDX 3 1 13 2 12 3 11 4 5 5 4 6 6 7 7 8 8 9 9 10 10 11 2 12 1 13
REMARK SMILES IDX 14 14
REMARK H PARENT 14 15
REMARK Flexibility Score: inf
ROOT
ATOM      1  C   UNL     1      28.331   0.406  30.174  1.00  0.00     0.161 A 
ATOM      2  C   UNL     1      28.909   0.810  31.394  1.00  0.00     0.161 A 
ATOM      3  C   UNL     1      28.900   2.161  31.764  1.00  0.00     0.098 A 
ATOM      4  C   UNL     1      28.321   3.119  30.931  1.00  0.00     0.142 A 
ATOM      5  C   UNL     1      27.739   2.724  29.709  1.00  0.00     0.022 A 
ATOM      6  C   UNL     1      27.745   1.374  29.334  1.00  0.00     0.062 A 
ATOM      7  C   UNL     1      27.165   3.707  28.894  1.00  0.00     0.019 A 
ATOM      8  C   UNL     1      27.184   5.038  29.312  1.00  0.00     0.094 A 
ATOM      9  C   UNL     1      27.779   5.355  30.537  1.00  0.00     0.336 A 
ATOM     10  O   UNL     1      27.807   6.550  30.932  1.00  0.00    -0.246 OA
ATOM     11  O   UNL     1      28.317   4.400  31.292  1.00  0.00    -0.423 OA
ENDROOT
BRANCH   1  12
ATOM     12  O   UNL     1      28.356  -0.956  29.834  1.00  0.00    -0.493 OA
ATOM     13  C   UNL     1      27.475  -1.939  30.366  1.00  0.00     0.278 C 
ENDBRANCH   1  12
BRANCH   2  14
ATOM     14  O   UNL     1      29.498  -0.117  32.253  1.00  0.00    -0.504 OA
ATOM     15  H   UNL     1      30.209   0.145  32.925  1.00  0.00     0.293 HD
ENDBRANCH   2  14
TORSDOF 2
ENDMDL
MODEL 8
REMARK VINA RESULT:    -4.974      2.551      3.987
REMARK INTER + INTRA:          -5.473
REMARK INTER:                  -5.522
REMARK INTRA:                   0.049
REMARK UNBOUND:                -0.063
REMARK SMILES COc1cc2ccc(=O)oc2cc1O
REMARK SMILES IDX 3 1 13 2 12 3 11 4 5 5 4 6 6 7 7 8 8 9 9 10 10 11 2 12 1 13
REMARK SMILES IDX 14 14
REMARK H PARENT 14 15
REMARK Flexibility Score: inf
ROOT
ATOM      1  C   UNL     1      28.217   0.260  30.587  1.00  0.00     0.161 A 
ATOM      2  C   UNL     1      29.542  -0.025  30.201  1.00  0.00     0.161 A 
ATOM      3  C   UNL     1      29.949  -1.350  30.004  1.00  0.00     0.098 A 
ATOM      4  C   UNL     1      29.049  -2.401  30.187  1.00  0.00     0.142 A 
ATOM      5  C   UNL     1      27.721  -2.126  30.573  1.00  0.00     0.022 A 
ATOM      6  C   UNL     1      27.309  -0.802  30.771  1.00  0.00     0.062 A 
ATOM      7  C   UNL     1      26.841  -3.200  30.749  1.00  0.00     0.019 A 
ATOM      8  C   UNL     1      27.299  -4.501  30.539  1.00  0.00     0.094 A 
ATOM      9  C   UNL     1      28.631  -4.697  30.158  1.00  0.00     0.336 A 
ATOM     10  O   UNL     1      29.063  -5.863  29.963  1.00  0.00    -0.246 OA
ATOM     11  O   UNL     1      29.445  -3.658  29.997  1.00  0.00    -0.423 OA
ENDROOT
BRANCH   1  12
ATOM     12  O   UNL     1      27.843   1.600  30.776  1.00  0.00    -0.493 OA
ATOM     13  C   UNL     1      27.619   2.533  29.724  1.00  0.00     0.278 C 
ENDBRANCH   1  12
BRANCH   2  14
ATOM     14  O   UNL     1      30.471   0.997  30.009  1.00  0.00    -0.504 OA
ATOM     15  H   UNL     1      30.655   1.396  29.096  1.00  0.00     0.293 HD
ENDBRANCH   2  14
TORSDOF 2
ENDMDL
MODEL 9
REMARK VINA RESULT:    -4.062      1.701      4.658
REMARK INTER + INTRA:          -4.482
REMARK INTER:                  -4.438
REMARK INTRA:                  -0.044
REMARK UNBOUND:                -0.063
REMARK SMILES COc1cc2ccc(=O)oc2cc1O
REMARK SMILES IDX 3 1 13 2 12 3 11 4 5 5 4 6 6 7 7 8 8 9 9 10 10 11 2 12 1 13
REMARK SMILES IDX 14 14
REMARK H PARENT 14 15
REMARK Flexibility Score: inf
ROOT
ATOM      1  C   UNL     1      28.603   0.527  30.650  1.00  0.00     0.161 A 
ATOM      2  C   UNL     1      27.819  -0.323  29.845  1.00  0.00     0.161 A 
ATOM      3  C   UNL     1      26.955   0.215  28.885  1.00  0.00     0.098 A 
ATOM      4  C   UNL     1      26.860   1.597  28.714  1.00  0.00     0.142 A 
ATOM      5  C   UNL     1      27.641   2.457  29.514  1.00  0.00     0.022 A 
ATOM      6  C   UNL     1      28.507   1.923  30.477  1.00  0.00     0.062 A 
ATOM      7  C   UNL     1      27.525   3.838  29.319  1.00  0.00     0.019 A 
ATOM      8  C   UNL     1      26.648   4.321  28.348  1.00  0.00     0.094 A 
ATOM      9  C   UNL     1      25.905   3.408  27.592  1.00  0.00     0.336 A 
ATOM     10  O   UNL     1      25.109   3.823  26.710  1.00  0.00    -0.246 OA
ATOM     11  O   UNL     1      26.036   2.100  27.797  1.00  0.00    -0.423 OA
ENDROOT
BRANCH   1  12
ATOM     12  O   UNL     1      29.460  -0.046  31.604  1.00  0.00    -0.493 OA
ATOM     13  C   UNL     1      30.142   0.683  32.619  1.00  0.00     0.278 C 
ENDBRANCH   1  12
BRANCH   2  14
ATOM     14  O   UNL     1      27.885  -1.709  29.987  1.00  0.00    -0.504 OA
ATOM     15  H   UNL     1      28.446  -2.289  29.374  1.00  0.00     0.293 HD
ENDBRANCH   2  14
TORSDOF 2
ENDMDL
