MODEL 1
REMARK VINA RESULT:    -3.258      0.000      0.000
REMARK INTER + INTRA:          -8.364
REMARK INTER:                  -6.305
REMARK INTRA:                  -2.058
REMARK UNBOUND:                -2.058
REMARK SMILES CCCCCCCCCCCCCCCCCC(=O)[O-]
REMARK SMILES IDX 10 1 11 2 12 3 13 4 14 5 15 6 16 7 17 8 18 9 19 10 20 11
REMARK SMILES IDX 9 12 8 13 7 14 6 15 5 16 4 17 3 18 2 19 1 20
REMARK H PARENT
REMARK Flexibility Score: inf
ROOT
ATOM      1  C   UNL     1    -114.959  33.827  -8.554  1.00  0.00     0.000 C 
ENDROOT
BRANCH   1   2
ATOM      2  C   UNL     1    -116.099  33.794  -9.590  1.00  0.00     0.000 C 
BRANCH   2   3
ATOM      3  C   UNL     1    -115.664  34.026 -11.049  1.00  0.00     0.000 C 
BRANCH   3   4
ATOM      4  C   UNL     1    -116.202  35.339 -11.657  1.00  0.00     0.000 C 
BRANCH   4   5
ATOM      5  C   UNL     1    -115.355  35.830 -12.844  1.00  0.00     0.000 C 
BRANCH   5   6
ATOM      6  C   UNL     1    -115.097  37.346 -12.805  1.00  0.00     0.000 C 
BRANCH   6   7
ATOM      7  C   UNL     1    -113.870  37.783 -13.633  1.00  0.00     0.006 C 
BRANCH   7   8
ATOM      8  C   UNL     1    -112.993  38.792 -12.880  1.00  0.00     0.053 C 
BRANCH   8   9
ATOM      9  C   UNL     1    -111.580  38.722 -13.366  1.00  0.00     0.041 C 
ATOM     10  O   UNL     1    -110.713  39.512 -12.908  1.00  0.00    -0.550 OA
ATOM     11  O   UNL     1    -111.210  37.753 -14.290  1.00  0.00    -0.550 OA
ENDBRANCH   8   9
ENDBRANCH   7   8
ENDBRANCH   6   7
ENDBRANCH   5   6
ENDBRANCH   4   5
ENDBRANCH   3   4
ENDBRANCH   2   3
ENDBRANCH   1   2
BRANCH   1  12
ATOM     12  C   UNL     1    -115.105  34.897  -7.457  1.00  0.00     0.000 C 
BRANCH  12  13
ATOM     13  C   UNL     1    -116.507  35.529  -7.422  1.00  0.00    -0.000 C 
BRANCH  13  14
ATOM     14  C   UNL     1    -116.467  37.062  -7.540  1.00  0.00    -0.000 C 
BRANCH  14  15
ATOM     15  C   UNL     1    -116.157  37.534  -8.972  1.00  0.00    -0.000 C 
BRANCH  15  16
ATOM     16  C   UNL     1    -114.776  38.202  -9.089  1.00  0.00    -0.000 C 
BRANCH  16  17
ATOM     17  C   UNL     1    -114.840  39.576  -9.779  1.00  0.00    -0.000 C 
BRANCH  17  18
ATOM     18  C   UNL     1    -115.536  40.639  -8.914  1.00  0.00    -0.000 C 
BRANCH  18  19
ATOM     19  C   UNL     1    -114.818  40.880  -7.578  1.00  0.00    -0.003 C 
ATOM     20  C   UNL     1    -115.748  40.608  -6.398  1.00  0.00     0.004 C 
ENDBRANCH  18  19
ENDBRANCH  17  18
ENDBRANCH  16  17
ENDBRANCH  15  16
ENDBRANCH  14  15
ENDBRANCH  13  14
ENDBRANCH  12  13
ENDBRANCH   1  12
TORSDOF 16
ENDMDL
MODEL 2
REMARK VINA RESULT:    -3.219      3.183      4.700
REMARK INTER + INTRA:          -8.289
REMARK INTER:                  -6.081
REMARK INTRA:                  -2.208
REMARK UNBOUND:                -2.058
REMARK SMILES CCCCCCCCCCCCCCCCCC(=O)[O-]
REMARK SMILES IDX 10 1 11 2 12 3 13 4 14 5 15 6 16 7 17 8 18 9 19 10 20 11
REMARK SMILES IDX 9 12 8 13 7 14 6 15 5 16 4 17 3 18 2 19 1 20
REMARK H PARENT
REMARK Flexibility Score: inf
ROOT
ATOM      1  C   UNL     1    -115.017  34.761  -7.656  1.00  0.00     0.000 C 
ENDROOT
BRANCH   1   2
ATOM      2  C   UNL     1    -115.127  33.800  -8.855  1.00  0.00     0.000 C 
BRANCH   2   3
ATOM      3  C   UNL     1    -116.561  33.528  -9.347  1.00  0.00     0.000 C 
BRANCH   3   4
ATOM      4  C   UNL     1    -116.930  34.290 -10.638  1.00  0.00     0.000 C 
BRANCH   4   5
ATOM      5  C   UNL     1    -115.693  34.781 -11.409  1.00  0.00     0.000 C 
BRANCH   5   6
ATOM      6  C   UNL     1    -115.927  34.855 -12.927  1.00  0.00     0.000 C 
BRANCH   6   7
ATOM      7  C   UNL     1    -114.934  34.003 -13.745  1.00  0.00     0.006 C 
BRANCH   7   8
ATOM      8  C   UNL     1    -114.722  32.612 -13.131  1.00  0.00     0.053 C 
BRANCH   8   9
ATOM      9  C   UNL     1    -115.846  31.699 -13.505  1.00  0.00     0.041 C 
ATOM     10  O   UNL     1    -115.894  31.192 -14.657  1.00  0.00    -0.550 OA
ATOM     11  O   UNL     1    -116.815  31.369 -12.566  1.00  0.00    -0.550 OA
ENDBRANCH   8   9
ENDBRANCH   7   8
ENDBRANCH   6   7
ENDBRANCH   5   6
ENDBRANCH   4   5
ENDBRANCH   3   4
ENDBRANCH   2   3
ENDBRANCH   1   2
BRANCH   1  12
ATOM     12  C   UNL     1    -116.348  35.382  -7.194  1.00  0.00     0.000 C 
BRANCH  12  13
ATOM     13  C   UNL     1    -116.374  36.913  -7.336  1.00  0.00    -0.000 C 
BRANCH  13  14
ATOM     14  C   UNL     1    -116.223  37.372  -8.796  1.00  0.00    -0.000 C 
BRANCH  14  15
ATOM     15  C   UNL     1    -114.880  38.080  -9.056  1.00  0.00    -0.000 C 
BRANCH  15  16
ATOM     16  C   UNL     1    -114.947  39.059 -10.240  1.00  0.00    -0.000 C 
BRANCH  16  17
ATOM     17  C   UNL     1    -115.507  38.408 -11.516  1.00  0.00    -0.000 C 
BRANCH  17  18
ATOM     18  C   UNL     1    -114.469  38.338 -12.648  1.00  0.00    -0.000 C 
BRANCH  18  19
ATOM     19  C   UNL     1    -113.134  38.998 -12.270  1.00  0.00    -0.003 C 
ATOM     20  C   UNL     1    -112.571  39.804 -13.438  1.00  0.00     0.004 C 
ENDBRANCH  18  19
ENDBRANCH  17  18
ENDBRANCH  16  17
ENDBRANCH  15  16
ENDBRANCH  14  15
ENDBRANCH  13  14
ENDBRANCH  12  13
ENDBRANCH   1  12
TORSDOF 16
ENDMDL
MODEL 3
REMARK VINA RESULT:    -3.215      1.413      2.916
REMARK INTER + INTRA:          -8.280
REMARK INTER:                  -6.101
REMARK INTRA:                  -2.179
REMARK UNBOUND:                -2.058
REMARK SMILES CCCCCCCCCCCCCCCCCC(=O)[O-]
REMARK SMILES IDX 10 1 11 2 12 3 13 4 14 5 15 6 16 7 17 8 18 9 19 10 20 11
REMARK SMILES IDX 9 12 8 13 7 14 6 15 5 16 4 17 3 18 2 19 1 20
REMARK H PARENT
REMARK Flexibility Score: inf
ROOT
ATOM      1  C   UNL     1    -115.570  34.139 -11.431  1.00  0.00     0.000 C 
ENDROOT
BRANCH   1   2
ATOM      2  C   UNL     1    -115.694  33.874 -12.943  1.00  0.00     0.000 C 
BRANCH   2   3
ATOM      3  C   UNL     1    -115.122  34.980 -13.850  1.00  0.00     0.000 C 
BRANCH   3   4
ATOM      4  C   UNL     1    -115.196  36.392 -13.232  1.00  0.00     0.000 C 
BRANCH   4   5
ATOM      5  C   UNL     1    -114.153  37.353 -13.827  1.00  0.00     0.000 C 
BRANCH   5   6
ATOM      6  C   UNL     1    -114.181  38.743 -13.172  1.00  0.00     0.000 C 
BRANCH   6   7
ATOM      7  C   UNL     1    -112.887  39.090 -12.407  1.00  0.00     0.006 C 
BRANCH   7   8
ATOM      8  C   UNL     1    -112.082  40.196 -13.101  1.00  0.00     0.053 C 
BRANCH   8   9
ATOM      9  C   UNL     1    -110.768  39.665 -13.581  1.00  0.00     0.041 C 
ATOM     10  O   UNL     1    -109.694  40.226 -13.237  1.00  0.00    -0.550 OA
ATOM     11  O   UNL     1    -110.726  38.521 -14.369  1.00  0.00    -0.550 OA
ENDBRANCH   8   9
ENDBRANCH   7   8
ENDBRANCH   6   7
ENDBRANCH   5   6
ENDBRANCH   4   5
ENDBRANCH   3   4
ENDBRANCH   2   3
ENDBRANCH   1   2
BRANCH   1  12
ATOM     12  C   UNL     1    -116.841  33.850 -10.611  1.00  0.00     0.000 C 
BRANCH  12  13
ATOM     13  C   UNL     1    -116.542  33.546  -9.133  1.00  0.00    -0.000 C 
BRANCH  13  14
ATOM     14  C   UNL     1    -115.104  33.920  -8.734  1.00  0.00    -0.000 C 
BRANCH  14  15
ATOM     15  C   UNL     1    -115.054  34.826  -7.490  1.00  0.00    -0.000 C 
BRANCH  15  16
ATOM     16  C   UNL     1    -116.414  35.473  -7.175  1.00  0.00    -0.000 C 
BRANCH  16  17
ATOM     17  C   UNL     1    -116.445  36.976  -7.504  1.00  0.00    -0.000 C 
BRANCH  17  18
ATOM     18  C   UNL     1    -116.973  37.258  -8.920  1.00  0.00    -0.000 C 
BRANCH  18  19
ATOM     19  C   UNL     1    -115.855  37.630  -9.906  1.00  0.00    -0.003 C 
ATOM     20  C   UNL     1    -114.734  38.391  -9.203  1.00  0.00     0.004 C 
ENDBRANCH  18  19
ENDBRANCH  17  18
ENDBRANCH  16  17
ENDBRANCH  15  16
ENDBRANCH  14  15
ENDBRANCH  13  14
ENDBRANCH  12  13
ENDBRANCH   1  12
TORSDOF 16
ENDMDL
MODEL 4
REMARK VINA RESULT:    -3.213      1.752      5.273
REMARK INTER + INTRA:          -8.276
REMARK INTER:                  -6.343
REMARK INTRA:                  -1.933
REMARK UNBOUND:                -2.058
REMARK SMILES CCCCCCCCCCCCCCCCCC(=O)[O-]
REMARK SMILES IDX 10 1 11 2 12 3 13 4 14 5 15 6 16 7 17 8 18 9 19 10 20 11
REMARK SMILES IDX 9 12 8 13 7 14 6 15 5 16 4 17 3 18 2 19 1 20
REMARK H PARENT
REMARK Flexibility Score: inf
ROOT
ATOM      1  C   UNL     1    -115.258  35.018  -7.494  1.00  0.00     0.000 C 
ENDROOT
BRANCH   1   2
ATOM      2  C   UNL     1    -116.004  36.296  -7.920  1.00  0.00     0.000 C 
BRANCH   2   3
ATOM      3  C   UNL     1    -115.251  37.190  -8.923  1.00  0.00     0.000 C 
BRANCH   3   4
ATOM      4  C   UNL     1    -116.088  37.580 -10.160  1.00  0.00     0.000 C 
BRANCH   4   5
ATOM      5  C   UNL     1    -115.243  38.249 -11.257  1.00  0.00     0.000 C 
BRANCH   5   6
ATOM      6  C   UNL     1    -114.150  39.169 -10.690  1.00  0.00     0.000 C 
BRANCH   6   7
ATOM      7  C   UNL     1    -113.450  40.029 -11.763  1.00  0.00     0.006 C 
BRANCH   7   8
ATOM      8  C   UNL     1    -113.211  39.250 -13.064  1.00  0.00     0.053 C 
BRANCH   8   9
ATOM      9  C   UNL     1    -111.749  39.006 -13.266  1.00  0.00     0.041 C 
ATOM     10  O   UNL     1    -111.354  37.934 -13.795  1.00  0.00    -0.550 OA
ATOM     11  O   UNL     1    -110.826  39.982 -12.914  1.00  0.00    -0.550 OA
ENDBRANCH   8   9
ENDBRANCH   7   8
ENDBRANCH   6   7
ENDBRANCH   5   6
ENDBRANCH   4   5
ENDBRANCH   3   4
ENDBRANCH   2   3
ENDBRANCH   1   2
BRANCH   1  12
ATOM     12  C   UNL     1    -115.241  33.891  -8.543  1.00  0.00     0.000 C 
BRANCH  12  13
ATOM     13  C   UNL     1    -116.642  33.559  -9.085  1.00  0.00    -0.000 C 
BRANCH  13  14
ATOM     14  C   UNL     1    -116.681  33.502 -10.622  1.00  0.00    -0.000 C 
BRANCH  14  15
ATOM     15  C   UNL     1    -115.354  33.948 -11.262  1.00  0.00    -0.000 C 
BRANCH  15  16
ATOM     16  C   UNL     1    -115.561  34.717 -12.579  1.00  0.00    -0.000 C 
BRANCH  16  17
ATOM     17  C   UNL     1    -114.987  33.972 -13.796  1.00  0.00    -0.000 C 
BRANCH  17  18
ATOM     18  C   UNL     1    -114.778  32.473 -13.526  1.00  0.00    -0.000 C 
BRANCH  18  19
ATOM     19  C   UNL     1    -115.843  31.595 -14.199  1.00  0.00    -0.003 C 
ATOM     20  C   UNL     1    -116.598  30.761 -13.167  1.00  0.00     0.004 C 
ENDBRANCH  18  19
ENDBRANCH  17  18
ENDBRANCH  16  17
ENDBRANCH  15  16
ENDBRANCH  14  15
ENDBRANCH  13  14
ENDBRANCH  12  13
ENDBRANCH   1  12
TORSDOF 16
ENDMDL
MODEL 5
REMARK VINA RESULT:    -3.188      1.927      4.668
REMARK INTER + INTRA:          -8.228
REMARK INTER:                  -6.196
REMARK INTRA:                  -2.033
REMARK UNBOUND:                -2.058
REMARK SMILES CCCCCCCCCCCCCCCCCC(=O)[O-]
REMARK SMILES IDX 10 1 11 2 12 3 13 4 14 5 15 6 16 7 17 8 18 9 19 10 20 11
REMARK SMILES IDX 9 12 8 13 7 14 6 15 5 16 4 17 3 18 2 19 1 20
REMARK H PARENT
REMARK Flexibility Score: inf
ROOT
ATOM      1  C   UNL     1    -115.606  37.382  -8.988  1.00  0.00     0.000 C 
ENDROOT
BRANCH   1   2
ATOM      2  C   UNL     1    -116.417  37.428 -10.297  1.00  0.00     0.000 C 
BRANCH   2   3
ATOM      3  C   UNL     1    -115.579  37.573 -11.581  1.00  0.00     0.000 C 
BRANCH   3   4
ATOM      4  C   UNL     1    -114.479  38.653 -11.487  1.00  0.00     0.000 C 
BRANCH   4   5
ATOM      5  C   UNL     1    -113.916  39.043 -12.865  1.00  0.00     0.000 C 
BRANCH   5   6
ATOM      6  C   UNL     1    -114.440  38.146 -13.998  1.00  0.00     0.000 C 
BRANCH   6   7
ATOM      7  C   UNL     1    -113.374  37.186 -14.566  1.00  0.00     0.006 C 
BRANCH   7   8
ATOM      8  C   UNL     1    -111.948  37.701 -14.333  1.00  0.00     0.053 C 
BRANCH   8   9
ATOM      9  C   UNL     1    -110.956  36.836 -15.044  1.00  0.00     0.041 C 
ATOM     10  O   UNL     1    -111.171  35.602 -15.175  1.00  0.00    -0.550 OA
ATOM     11  O   UNL     1    -109.817  37.399 -15.604  1.00  0.00    -0.550 OA
ENDBRANCH   8   9
ENDBRANCH   7   8
ENDBRANCH   6   7
ENDBRANCH   5   6
ENDBRANCH   4   5
ENDBRANCH   3   4
ENDBRANCH   2   3
ENDBRANCH   1   2
BRANCH   1  12
ATOM     12  C   UNL     1    -116.432  37.111  -7.718  1.00  0.00     0.000 C 
BRANCH  12  13
ATOM     13  C   UNL     1    -116.424  35.629  -7.306  1.00  0.00    -0.000 C 
BRANCH  13  14
ATOM     14  C   UNL     1    -115.062  34.957  -7.546  1.00  0.00    -0.000 C 
BRANCH  14  15
ATOM     15  C   UNL     1    -115.131  33.845  -8.608  1.00  0.00    -0.000 C 
BRANCH  15  16
ATOM     16  C   UNL     1    -116.556  33.628  -9.145  1.00  0.00    -0.000 C 
BRANCH  16  17
ATOM     17  C   UNL     1    -116.628  33.707 -10.680  1.00  0.00    -0.000 C 
BRANCH  17  18
ATOM     18  C   UNL     1    -115.257  33.972 -11.322  1.00  0.00    -0.000 C 
BRANCH  18  19
ATOM     19  C   UNL     1    -115.316  34.002 -12.857  1.00  0.00    -0.003 C 
ATOM     20  C   UNL     1    -114.899  32.657 -13.448  1.00  0.00     0.004 C 
ENDBRANCH  18  19
ENDBRANCH  17  18
ENDBRANCH  16  17
ENDBRANCH  15  16
ENDBRANCH  14  15
ENDBRANCH  13  14
ENDBRANCH  12  13
ENDBRANCH   1  12
TORSDOF 16
ENDMDL
MODEL 6
REMARK VINA RESULT:    -3.177      3.666      4.815
REMARK INTER + INTRA:          -8.207
REMARK INTER:                  -6.468
REMARK INTRA:                  -1.739
REMARK UNBOUND:                -2.058
REMARK SMILES CCCCCCCCCCCCCCCCCC(=O)[O-]
REMARK SMILES IDX 10 1 11 2 12 3 13 4 14 5 15 6 16 7 17 8 18 9 19 10 20 11
REMARK SMILES IDX 9 12 8 13 7 14 6 15 5 16 4 17 3 18 2 19 1 20
REMARK H PARENT
REMARK Flexibility Score: inf
ROOT
ATOM      1  C   UNL     1    -115.207  33.886  -8.585  1.00  0.00     0.000 C 
ENDROOT
BRANCH   1   2
ATOM      2  C   UNL     1    -116.640  33.738  -9.129  1.00  0.00     0.000 C 
BRANCH   2   3
ATOM      3  C   UNL     1    -116.817  34.103 -10.615  1.00  0.00     0.000 C 
BRANCH   3   4
ATOM      4  C   UNL     1    -115.489  34.189 -11.397  1.00  0.00     0.000 C 
BRANCH   4   5
ATOM      5  C   UNL     1    -115.682  34.706 -12.833  1.00  0.00     0.000 C 
BRANCH   5   6
ATOM      6  C   UNL     1    -114.974  33.831 -13.881  1.00  0.00     0.000 C 
BRANCH   6   7
ATOM      7  C   UNL     1    -114.903  32.340 -13.491  1.00  0.00     0.006 C 
BRANCH   7   8
ATOM      8  C   UNL     1    -115.986  31.507 -14.189  1.00  0.00     0.053 C 
BRANCH   8   9
ATOM      9  C   UNL     1    -116.622  30.560 -13.221  1.00  0.00     0.041 C 
ATOM     10  O   UNL     1    -117.125  30.991 -12.151  1.00  0.00    -0.550 OA
ATOM     11  O   UNL     1    -116.702  29.206 -13.524  1.00  0.00    -0.550 OA
ENDBRANCH   8   9
ENDBRANCH   7   8
ENDBRANCH   6   7
ENDBRANCH   5   6
ENDBRANCH   4   5
ENDBRANCH   3   4
ENDBRANCH   2   3
ENDBRANCH   1   2
BRANCH   1  12
ATOM     12  C   UNL     1    -115.011  35.018  -7.560  1.00  0.00     0.000 C 
BRANCH  12  13
ATOM     13  C   UNL     1    -116.330  35.707  -7.172  1.00  0.00    -0.000 C 
BRANCH  13  14
ATOM     14  C   UNL     1    -116.524  37.055  -7.888  1.00  0.00    -0.000 C 
BRANCH  14  15
ATOM     15  C   UNL     1    -115.300  37.456  -8.731  1.00  0.00    -0.000 C 
BRANCH  15  16
ATOM     16  C   UNL     1    -115.643  37.645 -10.219  1.00  0.00    -0.000 C 
BRANCH  16  17
ATOM     17  C   UNL     1    -114.748  38.693 -10.904  1.00  0.00    -0.000 C 
BRANCH  17  18
ATOM     18  C   UNL     1    -114.416  39.878  -9.982  1.00  0.00    -0.000 C 
BRANCH  18  19
ATOM     19  C   UNL     1    -113.803  41.065 -10.740  1.00  0.00    -0.003 C 
ATOM     20  C   UNL     1    -113.071  42.005  -9.786  1.00  0.00     0.004 C 
ENDBRANCH  18  19
ENDBRANCH  17  18
ENDBRANCH  16  17
ENDBRANCH  15  16
ENDBRANCH  14  15
ENDBRANCH  13  14
ENDBRANCH  12  13
ENDBRANCH   1  12
TORSDOF 16
ENDMDL
MODEL 7
REMARK VINA RESULT:    -3.159      1.359      4.513
REMARK INTER + INTRA:          -8.171
REMARK INTER:                  -6.193
REMARK INTRA:                  -1.978
REMARK UNBOUND:                -2.058
REMARK SMILES CCCCCCCCCCCCCCCCCC(=O)[O-]
REMARK SMILES IDX 10 1 11 2 12 3 13 4 14 5 15 6 16 7 17 8 18 9 19 10 20 11
REMARK SMILES IDX 9 12 8 13 7 14 6 15 5 16 4 17 3 18 2 19 1 20
REMARK H PARENT
REMARK Flexibility Score: inf
ROOT
ATOM      1  C   UNL     1    -116.463  37.088  -7.480  1.00  0.00     0.000 C 
ENDROOT
BRANCH   1   2
ATOM      2  C   UNL     1    -116.195  37.511  -8.937  1.00  0.00     0.000 C 
BRANCH   2   3
ATOM      3  C   UNL     1    -114.761  37.992  -9.225  1.00  0.00     0.000 C 
BRANCH   3   4
ATOM      4  C   UNL     1    -114.648  39.516  -9.445  1.00  0.00     0.000 C 
BRANCH   4   5
ATOM      5  C   UNL     1    -114.044  39.871 -10.815  1.00  0.00     0.000 C 
BRANCH   5   6
ATOM      6  C   UNL     1    -114.334  38.809 -11.888  1.00  0.00     0.000 C 
BRANCH   6   7
ATOM      7  C   UNL     1    -113.446  38.943 -13.143  1.00  0.00     0.006 C 
BRANCH   7   8
ATOM      8  C   UNL     1    -111.954  38.798 -12.814  1.00  0.00     0.053 C 
BRANCH   8   9
ATOM      9  C   UNL     1    -111.167  39.894 -13.461  1.00  0.00     0.041 C 
ATOM     10  O   UNL     1    -111.692  40.608 -14.356  1.00  0.00    -0.550 OA
ATOM     11  O   UNL     1    -109.870  40.159 -13.041  1.00  0.00    -0.550 OA
ENDBRANCH   8   9
ENDBRANCH   7   8
ENDBRANCH   6   7
ENDBRANCH   5   6
ENDBRANCH   4   5
ENDBRANCH   3   4
ENDBRANCH   2   3
ENDBRANCH   1   2
BRANCH   1  12
ATOM     12  C   UNL     1    -116.457  35.569  -7.229  1.00  0.00     0.000 C 
BRANCH  12  13
ATOM     13  C   UNL     1    -115.090  34.923  -7.513  1.00  0.00    -0.000 C 
BRANCH  13  14
ATOM     14  C   UNL     1    -115.151  33.892  -8.653  1.00  0.00    -0.000 C 
BRANCH  14  15
ATOM     15  C   UNL     1    -116.587  33.643  -9.148  1.00  0.00    -0.000 C 
BRANCH  15  16
ATOM     16  C   UNL     1    -116.685  33.597 -10.682  1.00  0.00    -0.000 C 
BRANCH  16  17
ATOM     17  C   UNL     1    -115.458  34.217 -11.373  1.00  0.00    -0.000 C 
BRANCH  17  18
ATOM     18  C   UNL     1    -115.789  35.536 -12.090  1.00  0.00    -0.000 C 
BRANCH  18  19
ATOM     19  C   UNL     1    -115.335  35.542 -13.558  1.00  0.00    -0.003 C 
ATOM     20  C   UNL     1    -114.602  34.251 -13.910  1.00  0.00     0.004 C 
ENDBRANCH  18  19
ENDBRANCH  17  18
ENDBRANCH  16  17
ENDBRANCH  15  16
ENDBRANCH  14  15
ENDBRANCH  13  14
ENDBRANCH  12  13
ENDBRANCH   1  12
TORSDOF 16
ENDMDL
MODEL 8
REMARK VINA RESULT:    -3.149      2.332      5.216
REMARK INTER + INTRA:          -8.153
REMARK INTER:                  -5.737
REMARK INTRA:                  -2.416
REMARK UNBOUND:                -2.058
REMARK SMILES CCCCCCCCCCCCCCCCCC(=O)[O-]
REMARK SMILES IDX 10 1 11 2 12 3 13 4 14 5 15 6 16 7 17 8 18 9 19 10 20 11
REMARK SMILES IDX 9 12 8 13 7 14 6 15 5 16 4 17 3 18 2 19 1 20
REMARK H PARENT
REMARK Flexibility Score: inf
ROOT
ATOM      1  C   UNL     1    -115.177  33.880  -8.914  1.00  0.00     0.000 C 
ENDROOT
BRANCH   1   2
ATOM      2  C   UNL     1    -115.072  34.713  -7.623  1.00  0.00     0.000 C 
BRANCH   2   3
ATOM      3  C   UNL     1    -116.378  35.399  -7.179  1.00  0.00     0.000 C 
BRANCH   3   4
ATOM      4  C   UNL     1    -116.407  36.918  -7.453  1.00  0.00     0.000 C 
BRANCH   4   5
ATOM      5  C   UNL     1    -117.052  37.262  -8.806  1.00  0.00     0.000 C 
BRANCH   5   6
ATOM      6  C   UNL     1    -116.017  37.463  -9.925  1.00  0.00     0.000 C 
BRANCH   6   7
ATOM      7  C   UNL     1    -114.810  38.325  -9.500  1.00  0.00     0.006 C 
BRANCH   7   8
ATOM      8  C   UNL     1    -115.045  39.819  -9.760  1.00  0.00     0.053 C 
BRANCH   8   9
ATOM      9  C   UNL     1    -114.541  40.635  -8.612  1.00  0.00     0.041 C 
ATOM     10  O   UNL     1    -114.898  40.362  -7.435  1.00  0.00    -0.550 OA
ATOM     11  O   UNL     1    -113.639  41.668  -8.836  1.00  0.00    -0.550 OA
ENDBRANCH   8   9
ENDBRANCH   7   8
ENDBRANCH   6   7
ENDBRANCH   5   6
ENDBRANCH   4   5
ENDBRANCH   3   4
ENDBRANCH   2   3
ENDBRANCH   1   2
BRANCH   1  12
ATOM     12  C   UNL     1    -116.612  33.577  -9.381  1.00  0.00     0.000 C 
BRANCH  12  13
ATOM     13  C   UNL     1    -116.813  33.818 -10.887  1.00  0.00    -0.000 C 
BRANCH  13  14
ATOM     14  C   UNL     1    -115.526  34.290 -11.586  1.00  0.00    -0.000 C 
BRANCH  14  15
ATOM     15  C   UNL     1    -115.071  33.327 -12.697  1.00  0.00    -0.000 C 
BRANCH  15  16
ATOM     16  C   UNL     1    -114.546  34.064 -13.941  1.00  0.00    -0.000 C 
BRANCH  16  17
ATOM     17  C   UNL     1    -115.256  35.408 -14.176  1.00  0.00    -0.000 C 
BRANCH  17  18
ATOM     18  C   UNL     1    -114.269  36.572 -14.363  1.00  0.00    -0.000 C 
BRANCH  18  19
ATOM     19  C   UNL     1    -114.342  37.600 -13.224  1.00  0.00    -0.003 C 
ATOM     20  C   UNL     1    -115.469  38.602 -13.462  1.00  0.00     0.004 C 
ENDBRANCH  18  19
ENDBRANCH  17  18
ENDBRANCH  16  17
ENDBRANCH  15  16
ENDBRANCH  14  15
ENDBRANCH  13  14
ENDBRANCH  12  13
ENDBRANCH   1  12
TORSDOF 16
ENDMDL
MODEL 9
REMARK VINA RESULT:    -3.138      1.688      4.557
REMARK INTER + INTRA:          -8.130
REMARK INTER:                  -5.866
REMARK INTRA:                  -2.264
REMARK UNBOUND:                -2.058
REMARK SMILES CCCCCCCCCCCCCCCCCC(=O)[O-]
REMARK SMILES IDX 10 1 11 2 12 3 13 4 14 5 15 6 16 7 17 8 18 9 19 10 20 11
REMARK SMILES IDX 9 12 8 13 7 14 6 15 5 16 4 17 3 18 2 19 1 20
REMARK H PARENT
REMARK Flexibility Score: inf
ROOT
ATOM      1  C   UNL     1    -115.038  34.967  -7.565  1.00  0.00     0.000 C 
ENDROOT
BRANCH   1   2
ATOM      2  C   UNL     1    -116.353  35.724  -7.300  1.00  0.00     0.000 C 
BRANCH   2   3
ATOM      3  C   UNL     1    -116.391  37.173  -7.823  1.00  0.00     0.000 C 
BRANCH   3   4
ATOM      4  C   UNL     1    -115.332  37.471  -8.905  1.00  0.00     0.000 C 
BRANCH   4   5
ATOM      5  C   UNL     1    -115.931  37.515 -10.321  1.00  0.00     0.000 C 
BRANCH   5   6
ATOM      6  C   UNL     1    -115.543  38.786 -11.094  1.00  0.00     0.000 C 
BRANCH   6   7
ATOM      7  C   UNL     1    -114.018  38.986 -11.223  1.00  0.00     0.006 C 
BRANCH   7   8
ATOM      8  C   UNL     1    -113.634  39.668 -12.543  1.00  0.00     0.053 C 
BRANCH   8   9
ATOM      9  C   UNL     1    -112.146  39.713 -12.695  1.00  0.00     0.041 C 
ATOM     10  O   UNL     1    -111.500  38.657 -12.923  1.00  0.00    -0.550 OA
ATOM     11  O   UNL     1    -111.477  40.929 -12.632  1.00  0.00    -0.550 OA
ENDBRANCH   8   9
ENDBRANCH   7   8
ENDBRANCH   6   7
ENDBRANCH   5   6
ENDBRANCH   4   5
ENDBRANCH   3   4
ENDBRANCH   2   3
ENDBRANCH   1   2
BRANCH   1  12
ATOM     12  C   UNL     1    -115.114  33.892  -8.665  1.00  0.00     0.000 C 
BRANCH  12  13
ATOM     13  C   UNL     1    -116.543  33.680  -9.194  1.00  0.00    -0.000 C 
BRANCH  13  14
ATOM     14  C   UNL     1    -116.627  33.793 -10.726  1.00  0.00    -0.000 C 
BRANCH  14  15
ATOM     15  C   UNL     1    -115.256  34.058 -11.374  1.00  0.00    -0.000 C 
BRANCH  15  16
ATOM     16  C   UNL     1    -115.085  33.329 -12.718  1.00  0.00    -0.000 C 
BRANCH  16  17
ATOM     17  C   UNL     1    -115.122  34.288 -13.920  1.00  0.00    -0.000 C 
BRANCH  17  18
ATOM     18  C   UNL     1    -115.621  35.692 -13.540  1.00  0.00    -0.000 C 
BRANCH  18  19
ATOM     19  C   UNL     1    -114.932  36.804 -14.346  1.00  0.00    -0.003 C 
ATOM     20  C   UNL     1    -113.508  36.405 -14.725  1.00  0.00     0.004 C 
ENDBRANCH  18  19
ENDBRANCH  17  18
ENDBRANCH  16  17
ENDBRANCH  15  16
ENDBRANCH  14  15
ENDBRANCH  13  14
ENDBRANCH  12  13
ENDBRANCH   1  12
TORSDOF 16
ENDMDL
