MODEL 1
REMARK VINA RESULT:    -5.984      0.000      0.000
REMARK INTER + INTRA:          -6.334
REMARK INTER:                  -6.334
REMARK INTRA:                   0.000
REMARK UNBOUND:                 0.000
REMARK SMILES O=c1ccc2cc(O)c(O)cc2o1
REMARK SMILES IDX 4 1 3 2 2 3 1 4 13 5 12 6 11 7 9 8 7 9 6 10 5 11 8 12 10 14
REMARK H PARENT 8 13 10 15
REMARK Flexibility Score: inf
ROOT
ATOM      1  C   UNL     1     -37.326  -8.453 -13.720  1.00  0.00     0.019 A 
ATOM      2  C   UNL     1     -38.572  -9.078 -13.684  1.00  0.00     0.094 A 
ATOM      3  C   UNL     1     -39.714  -8.301 -13.467  1.00  0.00     0.336 A 
ATOM      4  O   UNL     1     -40.848  -8.846 -13.431  1.00  0.00    -0.246 OA
ATOM      5  O   UNL     1     -39.611  -6.984 -13.298  1.00  0.00    -0.423 OA
ATOM      6  C   UNL     1     -38.443  -6.348 -13.326  1.00  0.00     0.142 A 
ATOM      7  C   UNL     1     -38.396  -4.963 -13.143  1.00  0.00     0.098 A 
ATOM      8  C   UNL     1     -37.166  -4.288 -13.171  1.00  0.00     0.161 A 
ATOM      9  C   UNL     1     -35.979  -5.003 -13.383  1.00  0.00     0.158 A 
ATOM     10  C   UNL     1     -36.020  -6.393 -13.568  1.00  0.00     0.062 A 
ATOM     11  C   UNL     1     -37.247  -7.069 -13.539  1.00  0.00     0.022 A 
ENDROOT
BRANCH   9  12
ATOM     12  O   UNL     1     -34.762  -4.325 -13.409  1.00  0.00    -0.504 OA
ATOM     13  H   UNL     1     -34.631  -3.492 -13.971  1.00  0.00     0.293 HD
ENDBRANCH   9  12
BRANCH   8  14
ATOM     14  O   UNL     1     -37.117  -2.908 -12.989  1.00  0.00    -0.504 OA
ATOM     15  H   UNL     1     -37.125  -2.268 -13.776  1.00  0.00     0.293 HD
ENDBRANCH   8  14
TORSDOF 2
ENDMDL
MODEL 2
REMARK VINA RESULT:    -5.918      1.331      4.558
REMARK INTER + INTRA:          -6.264
REMARK INTER:                  -6.264
REMARK INTRA:                   0.000
REMARK UNBOUND:                 0.000
REMARK SMILES O=c1ccc2cc(O)c(O)cc2o1
REMARK SMILES IDX 4 1 3 2 2 3 1 4 13 5 12 6 11 7 9 8 7 9 6 10 5 11 8 12 10 14
REMARK H PARENT 8 13 10 15
REMARK Flexibility Score: inf
ROOT
ATOM      1  C   UNL     1     -36.410  -6.138 -13.458  1.00  0.00     0.019 A 
ATOM      2  C   UNL     1     -35.979  -4.924 -12.925  1.00  0.00     0.094 A 
ATOM      3  C   UNL     1     -36.929  -4.021 -12.438  1.00  0.00     0.336 A 
ATOM      4  O   UNL     1     -36.559  -2.919 -11.954  1.00  0.00    -0.246 OA
ATOM      5  O   UNL     1     -38.226  -4.317 -12.485  1.00  0.00    -0.423 OA
ATOM      6  C   UNL     1     -38.680  -5.464 -12.984  1.00  0.00     0.142 A 
ATOM      7  C   UNL     1     -40.054  -5.721 -13.006  1.00  0.00     0.098 A 
ATOM      8  C   UNL     1     -40.538  -6.929 -13.532  1.00  0.00     0.161 A 
ATOM      9  C   UNL     1     -39.643  -7.882 -14.037  1.00  0.00     0.158 A 
ATOM     10  C   UNL     1     -38.264  -7.629 -14.018  1.00  0.00     0.062 A 
ATOM     11  C   UNL     1     -37.779  -6.423 -13.494  1.00  0.00     0.022 A 
ENDROOT
BRANCH   9  12
ATOM     12  O   UNL     1     -40.133  -9.078 -14.559  1.00  0.00    -0.504 OA
ATOM     13  H   UNL     1     -40.366  -9.173 -15.540  1.00  0.00     0.293 HD
ENDBRANCH   9  12
BRANCH   8  14
ATOM     14  O   UNL     1     -41.907  -7.188 -13.554  1.00  0.00    -0.504 OA
ATOM     15  H   UNL     1     -42.272  -8.091 -13.837  1.00  0.00     0.293 HD
ENDBRANCH   8  14
TORSDOF 2
ENDMDL
MODEL 3
REMARK VINA RESULT:    -5.789      1.760      4.727
REMARK INTER + INTRA:          -6.128
REMARK INTER:                  -6.128
REMARK INTRA:                   0.000
REMARK UNBOUND:                 0.000
REMARK SMILES O=c1ccc2cc(O)c(O)cc2o1
REMARK SMILES IDX 4 1 3 2 2 3 1 4 13 5 12 6 11 7 9 8 7 9 6 10 5 11 8 12 10 14
REMARK H PARENT 8 13 10 15
REMARK Flexibility Score: inf
ROOT
ATOM      1  C   UNL     1     -35.940  -6.638 -16.325  1.00  0.00     0.019 A 
ATOM      2  C   UNL     1     -34.960  -5.677 -16.077  1.00  0.00     0.094 A 
ATOM      3  C   UNL     1     -35.056  -4.892 -14.923  1.00  0.00     0.336 A 
ATOM      4  O   UNL     1     -34.182  -4.019 -14.683  1.00  0.00    -0.246 OA
ATOM      5  O   UNL     1     -36.068  -5.061 -14.076  1.00  0.00    -0.423 OA
ATOM      6  C   UNL     1     -37.023  -5.967 -14.273  1.00  0.00     0.142 A 
ATOM      7  C   UNL     1     -38.062  -6.100 -13.347  1.00  0.00     0.098 A 
ATOM      8  C   UNL     1     -39.072  -7.053 -13.552  1.00  0.00     0.161 A 
ATOM      9  C   UNL     1     -39.041  -7.875 -14.687  1.00  0.00     0.158 A 
ATOM     10  C   UNL     1     -38.001  -7.745 -15.619  1.00  0.00     0.062 A 
ATOM     11  C   UNL     1     -36.992  -6.794 -15.417  1.00  0.00     0.022 A 
ENDROOT
BRANCH   9  12
ATOM     12  O   UNL     1     -40.048  -8.819 -14.883  1.00  0.00    -0.504 OA
ATOM     13  H   UNL     1     -40.729  -8.721 -15.627  1.00  0.00     0.293 HD
ENDBRANCH   9  12
BRANCH   8  14
ATOM     14  O   UNL     1     -40.109  -7.188 -12.631  1.00  0.00    -0.504 OA
ATOM     15  H   UNL     1     -41.079  -7.070 -12.902  1.00  0.00     0.293 HD
ENDBRANCH   8  14
TORSDOF 2
ENDMDL
MODEL 4
REMARK VINA RESULT:    -5.788      2.213      4.956
REMARK INTER + INTRA:          -6.126
REMARK INTER:                  -6.126
REMARK INTRA:                   0.000
REMARK UNBOUND:                 0.000
REMARK SMILES O=c1ccc2cc(O)c(O)cc2o1
REMARK SMILES IDX 4 1 3 2 2 3 1 4 13 5 12 6 11 7 9 8 7 9 6 10 5 11 8 12 10 14
REMARK H PARENT 8 13 10 15
REMARK Flexibility Score: inf
ROOT
ATOM      1  C   UNL     1     -35.900  -5.018 -14.168  1.00  0.00     0.019 A 
ATOM      2  C   UNL     1     -34.894  -4.916 -15.127  1.00  0.00     0.094 A 
ATOM      3  C   UNL     1     -34.932  -5.759 -16.242  1.00  0.00     0.336 A 
ATOM      4  O   UNL     1     -34.032  -5.683 -17.119  1.00  0.00    -0.246 OA
ATOM      5  O   UNL     1     -35.915  -6.646 -16.383  1.00  0.00    -0.423 OA
ATOM      6  C   UNL     1     -36.895  -6.775 -15.493  1.00  0.00     0.142 A 
ATOM      7  C   UNL     1     -37.902  -7.724 -15.694  1.00  0.00     0.098 A 
ATOM      8  C   UNL     1     -38.937  -7.865 -14.757  1.00  0.00     0.161 A 
ATOM      9  C   UNL     1     -38.964  -7.052 -13.615  1.00  0.00     0.158 A 
ATOM     10  C   UNL     1     -37.956  -6.099 -13.407  1.00  0.00     0.062 A 
ATOM     11  C   UNL     1     -36.921  -5.958 -14.341  1.00  0.00     0.022 A 
ENDROOT
BRANCH   9  12
ATOM     12  O   UNL     1     -39.995  -7.199 -12.689  1.00  0.00    -0.504 OA
ATOM     13  H   UNL     1     -40.484  -8.080 -12.575  1.00  0.00     0.293 HD
ENDBRANCH   9  12
BRANCH   8  14
ATOM     14  O   UNL     1     -39.942  -8.809 -14.956  1.00  0.00    -0.504 OA
ATOM     15  H   UNL     1     -40.908  -8.615 -14.715  1.00  0.00     0.293 HD
ENDBRANCH   8  14
TORSDOF 2
ENDMDL
MODEL 5
REMARK VINA RESULT:    -5.654      5.556      7.716
REMARK INTER + INTRA:          -5.985
REMARK INTER:                  -5.985
REMARK INTRA:                   0.000
REMARK UNBOUND:                 0.000
REMARK SMILES O=c1ccc2cc(O)c(O)cc2o1
REMARK SMILES IDX 4 1 3 2 2 3 1 4 13 5 12 6 11 7 9 8 7 9 6 10 5 11 8 12 10 14
REMARK H PARENT 8 13 10 15
REMARK Flexibility Score: inf
ROOT
ATOM      1  C   UNL     1     -32.786  -5.266 -16.711  1.00  0.00     0.019 A 
ATOM      2  C   UNL     1     -31.533  -4.653 -16.708  1.00  0.00     0.094 A 
ATOM      3  C   UNL     1     -31.355  -3.470 -17.433  1.00  0.00     0.336 A 
ATOM      4  O   UNL     1     -30.231  -2.903 -17.443  1.00  0.00    -0.246 OA
ATOM      5  O   UNL     1     -32.367  -2.939 -18.116  1.00  0.00    -0.423 OA
ATOM      6  C   UNL     1     -33.577  -3.490 -18.145  1.00  0.00     0.142 A 
ATOM      7  C   UNL     1     -34.603  -2.887 -18.879  1.00  0.00     0.098 A 
ATOM      8  C   UNL     1     -35.881  -3.465 -18.913  1.00  0.00     0.161 A 
ATOM      9  C   UNL     1     -36.133  -4.651 -18.210  1.00  0.00     0.158 A 
ATOM     10  C   UNL     1     -35.108  -5.261 -17.472  1.00  0.00     0.062 A 
ATOM     11  C   UNL     1     -33.831  -4.686 -17.437  1.00  0.00     0.022 A 
ENDROOT
BRANCH   9  12
ATOM     12  O   UNL     1     -37.406  -5.218 -18.250  1.00  0.00    -0.504 OA
ATOM     13  H   UNL     1     -37.646  -6.021 -17.681  1.00  0.00     0.293 HD
ENDBRANCH   9  12
BRANCH   8  14
ATOM     14  O   UNL     1     -36.905  -2.865 -19.644  1.00  0.00    -0.504 OA
ATOM     15  H   UNL     1     -37.859  -3.204 -19.597  1.00  0.00     0.293 HD
ENDBRANCH   8  14
TORSDOF 2
ENDMDL
MODEL 6
REMARK VINA RESULT:    -5.635      1.555      5.114
REMARK INTER + INTRA:          -5.965
REMARK INTER:                  -5.965
REMARK INTRA:                   0.000
REMARK UNBOUND:                 0.000
REMARK SMILES O=c1ccc2cc(O)c(O)cc2o1
REMARK SMILES IDX 4 1 3 2 2 3 1 4 13 5 12 6 11 7 9 8 7 9 6 10 5 11 8 12 10 14
REMARK H PARENT 8 13 10 15
REMARK Flexibility Score: inf
ROOT
ATOM      1  C   UNL     1     -39.116  -4.120 -11.982  1.00  0.00     0.019 A 
ATOM      2  C   UNL     1     -37.833  -3.577 -11.913  1.00  0.00     0.094 A 
ATOM      3  C   UNL     1     -36.782  -4.234 -12.561  1.00  0.00     0.336 A 
ATOM      4  O   UNL     1     -35.618  -3.760 -12.509  1.00  0.00    -0.246 OA
ATOM      5  O   UNL     1     -37.005  -5.362 -13.232  1.00  0.00    -0.423 OA
ATOM      6  C   UNL     1     -38.212  -5.913 -13.324  1.00  0.00     0.142 A 
ATOM      7  C   UNL     1     -38.386  -7.099 -14.045  1.00  0.00     0.098 A 
ATOM      8  C   UNL     1     -39.657  -7.685 -14.144  1.00  0.00     0.161 A 
ATOM      9  C   UNL     1     -40.758  -7.081 -13.519  1.00  0.00     0.158 A 
ATOM     10  C   UNL     1     -40.589  -5.892 -12.795  1.00  0.00     0.062 A 
ATOM     11  C   UNL     1     -39.321  -5.306 -12.695  1.00  0.00     0.022 A 
ENDROOT
BRANCH   9  12
ATOM     12  O   UNL     1     -42.017  -7.670 -13.623  1.00  0.00    -0.504 OA
ATOM     13  H   UNL     1     -42.192  -8.440 -14.259  1.00  0.00     0.293 HD
ENDBRANCH   9  12
BRANCH   8  14
ATOM     14  O   UNL     1     -39.833  -8.866 -14.861  1.00  0.00    -0.504 OA
ATOM     15  H   UNL     1     -39.580  -8.935 -15.841  1.00  0.00     0.293 HD
ENDBRANCH   8  14
TORSDOF 2
ENDMDL
MODEL 7
REMARK VINA RESULT:    -5.610      1.745      4.296
REMARK INTER + INTRA:          -5.937
REMARK INTER:                  -5.937
REMARK INTRA:                   0.000
REMARK UNBOUND:                 0.000
REMARK SMILES O=c1ccc2cc(O)c(O)cc2o1
REMARK SMILES IDX 4 1 3 2 2 3 1 4 13 5 12 6 11 7 9 8 7 9 6 10 5 11 8 12 10 14
REMARK H PARENT 8 13 10 15
REMARK Flexibility Score: inf
ROOT
ATOM      1  C   UNL     1     -36.058  -4.877 -12.991  1.00  0.00     0.019 A 
ATOM      2  C   UNL     1     -36.587  -3.746 -12.370  1.00  0.00     0.094 A 
ATOM      3  C   UNL     1     -37.976  -3.622 -12.254  1.00  0.00     0.336 A 
ATOM      4  O   UNL     1     -38.472  -2.609 -11.697  1.00  0.00    -0.246 OA
ATOM      5  O   UNL     1     -38.779  -4.571 -12.732  1.00  0.00    -0.423 OA
ATOM      6  C   UNL     1     -38.316  -5.665 -13.331  1.00  0.00     0.142 A 
ATOM      7  C   UNL     1     -39.207  -6.628 -13.813  1.00  0.00     0.098 A 
ATOM      8  C   UNL     1     -38.724  -7.783 -14.447  1.00  0.00     0.161 A 
ATOM      9  C   UNL     1     -37.344  -7.975 -14.598  1.00  0.00     0.158 A 
ATOM     10  C   UNL     1     -36.445  -7.012 -14.117  1.00  0.00     0.062 A 
ATOM     11  C   UNL     1     -36.925  -5.857 -13.484  1.00  0.00     0.022 A 
ENDROOT
BRANCH   9  12
ATOM     12  O   UNL     1     -36.872  -9.125 -15.228  1.00  0.00    -0.504 OA
ATOM     13  H   UNL     1     -36.003  -9.564 -14.950  1.00  0.00     0.293 HD
ENDBRANCH   9  12
BRANCH   8  14
ATOM     14  O   UNL     1     -39.610  -8.745 -14.928  1.00  0.00    -0.504 OA
ATOM     15  H   UNL     1     -40.524  -8.882 -14.508  1.00  0.00     0.293 HD
ENDBRANCH   8  14
TORSDOF 2
ENDMDL
MODEL 8
REMARK VINA RESULT:    -5.546      2.839      4.010
REMARK INTER + INTRA:          -5.870
REMARK INTER:                  -5.870
REMARK INTRA:                   0.000
REMARK UNBOUND:                 0.000
REMARK SMILES O=c1ccc2cc(O)c(O)cc2o1
REMARK SMILES IDX 4 1 3 2 2 3 1 4 13 5 12 6 11 7 9 8 7 9 6 10 5 11 8 12 10 14
REMARK H PARENT 8 13 10 15
REMARK Flexibility Score: inf
ROOT
ATOM      1  C   UNL     1     -36.321  -4.696 -13.465  1.00  0.00     0.019 A 
ATOM      2  C   UNL     1     -37.521  -5.390 -13.322  1.00  0.00     0.094 A 
ATOM      3  C   UNL     1     -37.915  -6.279 -14.327  1.00  0.00     0.336 A 
ATOM      4  O   UNL     1     -38.996  -6.914 -14.216  1.00  0.00    -0.246 OA
ATOM      5  O   UNL     1     -37.154  -6.458 -15.404  1.00  0.00    -0.423 OA
ATOM      6  C   UNL     1     -36.002  -5.817 -15.581  1.00  0.00     0.142 A 
ATOM      7  C   UNL     1     -35.244  -6.046 -16.733  1.00  0.00     0.098 A 
ATOM      8  C   UNL     1     -34.028  -5.372 -16.924  1.00  0.00     0.161 A 
ATOM      9  C   UNL     1     -33.570  -4.466 -15.957  1.00  0.00     0.158 A 
ATOM     10  C   UNL     1     -34.326  -4.232 -14.800  1.00  0.00     0.062 A 
ATOM     11  C   UNL     1     -35.541  -4.903 -14.607  1.00  0.00     0.022 A 
ENDROOT
BRANCH   9  12
ATOM     12  O   UNL     1     -32.361  -3.800 -16.155  1.00  0.00    -0.504 OA
ATOM     13  H   UNL     1     -31.476  -4.222 -15.900  1.00  0.00     0.293 HD
ENDBRANCH   9  12
BRANCH   8  14
ATOM     14  O   UNL     1     -33.270  -5.599 -18.071  1.00  0.00    -0.504 OA
ATOM     15  H   UNL     1     -32.375  -6.072 -18.030  1.00  0.00     0.293 HD
ENDBRANCH   8  14
TORSDOF 2
ENDMDL
MODEL 9
REMARK VINA RESULT:    -5.471      1.065      2.344
REMARK INTER + INTRA:          -5.791
REMARK INTER:                  -5.791
REMARK INTRA:                   0.000
REMARK UNBOUND:                 0.000
REMARK SMILES O=c1ccc2cc(O)c(O)cc2o1
REMARK SMILES IDX 4 1 3 2 2 3 1 4 13 5 12 6 11 7 9 8 7 9 6 10 5 11 8 12 10 14
REMARK H PARENT 8 13 10 15
REMARK Flexibility Score: inf
ROOT
ATOM      1  C   UNL     1     -40.228  -5.760 -12.751  1.00  0.00     0.019 A 
ATOM      2  C   UNL     1     -40.592  -7.064 -13.085  1.00  0.00     0.094 A 
ATOM      3  C   UNL     1     -39.611  -7.944 -13.552  1.00  0.00     0.336 A 
ATOM      4  O   UNL     1     -39.920  -9.125 -13.859  1.00  0.00    -0.246 OA
ATOM      5  O   UNL     1     -38.348  -7.541 -13.677  1.00  0.00    -0.423 OA
ATOM      6  C   UNL     1     -37.958  -6.307 -13.369  1.00  0.00     0.142 A 
ATOM      7  C   UNL     1     -36.617  -5.939 -13.520  1.00  0.00     0.098 A 
ATOM      8  C   UNL     1     -36.201  -4.639 -13.197  1.00  0.00     0.161 A 
ATOM      9  C   UNL     1     -37.130  -3.702 -12.723  1.00  0.00     0.158 A 
ATOM     10  C   UNL     1     -38.476  -4.065 -12.570  1.00  0.00     0.062 A 
ATOM     11  C   UNL     1     -38.894  -5.363 -12.892  1.00  0.00     0.022 A 
ENDROOT
BRANCH   9  12
ATOM     12  O   UNL     1     -36.708  -2.412 -12.405  1.00  0.00    -0.504 OA
ATOM     13  H   UNL     1     -37.307  -1.767 -11.905  1.00  0.00     0.293 HD
ENDBRANCH   9  12
BRANCH   8  14
ATOM     14  O   UNL     1     -34.866  -4.270 -13.346  1.00  0.00    -0.504 OA
ATOM     15  H   UNL     1     -34.117  -4.952 -13.286  1.00  0.00     0.293 HD
ENDBRANCH   8  14
TORSDOF 2
ENDMDL
