MODEL 1
REMARK VINA RESULT:    -5.341      0.000      0.000
REMARK INTER + INTRA:          -8.818
REMARK INTER:                  -7.683
REMARK INTRA:                  -1.135
REMARK UNBOUND:                -1.135
REMARK SMILES O=c1cc(-c2ccc(O)c(O)c2)oc2cc(O[C@H]3O[C@@H](CO)[C@H](O)[C@H](O)[C@@H]3O)cc(O)c12
REMARK SMILES IDX 17 1 16 2 4 3 3 4 13 5 2 6 14 7 1 8 32 9 15 10 30 11 29 12
REMARK SMILES IDX 5 13 6 14 7 15 8 16 12 17 10 18 9 19 11 21 31 23 18 25 27 26
REMARK SMILES IDX 19 27 25 28 20 29 23 30 28 31 26 33 21 35 22 36 24 38
REMARK H PARENT 9 20 11 22 31 24 28 32 26 34 22 37 24 39
REMARK Flexibility Score: inf
ROOT
ATOM      1  O   UNL     1      60.141   4.305  32.002  1.00  0.00    -0.462 OA
ENDROOT
BRANCH   1   2
ATOM      2  C   UNL     1      60.119   2.900  32.031  1.00  0.00     0.130 A 
ATOM      3  C   UNL     1      60.768  -1.001  34.689  1.00  0.00     0.138 A 
ATOM      4  C   UNL     1      60.476  -1.863  33.623  1.00  0.00     0.100 A 
ATOM      5  O   UNL     1      60.764   0.313  34.486  1.00  0.00    -0.456 OA
ATOM      6  C   UNL     1      60.154  -1.331  32.375  1.00  0.00     0.197 A 
ATOM      7  C   UNL     1      60.444   0.872  33.323  1.00  0.00     0.146 A 
ATOM      8  O   UNL     1      59.972  -2.127  31.419  1.00  0.00    -0.289 OA
ATOM      9  C   UNL     1      60.076   0.073  32.209  1.00  0.00     0.107 A 
ATOM     10  C   UNL     1      60.472   2.264  33.220  1.00  0.00     0.094 A 
ATOM     11  C   UNL     1      59.683   0.725  31.004  1.00  0.00     0.134 A 
ATOM     12  C   UNL     1      59.737   2.122  30.926  1.00  0.00     0.093 A 
BRANCH   3  13
ATOM     13  C   UNL     1      61.099  -1.515  36.040  1.00  0.00     0.021 A 
ATOM     14  C   UNL     1      60.120  -1.499  37.049  1.00  0.00     0.016 A 
ATOM     15  C   UNL     1      60.400  -2.006  38.320  1.00  0.00     0.051 A 
ATOM     16  C   UNL     1      61.660  -2.546  38.602  1.00  0.00     0.157 A 
ATOM     17  C   UNL     1      62.363  -2.065  36.329  1.00  0.00     0.062 A 
ATOM     18  C   UNL     1      62.642  -2.577  37.603  1.00  0.00     0.158 A 
BRANCH  16  19
ATOM     19  O   UNL     1      61.942  -3.056  39.866  1.00  0.00    -0.504 OA
ATOM     20  H   UNL     1      61.214  -3.442  40.458  1.00  0.00     0.293 HD
ENDBRANCH  16  19
BRANCH  18  21
ATOM     21  O   UNL     1      63.893  -3.125  37.883  1.00  0.00    -0.504 OA
ATOM     22  H   UNL     1      64.061  -3.665  38.726  1.00  0.00     0.293 HD
ENDBRANCH  18  21
ENDBRANCH   3  13
BRANCH  11  23
ATOM     23  O   UNL     1      59.200   0.054  29.876  1.00  0.00    -0.507 OA
ATOM     24  H   UNL     1      58.906  -0.913  29.865  1.00  0.00     0.293 HD
ENDBRANCH  11  23
ENDBRANCH   1   2
BRANCH   1  25
ATOM     25  C   UNL     1      61.051   5.107  31.246  1.00  0.00     0.339 C 
ATOM     26  C   UNL     1      62.482   5.061  31.846  1.00  0.00     0.214 C 
ATOM     27  O   UNL     1      60.551   6.432  31.129  1.00  0.00    -0.332 OA
ATOM     28  C   UNL     1      62.759   6.241  32.806  1.00  0.00     0.180 C 
ATOM     29  C   UNL     1      60.459   7.147  32.360  1.00  0.00     0.179 C 
ATOM     30  C   UNL     1      61.454   6.691  33.464  1.00  0.00     0.177 C 
BRANCH  26  31
ATOM     31  O   UNL     1      63.428   5.058  30.804  1.00  0.00    -0.384 OA
ATOM     32  H   UNL     1      63.142   5.731  30.133  1.00  0.00     0.211 HD
ENDBRANCH  26  31
BRANCH  28  33
ATOM     33  O   UNL     1      63.338   7.325  32.116  1.00  0.00    -0.387 OA
ATOM     34  H   UNL     1      63.467   8.053  32.780  1.00  0.00     0.211 HD
ENDBRANCH  28  33
BRANCH  29  35
ATOM     35  C   UNL     1      59.002   7.221  32.852  1.00  0.00     0.191 C 
BRANCH  35  36
ATOM     36  O   UNL     1      58.793   6.382  33.954  1.00  0.00    -0.394 OA
ATOM     37  H   UNL     1      58.526   6.974  34.705  1.00  0.00     0.210 HD
ENDBRANCH  35  36
ENDBRANCH  29  35
BRANCH  30  38
ATOM     38  O   UNL     1      61.722   7.748  34.352  1.00  0.00    -0.387 OA
ATOM     39  H   UNL     1      60.952   8.371  34.301  1.00  0.00     0.211 HD
ENDBRANCH  30  38
ENDBRANCH   1  25
TORSDOF 11
ENDMDL
MODEL 2
REMARK VINA RESULT:    -5.204     10.955     14.308
REMARK INTER + INTRA:          -8.620
REMARK INTER:                  -7.556
REMARK INTRA:                  -1.064
REMARK UNBOUND:                -1.135
REMARK SMILES O=c1cc(-c2ccc(O)c(O)c2)oc2cc(O[C@H]3O[C@@H](CO)[C@H](O)[C@H](O)[C@@H]3O)cc(O)c12
REMARK SMILES IDX 17 1 16 2 4 3 3 4 13 5 2 6 14 7 1 8 32 9 15 10 30 11 29 12
REMARK SMILES IDX 5 13 6 14 7 15 8 16 12 17 10 18 9 19 11 21 31 23 18 25 27 26
REMARK SMILES IDX 19 27 25 28 20 29 23 30 28 31 26 33 21 35 22 36 24 38
REMARK H PARENT 9 20 11 22 31 24 28 32 26 34 22 37 24 39
REMARK Flexibility Score: inf
ROOT
ATOM      1  O   UNL     1      71.801   1.827  32.322  1.00  0.00    -0.462 OA
ENDROOT
BRANCH   1   2
ATOM      2  C   UNL     1      71.971   3.208  32.519  1.00  0.00     0.130 A 
ATOM      3  C   UNL     1      74.237   6.590  34.995  1.00  0.00     0.138 A 
ATOM      4  C   UNL     1      73.575   7.626  34.323  1.00  0.00     0.100 A 
ATOM      5  O   UNL     1      73.944   5.327  34.699  1.00  0.00    -0.456 OA
ATOM      6  C   UNL     1      72.644   7.319  33.331  1.00  0.00     0.197 A 
ATOM      7  C   UNL     1      73.080   4.981  33.750  1.00  0.00     0.146 A 
ATOM      8  O   UNL     1      72.010   8.266  32.798  1.00  0.00    -0.289 OA
ATOM      9  C   UNL     1      72.412   5.968  32.979  1.00  0.00     0.107 A 
ATOM     10  C   UNL     1      72.846   3.624  33.522  1.00  0.00     0.094 A 
ATOM     11  C   UNL     1      71.543   5.542  31.933  1.00  0.00     0.134 A 
ATOM     12  C   UNL     1      71.315   4.174  31.739  1.00  0.00     0.093 A 
BRANCH   3  13
ATOM     13  C   UNL     1      75.249   6.861  36.044  1.00  0.00     0.021 A 
ATOM     14  C   UNL     1      76.491   7.413  35.686  1.00  0.00     0.016 A 
ATOM     15  C   UNL     1      77.448   7.706  36.661  1.00  0.00     0.051 A 
ATOM     16  C   UNL     1      77.175   7.461  38.012  1.00  0.00     0.157 A 
ATOM     17  C   UNL     1      74.979   6.623  37.406  1.00  0.00     0.062 A 
ATOM     18  C   UNL     1      75.938   6.919  38.384  1.00  0.00     0.158 A 
BRANCH  16  19
ATOM     19  O   UNL     1      78.125   7.754  38.987  1.00  0.00    -0.504 OA
ATOM     20  H   UNL     1      78.822   7.074  39.272  1.00  0.00     0.293 HD
ENDBRANCH  16  19
BRANCH  18  21
ATOM     21  O   UNL     1      75.665   6.686  39.731  1.00  0.00    -0.504 OA
ATOM     22  H   UNL     1      75.381   7.434  40.355  1.00  0.00     0.293 HD
ENDBRANCH  18  21
ENDBRANCH   3  13
BRANCH  11  23
ATOM     23  O   UNL     1      70.912   6.414  31.039  1.00  0.00    -0.507 OA
ATOM     24  H   UNL     1      70.768   7.400  31.205  1.00  0.00     0.293 HD
ENDBRANCH  11  23
ENDBRANCH   1   2
BRANCH   1  25
ATOM     25  C   UNL     1      70.585   1.185  31.929  1.00  0.00     0.339 C 
ATOM     26  C   UNL     1      69.579   1.105  33.108  1.00  0.00     0.214 C 
ATOM     27  O   UNL     1      70.867  -0.088  31.365  1.00  0.00    -0.332 OA
ATOM     28  C   UNL     1      69.657  -0.243  33.862  1.00  0.00     0.180 C 
ATOM     29  C   UNL     1      71.434  -1.032  32.271  1.00  0.00     0.179 C 
ATOM     30  C   UNL     1      71.075  -0.808  33.767  1.00  0.00     0.177 C 
BRANCH  26  31
ATOM     31  O   UNL     1      68.272   1.310  32.625  1.00  0.00    -0.384 OA
ATOM     32  H   UNL     1      68.111   2.289  32.594  1.00  0.00     0.211 HD
ENDBRANCH  26  31
BRANCH  28  33
ATOM     33  O   UNL     1      68.742  -1.172  33.326  1.00  0.00    -0.387 OA
ATOM     34  H   UNL     1      69.274  -1.835  32.810  1.00  0.00     0.211 HD
ENDBRANCH  28  33
BRANCH  29  35
ATOM     35  C   UNL     1      72.945  -1.194  32.030  1.00  0.00     0.191 C 
BRANCH  35  36
ATOM     36  O   UNL     1      73.673  -0.169  32.648  1.00  0.00    -0.394 OA
ATOM     37  H   UNL     1      73.634   0.608  32.032  1.00  0.00     0.210 HD
ENDBRANCH  35  36
ENDBRANCH  29  35
BRANCH  30  38
ATOM     38  O   UNL     1      71.139  -2.021  34.475  1.00  0.00    -0.387 OA
ATOM     39  H   UNL     1      70.912  -1.817  35.419  1.00  0.00     0.211 HD
ENDBRANCH  30  38
ENDBRANCH   1  25
TORSDOF 11
ENDMDL
MODEL 3
REMARK VINA RESULT:    -5.183     10.059     12.513
REMARK INTER + INTRA:          -8.589
REMARK INTER:                  -7.562
REMARK INTRA:                  -1.027
REMARK UNBOUND:                -1.135
REMARK SMILES O=c1cc(-c2ccc(O)c(O)c2)oc2cc(O[C@H]3O[C@@H](CO)[C@H](O)[C@H](O)[C@@H]3O)cc(O)c12
REMARK SMILES IDX 17 1 16 2 4 3 3 4 13 5 2 6 14 7 1 8 32 9 15 10 30 11 29 12
REMARK SMILES IDX 5 13 6 14 7 15 8 16 12 17 10 18 9 19 11 21 31 23 18 25 27 26
REMARK SMILES IDX 19 27 25 28 20 29 23 30 28 31 26 33 21 35 22 36 24 38
REMARK H PARENT 9 20 11 22 31 24 28 32 26 34 22 37 24 39
REMARK Flexibility Score: inf
ROOT
ATOM      1  O   UNL     1      71.588  -0.759  36.099  1.00  0.00    -0.462 OA
ENDROOT
BRANCH   1   2
ATOM      2  C   UNL     1      71.905  -0.598  37.458  1.00  0.00     0.130 A 
ATOM      3  C   UNL     1      70.344  -0.973  41.944  1.00  0.00     0.138 A 
ATOM      4  C   UNL     1      71.554  -0.510  42.480  1.00  0.00     0.100 A 
ATOM      5  O   UNL     1      70.201  -1.049  40.625  1.00  0.00    -0.456 OA
ATOM      6  C   UNL     1      72.600  -0.167  41.623  1.00  0.00     0.197 A 
ATOM      7  C   UNL     1      71.171  -0.754  39.766  1.00  0.00     0.146 A 
ATOM      8  O   UNL     1      73.645   0.318  42.127  1.00  0.00    -0.289 OA
ATOM      9  C   UNL     1      72.447  -0.336  40.226  1.00  0.00     0.107 A 
ATOM     10  C   UNL     1      70.913  -0.868  38.399  1.00  0.00     0.094 A 
ATOM     11  C   UNL     1      73.471  -0.092  39.265  1.00  0.00     0.134 A 
ATOM     12  C   UNL     1      73.177  -0.199  37.900  1.00  0.00     0.093 A 
BRANCH   3  13
ATOM     13  C   UNL     1      69.207  -1.369  42.811  1.00  0.00     0.021 A 
ATOM     14  C   UNL     1      68.962  -2.731  43.057  1.00  0.00     0.016 A 
ATOM     15  C   UNL     1      67.915  -3.125  43.894  1.00  0.00     0.051 A 
ATOM     16  C   UNL     1      67.104  -2.165  44.508  1.00  0.00     0.157 A 
ATOM     17  C   UNL     1      68.390  -0.407  43.436  1.00  0.00     0.062 A 
ATOM     18  C   UNL     1      67.343  -0.803  44.279  1.00  0.00     0.158 A 
BRANCH  16  19
ATOM     19  O   UNL     1      66.062  -2.553  45.347  1.00  0.00    -0.504 OA
ATOM     20  H   UNL     1      65.773  -1.982  46.134  1.00  0.00     0.293 HD
ENDBRANCH  16  19
BRANCH  18  21
ATOM     21  O   UNL     1      66.539   0.152  44.900  1.00  0.00    -0.504 OA
ATOM     22  H   UNL     1      65.666   0.463  44.486  1.00  0.00     0.293 HD
ENDBRANCH  18  21
ENDBRANCH   3  13
BRANCH  11  23
ATOM     23  O   UNL     1      74.793   0.221  39.597  1.00  0.00    -0.507 OA
ATOM     24  H   UNL     1      75.605  -0.115  39.099  1.00  0.00     0.293 HD
ENDBRANCH  11  23
ENDBRANCH   1   2
BRANCH   1  25
ATOM     25  C   UNL     1      70.460  -0.186  35.433  1.00  0.00     0.339 C 
ATOM     26  C   UNL     1      70.037  -1.032  34.202  1.00  0.00     0.214 C 
ATOM     27  O   UNL     1      70.729   1.168  35.098  1.00  0.00    -0.332 OA
ATOM     28  C   UNL     1      70.659  -0.513  32.886  1.00  0.00     0.180 C 
ATOM     29  C   UNL     1      71.775   1.353  34.145  1.00  0.00     0.179 C 
ATOM     30  C   UNL     1      72.002   0.159  33.176  1.00  0.00     0.177 C 
BRANCH  26  31
ATOM     31  O   UNL     1      68.633  -1.042  34.099  1.00  0.00    -0.384 OA
ATOM     32  H   UNL     1      68.293  -0.204  34.509  1.00  0.00     0.211 HD
ENDBRANCH  26  31
BRANCH  28  33
ATOM     33  O   UNL     1      69.798   0.408  32.253  1.00  0.00    -0.387 OA
ATOM     34  H   UNL     1      69.221  -0.115  31.636  1.00  0.00     0.211 HD
ENDBRANCH  28  33
BRANCH  29  35
ATOM     35  C   UNL     1      73.068   1.832  34.828  1.00  0.00     0.191 C 
BRANCH  35  36
ATOM     36  O   UNL     1      73.944   2.419  33.906  1.00  0.00    -0.394 OA
ATOM     37  H   UNL     1      73.384   2.718  33.143  1.00  0.00     0.210 HD
ENDBRANCH  35  36
ENDBRANCH  29  35
BRANCH  30  38
ATOM     38  O   UNL     1      72.567   0.606  31.969  1.00  0.00    -0.387 OA
ATOM     39  H   UNL     1      71.820   0.730  31.328  1.00  0.00     0.211 HD
ENDBRANCH  30  38
ENDBRANCH   1  25
TORSDOF 11
ENDMDL
MODEL 4
REMARK VINA RESULT:    -5.149      6.291     10.090
REMARK INTER + INTRA:          -8.542
REMARK INTER:                  -7.321
REMARK INTRA:                  -1.220
REMARK UNBOUND:                -1.135
REMARK SMILES O=c1cc(-c2ccc(O)c(O)c2)oc2cc(O[C@H]3O[C@@H](CO)[C@H](O)[C@H](O)[C@@H]3O)cc(O)c12
REMARK SMILES IDX 17 1 16 2 4 3 3 4 13 5 2 6 14 7 1 8 32 9 15 10 30 11 29 12
REMARK SMILES IDX 5 13 6 14 7 15 8 16 12 17 10 18 9 19 11 21 31 23 18 25 27 26
REMARK SMILES IDX 19 27 25 28 20 29 23 30 28 31 26 33 21 35 22 36 24 38
REMARK H PARENT 9 20 11 22 31 24 28 32 26 34 22 37 24 39
REMARK Flexibility Score: inf
ROOT
ATOM      1  O   UNL     1      69.067   0.412  33.305  1.00  0.00    -0.462 OA
ENDROOT
BRANCH   1   2
ATOM      2  C   UNL     1      67.761   0.710  33.730  1.00  0.00     0.130 A 
ATOM      3  C   UNL     1      64.181   3.850  33.568  1.00  0.00     0.138 A 
ATOM      4  C   UNL     1      63.369   3.075  34.408  1.00  0.00     0.100 A 
ATOM      5  O   UNL     1      65.408   3.429  33.277  1.00  0.00    -0.456 OA
ATOM      6  C   UNL     1      63.846   1.860  34.899  1.00  0.00     0.197 A 
ATOM      7  C   UNL     1      65.903   2.270  33.701  1.00  0.00     0.146 A 
ATOM      8  O   UNL     1      63.126   1.224  35.710  1.00  0.00    -0.289 OA
ATOM      9  C   UNL     1      65.125   1.397  34.505  1.00  0.00     0.107 A 
ATOM     10  C   UNL     1      67.205   1.926  33.335  1.00  0.00     0.094 A 
ATOM     11  C   UNL     1      65.681   0.140  34.881  1.00  0.00     0.134 A 
ATOM     12  C   UNL     1      66.996  -0.170  34.512  1.00  0.00     0.093 A 
BRANCH   3  13
ATOM     13  C   UNL     1      63.715   5.140  33.005  1.00  0.00     0.021 A 
ATOM     14  C   UNL     1      63.287   5.201  31.668  1.00  0.00     0.016 A 
ATOM     15  C   UNL     1      62.816   6.399  31.126  1.00  0.00     0.051 A 
ATOM     16  C   UNL     1      62.755   7.554  31.914  1.00  0.00     0.157 A 
ATOM     17  C   UNL     1      63.645   6.304  33.795  1.00  0.00     0.062 A 
ATOM     18  C   UNL     1      63.169   7.505  33.251  1.00  0.00     0.158 A 
BRANCH  16  19
ATOM     19  O   UNL     1      62.282   8.749  31.378  1.00  0.00    -0.504 OA
ATOM     20  H   UNL     1      62.797   9.617  31.480  1.00  0.00     0.293 HD
ENDBRANCH  16  19
BRANCH  18  21
ATOM     21  O   UNL     1      63.097   8.654  34.037  1.00  0.00    -0.504 OA
ATOM     22  H   UNL     1      63.532   8.702  34.953  1.00  0.00     0.293 HD
ENDBRANCH  18  21
ENDBRANCH   3  13
BRANCH  11  23
ATOM     23  O   UNL     1      64.978  -0.846  35.579  1.00  0.00    -0.507 OA
ATOM     24  H   UNL     1      64.511  -0.702  36.463  1.00  0.00     0.293 HD
ENDBRANCH  11  23
ENDBRANCH   1   2
BRANCH   1  25
ATOM     25  C   UNL     1      70.181   1.306  33.346  1.00  0.00     0.339 C 
ATOM     26  C   UNL     1      71.230   0.957  32.257  1.00  0.00     0.214 C 
ATOM     27  O   UNL     1      70.738   1.329  34.653  1.00  0.00    -0.332 OA
ATOM     28  C   UNL     1      72.362   0.051  32.794  1.00  0.00     0.180 C 
ATOM     29  C   UNL     1      71.317   0.096  35.078  1.00  0.00     0.179 C 
ATOM     30  C   UNL     1      71.831  -0.821  33.933  1.00  0.00     0.177 C 
BRANCH  26  31
ATOM     31  O   UNL     1      71.774   2.144  31.731  1.00  0.00    -0.384 OA
ATOM     32  H   UNL     1      71.376   2.289  30.833  1.00  0.00     0.211 HD
ENDBRANCH  26  31
BRANCH  28  33
ATOM     33  O   UNL     1      73.447   0.823  33.257  1.00  0.00    -0.387 OA
ATOM     34  H   UNL     1      73.716   0.445  34.136  1.00  0.00     0.211 HD
ENDBRANCH  28  33
BRANCH  29  35
ATOM     35  C   UNL     1      70.397  -0.635  36.072  1.00  0.00     0.191 C 
BRANCH  35  36
ATOM     36  O   UNL     1      69.874  -1.808  35.514  1.00  0.00    -0.394 OA
ATOM     37  H   UNL     1      70.415  -2.555  35.883  1.00  0.00     0.210 HD
ENDBRANCH  35  36
ENDBRANCH  29  35
BRANCH  30  38
ATOM     38  O   UNL     1      72.863  -1.656  34.397  1.00  0.00    -0.387 OA
ATOM     39  H   UNL     1      73.365  -1.965  33.600  1.00  0.00     0.211 HD
ENDBRANCH  30  38
ENDBRANCH   1  25
TORSDOF 11
ENDMDL
MODEL 5
REMARK VINA RESULT:    -5.129      5.601      9.063
REMARK INTER + INTRA:          -8.513
REMARK INTER:                  -7.504
REMARK INTRA:                  -1.008
REMARK UNBOUND:                -1.135
REMARK SMILES O=c1cc(-c2ccc(O)c(O)c2)oc2cc(O[C@H]3O[C@@H](CO)[C@H](O)[C@H](O)[C@@H]3O)cc(O)c12
REMARK SMILES IDX 17 1 16 2 4 3 3 4 13 5 2 6 14 7 1 8 32 9 15 10 30 11 29 12
REMARK SMILES IDX 5 13 6 14 7 15 8 16 12 17 10 18 9 19 11 21 31 23 18 25 27 26
REMARK SMILES IDX 19 27 25 28 20 29 23 30 28 31 26 33 21 35 22 36 24 38
REMARK H PARENT 9 20 11 22 31 24 28 32 26 34 22 37 24 39
REMARK Flexibility Score: inf
ROOT
ATOM      1  O   UNL     1      68.382   3.220  32.866  1.00  0.00    -0.462 OA
ENDROOT
BRANCH   1   2
ATOM      2  C   UNL     1      67.111   3.061  33.444  1.00  0.00     0.130 A 
ATOM      3  C   UNL     1      62.463   4.048  33.089  1.00  0.00     0.138 A 
ATOM      4  C   UNL     1      62.155   3.370  34.276  1.00  0.00     0.100 A 
ATOM      5  O   UNL     1      63.729   4.121  32.688  1.00  0.00    -0.456 OA
ATOM      6  C   UNL     1      63.174   2.754  35.002  1.00  0.00     0.197 A 
ATOM      7  C   UNL     1      64.734   3.536  33.331  1.00  0.00     0.146 A 
ATOM      8  O   UNL     1      62.880   2.219  36.102  1.00  0.00    -0.289 OA
ATOM      9  C   UNL     1      64.501   2.778  34.509  1.00  0.00     0.107 A 
ATOM     10  C   UNL     1      66.026   3.678  32.823  1.00  0.00     0.094 A 
ATOM     11  C   UNL     1      65.605   2.120  35.125  1.00  0.00     0.134 A 
ATOM     12  C   UNL     1      66.892   2.294  34.601  1.00  0.00     0.093 A 
BRANCH   3  13
ATOM     13  C   UNL     1      61.415   4.703  32.269  1.00  0.00     0.021 A 
ATOM     14  C   UNL     1      61.388   6.105  32.167  1.00  0.00     0.016 A 
ATOM     15  C   UNL     1      60.428   6.742  31.377  1.00  0.00     0.051 A 
ATOM     16  C   UNL     1      59.487   5.989  30.667  1.00  0.00     0.157 A 
ATOM     17  C   UNL     1      60.468   3.951  31.548  1.00  0.00     0.062 A 
ATOM     18  C   UNL     1      59.508   4.591  30.752  1.00  0.00     0.158 A 
BRANCH  16  19
ATOM     19  O   UNL     1      58.531   6.620  29.875  1.00  0.00    -0.504 OA
ATOM     20  H   UNL     1      57.728   6.118  29.510  1.00  0.00     0.293 HD
ENDBRANCH  16  19
BRANCH  18  21
ATOM     21  O   UNL     1      58.575   3.842  30.036  1.00  0.00    -0.504 OA
ATOM     22  H   UNL     1      58.140   3.014  30.430  1.00  0.00     0.293 HD
ENDBRANCH  18  21
ENDBRANCH   3  13
BRANCH  11  23
ATOM     23  O   UNL     1      65.488   1.262  36.223  1.00  0.00    -0.507 OA
ATOM     24  H   UNL     1      64.800   0.527  36.306  1.00  0.00     0.293 HD
ENDBRANCH  11  23
ENDBRANCH   1   2
BRANCH   1  25
ATOM     25  C   UNL     1      68.981   2.335  31.916  1.00  0.00     0.339 C 
ATOM     26  C   UNL     1      69.974   1.357  32.599  1.00  0.00     0.214 C 
ATOM     27  O   UNL     1      69.583   3.081  30.868  1.00  0.00    -0.332 OA
ATOM     28  C   UNL     1      71.433   1.865  32.549  1.00  0.00     0.180 C 
ATOM     29  C   UNL     1      70.686   3.894  31.270  1.00  0.00     0.179 C 
ATOM     30  C   UNL     1      71.449   3.394  32.528  1.00  0.00     0.177 C 
BRANCH  26  31
ATOM     31  O   UNL     1      69.884   0.093  31.987  1.00  0.00    -0.384 OA
ATOM     32  H   UNL     1      69.656   0.235  31.031  1.00  0.00     0.211 HD
ENDBRANCH  26  31
BRANCH  28  33
ATOM     33  O   UNL     1      72.098   1.371  31.407  1.00  0.00    -0.387 OA
ATOM     34  H   UNL     1      72.978   1.025  31.714  1.00  0.00     0.211 HD
ENDBRANCH  28  33
BRANCH  29  35
ATOM     35  C   UNL     1      70.279   5.375  31.358  1.00  0.00     0.191 C 
BRANCH  35  36
ATOM     36  O   UNL     1      69.650   5.660  32.576  1.00  0.00    -0.394 OA
ATOM     37  H   UNL     1      68.726   5.306  32.501  1.00  0.00     0.210 HD
ENDBRANCH  35  36
ENDBRANCH  29  35
BRANCH  30  38
ATOM     38  O   UNL     1      72.781   3.843  32.505  1.00  0.00    -0.387 OA
ATOM     39  H   UNL     1      72.847   4.587  33.159  1.00  0.00     0.211 HD
ENDBRANCH  30  38
ENDBRANCH   1  25
TORSDOF 11
ENDMDL
MODEL 6
REMARK VINA RESULT:    -5.126     13.225     18.169
REMARK INTER + INTRA:          -8.508
REMARK INTER:                  -7.423
REMARK INTRA:                  -1.085
REMARK UNBOUND:                -1.135
REMARK SMILES O=c1cc(-c2ccc(O)c(O)c2)oc2cc(O[C@H]3O[C@@H](CO)[C@H](O)[C@H](O)[C@@H]3O)cc(O)c12
REMARK SMILES IDX 17 1 16 2 4 3 3 4 13 5 2 6 14 7 1 8 32 9 15 10 30 11 29 12
REMARK SMILES IDX 5 13 6 14 7 15 8 16 12 17 10 18 9 19 11 21 31 23 18 25 27 26
REMARK SMILES IDX 19 27 25 28 20 29 23 30 28 31 26 33 21 35 22 36 24 38
REMARK H PARENT 9 20 11 22 31 24 28 32 26 34 22 37 24 39
REMARK Flexibility Score: inf
ROOT
ATOM      1  O   UNL     1      65.205  15.239  45.187  1.00  0.00    -0.462 OA
ENDROOT
BRANCH   1   2
ATOM      2  C   UNL     1      65.862  15.439  43.961  1.00  0.00     0.130 A 
ATOM      3  C   UNL     1      65.509  15.217  39.214  1.00  0.00     0.138 A 
ATOM      4  C   UNL     1      66.830  15.645  39.024  1.00  0.00     0.100 A 
ATOM      5  O   UNL     1      65.045  15.061  40.450  1.00  0.00    -0.456 OA
ATOM      6  C   UNL     1      67.628  15.931  40.132  1.00  0.00     0.197 A 
ATOM      7  C   UNL     1      65.755  15.338  41.538  1.00  0.00     0.146 A 
ATOM      8  O   UNL     1      68.831  16.238  39.934  1.00  0.00    -0.289 OA
ATOM      9  C   UNL     1      67.081  15.834  41.434  1.00  0.00     0.107 A 
ATOM     10  C   UNL     1      65.170  15.137  42.789  1.00  0.00     0.094 A 
ATOM     11  C   UNL     1      67.777  16.174  42.631  1.00  0.00     0.134 A 
ATOM     12  C   UNL     1      67.169  15.946  43.872  1.00  0.00     0.093 A 
BRANCH   3  13
ATOM     13  C   UNL     1      64.613  14.918  38.071  1.00  0.00     0.021 A 
ATOM     14  C   UNL     1      63.606  15.832  37.719  1.00  0.00     0.016 A 
ATOM     15  C   UNL     1      62.770  15.585  36.626  1.00  0.00     0.051 A 
ATOM     16  C   UNL     1      62.935  14.425  35.862  1.00  0.00     0.157 A 
ATOM     17  C   UNL     1      64.777  13.755  37.293  1.00  0.00     0.062 A 
ATOM     18  C   UNL     1      63.942  13.509  36.196  1.00  0.00     0.158 A 
BRANCH  16  19
ATOM     19  O   UNL     1      62.107  14.176  34.770  1.00  0.00    -0.504 OA
ATOM     20  H   UNL     1      61.282  13.592  34.852  1.00  0.00     0.293 HD
ENDBRANCH  16  19
BRANCH  18  21
ATOM     21  O   UNL     1      64.110  12.359  35.426  1.00  0.00    -0.504 OA
ATOM     22  H   UNL     1      64.148  12.397  34.412  1.00  0.00     0.293 HD
ENDBRANCH  18  21
ENDBRANCH   3  13
BRANCH  11  23
ATOM     23  O   UNL     1      69.043  16.769  42.655  1.00  0.00    -0.507 OA
ATOM     24  H   UNL     1      69.256  17.646  43.108  1.00  0.00     0.293 HD
ENDBRANCH  11  23
ENDBRANCH   1   2
BRANCH   1  25
ATOM     25  C   UNL     1      65.786  15.415  46.481  1.00  0.00     0.339 C 
ATOM     26  C   UNL     1      66.237  14.060  47.089  1.00  0.00     0.214 C 
ATOM     27  O   UNL     1      64.888  16.121  47.326  1.00  0.00    -0.332 OA
ATOM     28  C   UNL     1      65.167  13.444  48.019  1.00  0.00     0.180 C 
ATOM     29  C   UNL     1      63.677  15.428  47.624  1.00  0.00     0.179 C 
ATOM     30  C   UNL     1      63.773  13.878  47.563  1.00  0.00     0.177 C 
BRANCH  26  31
ATOM     31  O   UNL     1      67.441  14.241  47.797  1.00  0.00    -0.384 OA
ATOM     32  H   UNL     1      67.899  15.035  47.416  1.00  0.00     0.211 HD
ENDBRANCH  26  31
BRANCH  28  33
ATOM     33  O   UNL     1      65.372  13.844  49.355  1.00  0.00    -0.387 OA
ATOM     34  H   UNL     1      66.354  13.844  49.509  1.00  0.00     0.211 HD
ENDBRANCH  28  33
BRANCH  29  35
ATOM     35  C   UNL     1      62.500  15.993  46.810  1.00  0.00     0.191 C 
BRANCH  35  36
ATOM     36  O   UNL     1      62.107  15.108  45.798  1.00  0.00    -0.394 OA
ATOM     37  H   UNL     1      62.183  15.610  44.945  1.00  0.00     0.210 HD
ENDBRANCH  35  36
ENDBRANCH  29  35
BRANCH  30  38
ATOM     38  O   UNL     1      62.808  13.292  48.402  1.00  0.00    -0.387 OA
ATOM     39  H   UNL     1      61.920  13.591  48.074  1.00  0.00     0.211 HD
ENDBRANCH  30  38
ENDBRANCH   1  25
TORSDOF 11
ENDMDL
MODEL 7
REMARK VINA RESULT:    -5.108      9.706     12.510
REMARK INTER + INTRA:          -8.482
REMARK INTER:                  -7.557
REMARK INTRA:                  -0.924
REMARK UNBOUND:                -1.135
REMARK SMILES O=c1cc(-c2ccc(O)c(O)c2)oc2cc(O[C@H]3O[C@@H](CO)[C@H](O)[C@H](O)[C@@H]3O)cc(O)c12
REMARK SMILES IDX 17 1 16 2 4 3 3 4 13 5 2 6 14 7 1 8 32 9 15 10 30 11 29 12
REMARK SMILES IDX 5 13 6 14 7 15 8 16 12 17 10 18 9 19 11 21 31 23 18 25 27 26
REMARK SMILES IDX 19 27 25 28 20 29 23 30 28 31 26 33 21 35 22 36 24 38
REMARK H PARENT 9 20 11 22 31 24 28 32 26 34 22 37 24 39
REMARK Flexibility Score: inf
ROOT
ATOM      1  O   UNL     1      71.536   0.177  36.211  1.00  0.00    -0.462 OA
ENDROOT
BRANCH   1   2
ATOM      2  C   UNL     1      71.921   0.022  37.553  1.00  0.00     0.130 A 
ATOM      3  C   UNL     1      70.475  -0.990  41.979  1.00  0.00     0.138 A 
ATOM      4  C   UNL     1      71.760  -0.821  42.514  1.00  0.00     0.100 A 
ATOM      5  O   UNL     1      70.277  -0.786  40.681  1.00  0.00    -0.456 OA
ATOM      6  C   UNL     1      72.816  -0.474  41.673  1.00  0.00     0.197 A 
ATOM      7  C   UNL     1      71.251  -0.473  39.832  1.00  0.00     0.146 A 
ATOM      8  O   UNL     1      73.941  -0.254  42.191  1.00  0.00    -0.289 OA
ATOM      9  C   UNL     1      72.592  -0.343  40.281  1.00  0.00     0.107 A 
ATOM     10  C   UNL     1      70.931  -0.279  38.488  1.00  0.00     0.094 A 
ATOM     11  C   UNL     1      73.607  -0.067  39.320  1.00  0.00     0.134 A 
ATOM     12  C   UNL     1      73.254   0.138  37.981  1.00  0.00     0.093 A 
BRANCH   3  13
ATOM     13  C   UNL     1      69.321  -1.378  42.826  1.00  0.00     0.021 A 
ATOM     14  C   UNL     1      69.054  -2.738  43.057  1.00  0.00     0.016 A 
ATOM     15  C   UNL     1      67.990  -3.125  43.877  1.00  0.00     0.051 A 
ATOM     16  C   UNL     1      67.183  -2.159  44.487  1.00  0.00     0.157 A 
ATOM     17  C   UNL     1      68.509  -0.410  43.449  1.00  0.00     0.062 A 
ATOM     18  C   UNL     1      67.445  -0.799  44.273  1.00  0.00     0.158 A 
BRANCH  16  19
ATOM     19  O   UNL     1      66.125  -2.540  45.308  1.00  0.00    -0.504 OA
ATOM     20  H   UNL     1      65.573  -1.856  45.815  1.00  0.00     0.293 HD
ENDBRANCH  16  19
BRANCH  18  21
ATOM     21  O   UNL     1      66.645   0.161  44.891  1.00  0.00    -0.504 OA
ATOM     22  H   UNL     1      65.661  -0.003  45.076  1.00  0.00     0.293 HD
ENDBRANCH  18  21
ENDBRANCH   3  13
BRANCH  11  23
ATOM     23  O   UNL     1      74.973  -0.021  39.620  1.00  0.00    -0.507 OA
ATOM     24  H   UNL     1      75.614  -0.791  39.496  1.00  0.00     0.293 HD
ENDBRANCH  11  23
ENDBRANCH   1   2
BRANCH   1  25
ATOM     25  C   UNL     1      72.414   0.136  35.083  1.00  0.00     0.339 C 
ATOM     26  C   UNL     1      72.427   1.490  34.324  1.00  0.00     0.214 C 
ATOM     27  O   UNL     1      72.074  -0.958  34.242  1.00  0.00    -0.332 OA
ATOM     28  C   UNL     1      71.440   1.512  33.135  1.00  0.00     0.180 C 
ATOM     29  C   UNL     1      70.789  -0.865  33.629  1.00  0.00     0.179 C 
ATOM     30  C   UNL     1      70.259   0.582  33.425  1.00  0.00     0.177 C 
BRANCH  26  31
ATOM     31  O   UNL     1      73.732   1.760  33.869  1.00  0.00    -0.384 OA
ATOM     32  H   UNL     1      74.208   2.251  34.589  1.00  0.00     0.211 HD
ENDBRANCH  26  31
BRANCH  28  33
ATOM     33  O   UNL     1      72.077   1.106  31.945  1.00  0.00    -0.387 OA
ATOM     34  H   UNL     1      72.983   1.516  31.949  1.00  0.00     0.211 HD
ENDBRANCH  28  33
BRANCH  29  35
ATOM     35  C   UNL     1      69.774  -1.788  34.325  1.00  0.00     0.191 C 
BRANCH  35  36
ATOM     36  O   UNL     1      68.558  -1.826  33.631  1.00  0.00    -0.394 OA
ATOM     37  H   UNL     1      68.742  -1.452  32.730  1.00  0.00     0.210 HD
ENDBRANCH  35  36
ENDBRANCH  29  35
BRANCH  30  38
ATOM     38  O   UNL     1      69.358   0.629  32.347  1.00  0.00    -0.387 OA
ATOM     39  H   UNL     1      68.453   0.461  32.719  1.00  0.00     0.211 HD
ENDBRANCH  30  38
ENDBRANCH   1  25
TORSDOF 11
ENDMDL
MODEL 8
REMARK VINA RESULT:    -5.097     11.771     15.819
REMARK INTER + INTRA:          -8.467
REMARK INTER:                  -7.288
REMARK INTRA:                  -1.179
REMARK UNBOUND:                -1.135
REMARK SMILES O=c1cc(-c2ccc(O)c(O)c2)oc2cc(O[C@H]3O[C@@H](CO)[C@H](O)[C@H](O)[C@@H]3O)cc(O)c12
REMARK SMILES IDX 17 1 16 2 4 3 3 4 13 5 2 6 14 7 1 8 32 9 15 10 30 11 29 12
REMARK SMILES IDX 5 13 6 14 7 15 8 16 12 17 10 18 9 19 11 21 31 23 18 25 27 26
REMARK SMILES IDX 19 27 25 28 20 29 23 30 28 31 26 33 21 35 22 36 24 38
REMARK H PARENT 9 20 11 22 31 24 28 32 26 34 22 37 24 39
REMARK Flexibility Score: inf
ROOT
ATOM      1  O   UNL     1      65.764  13.919  36.488  1.00  0.00    -0.462 OA
ENDROOT
BRANCH   1   2
ATOM      2  C   UNL     1      66.200  14.440  37.718  1.00  0.00     0.130 A 
ATOM      3  C   UNL     1      65.086  15.242  42.280  1.00  0.00     0.138 A 
ATOM      4  C   UNL     1      66.319  15.851  42.549  1.00  0.00     0.100 A 
ATOM      5  O   UNL     1      64.822  14.816  41.049  1.00  0.00    -0.456 OA
ATOM      6  C   UNL     1      67.265  15.972  41.531  1.00  0.00     0.197 A 
ATOM      7  C   UNL     1      65.694  14.889  40.048  1.00  0.00     0.146 A 
ATOM      8  O   UNL     1      68.331  16.590  41.781  1.00  0.00    -0.289 OA
ATOM      9  C   UNL     1      66.989  15.435  40.250  1.00  0.00     0.107 A 
ATOM     10  C   UNL     1      65.313  14.412  38.793  1.00  0.00     0.094 A 
ATOM     11  C   UNL     1      67.906  15.433  39.159  1.00  0.00     0.134 A 
ATOM     12  C   UNL     1      67.490  14.963  37.907  1.00  0.00     0.093 A 
BRANCH   3  13
ATOM     13  C   UNL     1      64.054  15.072  43.331  1.00  0.00     0.021 A 
ATOM     14  C   UNL     1      64.413  15.194  44.685  1.00  0.00     0.016 A 
ATOM     15  C   UNL     1      63.451  15.068  45.690  1.00  0.00     0.051 A 
ATOM     16  C   UNL     1      62.113  14.828  45.360  1.00  0.00     0.157 A 
ATOM     17  C   UNL     1      62.704  14.836  43.006  1.00  0.00     0.062 A 
ATOM     18  C   UNL     1      61.739  14.713  44.014  1.00  0.00     0.158 A 
BRANCH  16  19
ATOM     19  O   UNL     1      61.151  14.705  46.359  1.00  0.00    -0.504 OA
ATOM     20  H   UNL     1      61.097  13.879  46.946  1.00  0.00     0.293 HD
ENDBRANCH  16  19
BRANCH  18  21
ATOM     21  O   UNL     1      60.403  14.483  43.688  1.00  0.00    -0.504 OA
ATOM     22  H   UNL     1      59.722  14.215  44.390  1.00  0.00     0.293 HD
ENDBRANCH  18  21
ENDBRANCH   3  13
BRANCH  11  23
ATOM     23  O   UNL     1      69.239  15.845  39.261  1.00  0.00    -0.507 OA
ATOM     24  H   UNL     1      69.540  16.725  39.655  1.00  0.00     0.293 HD
ENDBRANCH  11  23
ENDBRANCH   1   2
BRANCH   1  25
ATOM     25  C   UNL     1      65.549  14.673  35.293  1.00  0.00     0.339 C 
ATOM     26  C   UNL     1      65.014  16.096  35.608  1.00  0.00     0.214 C 
ATOM     27  O   UNL     1      64.700  13.955  34.409  1.00  0.00    -0.332 OA
ATOM     28  C   UNL     1      63.472  16.177  35.541  1.00  0.00     0.180 C 
ATOM     29  C   UNL     1      63.371  13.753  34.889  1.00  0.00     0.179 C 
ATOM     30  C   UNL     1      62.866  14.819  35.900  1.00  0.00     0.177 C 
BRANCH  26  31
ATOM     31  O   UNL     1      65.583  17.021  34.712  1.00  0.00    -0.384 OA
ATOM     32  H   UNL     1      66.465  16.664  34.427  1.00  0.00     0.211 HD
ENDBRANCH  26  31
BRANCH  28  33
ATOM     33  O   UNL     1      63.045  16.557  34.252  1.00  0.00    -0.387 OA
ATOM     34  H   UNL     1      63.697  17.230  33.919  1.00  0.00     0.211 HD
ENDBRANCH  28  33
BRANCH  29  35
ATOM     35  C   UNL     1      63.174  12.309  35.383  1.00  0.00     0.191 C 
BRANCH  35  36
ATOM     36  O   UNL     1      62.015  12.190  36.162  1.00  0.00    -0.394 OA
ATOM     37  H   UNL     1      61.290  12.632  35.648  1.00  0.00     0.210 HD
ENDBRANCH  35  36
ENDBRANCH  29  35
BRANCH  30  38
ATOM     38  O   UNL     1      61.464  14.912  35.858  1.00  0.00    -0.387 OA
ATOM     39  H   UNL     1      61.163  14.397  35.065  1.00  0.00     0.211 HD
ENDBRANCH  30  38
ENDBRANCH   1  25
TORSDOF 11
ENDMDL
MODEL 9
REMARK VINA RESULT:    -5.096      1.665      8.663
REMARK INTER + INTRA:          -8.465
REMARK INTER:                  -7.321
REMARK INTRA:                  -1.144
REMARK UNBOUND:                -1.135
REMARK SMILES O=c1cc(-c2ccc(O)c(O)c2)oc2cc(O[C@H]3O[C@@H](CO)[C@H](O)[C@H](O)[C@@H]3O)cc(O)c12
REMARK SMILES IDX 17 1 16 2 4 3 3 4 13 5 2 6 14 7 1 8 32 9 15 10 30 11 29 12
REMARK SMILES IDX 5 13 6 14 7 15 8 16 12 17 10 18 9 19 11 21 31 23 18 25 27 26
REMARK SMILES IDX 19 27 25 28 20 29 23 30 28 31 26 33 21 35 22 36 24 38
REMARK H PARENT 9 20 11 22 31 24 28 32 26 34 22 37 24 39
REMARK Flexibility Score: inf
ROOT
ATOM      1  O   UNL     1      61.648  -1.142  35.844  1.00  0.00    -0.462 OA
ENDROOT
BRANCH   1   2
ATOM      2  C   UNL     1      61.113  -0.550  34.688  1.00  0.00     0.130 A 
ATOM      3  C   UNL     1      60.809   3.416  32.064  1.00  0.00     0.138 A 
ATOM      4  C   UNL     1      59.968   2.812  31.119  1.00  0.00     0.100 A 
ATOM      5  O   UNL     1      61.214   2.716  33.119  1.00  0.00    -0.456 OA
ATOM      6  C   UNL     1      59.595   1.477  31.281  1.00  0.00     0.197 A 
ATOM      7  C   UNL     1      60.905   1.437  33.310  1.00  0.00     0.146 A 
ATOM      8  O   UNL     1      58.780   0.985  30.461  1.00  0.00    -0.289 OA
ATOM      9  C   UNL     1      60.109   0.733  32.370  1.00  0.00     0.107 A 
ATOM     10  C   UNL     1      61.385   0.797  34.455  1.00  0.00     0.094 A 
ATOM     11  C   UNL     1      59.859  -0.653  32.592  1.00  0.00     0.134 A 
ATOM     12  C   UNL     1      60.339  -1.263  33.757  1.00  0.00     0.093 A 
BRANCH   3  13
ATOM     13  C   UNL     1      61.249   4.825  31.929  1.00  0.00     0.021 A 
ATOM     14  C   UNL     1      60.513   5.709  31.121  1.00  0.00     0.016 A 
ATOM     15  C   UNL     1      60.893   7.049  31.004  1.00  0.00     0.051 A 
ATOM     16  C   UNL     1      62.007   7.530  31.700  1.00  0.00     0.157 A 
ATOM     17  C   UNL     1      62.366   5.317  32.632  1.00  0.00     0.062 A 
ATOM     18  C   UNL     1      62.744   6.662  32.517  1.00  0.00     0.158 A 
BRANCH  16  19
ATOM     19  O   UNL     1      62.386   8.865  31.589  1.00  0.00    -0.504 OA
ATOM     20  H   UNL     1      62.938   9.197  30.805  1.00  0.00     0.293 HD
ENDBRANCH  16  19
BRANCH  18  21
ATOM     21  O   UNL     1      63.847   7.146  33.218  1.00  0.00    -0.504 OA
ATOM     22  H   UNL     1      64.692   6.595  33.329  1.00  0.00     0.293 HD
ENDBRANCH  18  21
ENDBRANCH   3  13
BRANCH  11  23
ATOM     23  O   UNL     1      59.180  -1.477  31.688  1.00  0.00    -0.507 OA
ATOM     24  H   UNL     1      59.499  -2.389  31.393  1.00  0.00     0.293 HD
ENDBRANCH  11  23
ENDBRANCH   1   2
BRANCH   1  25
ATOM     25  C   UNL     1      61.170  -2.336  36.467  1.00  0.00     0.339 C 
ATOM     26  C   UNL     1      60.042  -2.032  37.488  1.00  0.00     0.214 C 
ATOM     27  O   UNL     1      62.253  -3.050  37.047  1.00  0.00    -0.332 OA
ATOM     28  C   UNL     1      60.573  -1.888  38.932  1.00  0.00     0.180 C 
ATOM     29  C   UNL     1      62.902  -2.380  38.126  1.00  0.00     0.179 C 
ATOM     30  C   UNL     1      62.012  -1.371  38.906  1.00  0.00     0.177 C 
BRANCH  26  31
ATOM     31  O   UNL     1      59.071  -3.050  37.432  1.00  0.00    -0.384 OA
ATOM     32  H   UNL     1      58.867  -3.326  38.364  1.00  0.00     0.211 HD
ENDBRANCH  26  31
BRANCH  28  33
ATOM     33  O   UNL     1      60.530  -3.125  39.608  1.00  0.00    -0.387 OA
ATOM     34  H   UNL     1      59.803  -3.658  39.188  1.00  0.00     0.211 HD
ENDBRANCH  28  33
BRANCH  29  35
ATOM     35  C   UNL     1      64.246  -1.780  37.678  1.00  0.00     0.191 C 
BRANCH  35  36
ATOM     36  O   UNL     1      64.165  -0.389  37.543  1.00  0.00    -0.394 OA
ATOM     37  H   UNL     1      65.007  -0.104  37.100  1.00  0.00     0.210 HD
ENDBRANCH  35  36
ENDBRANCH  29  35
BRANCH  30  38
ATOM     38  O   UNL     1      62.476  -1.223  40.224  1.00  0.00    -0.387 OA
ATOM     39  H   UNL     1      61.782  -0.716  40.720  1.00  0.00     0.211 HD
ENDBRANCH  30  38
ENDBRANCH   1  25
TORSDOF 11
ENDMDL
