MODEL 1
REMARK VINA RESULT:    -5.730      0.000      0.000
REMARK INTER + INTRA:         -11.545
REMARK INTER:                 -10.419
REMARK INTRA:                  -1.126
REMARK UNBOUND:                -1.126
REMARK SMILES CCCCCCCCCCCCCCCC(=O)[O-]
REMARK SMILES IDX 9 1 10 2 11 3 12 4 13 5 14 6 15 7 16 8 17 9 18 10 8 11 7 12
REMARK SMILES IDX 6 13 5 14 4 15 3 16 2 17 1 18
REMARK H PARENT
REMARK Flexibility Score: inf
ROOT
ATOM      1  C   UNL     1      85.916 325.741 193.635  1.00  0.00     0.000 C 
ENDROOT
BRANCH   1   2
ATOM      2  C   UNL     1      86.645 324.523 193.041  1.00  0.00     0.000 C 
BRANCH   2   3
ATOM      3  C   UNL     1      88.138 324.748 192.727  1.00  0.00     0.000 C 
BRANCH   3   4
ATOM      4  C   UNL     1      88.515 324.635 191.236  1.00  0.00     0.000 C 
BRANCH   4   5
ATOM      5  C   UNL     1      87.768 323.534 190.456  1.00  0.00     0.000 C 
BRANCH   5   6
ATOM      6  C   UNL     1      88.475 323.049 189.178  1.00  0.00     0.006 C 
BRANCH   6   7
ATOM      7  C   UNL     1      89.677 323.921 188.795  1.00  0.00     0.053 C 
BRANCH   7   8
ATOM      8  C   UNL     1      90.766 323.080 188.205  1.00  0.00     0.041 C 
ATOM      9  O   UNL     1      90.485 322.004 187.616  1.00  0.00    -0.550 OA
ATOM     10  O   UNL     1      92.094 323.461 188.349  1.00  0.00    -0.550 OA
ENDBRANCH   7   8
ENDBRANCH   6   7
ENDBRANCH   5   6
ENDBRANCH   4   5
ENDBRANCH   3   4
ENDBRANCH   2   3
ENDBRANCH   1   2
BRANCH   1  11
ATOM     11  C   UNL     1      86.867 326.732 194.321  1.00  0.00     0.000 C 
BRANCH  11  12
ATOM     12  C   UNL     1      86.916 326.489 195.834  1.00  0.00    -0.000 C 
BRANCH  12  13
ATOM     13  C   UNL     1      88.363 326.452 196.340  1.00  0.00    -0.000 C 
BRANCH  13  14
ATOM     14  C   UNL     1      88.918 325.020 196.318  1.00  0.00    -0.000 C 
BRANCH  14  15
ATOM     15  C   UNL     1      88.664 324.256 197.630  1.00  0.00    -0.000 C 
BRANCH  15  16
ATOM     16  C   UNL     1      89.653 324.570 198.766  1.00  0.00    -0.000 C 
BRANCH  16  17
ATOM     17  C   UNL     1      89.035 325.434 199.876  1.00  0.00    -0.003 C 
ATOM     18  C   UNL     1      89.824 326.726 200.069  1.00  0.00     0.004 C 
ENDBRANCH  16  17
ENDBRANCH  15  16
ENDBRANCH  14  15
ENDBRANCH  13  14
ENDBRANCH  12  13
ENDBRANCH  11  12
ENDBRANCH   1  11
TORSDOF 14
ENDMDL
MODEL 2
REMARK VINA RESULT:    -5.650      6.514     11.050
REMARK INTER + INTRA:         -11.400
REMARK INTER:                 -10.827
REMARK INTRA:                  -0.572
REMARK UNBOUND:                -1.126
REMARK SMILES CCCCCCCCCCCCCCCC(=O)[O-]
REMARK SMILES IDX 9 1 10 2 11 3 12 4 13 5 14 6 15 7 16 8 17 9 18 10 8 11 7 12
REMARK SMILES IDX 6 13 5 14 4 15 3 16 2 17 1 18
REMARK H PARENT
REMARK Flexibility Score: inf
ROOT
ATOM      1  C   UNL     1      88.873 325.104 197.346  1.00  0.00     0.000 C 
ENDROOT
BRANCH   1   2
ATOM      2  C   UNL     1      89.362 325.116 198.805  1.00  0.00     0.000 C 
BRANCH   2   3
ATOM      3  C   UNL     1      89.242 326.477 199.521  1.00  0.00     0.000 C 
BRANCH   3   4
ATOM      4  C   UNL     1      90.076 326.612 200.810  1.00  0.00     0.000 C 
BRANCH   4   5
ATOM      5  C   UNL     1      89.256 326.658 202.116  1.00  0.00     0.000 C 
BRANCH   5   6
ATOM      6  C   UNL     1      89.931 327.403 203.281  1.00  0.00     0.006 C 
BRANCH   6   7
ATOM      7  C   UNL     1      89.079 327.410 204.556  1.00  0.00     0.053 C 
BRANCH   7   8
ATOM      8  C   UNL     1      89.955 327.452 205.769  1.00  0.00     0.041 C 
ATOM      9  O   UNL     1      91.110 327.948 205.699  1.00  0.00    -0.550 OA
ATOM     10  O   UNL     1      89.514 326.899 206.965  1.00  0.00    -0.550 OA
ENDBRANCH   7   8
ENDBRANCH   6   7
ENDBRANCH   5   6
ENDBRANCH   4   5
ENDBRANCH   3   4
ENDBRANCH   2   3
ENDBRANCH   1   2
BRANCH   1  11
ATOM     11  C   UNL     1      88.373 326.476 196.872  1.00  0.00     0.000 C 
BRANCH  11  12
ATOM     12  C   UNL     1      88.271 326.525 195.343  1.00  0.00    -0.000 C 
BRANCH  12  13
ATOM     13  C   UNL     1      86.812 326.413 194.884  1.00  0.00    -0.000 C 
BRANCH  13  14
ATOM     14  C   UNL     1      86.710 325.649 193.556  1.00  0.00    -0.000 C 
BRANCH  14  15
ATOM     15  C   UNL     1      88.056 325.546 192.816  1.00  0.00    -0.000 C 
BRANCH  15  16
ATOM     16  C   UNL     1      88.387 324.149 192.262  1.00  0.00    -0.000 C 
BRANCH  16  17
ATOM     17  C   UNL     1      88.497 324.123 190.730  1.00  0.00    -0.003 C 
ATOM     18  C   UNL     1      87.524 323.114 190.127  1.00  0.00     0.004 C 
ENDBRANCH  16  17
ENDBRANCH  15  16
ENDBRANCH  14  15
ENDBRANCH  13  14
ENDBRANCH  12  13
ENDBRANCH  11  12
ENDBRANCH   1  11
TORSDOF 14
ENDMDL
MODEL 3
REMARK VINA RESULT:    -5.577     20.246     22.413
REMARK INTER + INTRA:         -11.268
REMARK INTER:                 -10.256
REMARK INTRA:                  -1.012
REMARK UNBOUND:                -1.126
REMARK SMILES CCCCCCCCCCCCCCCC(=O)[O-]
REMARK SMILES IDX 9 1 10 2 11 3 12 4 13 5 14 6 15 7 16 8 17 9 18 10 8 11 7 12
REMARK SMILES IDX 6 13 5 14 4 15 3 16 2 17 1 18
REMARK H PARENT
REMARK Flexibility Score: inf
ROOT
ATOM      1  C   UNL     1     103.826 313.394 197.559  1.00  0.00     0.000 C 
ENDROOT
BRANCH   1   2
ATOM      2  C   UNL     1     103.936 311.973 198.138  1.00  0.00     0.000 C 
BRANCH   2   3
ATOM      3  C   UNL     1     103.812 311.884 199.673  1.00  0.00     0.000 C 
BRANCH   3   4
ATOM      4  C   UNL     1     102.420 311.472 200.192  1.00  0.00     0.000 C 
BRANCH   4   5
ATOM      5  C   UNL     1     102.348 311.181 201.705  1.00  0.00     0.000 C 
BRANCH   5   6
ATOM      6  C   UNL     1     103.463 311.829 202.545  1.00  0.00     0.006 C 
BRANCH   6   7
ATOM      7  C   UNL     1     104.304 310.800 203.313  1.00  0.00     0.053 C 
BRANCH   7   8
ATOM      8  C   UNL     1     103.989 310.856 204.775  1.00  0.00     0.041 C 
ATOM      9  O   UNL     1     104.876 311.198 205.601  1.00  0.00    -0.550 OA
ATOM     10  O   UNL     1     102.731 310.483 205.230  1.00  0.00    -0.550 OA
ENDBRANCH   7   8
ENDBRANCH   6   7
ENDBRANCH   5   6
ENDBRANCH   4   5
ENDBRANCH   3   4
ENDBRANCH   2   3
ENDBRANCH   1   2
BRANCH   1  11
ATOM     11  C   UNL     1     104.246 313.473 196.084  1.00  0.00     0.000 C 
BRANCH  11  12
ATOM     12  C   UNL     1     104.380 312.072 195.476  1.00  0.00    -0.000 C 
BRANCH  12  13
ATOM     13  C   UNL     1     105.787 311.848 194.910  1.00  0.00    -0.000 C 
BRANCH  13  14
ATOM     14  C   UNL     1     105.735 311.549 193.405  1.00  0.00    -0.000 C 
BRANCH  14  15
ATOM     15  C   UNL     1     104.362 311.855 192.779  1.00  0.00    -0.000 C 
BRANCH  15  16
ATOM     16  C   UNL     1     104.320 313.110 191.889  1.00  0.00    -0.000 C 
BRANCH  16  17
ATOM     17  C   UNL     1     105.704 313.742 191.678  1.00  0.00    -0.003 C 
ATOM     18  C   UNL     1     105.805 315.092 192.382  1.00  0.00     0.004 C 
ENDBRANCH  16  17
ENDBRANCH  15  16
ENDBRANCH  14  15
ENDBRANCH  13  14
ENDBRANCH  12  13
ENDBRANCH  11  12
ENDBRANCH   1  11
TORSDOF 14
ENDMDL
MODEL 4
REMARK VINA RESULT:    -5.552      4.778      9.026
REMARK INTER + INTRA:         -11.222
REMARK INTER:                 -10.347
REMARK INTRA:                  -0.876
REMARK UNBOUND:                -1.126
REMARK SMILES CCCCCCCCCCCCCCCC(=O)[O-]
REMARK SMILES IDX 9 1 10 2 11 3 12 4 13 5 14 6 15 7 16 8 17 9 18 10 8 11 7 12
REMARK SMILES IDX 6 13 5 14 4 15 3 16 2 17 1 18
REMARK H PARENT
REMARK Flexibility Score: inf
ROOT
ATOM      1  C   UNL     1      86.383 326.973 195.081  1.00  0.00     0.000 C 
ENDROOT
BRANCH   1   2
ATOM      2  C   UNL     1      87.074 326.508 196.375  1.00  0.00     0.000 C 
BRANCH   2   3
ATOM      3  C   UNL     1      88.589 326.246 196.247  1.00  0.00     0.000 C 
BRANCH   3   4
ATOM      4  C   UNL     1      89.082 324.938 196.895  1.00  0.00     0.000 C 
BRANCH   4   5
ATOM      5  C   UNL     1      88.929 324.871 198.428  1.00  0.00     0.000 C 
BRANCH   5   6
ATOM      6  C   UNL     1      89.327 326.155 199.177  1.00  0.00     0.006 C 
BRANCH   6   7
ATOM      7  C   UNL     1      88.941 326.123 200.661  1.00  0.00     0.053 C 
BRANCH   7   8
ATOM      8  C   UNL     1      90.017 326.746 201.494  1.00  0.00     0.041 C 
ATOM      9  O   UNL     1      91.107 327.089 200.967  1.00  0.00    -0.550 OA
ATOM     10  O   UNL     1      89.835 326.900 202.863  1.00  0.00    -0.550 OA
ENDBRANCH   7   8
ENDBRANCH   6   7
ENDBRANCH   5   6
ENDBRANCH   4   5
ENDBRANCH   3   4
ENDBRANCH   2   3
ENDBRANCH   1   2
BRANCH   1  11
ATOM     11  C   UNL     1      86.949 326.295 193.824  1.00  0.00     0.000 C 
BRANCH  11  12
ATOM     12  C   UNL     1      85.958 325.268 193.263  1.00  0.00    -0.000 C 
BRANCH  12  13
ATOM     13  C   UNL     1      86.659 324.287 192.316  1.00  0.00    -0.000 C 
BRANCH  13  14
ATOM     14  C   UNL     1      88.132 324.672 192.114  1.00  0.00    -0.000 C 
BRANCH  14  15
ATOM     15  C   UNL     1      88.825 323.844 191.016  1.00  0.00    -0.000 C 
BRANCH  15  16
ATOM     16  C   UNL     1      87.878 323.242 189.962  1.00  0.00    -0.000 C 
BRANCH  16  17
ATOM     17  C   UNL     1      88.602 322.825 188.674  1.00  0.00    -0.003 C 
ATOM     18  C   UNL     1      89.891 323.620 188.485  1.00  0.00     0.004 C 
ENDBRANCH  16  17
ENDBRANCH  15  16
ENDBRANCH  14  15
ENDBRANCH  13  14
ENDBRANCH  12  13
ENDBRANCH  11  12
ENDBRANCH   1  11
TORSDOF 14
ENDMDL
MODEL 5
REMARK VINA RESULT:    -5.510     18.944     21.537
REMARK INTER + INTRA:         -11.145
REMARK INTER:                 -10.344
REMARK INTRA:                  -0.801
REMARK UNBOUND:                -1.126
REMARK SMILES CCCCCCCCCCCCCCCC(=O)[O-]
REMARK SMILES IDX 9 1 10 2 11 3 12 4 13 5 14 6 15 7 16 8 17 9 18 10 8 11 7 12
REMARK SMILES IDX 6 13 5 14 4 15 3 16 2 17 1 18
REMARK H PARENT
REMARK Flexibility Score: inf
ROOT
ATOM      1  C   UNL     1     105.625 312.278 195.091  1.00  0.00     0.000 C 
ENDROOT
BRANCH   1   2
ATOM      2  C   UNL     1     104.205 311.976 195.602  1.00  0.00     0.000 C 
BRANCH   2   3
ATOM      3  C   UNL     1     104.141 311.297 196.986  1.00  0.00     0.000 C 
BRANCH   3   4
ATOM      4  C   UNL     1     103.789 312.235 198.157  1.00  0.00     0.000 C 
BRANCH   4   5
ATOM      5  C   UNL     1     103.490 311.525 199.493  1.00  0.00     0.000 C 
BRANCH   5   6
ATOM      6  C   UNL     1     102.376 312.171 200.337  1.00  0.00     0.006 C 
BRANCH   6   7
ATOM      7  C   UNL     1     101.474 311.137 201.024  1.00  0.00     0.053 C 
BRANCH   7   8
ATOM      8  C   UNL     1     101.788 311.060 202.485  1.00  0.00     0.041 C 
ATOM      9  O   UNL     1     102.838 310.488 202.878  1.00  0.00    -0.550 OA
ATOM     10  O   UNL     1     100.895 311.577 203.416  1.00  0.00    -0.550 OA
ENDBRANCH   7   8
ENDBRANCH   6   7
ENDBRANCH   5   6
ENDBRANCH   4   5
ENDBRANCH   3   4
ENDBRANCH   2   3
ENDBRANCH   1   2
BRANCH   1  11
ATOM     11  C   UNL     1     105.830 311.876 193.624  1.00  0.00     0.000 C 
BRANCH  11  12
ATOM     12  C   UNL     1     104.489 311.781 192.888  1.00  0.00    -0.000 C 
BRANCH  12  13
ATOM     13  C   UNL     1     104.410 312.807 191.751  1.00  0.00    -0.000 C 
BRANCH  13  14
ATOM     14  C   UNL     1     103.958 314.178 192.275  1.00  0.00    -0.000 C 
BRANCH  14  15
ATOM     15  C   UNL     1     103.591 315.161 191.148  1.00  0.00    -0.000 C 
BRANCH  15  16
ATOM     16  C   UNL     1     103.594 314.557 189.733  1.00  0.00    -0.000 C 
BRANCH  16  17
ATOM     17  C   UNL     1     104.483 315.335 188.751  1.00  0.00    -0.003 C 
ATOM     18  C   UNL     1     105.830 315.676 189.381  1.00  0.00     0.004 C 
ENDBRANCH  16  17
ENDBRANCH  15  16
ENDBRANCH  14  15
ENDBRANCH  13  14
ENDBRANCH  12  13
ENDBRANCH  11  12
ENDBRANCH   1  11
TORSDOF 14
ENDMDL
MODEL 6
REMARK VINA RESULT:    -5.477      2.885      6.891
REMARK INTER + INTRA:         -11.086
REMARK INTER:                  -9.246
REMARK INTRA:                  -1.840
REMARK UNBOUND:                -1.126
REMARK SMILES CCCCCCCCCCCCCCCC(=O)[O-]
REMARK SMILES IDX 9 1 10 2 11 3 12 4 13 5 14 6 15 7 16 8 17 9 18 10 8 11 7 12
REMARK SMILES IDX 6 13 5 14 4 15 3 16 2 17 1 18
REMARK H PARENT
REMARK Flexibility Score: inf
ROOT
ATOM      1  C   UNL     1      86.666 326.511 194.942  1.00  0.00     0.000 C 
ENDROOT
BRANCH   1   2
ATOM      2  C   UNL     1      87.021 326.719 196.425  1.00  0.00     0.000 C 
BRANCH   2   3
ATOM      3  C   UNL     1      88.507 326.503 196.776  1.00  0.00     0.000 C 
BRANCH   3   4
ATOM      4  C   UNL     1      88.816 325.199 197.537  1.00  0.00     0.000 C 
BRANCH   4   5
ATOM      5  C   UNL     1      89.396 324.061 196.673  1.00  0.00     0.000 C 
BRANCH   5   6
ATOM      6  C   UNL     1      88.358 323.266 195.862  1.00  0.00     0.006 C 
BRANCH   6   7
ATOM      7  C   UNL     1      88.982 322.485 194.698  1.00  0.00     0.053 C 
BRANCH   7   8
ATOM      8  C   UNL     1      88.175 321.260 194.400  1.00  0.00     0.041 C 
ATOM      9  O   UNL     1      88.727 320.129 194.377  1.00  0.00    -0.550 OA
ATOM     10  O   UNL     1      86.824 321.373 194.098  1.00  0.00    -0.550 OA
ENDBRANCH   7   8
ENDBRANCH   6   7
ENDBRANCH   5   6
ENDBRANCH   4   5
ENDBRANCH   3   4
ENDBRANCH   2   3
ENDBRANCH   1   2
BRANCH   1  11
ATOM     11  C   UNL     1      87.818 326.880 193.995  1.00  0.00     0.000 C 
BRANCH  11  12
ATOM     12  C   UNL     1      88.115 325.734 193.021  1.00  0.00    -0.000 C 
BRANCH  12  13
ATOM     13  C   UNL     1      86.893 324.824 192.850  1.00  0.00    -0.000 C 
BRANCH  13  14
ATOM     14  C   UNL     1      87.048 323.918 191.620  1.00  0.00    -0.000 C 
BRANCH  14  15
ATOM     15  C   UNL     1      88.408 324.086 190.918  1.00  0.00    -0.000 C 
BRANCH  15  16
ATOM     16  C   UNL     1      88.511 323.420 189.534  1.00  0.00    -0.000 C 
BRANCH  16  17
ATOM     17  C   UNL     1      87.594 322.197 189.388  1.00  0.00    -0.003 C 
ATOM     18  C   UNL     1      87.081 322.062 187.957  1.00  0.00     0.004 C 
ENDBRANCH  16  17
ENDBRANCH  15  16
ENDBRANCH  14  15
ENDBRANCH  13  14
ENDBRANCH  12  13
ENDBRANCH  11  12
ENDBRANCH   1  11
TORSDOF 14
ENDMDL
MODEL 7
REMARK VINA RESULT:    -5.465      3.510      7.652
REMARK INTER + INTRA:         -11.064
REMARK INTER:                  -9.289
REMARK INTRA:                  -1.775
REMARK UNBOUND:                -1.126
REMARK SMILES CCCCCCCCCCCCCCCC(=O)[O-]
REMARK SMILES IDX 9 1 10 2 11 3 12 4 13 5 14 6 15 7 16 8 17 9 18 10 8 11 7 12
REMARK SMILES IDX 6 13 5 14 4 15 3 16 2 17 1 18
REMARK H PARENT
REMARK Flexibility Score: inf
ROOT
ATOM      1  C   UNL     1      88.135 325.378 192.525  1.00  0.00     0.000 C 
ENDROOT
BRANCH   1   2
ATOM      2  C   UNL     1      88.149 326.472 193.608  1.00  0.00     0.000 C 
BRANCH   2   3
ATOM      3  C   UNL     1      86.841 326.604 194.415  1.00  0.00     0.000 C 
BRANCH   3   4
ATOM      4  C   UNL     1      86.995 326.431 195.939  1.00  0.00     0.000 C 
BRANCH   4   5
ATOM      5  C   UNL     1      88.435 326.575 196.470  1.00  0.00     0.000 C 
BRANCH   5   6
ATOM      6  C   UNL     1      88.839 325.545 197.540  1.00  0.00     0.006 C 
BRANCH   6   7
ATOM      7  C   UNL     1      89.430 324.263 196.940  1.00  0.00     0.053 C 
BRANCH   7   8
ATOM      8  C   UNL     1      88.565 323.087 197.268  1.00  0.00     0.041 C 
ATOM      9  O   UNL     1      88.125 322.349 196.348  1.00  0.00    -0.550 OA
ATOM     10  O   UNL     1      88.205 322.834 198.586  1.00  0.00    -0.550 OA
ENDBRANCH   7   8
ENDBRANCH   6   7
ENDBRANCH   5   6
ENDBRANCH   4   5
ENDBRANCH   3   4
ENDBRANCH   2   3
ENDBRANCH   1   2
BRANCH   1  11
ATOM     11  C   UNL     1      88.334 323.967 193.097  1.00  0.00     0.000 C 
BRANCH  11  12
ATOM     12  C   UNL     1      87.067 323.122 192.926  1.00  0.00    -0.000 C 
BRANCH  12  13
ATOM     13  C   UNL     1      86.250 323.591 191.716  1.00  0.00    -0.000 C 
BRANCH  13  14
ATOM     14  C   UNL     1      86.108 322.467 190.679  1.00  0.00    -0.000 C 
BRANCH  14  15
ATOM     15  C   UNL     1      87.435 322.125 189.977  1.00  0.00    -0.000 C 
BRANCH  15  16
ATOM     16  C   UNL     1      87.938 323.190 188.986  1.00  0.00    -0.000 C 
BRANCH  16  17
ATOM     17  C   UNL     1      89.283 323.805 189.400  1.00  0.00    -0.003 C 
ATOM     18  C   UNL     1      90.450 322.945 188.924  1.00  0.00     0.004 C 
ENDBRANCH  16  17
ENDBRANCH  15  16
ENDBRANCH  14  15
ENDBRANCH  13  14
ENDBRANCH  12  13
ENDBRANCH  11  12
ENDBRANCH   1  11
TORSDOF 14
ENDMDL
MODEL 8
REMARK VINA RESULT:    -5.441     18.113     20.809
REMARK INTER + INTRA:         -11.019
REMARK INTER:                  -9.410
REMARK INTRA:                  -1.609
REMARK UNBOUND:                -1.126
REMARK SMILES CCCCCCCCCCCCCCCC(=O)[O-]
REMARK SMILES IDX 9 1 10 2 11 3 12 4 13 5 14 6 15 7 16 8 17 9 18 10 8 11 7 12
REMARK SMILES IDX 6 13 5 14 4 15 3 16 2 17 1 18
REMARK H PARENT
REMARK Flexibility Score: inf
ROOT
ATOM      1  C   UNL     1     105.757 311.602 193.287  1.00  0.00     0.000 C 
ENDROOT
BRANCH   1   2
ATOM      2  C   UNL     1     105.716 311.800 194.812  1.00  0.00     0.000 C 
BRANCH   2   3
ATOM      3  C   UNL     1     104.308 312.022 195.402  1.00  0.00     0.000 C 
BRANCH   3   4
ATOM      4  C   UNL     1     104.236 312.006 196.942  1.00  0.00     0.000 C 
BRANCH   4   5
ATOM      5  C   UNL     1     103.955 313.374 197.596  1.00  0.00     0.000 C 
BRANCH   5   6
ATOM      6  C   UNL     1     103.403 313.307 199.032  1.00  0.00     0.006 C 
BRANCH   6   7
ATOM      7  C   UNL     1     104.237 312.403 199.949  1.00  0.00     0.053 C 
BRANCH   7   8
ATOM      8  C   UNL     1     103.344 311.537 200.781  1.00  0.00     0.041 C 
ATOM      9  O   UNL     1     102.214 311.192 200.347  1.00  0.00    -0.550 OA
ATOM     10  O   UNL     1     103.740 311.153 202.056  1.00  0.00    -0.550 OA
ENDBRANCH   7   8
ENDBRANCH   6   7
ENDBRANCH   5   6
ENDBRANCH   4   5
ENDBRANCH   3   4
ENDBRANCH   2   3
ENDBRANCH   1   2
BRANCH   1  11
ATOM     11  C   UNL     1     104.550 312.226 192.570  1.00  0.00     0.000 C 
BRANCH  11  12
ATOM     12  C   UNL     1     104.980 313.417 191.706  1.00  0.00    -0.000 C 
BRANCH  12  13
ATOM     13  C   UNL     1     103.922 313.738 190.644  1.00  0.00    -0.000 C 
BRANCH  13  14
ATOM     14  C   UNL     1     103.468 315.201 190.743  1.00  0.00    -0.000 C 
BRANCH  14  15
ATOM     15  C   UNL     1     104.160 315.969 191.884  1.00  0.00    -0.000 C 
BRANCH  15  16
ATOM     16  C   UNL     1     103.237 316.371 193.048  1.00  0.00    -0.000 C 
BRANCH  16  17
ATOM     17  C   UNL     1     103.501 315.565 194.328  1.00  0.00    -0.003 C 
ATOM     18  C   UNL     1     104.973 315.631 194.725  1.00  0.00     0.004 C 
ENDBRANCH  16  17
ENDBRANCH  15  16
ENDBRANCH  14  15
ENDBRANCH  13  14
ENDBRANCH  12  13
ENDBRANCH  11  12
ENDBRANCH   1  11
TORSDOF 14
ENDMDL
MODEL 9
REMARK VINA RESULT:    -5.433      3.475      7.737
REMARK INTER + INTRA:         -11.005
REMARK INTER:                  -9.325
REMARK INTRA:                  -1.680
REMARK UNBOUND:                -1.126
REMARK SMILES CCCCCCCCCCCCCCCC(=O)[O-]
REMARK SMILES IDX 9 1 10 2 11 3 12 4 13 5 14 6 15 7 16 8 17 9 18 10 8 11 7 12
REMARK SMILES IDX 6 13 5 14 4 15 3 16 2 17 1 18
REMARK H PARENT
REMARK Flexibility Score: inf
ROOT
ATOM      1  C   UNL     1      88.496 324.526 191.146  1.00  0.00     0.000 C 
ENDROOT
BRANCH   1   2
ATOM      2  C   UNL     1      88.078 324.641 192.622  1.00  0.00     0.000 C 
BRANCH   2   3
ATOM      3  C   UNL     1      86.568 324.471 192.887  1.00  0.00     0.000 C 
BRANCH   3   4
ATOM      4  C   UNL     1      85.875 325.693 193.522  1.00  0.00     0.000 C 
BRANCH   4   5
ATOM      5  C   UNL     1      86.817 326.666 194.259  1.00  0.00     0.000 C 
BRANCH   5   6
ATOM      6  C   UNL     1      86.881 326.479 195.785  1.00  0.00     0.006 C 
BRANCH   6   7
ATOM      7  C   UNL     1      88.316 326.346 196.310  1.00  0.00     0.053 C 
BRANCH   7   8
ATOM      8  C   UNL     1      88.558 324.962 196.824  1.00  0.00     0.041 C 
ATOM      9  O   UNL     1      88.240 323.963 196.127  1.00  0.00    -0.550 OA
ATOM     10  O   UNL     1      89.088 324.775 198.094  1.00  0.00    -0.550 OA
ENDBRANCH   7   8
ENDBRANCH   6   7
ENDBRANCH   5   6
ENDBRANCH   4   5
ENDBRANCH   3   4
ENDBRANCH   2   3
ENDBRANCH   1   2
BRANCH   1  11
ATOM     11  C   UNL     1      87.731 323.429 190.391  1.00  0.00     0.000 C 
BRANCH  11  12
ATOM     12  C   UNL     1      88.349 323.181 189.010  1.00  0.00    -0.000 C 
BRANCH  12  13
ATOM     13  C   UNL     1      89.670 323.944 188.851  1.00  0.00    -0.000 C 
BRANCH  13  14
ATOM     14  C   UNL     1      90.792 323.009 188.378  1.00  0.00    -0.000 C 
BRANCH  14  15
ATOM     15  C   UNL     1      90.559 321.540 188.775  1.00  0.00    -0.000 C 
BRANCH  15  16
ATOM     16  C   UNL     1      91.304 321.083 190.042  1.00  0.00    -0.000 C 
BRANCH  16  17
ATOM     17  C   UNL     1      90.374 320.898 191.250  1.00  0.00    -0.003 C 
ATOM     18  C   UNL     1      89.171 320.032 190.890  1.00  0.00     0.004 C 
ENDBRANCH  16  17
ENDBRANCH  15  16
ENDBRANCH  14  15
ENDBRANCH  13  14
ENDBRANCH  12  13
ENDBRANCH  11  12
ENDBRANCH   1  11
TORSDOF 14
ENDMDL
