MODEL 1
REMARK VINA RESULT:    -3.564      0.000      0.000
REMARK INTER + INTRA:         -11.549
REMARK INTER:                  -8.147
REMARK INTRA:                  -3.402
REMARK UNBOUND:                -3.402
REMARK SMILES CCCCCCCCCCCCCCCCCCCCCCCC(=O)[O-]
REMARK SMILES IDX 13 1 14 2 15 3 16 4 17 5 18 6 19 7 20 8 21 9 22 10 23 11
REMARK SMILES IDX 24 12 25 13 26 14 12 15 11 16 10 17 9 18 8 19 7 20 6 21 5 22
REMARK SMILES IDX 4 23 3 24 2 25 1 26
REMARK H PARENT
REMARK Flexibility Score: inf
ROOT
ATOM      1  C   UNL     1      27.234  59.176  82.617  1.00  0.00     0.000 C 
ENDROOT
BRANCH   1   2
ATOM      2  C   UNL     1      28.093  60.381  83.027  1.00  0.00     0.000 C 
BRANCH   2   3
ATOM      3  C   UNL     1      27.399  61.726  82.751  1.00  0.00     0.000 C 
BRANCH   3   4
ATOM      4  C   UNL     1      27.485  62.141  81.273  1.00  0.00     0.000 C 
BRANCH   4   5
ATOM      5  C   UNL     1      26.109  62.180  80.591  1.00  0.00     0.000 C 
BRANCH   5   6
ATOM      6  C   UNL     1      26.016  61.242  79.376  1.00  0.00     0.000 C 
BRANCH   6   7
ATOM      7  C   UNL     1      27.234  61.330  78.433  1.00  0.00     0.000 C 
BRANCH   7   8
ATOM      8  C   UNL     1      27.594  59.970  77.818  1.00  0.00     0.000 C 
BRANCH   8   9
ATOM      9  C   UNL     1      28.917  60.049  77.046  1.00  0.00     0.000 C 
BRANCH   9  10
ATOM     10  C   UNL     1      29.686  58.725  77.133  1.00  0.00     0.006 C 
BRANCH  10  11
ATOM     11  C   UNL     1      29.537  57.919  75.839  1.00  0.00     0.053 C 
BRANCH  11  12
ATOM     12  C   UNL     1      30.587  58.315  74.850  1.00  0.00     0.041 C 
ATOM     13  O   UNL     1      30.306  59.100  73.907  1.00  0.00    -0.550 OA
ATOM     14  O   UNL     1      31.868  57.783  74.945  1.00  0.00    -0.550 OA
ENDBRANCH  11  12
ENDBRANCH  10  11
ENDBRANCH   9  10
ENDBRANCH   8   9
ENDBRANCH   7   8
ENDBRANCH   6   7
ENDBRANCH   5   6
ENDBRANCH   4   5
ENDBRANCH   3   4
ENDBRANCH   2   3
ENDBRANCH   1   2
BRANCH   1  15
ATOM     15  C   UNL     1      28.004  58.167  81.752  1.00  0.00     0.000 C 
BRANCH  15  16
ATOM     16  C   UNL     1      28.984  58.885  80.810  1.00  0.00     0.000 C 
BRANCH  16  17
ATOM     17  C   UNL     1      30.359  58.200  80.746  1.00  0.00     0.000 C 
BRANCH  17  18
ATOM     18  C   UNL     1      31.239  58.526  81.966  1.00  0.00    -0.000 C 
BRANCH  18  19
ATOM     19  C   UNL     1      31.745  57.266  82.691  1.00  0.00    -0.000 C 
BRANCH  19  20
ATOM     20  C   UNL     1      31.692  57.328  84.228  1.00  0.00    -0.000 C 
BRANCH  20  21
ATOM     21  C   UNL     1      30.499  58.145  84.755  1.00  0.00    -0.000 C 
BRANCH  21  22
ATOM     22  C   UNL     1      29.300  57.260  85.132  1.00  0.00    -0.000 C 
BRANCH  22  23
ATOM     23  C   UNL     1      28.476  57.845  86.289  1.00  0.00    -0.000 C 
BRANCH  23  24
ATOM     24  C   UNL     1      28.867  59.303  86.559  1.00  0.00    -0.000 C 
BRANCH  24  25
ATOM     25  C   UNL     1      27.753  60.041  87.309  1.00  0.00    -0.003 C 
ATOM     26  C   UNL     1      28.082  61.523  87.466  1.00  0.00     0.004 C 
ENDBRANCH  24  25
ENDBRANCH  23  24
ENDBRANCH  22  23
ENDBRANCH  21  22
ENDBRANCH  20  21
ENDBRANCH  19  20
ENDBRANCH  18  19
ENDBRANCH  17  18
ENDBRANCH  16  17
ENDBRANCH  15  16
ENDBRANCH   1  15
TORSDOF 22
ENDMDL
MODEL 2
REMARK VINA RESULT:    -3.540      2.415      4.254
REMARK INTER + INTRA:         -11.494
REMARK INTER:                  -7.705
REMARK INTRA:                  -3.789
REMARK UNBOUND:                -3.402
REMARK SMILES CCCCCCCCCCCCCCCCCCCCCCCC(=O)[O-]
REMARK SMILES IDX 13 1 14 2 15 3 16 4 17 5 18 6 19 7 20 8 21 9 22 10 23 11
REMARK SMILES IDX 24 12 25 13 26 14 12 15 11 16 10 17 9 18 8 19 7 20 6 21 5 22
REMARK SMILES IDX 4 23 3 24 2 25 1 26
REMARK H PARENT
REMARK Flexibility Score: inf
ROOT
ATOM      1  C   UNL     1      27.622  61.445  82.863  1.00  0.00     0.000 C 
ENDROOT
BRANCH   1   2
ATOM      2  C   UNL     1      26.971  61.946  81.565  1.00  0.00     0.000 C 
BRANCH   2   3
ATOM      3  C   UNL     1      27.248  61.021  80.367  1.00  0.00     0.000 C 
BRANCH   3   4
ATOM      4  C   UNL     1      27.002  61.715  79.018  1.00  0.00     0.000 C 
BRANCH   4   5
ATOM      5  C   UNL     1      27.168  60.760  77.825  1.00  0.00     0.000 C 
BRANCH   5   6
ATOM      6  C   UNL     1      28.637  60.564  77.416  1.00  0.00     0.000 C 
BRANCH   6   7
ATOM      7  C   UNL     1      28.948  59.148  76.888  1.00  0.00     0.000 C 
BRANCH   7   8
ATOM      8  C   UNL     1      29.711  58.297  77.914  1.00  0.00     0.000 C 
BRANCH   8   9
ATOM      9  C   UNL     1      28.740  57.549  78.838  1.00  0.00     0.000 C 
BRANCH   9  10
ATOM     10  C   UNL     1      29.262  57.522  80.280  1.00  0.00     0.006 C 
BRANCH  10  11
ATOM     11  C   UNL     1      30.172  58.723  80.555  1.00  0.00     0.053 C 
BRANCH  11  12
ATOM     12  C   UNL     1      31.294  58.332  81.463  1.00  0.00     0.041 C 
ATOM     13  O   UNL     1      32.381  58.968  81.438  1.00  0.00    -0.550 OA
ATOM     14  O   UNL     1      31.157  57.237  82.308  1.00  0.00    -0.550 OA
ENDBRANCH  11  12
ENDBRANCH  10  11
ENDBRANCH   9  10
ENDBRANCH   8   9
ENDBRANCH   7   8
ENDBRANCH   6   7
ENDBRANCH   5   6
ENDBRANCH   4   5
ENDBRANCH   3   4
ENDBRANCH   2   3
ENDBRANCH   1   2
BRANCH   1  15
ATOM     15  C   UNL     1      26.642  61.422  84.046  1.00  0.00     0.000 C 
BRANCH  15  16
ATOM     16  C   UNL     1      25.187  61.370  83.553  1.00  0.00     0.000 C 
BRANCH  16  17
ATOM     17  C   UNL     1      24.492  60.041  83.891  1.00  0.00     0.000 C 
BRANCH  17  18
ATOM     18  C   UNL     1      25.422  59.055  84.619  1.00  0.00    -0.000 C 
BRANCH  18  19
ATOM     19  C   UNL     1      25.807  57.844  83.751  1.00  0.00    -0.000 C 
BRANCH  19  20
ATOM     20  C   UNL     1      27.284  57.786  83.321  1.00  0.00    -0.000 C 
BRANCH  20  21
ATOM     21  C   UNL     1      28.239  57.501  84.493  1.00  0.00    -0.000 C 
BRANCH  21  22
ATOM     22  C   UNL     1      29.086  58.726  84.875  1.00  0.00    -0.000 C 
BRANCH  22  23
ATOM     23  C   UNL     1      29.220  58.898  86.396  1.00  0.00    -0.000 C 
BRANCH  23  24
ATOM     24  C   UNL     1      27.885  58.629  87.100  1.00  0.00    -0.000 C 
BRANCH  24  25
ATOM     25  C   UNL     1      27.389  59.879  87.836  1.00  0.00    -0.003 C 
ATOM     26  C   UNL     1      28.126  61.127  87.359  1.00  0.00     0.004 C 
ENDBRANCH  24  25
ENDBRANCH  23  24
ENDBRANCH  22  23
ENDBRANCH  21  22
ENDBRANCH  20  21
ENDBRANCH  19  20
ENDBRANCH  18  19
ENDBRANCH  17  18
ENDBRANCH  16  17
ENDBRANCH  15  16
ENDBRANCH   1  15
TORSDOF 22
ENDMDL
MODEL 3
REMARK VINA RESULT:    -3.521      2.632      7.158
REMARK INTER + INTRA:         -11.451
REMARK INTER:                  -7.037
REMARK INTRA:                  -4.414
REMARK UNBOUND:                -3.402
REMARK SMILES CCCCCCCCCCCCCCCCCCCCCCCC(=O)[O-]
REMARK SMILES IDX 13 1 14 2 15 3 16 4 17 5 18 6 19 7 20 8 21 9 22 10 23 11
REMARK SMILES IDX 24 12 25 13 26 14 12 15 11 16 10 17 9 18 8 19 7 20 6 21 5 22
REMARK SMILES IDX 4 23 3 24 2 25 1 26
REMARK H PARENT
REMARK Flexibility Score: inf
ROOT
ATOM      1  C   UNL     1      27.210  61.830  81.829  1.00  0.00     0.000 C 
ENDROOT
BRANCH   1   2
ATOM      2  C   UNL     1      27.661  61.351  83.217  1.00  0.00     0.000 C 
BRANCH   2   3
ATOM      3  C   UNL     1      26.825  60.168  83.737  1.00  0.00     0.000 C 
BRANCH   3   4
ATOM      4  C   UNL     1      26.323  60.388  85.173  1.00  0.00     0.000 C 
BRANCH   4   5
ATOM      5  C   UNL     1      27.197  61.380  85.957  1.00  0.00     0.000 C 
BRANCH   5   6
ATOM      6  C   UNL     1      27.931  60.727  87.139  1.00  0.00     0.000 C 
BRANCH   6   7
ATOM      7  C   UNL     1      27.517  59.262  87.391  1.00  0.00     0.000 C 
BRANCH   7   8
ATOM      8  C   UNL     1      28.699  58.290  87.259  1.00  0.00     0.000 C 
BRANCH   8   9
ATOM      9  C   UNL     1      28.870  57.827  85.807  1.00  0.00     0.000 C 
BRANCH   9  10
ATOM     10  C   UNL     1      30.157  58.394  85.195  1.00  0.00     0.006 C 
BRANCH  10  11
ATOM     11  C   UNL     1      30.089  58.377  83.665  1.00  0.00     0.053 C 
BRANCH  11  12
ATOM     12  C   UNL     1      31.349  57.811  83.091  1.00  0.00     0.041 C 
ATOM     13  O   UNL     1      31.519  57.781  81.843  1.00  0.00    -0.550 OA
ATOM     14  O   UNL     1      32.317  57.275  83.931  1.00  0.00    -0.550 OA
ENDBRANCH  11  12
ENDBRANCH  10  11
ENDBRANCH   9  10
ENDBRANCH   8   9
ENDBRANCH   7   8
ENDBRANCH   6   7
ENDBRANCH   5   6
ENDBRANCH   4   5
ENDBRANCH   3   4
ENDBRANCH   2   3
ENDBRANCH   1   2
BRANCH   1  15
ATOM     15  C   UNL     1      25.687  62.004  81.730  1.00  0.00     0.000 C 
BRANCH  15  16
ATOM     16  C   UNL     1      25.228  62.005  80.263  1.00  0.00     0.000 C 
BRANCH  16  17
ATOM     17  C   UNL     1      24.737  60.626  79.792  1.00  0.00     0.000 C 
BRANCH  17  18
ATOM     18  C   UNL     1      24.384  59.693  80.963  1.00  0.00    -0.000 C 
BRANCH  18  19
ATOM     19  C   UNL     1      25.218  58.400  80.970  1.00  0.00    -0.000 C 
BRANCH  19  20
ATOM     20  C   UNL     1      26.394  58.371  79.976  1.00  0.00    -0.000 C 
BRANCH  20  21
ATOM     21  C   UNL     1      27.759  58.211  80.667  1.00  0.00    -0.000 C 
BRANCH  21  22
ATOM     22  C   UNL     1      28.812  59.193  80.127  1.00  0.00    -0.000 C 
BRANCH  22  23
ATOM     23  C   UNL     1      29.361  58.771  78.755  1.00  0.00    -0.000 C 
BRANCH  23  24
ATOM     24  C   UNL     1      29.231  59.910  77.737  1.00  0.00    -0.000 C 
BRANCH  24  25
ATOM     25  C   UNL     1      28.370  61.050  78.295  1.00  0.00    -0.003 C 
ATOM     26  C   UNL     1      27.277  61.448  77.308  1.00  0.00     0.004 C 
ENDBRANCH  24  25
ENDBRANCH  23  24
ENDBRANCH  22  23
ENDBRANCH  21  22
ENDBRANCH  20  21
ENDBRANCH  19  20
ENDBRANCH  18  19
ENDBRANCH  17  18
ENDBRANCH  16  17
ENDBRANCH  15  16
ENDBRANCH   1  15
TORSDOF 22
ENDMDL
MODEL 4
REMARK VINA RESULT:    -3.508      4.871      9.614
REMARK INTER + INTRA:         -11.422
REMARK INTER:                  -8.362
REMARK INTRA:                  -3.059
REMARK UNBOUND:                -3.402
REMARK SMILES CCCCCCCCCCCCCCCCCCCCCCCC(=O)[O-]
REMARK SMILES IDX 13 1 14 2 15 3 16 4 17 5 18 6 19 7 20 8 21 9 22 10 23 11
REMARK SMILES IDX 24 12 25 13 26 14 12 15 11 16 10 17 9 18 8 19 7 20 6 21 5 22
REMARK SMILES IDX 4 23 3 24 2 25 1 26
REMARK H PARENT
REMARK Flexibility Score: inf
ROOT
ATOM      1  C   UNL     1      27.637  61.733  79.796  1.00  0.00     0.000 C 
ENDROOT
BRANCH   1   2
ATOM      2  C   UNL     1      27.528  61.513  78.280  1.00  0.00     0.000 C 
BRANCH   2   3
ATOM      3  C   UNL     1      28.150  60.180  77.828  1.00  0.00     0.000 C 
BRANCH   3   4
ATOM      4  C   UNL     1      29.157  59.625  78.848  1.00  0.00     0.000 C 
BRANCH   4   5
ATOM      5  C   UNL     1      28.765  58.230  79.363  1.00  0.00     0.000 C 
BRANCH   5   6
ATOM      6  C   UNL     1      27.940  58.281  80.659  1.00  0.00     0.000 C 
BRANCH   6   7
ATOM      7  C   UNL     1      28.725  58.823  81.871  1.00  0.00     0.000 C 
BRANCH   7   8
ATOM      8  C   UNL     1      27.834  59.010  83.108  1.00  0.00     0.000 C 
BRANCH   8   9
ATOM      9  C   UNL     1      27.524  60.494  83.343  1.00  0.00     0.000 C 
BRANCH   9  10
ATOM     10  C   UNL     1      26.451  60.669  84.424  1.00  0.00     0.006 C 
BRANCH  10  11
ATOM     11  C   UNL     1      26.978  61.512  85.588  1.00  0.00     0.053 C 
BRANCH  11  12
ATOM     12  C   UNL     1      27.456  60.632  86.699  1.00  0.00     0.041 C 
ATOM     13  O   UNL     1      28.120  61.119  87.652  1.00  0.00    -0.550 OA
ATOM     14  O   UNL     1      27.207  59.266  86.660  1.00  0.00    -0.550 OA
ENDBRANCH  11  12
ENDBRANCH  10  11
ENDBRANCH   9  10
ENDBRANCH   8   9
ENDBRANCH   7   8
ENDBRANCH   6   7
ENDBRANCH   5   6
ENDBRANCH   4   5
ENDBRANCH   3   4
ENDBRANCH   2   3
ENDBRANCH   1   2
BRANCH   1  15
ATOM     15  C   UNL     1      26.287  62.080  80.442  1.00  0.00     0.000 C 
BRANCH  15  16
ATOM     16  C   UNL     1      25.167  61.184  79.889  1.00  0.00     0.000 C 
BRANCH  16  17
ATOM     17  C   UNL     1      24.017  61.988  79.260  1.00  0.00     0.000 C 
BRANCH  17  18
ATOM     18  C   UNL     1      24.265  63.506  79.301  1.00  0.00    -0.000 C 
BRANCH  18  19
ATOM     19  C   UNL     1      24.129  64.172  77.921  1.00  0.00    -0.000 C 
BRANCH  19  20
ATOM     20  C   UNL     1      24.552  63.299  76.725  1.00  0.00    -0.000 C 
BRANCH  20  21
ATOM     21  C   UNL     1      25.872  63.759  76.084  1.00  0.00    -0.000 C 
BRANCH  21  22
ATOM     22  C   UNL     1      25.699  64.172  74.612  1.00  0.00    -0.000 C 
BRANCH  22  23
ATOM     23  C   UNL     1      25.672  65.698  74.428  1.00  0.00    -0.000 C 
BRANCH  23  24
ATOM     24  C   UNL     1      26.544  66.394  75.479  1.00  0.00    -0.000 C 
BRANCH  24  25
ATOM     25  C   UNL     1      25.941  67.742  75.889  1.00  0.00    -0.003 C 
ATOM     26  C   UNL     1      24.623  67.552  76.634  1.00  0.00     0.004 C 
ENDBRANCH  24  25
ENDBRANCH  23  24
ENDBRANCH  22  23
ENDBRANCH  21  22
ENDBRANCH  20  21
ENDBRANCH  19  20
ENDBRANCH  18  19
ENDBRANCH  17  18
ENDBRANCH  16  17
ENDBRANCH  15  16
ENDBRANCH   1  15
TORSDOF 22
ENDMDL
MODEL 5
REMARK VINA RESULT:    -3.483      2.453      6.982
REMARK INTER + INTRA:         -11.364
REMARK INTER:                  -7.196
REMARK INTRA:                  -4.168
REMARK UNBOUND:                -3.402
REMARK SMILES CCCCCCCCCCCCCCCCCCCCCCCC(=O)[O-]
REMARK SMILES IDX 13 1 14 2 15 3 16 4 17 5 18 6 19 7 20 8 21 9 22 10 23 11
REMARK SMILES IDX 24 12 25 13 26 14 12 15 11 16 10 17 9 18 8 19 7 20 6 21 5 22
REMARK SMILES IDX 4 23 3 24 2 25 1 26
REMARK H PARENT
REMARK Flexibility Score: inf
ROOT
ATOM      1  C   UNL     1      27.575  61.273  82.326  1.00  0.00     0.000 C 
ENDROOT
BRANCH   1   2
ATOM      2  C   UNL     1      26.567  60.171  82.686  1.00  0.00     0.000 C 
BRANCH   2   3
ATOM      3  C   UNL     1      26.323  60.061  84.201  1.00  0.00     0.000 C 
BRANCH   3   4
ATOM      4  C   UNL     1      27.109  61.113  85.001  1.00  0.00     0.000 C 
BRANCH   4   5
ATOM      5  C   UNL     1      27.033  60.877  86.518  1.00  0.00     0.000 C 
BRANCH   5   6
ATOM      6  C   UNL     1      28.375  60.431  87.123  1.00  0.00     0.000 C 
BRANCH   6   7
ATOM      7  C   UNL     1      28.690  58.939  86.893  1.00  0.00     0.000 C 
BRANCH   7   8
ATOM      8  C   UNL     1      29.888  58.734  85.954  1.00  0.00     0.000 C 
BRANCH   8   9
ATOM      9  C   UNL     1      29.750  57.426  85.164  1.00  0.00     0.000 C 
BRANCH   9  10
ATOM     10  C   UNL     1      29.233  57.692  83.745  1.00  0.00     0.006 C 
BRANCH  10  11
ATOM     11  C   UNL     1      30.078  58.761  83.045  1.00  0.00     0.053 C 
BRANCH  11  12
ATOM     12  C   UNL     1      30.928  58.143  81.981  1.00  0.00     0.041 C 
ATOM     13  O   UNL     1      31.894  58.785  81.490  1.00  0.00    -0.550 OA
ATOM     14  O   UNL     1      30.628  56.875  81.499  1.00  0.00    -0.550 OA
ENDBRANCH  11  12
ENDBRANCH  10  11
ENDBRANCH   9  10
ENDBRANCH   8   9
ENDBRANCH   7   8
ENDBRANCH   6   7
ENDBRANCH   5   6
ENDBRANCH   4   5
ENDBRANCH   3   4
ENDBRANCH   2   3
ENDBRANCH   1   2
BRANCH   1  15
ATOM     15  C   UNL     1      27.112  62.133  81.141  1.00  0.00     0.000 C 
BRANCH  15  16
ATOM     16  C   UNL     1      25.623  61.900  80.840  1.00  0.00     0.000 C 
BRANCH  16  17
ATOM     17  C   UNL     1      25.183  62.512  79.500  1.00  0.00     0.000 C 
BRANCH  17  18
ATOM     18  C   UNL     1      25.279  61.514  78.334  1.00  0.00    -0.000 C 
BRANCH  18  19
ATOM     19  C   UNL     1      26.453  61.814  77.385  1.00  0.00    -0.000 C 
BRANCH  19  20
ATOM     20  C   UNL     1      27.526  60.713  77.299  1.00  0.00    -0.000 C 
BRANCH  20  21
ATOM     21  C   UNL     1      28.751  61.000  78.186  1.00  0.00    -0.000 C 
BRANCH  21  22
ATOM     22  C   UNL     1      29.141  59.795  79.059  1.00  0.00    -0.000 C 
BRANCH  22  23
ATOM     23  C   UNL     1      29.212  58.486  78.258  1.00  0.00    -0.000 C 
BRANCH  23  24
ATOM     24  C   UNL     1      28.397  57.380  78.939  1.00  0.00    -0.000 C 
BRANCH  24  25
ATOM     25  C   UNL     1      27.522  57.954  80.059  1.00  0.00    -0.003 C 
ATOM     26  C   UNL     1      26.086  58.157  79.587  1.00  0.00     0.004 C 
ENDBRANCH  24  25
ENDBRANCH  23  24
ENDBRANCH  22  23
ENDBRANCH  21  22
ENDBRANCH  20  21
ENDBRANCH  19  20
ENDBRANCH  18  19
ENDBRANCH  17  18
ENDBRANCH  16  17
ENDBRANCH  15  16
ENDBRANCH   1  15
TORSDOF 22
ENDMDL
MODEL 6
REMARK VINA RESULT:    -3.479      4.234      7.726
REMARK INTER + INTRA:         -11.354
REMARK INTER:                  -7.169
REMARK INTRA:                  -4.185
REMARK UNBOUND:                -3.402
REMARK SMILES CCCCCCCCCCCCCCCCCCCCCCCC(=O)[O-]
REMARK SMILES IDX 13 1 14 2 15 3 16 4 17 5 18 6 19 7 20 8 21 9 22 10 23 11
REMARK SMILES IDX 24 12 25 13 26 14 12 15 11 16 10 17 9 18 8 19 7 20 6 21 5 22
REMARK SMILES IDX 4 23 3 24 2 25 1 26
REMARK H PARENT
REMARK Flexibility Score: inf
ROOT
ATOM      1  C   UNL     1      27.648  61.416  82.904  1.00  0.00     0.000 C 
ENDROOT
BRANCH   1   2
ATOM      2  C   UNL     1      26.786  61.369  84.174  1.00  0.00     0.000 C 
BRANCH   2   3
ATOM      3  C   UNL     1      25.307  61.692  83.899  1.00  0.00     0.000 C 
BRANCH   3   4
ATOM      4  C   UNL     1      24.400  60.458  84.033  1.00  0.00     0.000 C 
BRANCH   4   5
ATOM      5  C   UNL     1      25.106  59.280  84.721  1.00  0.00     0.000 C 
BRANCH   5   6
ATOM      6  C   UNL     1      25.196  58.031  83.828  1.00  0.00     0.000 C 
BRANCH   6   7
ATOM      7  C   UNL     1      26.393  57.117  84.163  1.00  0.00     0.000 C 
BRANCH   7   8
ATOM      8  C   UNL     1      26.859  57.275  85.617  1.00  0.00     0.000 C 
BRANCH   8   9
ATOM      9  C   UNL     1      28.391  57.257  85.709  1.00  0.00     0.000 C 
BRANCH   9  10
ATOM     10  C   UNL     1      28.881  58.077  86.909  1.00  0.00     0.006 C 
BRANCH  10  11
ATOM     11  C   UNL     1      28.892  59.573  86.581  1.00  0.00     0.053 C 
BRANCH  11  12
ATOM     12  C   UNL     1      27.976  60.318  87.501  1.00  0.00     0.041 C 
ATOM     13  O   UNL     1      28.034  61.574  87.572  1.00  0.00    -0.550 OA
ATOM     14  O   UNL     1      27.088  59.622  88.312  1.00  0.00    -0.550 OA
ENDBRANCH  11  12
ENDBRANCH  10  11
ENDBRANCH   9  10
ENDBRANCH   8   9
ENDBRANCH   7   8
ENDBRANCH   6   7
ENDBRANCH   5   6
ENDBRANCH   4   5
ENDBRANCH   3   4
ENDBRANCH   2   3
ENDBRANCH   1   2
BRANCH   1  15
ATOM     15  C   UNL     1      27.827  60.033  82.258  1.00  0.00     0.000 C 
BRANCH  15  16
ATOM     16  C   UNL     1      29.112  59.354  82.760  1.00  0.00     0.000 C 
BRANCH  16  17
ATOM     17  C   UNL     1      29.612  58.253  81.811  1.00  0.00     0.000 C 
BRANCH  17  18
ATOM     18  C   UNL     1      30.217  58.819  80.515  1.00  0.00    -0.000 C 
BRANCH  18  19
ATOM     19  C   UNL     1      29.614  58.188  79.247  1.00  0.00    -0.000 C 
BRANCH  19  20
ATOM     20  C   UNL     1      28.442  58.964  78.621  1.00  0.00    -0.000 C 
BRANCH  20  21
ATOM     21  C   UNL     1      28.802  60.420  78.279  1.00  0.00    -0.000 C 
BRANCH  21  22
ATOM     22  C   UNL     1      27.818  61.431  78.891  1.00  0.00    -0.000 C 
BRANCH  22  23
ATOM     23  C   UNL     1      26.423  61.356  78.250  1.00  0.00    -0.000 C 
BRANCH  23  24
ATOM     24  C   UNL     1      25.466  62.362  78.901  1.00  0.00    -0.000 C 
BRANCH  24  25
ATOM     25  C   UNL     1      25.082  61.918  80.317  1.00  0.00    -0.003 C 
ATOM     26  C   UNL     1      24.605  60.469  80.330  1.00  0.00     0.004 C 
ENDBRANCH  24  25
ENDBRANCH  23  24
ENDBRANCH  22  23
ENDBRANCH  21  22
ENDBRANCH  20  21
ENDBRANCH  19  20
ENDBRANCH  18  19
ENDBRANCH  17  18
ENDBRANCH  16  17
ENDBRANCH  15  16
ENDBRANCH   1  15
TORSDOF 22
ENDMDL
MODEL 7
REMARK VINA RESULT:    -3.468      3.913      8.360
REMARK INTER + INTRA:         -11.330
REMARK INTER:                  -7.269
REMARK INTRA:                  -4.060
REMARK UNBOUND:                -3.402
REMARK SMILES CCCCCCCCCCCCCCCCCCCCCCCC(=O)[O-]
REMARK SMILES IDX 13 1 14 2 15 3 16 4 17 5 18 6 19 7 20 8 21 9 22 10 23 11
REMARK SMILES IDX 24 12 25 13 26 14 12 15 11 16 10 17 9 18 8 19 7 20 6 21 5 22
REMARK SMILES IDX 4 23 3 24 2 25 1 26
REMARK H PARENT
REMARK Flexibility Score: inf
ROOT
ATOM      1  C   UNL     1      27.466  61.545  83.177  1.00  0.00     0.000 C 
ENDROOT
BRANCH   1   2
ATOM      2  C   UNL     1      28.321  60.531  82.400  1.00  0.00     0.000 C 
BRANCH   2   3
ATOM      3  C   UNL     1      27.613  59.178  82.214  1.00  0.00     0.000 C 
BRANCH   3   4
ATOM      4  C   UNL     1      28.503  58.139  81.513  1.00  0.00     0.000 C 
BRANCH   4   5
ATOM      5  C   UNL     1      29.861  58.719  81.086  1.00  0.00     0.000 C 
BRANCH   5   6
ATOM      6  C   UNL     1      31.051  58.000  81.743  1.00  0.00     0.000 C 
BRANCH   6   7
ATOM      7  C   UNL     1      30.658  57.137  82.960  1.00  0.00     0.000 C 
BRANCH   7   8
ATOM      8  C   UNL     1      31.142  57.742  84.285  1.00  0.00     0.000 C 
BRANCH   8   9
ATOM      9  C   UNL     1      30.136  57.475  85.412  1.00  0.00     0.000 C 
BRANCH   9  10
ATOM     10  C   UNL     1      29.156  58.645  85.565  1.00  0.00     0.006 C 
BRANCH  10  11
ATOM     11  C   UNL     1      28.688  58.781  87.017  1.00  0.00     0.053 C 
BRANCH  11  12
ATOM     12  C   UNL     1      27.800  59.974  87.171  1.00  0.00     0.041 C 
ATOM     13  O   UNL     1      28.298  61.114  87.365  1.00  0.00    -0.550 OA
ATOM     14  O   UNL     1      26.419  59.822  87.145  1.00  0.00    -0.550 OA
ENDBRANCH  11  12
ENDBRANCH  10  11
ENDBRANCH   9  10
ENDBRANCH   8   9
ENDBRANCH   7   8
ENDBRANCH   6   7
ENDBRANCH   5   6
ENDBRANCH   4   5
ENDBRANCH   3   4
ENDBRANCH   2   3
ENDBRANCH   1   2
BRANCH   1  15
ATOM     15  C   UNL     1      26.298  60.884  83.923  1.00  0.00     0.000 C 
BRANCH  15  16
ATOM     16  C   UNL     1      25.015  61.720  83.786  1.00  0.00     0.000 C 
BRANCH  16  17
ATOM     17  C   UNL     1      24.293  61.489  82.448  1.00  0.00     0.000 C 
BRANCH  17  18
ATOM     18  C   UNL     1      24.429  62.684  81.489  1.00  0.00    -0.000 C 
BRANCH  18  19
ATOM     19  C   UNL     1      25.135  62.316  80.172  1.00  0.00    -0.000 C 
BRANCH  19  20
ATOM     20  C   UNL     1      25.387  60.812  79.959  1.00  0.00    -0.000 C 
BRANCH  20  21
ATOM     21  C   UNL     1      26.468  60.530  78.902  1.00  0.00    -0.000 C 
BRANCH  21  22
ATOM     22  C   UNL     1      27.696  61.442  79.057  1.00  0.00    -0.000 C 
BRANCH  22  23
ATOM     23  C   UNL     1      28.803  61.118  78.041  1.00  0.00    -0.000 C 
BRANCH  23  24
ATOM     24  C   UNL     1      28.501  59.811  77.298  1.00  0.00    -0.000 C 
BRANCH  24  25
ATOM     25  C   UNL     1      29.639  58.800  77.482  1.00  0.00    -0.003 C 
ATOM     26  C   UNL     1      29.094  57.402  77.759  1.00  0.00     0.004 C 
ENDBRANCH  24  25
ENDBRANCH  23  24
ENDBRANCH  22  23
ENDBRANCH  21  22
ENDBRANCH  20  21
ENDBRANCH  19  20
ENDBRANCH  18  19
ENDBRANCH  17  18
ENDBRANCH  16  17
ENDBRANCH  15  16
ENDBRANCH   1  15
TORSDOF 22
ENDMDL
MODEL 8
REMARK VINA RESULT:    -3.445      1.798      5.631
REMARK INTER + INTRA:         -11.277
REMARK INTER:                  -7.215
REMARK INTRA:                  -4.061
REMARK UNBOUND:                -3.402
REMARK SMILES CCCCCCCCCCCCCCCCCCCCCCCC(=O)[O-]
REMARK SMILES IDX 13 1 14 2 15 3 16 4 17 5 18 6 19 7 20 8 21 9 22 10 23 11
REMARK SMILES IDX 24 12 25 13 26 14 12 15 11 16 10 17 9 18 8 19 7 20 6 21 5 22
REMARK SMILES IDX 4 23 3 24 2 25 1 26
REMARK H PARENT
REMARK Flexibility Score: inf
ROOT
ATOM      1  C   UNL     1      28.541  59.778  87.002  1.00  0.00     0.000 C 
ENDROOT
BRANCH   1   2
ATOM      2  C   UNL     1      28.960  58.392  86.488  1.00  0.00     0.000 C 
BRANCH   2   3
ATOM      3  C   UNL     1      30.438  58.338  86.065  1.00  0.00     0.000 C 
BRANCH   3   4
ATOM      4  C   UNL     1      30.654  57.524  84.779  1.00  0.00     0.000 C 
BRANCH   4   5
ATOM      5  C   UNL     1      29.337  57.220  84.047  1.00  0.00     0.000 C 
BRANCH   5   6
ATOM      6  C   UNL     1      29.310  57.766  82.610  1.00  0.00     0.000 C 
BRANCH   6   7
ATOM      7  C   UNL     1      30.713  57.958  81.996  1.00  0.00     0.000 C 
BRANCH   7   8
ATOM      8  C   UNL     1      30.669  58.742  80.676  1.00  0.00     0.000 C 
BRANCH   8   9
ATOM      9  C   UNL     1      29.256  58.735  80.079  1.00  0.00     0.000 C 
BRANCH   9  10
ATOM     10  C   UNL     1      29.107  59.817  79.003  1.00  0.00     0.006 C 
BRANCH  10  11
ATOM     11  C   UNL     1      28.271  59.307  77.825  1.00  0.00     0.053 C 
BRANCH  11  12
ATOM     12  C   UNL     1      29.141  58.610  76.828  1.00  0.00     0.041 C 
ATOM     13  O   UNL     1      30.267  59.088  76.526  1.00  0.00    -0.550 OA
ATOM     14  O   UNL     1      28.691  57.457  76.198  1.00  0.00    -0.550 OA
ENDBRANCH  11  12
ENDBRANCH  10  11
ENDBRANCH   9  10
ENDBRANCH   8   9
ENDBRANCH   7   8
ENDBRANCH   6   7
ENDBRANCH   5   6
ENDBRANCH   4   5
ENDBRANCH   3   4
ENDBRANCH   2   3
ENDBRANCH   1   2
BRANCH   1  15
ATOM     15  C   UNL     1      27.267  59.731  87.858  1.00  0.00     0.000 C 
BRANCH  15  16
ATOM     16  C   UNL     1      26.791  58.283  88.057  1.00  0.00     0.000 C 
BRANCH  16  17
ATOM     17  C   UNL     1      25.291  58.105  87.771  1.00  0.00     0.000 C 
BRANCH  17  18
ATOM     18  C   UNL     1      24.850  58.804  86.473  1.00  0.00    -0.000 C 
BRANCH  18  19
ATOM     19  C   UNL     1      25.385  58.109  85.208  1.00  0.00    -0.000 C 
BRANCH  19  20
ATOM     20  C   UNL     1      26.088  59.035  84.198  1.00  0.00    -0.000 C 
BRANCH  20  21
ATOM     21  C   UNL     1      25.860  60.527  84.494  1.00  0.00    -0.000 C 
BRANCH  21  22
ATOM     22  C   UNL     1      27.008  61.412  83.979  1.00  0.00    -0.000 C 
BRANCH  22  23
ATOM     23  C   UNL     1      27.574  60.921  82.638  1.00  0.00    -0.000 C 
BRANCH  23  24
ATOM     24  C   UNL     1      27.343  61.957  81.531  1.00  0.00    -0.000 C 
BRANCH  24  25
ATOM     25  C   UNL     1      26.034  61.680  80.784  1.00  0.00    -0.003 C 
ATOM     26  C   UNL     1      25.785  60.182  80.645  1.00  0.00     0.004 C 
ENDBRANCH  24  25
ENDBRANCH  23  24
ENDBRANCH  22  23
ENDBRANCH  21  22
ENDBRANCH  20  21
ENDBRANCH  19  20
ENDBRANCH  18  19
ENDBRANCH  17  18
ENDBRANCH  16  17
ENDBRANCH  15  16
ENDBRANCH   1  15
TORSDOF 22
ENDMDL
MODEL 9
REMARK VINA RESULT:    -3.420      3.678      7.344
REMARK INTER + INTRA:         -11.221
REMARK INTER:                  -7.454
REMARK INTRA:                  -3.767
REMARK UNBOUND:                -3.402
REMARK SMILES CCCCCCCCCCCCCCCCCCCCCCCC(=O)[O-]
REMARK SMILES IDX 13 1 14 2 15 3 16 4 17 5 18 6 19 7 20 8 21 9 22 10 23 11
REMARK SMILES IDX 24 12 25 13 26 14 12 15 11 16 10 17 9 18 8 19 7 20 6 21 5 22
REMARK SMILES IDX 4 23 3 24 2 25 1 26
REMARK H PARENT
REMARK Flexibility Score: inf
ROOT
ATOM      1  C   UNL     1      29.790  57.839  85.252  1.00  0.00     0.000 C 
ENDROOT
BRANCH   1   2
ATOM      2  C   UNL     1      29.141  58.157  86.607  1.00  0.00     0.000 C 
BRANCH   2   3
ATOM      3  C   UNL     1      28.837  59.655  86.783  1.00  0.00     0.000 C 
BRANCH   3   4
ATOM      4  C   UNL     1      27.638  59.909  87.711  1.00  0.00     0.000 C 
BRANCH   4   5
ATOM      5  C   UNL     1      27.102  58.616  88.346  1.00  0.00     0.000 C 
BRANCH   5   6
ATOM      6  C   UNL     1      25.645  58.317  87.955  1.00  0.00     0.000 C 
BRANCH   6   7
ATOM      7  C   UNL     1      25.512  57.313  86.790  1.00  0.00     0.000 C 
BRANCH   7   8
ATOM      8  C   UNL     1      25.048  57.987  85.490  1.00  0.00     0.000 C 
BRANCH   8   9
ATOM      9  C   UNL     1      26.155  57.954  84.429  1.00  0.00     0.000 C 
BRANCH   9  10
ATOM     10  C   UNL     1      25.989  59.100  83.423  1.00  0.00     0.006 C 
BRANCH  10  11
ATOM     11  C   UNL     1      26.942  60.254  83.745  1.00  0.00     0.053 C 
BRANCH  11  12
ATOM     12  C   UNL     1      26.192  61.402  84.343  1.00  0.00     0.041 C 
ATOM     13  O   UNL     1      26.646  61.996  85.357  1.00  0.00    -0.550 OA
ATOM     14  O   UNL     1      24.970  61.789  83.807  1.00  0.00    -0.550 OA
ENDBRANCH  11  12
ENDBRANCH  10  11
ENDBRANCH   9  10
ENDBRANCH   8   9
ENDBRANCH   7   8
ENDBRANCH   6   7
ENDBRANCH   5   6
ENDBRANCH   4   5
ENDBRANCH   3   4
ENDBRANCH   2   3
ENDBRANCH   1   2
BRANCH   1  15
ATOM     15  C   UNL     1      31.303  57.602  85.362  1.00  0.00     0.000 C 
BRANCH  15  16
ATOM     16  C   UNL     1      31.891  57.167  84.010  1.00  0.00     0.000 C 
BRANCH  16  17
ATOM     17  C   UNL     1      30.901  57.342  82.846  1.00  0.00     0.000 C 
BRANCH  17  18
ATOM     18  C   UNL     1      31.349  58.421  81.846  1.00  0.00    -0.000 C 
BRANCH  18  19
ATOM     19  C   UNL     1      30.321  58.663  80.727  1.00  0.00    -0.000 C 
BRANCH  19  20
ATOM     20  C   UNL     1      28.861  58.345  81.097  1.00  0.00    -0.000 C 
BRANCH  20  21
ATOM     21  C   UNL     1      27.843  59.066  80.195  1.00  0.00    -0.000 C 
BRANCH  21  22
ATOM     22  C   UNL     1      28.517  60.002  79.178  1.00  0.00    -0.000 C 
BRANCH  22  23
ATOM     23  C   UNL     1      27.854  61.387  79.122  1.00  0.00    -0.000 C 
BRANCH  23  24
ATOM     24  C   UNL     1      27.416  61.842  80.519  1.00  0.00    -0.000 C 
BRANCH  24  25
ATOM     25  C   UNL     1      25.985  62.391  80.495  1.00  0.00    -0.003 C 
ATOM     26  C   UNL     1      24.969  61.272  80.285  1.00  0.00     0.004 C 
ENDBRANCH  24  25
ENDBRANCH  23  24
ENDBRANCH  22  23
ENDBRANCH  21  22
ENDBRANCH  20  21
ENDBRANCH  19  20
ENDBRANCH  18  19
ENDBRANCH  17  18
ENDBRANCH  16  17
ENDBRANCH  15  16
ENDBRANCH   1  15
TORSDOF 22
ENDMDL
