MODEL 1
REMARK VINA RESULT:    -5.368      0.000      0.000
REMARK INTER + INTRA:         -15.765
REMARK INTER:                 -13.527
REMARK INTRA:                  -2.238
REMARK UNBOUND:                -2.238
REMARK SMILES CCCCCCCCCCCCCCCCCCCCCCCCCCCC(=O)[O-]
REMARK SMILES IDX 15 1 16 2 17 3 18 4 19 5 20 6 21 7 22 8 23 9 24 10 25 11
REMARK SMILES IDX 26 12 27 13 28 14 29 15 30 16 14 17 13 18 12 19 11 20 10 21
REMARK SMILES IDX 9 22 8 23 7 24 6 25 5 26 4 27 3 28 2 29 1 30
REMARK H PARENT
REMARK Flexibility Score: inf
ROOT
ATOM      1  C   UNL     1      40.014  56.127  18.278  1.00  0.00     0.000 C 
ENDROOT
BRANCH   1   2
ATOM      2  C   UNL     1      40.993  55.928  17.103  1.00  0.00     0.000 C 
BRANCH   2   3
ATOM      3  C   UNL     1      42.425  55.523  17.511  1.00  0.00     0.000 C 
BRANCH   3   4
ATOM      4  C   UNL     1      42.850  54.097  17.102  1.00  0.00     0.000 C 
BRANCH   4   5
ATOM      5  C   UNL     1      42.936  53.851  15.585  1.00  0.00     0.000 C 
BRANCH   5   6
ATOM      6  C   UNL     1      43.921  54.802  14.882  1.00  0.00     0.000 C 
BRANCH   6   7
ATOM      7  C   UNL     1      45.207  54.093  14.430  1.00  0.00     0.000 C 
BRANCH   7   8
ATOM      8  C   UNL     1      45.168  52.573  14.662  1.00  0.00     0.000 C 
BRANCH   8   9
ATOM      9  C   UNL     1      46.558  51.930  14.449  1.00  0.00     0.000 C 
BRANCH   9  10
ATOM     10  C   UNL     1      47.654  52.969  14.142  1.00  0.00     0.000 C 
BRANCH  10  11
ATOM     11  C   UNL     1      48.825  52.917  15.150  1.00  0.00     0.000 C 
BRANCH  11  12
ATOM     12  C   UNL     1      48.739  53.970  16.269  1.00  0.00     0.006 C 
BRANCH  12  13
ATOM     13  C   UNL     1      48.333  55.372  15.781  1.00  0.00     0.053 C 
BRANCH  13  14
ATOM     14  C   UNL     1      47.674  56.189  16.855  1.00  0.00     0.041 C 
ATOM     15  O   UNL     1      48.332  56.561  17.863  1.00  0.00    -0.550 OA
ATOM     16  O   UNL     1      46.322  56.499  16.768  1.00  0.00    -0.550 OA
ENDBRANCH  13  14
ENDBRANCH  12  13
ENDBRANCH  11  12
ENDBRANCH  10  11
ENDBRANCH   9  10
ENDBRANCH   8   9
ENDBRANCH   7   8
ENDBRANCH   6   7
ENDBRANCH   5   6
ENDBRANCH   4   5
ENDBRANCH   3   4
ENDBRANCH   2   3
ENDBRANCH   1   2
BRANCH   1  17
ATOM     17  C   UNL     1      38.851  57.097  17.990  1.00  0.00     0.000 C 
BRANCH  17  18
ATOM     18  C   UNL     1      37.925  56.680  16.830  1.00  0.00     0.000 C 
BRANCH  18  19
ATOM     19  C   UNL     1      36.462  57.136  16.973  1.00  0.00     0.000 C 
BRANCH  19  20
ATOM     20  C   UNL     1      36.015  58.064  15.829  1.00  0.00     0.000 C 
BRANCH  20  21
ATOM     21  C   UNL     1      35.815  57.314  14.505  1.00  0.00     0.000 C 
BRANCH  21  22
ATOM     22  C   UNL     1      34.353  56.879  14.283  1.00  0.00    -0.000 C 
BRANCH  22  23
ATOM     23  C   UNL     1      34.031  55.514  14.927  1.00  0.00    -0.000 C 
BRANCH  23  24
ATOM     24  C   UNL     1      33.070  55.592  16.129  1.00  0.00    -0.000 C 
BRANCH  24  25
ATOM     25  C   UNL     1      31.839  56.492  15.927  1.00  0.00    -0.000 C 
BRANCH  25  26
ATOM     26  C   UNL     1      30.991  56.634  17.202  1.00  0.00    -0.000 C 
BRANCH  26  27
ATOM     27  C   UNL     1      31.052  55.353  18.046  1.00  0.00    -0.000 C 
BRANCH  27  28
ATOM     28  C   UNL     1      29.925  54.359  17.707  1.00  0.00    -0.000 C 
BRANCH  28  29
ATOM     29  C   UNL     1      30.327  53.217  16.753  1.00  0.00    -0.003 C 
ATOM     30  C   UNL     1      29.686  53.338  15.371  1.00  0.00     0.004 C 
ENDBRANCH  28  29
ENDBRANCH  27  28
ENDBRANCH  26  27
ENDBRANCH  25  26
ENDBRANCH  24  25
ENDBRANCH  23  24
ENDBRANCH  22  23
ENDBRANCH  21  22
ENDBRANCH  20  21
ENDBRANCH  19  20
ENDBRANCH  18  19
ENDBRANCH  17  18
ENDBRANCH   1  17
TORSDOF 26
ENDMDL
MODEL 2
REMARK VINA RESULT:    -5.185      1.047      1.741
REMARK INTER + INTRA:         -15.305
REMARK INTER:                 -13.139
REMARK INTRA:                  -2.166
REMARK UNBOUND:                -2.238
REMARK SMILES CCCCCCCCCCCCCCCCCCCCCCCCCCCC(=O)[O-]
REMARK SMILES IDX 15 1 16 2 17 3 18 4 19 5 20 6 21 7 22 8 23 9 24 10 25 11
REMARK SMILES IDX 26 12 27 13 28 14 29 15 30 16 14 17 13 18 12 19 11 20 10 21
REMARK SMILES IDX 9 22 8 23 7 24 6 25 5 26 4 27 3 28 2 29 1 30
REMARK H PARENT
REMARK Flexibility Score: inf
ROOT
ATOM      1  C   UNL     1      40.871  55.996  17.228  1.00  0.00     0.000 C 
ENDROOT
BRANCH   1   2
ATOM      2  C   UNL     1      42.295  55.620  17.688  1.00  0.00     0.000 C 
BRANCH   2   3
ATOM      3  C   UNL     1      42.839  54.298  17.109  1.00  0.00     0.000 C 
BRANCH   3   4
ATOM      4  C   UNL     1      42.897  54.225  15.568  1.00  0.00     0.000 C 
BRANCH   4   5
ATOM      5  C   UNL     1      44.165  54.827  14.935  1.00  0.00     0.000 C 
BRANCH   5   6
ATOM      6  C   UNL     1      44.841  53.872  13.936  1.00  0.00     0.000 C 
BRANCH   6   7
ATOM      7  C   UNL     1      45.384  52.600  14.607  1.00  0.00     0.000 C 
BRANCH   7   8
ATOM      8  C   UNL     1      46.695  52.101  13.978  1.00  0.00     0.000 C 
BRANCH   8   9
ATOM      9  C   UNL     1      47.831  52.017  15.022  1.00  0.00     0.000 C 
BRANCH   9  10
ATOM     10  C   UNL     1      48.986  52.993  14.725  1.00  0.00     0.000 C 
BRANCH  10  11
ATOM     11  C   UNL     1      48.492  54.352  14.177  1.00  0.00     0.000 C 
BRANCH  11  12
ATOM     12  C   UNL     1      48.678  55.528  15.152  1.00  0.00     0.006 C 
BRANCH  12  13
ATOM     13  C   UNL     1      47.643  55.568  16.290  1.00  0.00     0.053 C 
BRANCH  13  14
ATOM     14  C   UNL     1      47.584  56.907  16.969  1.00  0.00     0.041 C 
ATOM     15  O   UNL     1      48.331  57.153  17.953  1.00  0.00    -0.550 OA
ATOM     16  O   UNL     1      46.671  57.867  16.546  1.00  0.00    -0.550 OA
ENDBRANCH  13  14
ENDBRANCH  12  13
ENDBRANCH  11  12
ENDBRANCH  10  11
ENDBRANCH   9  10
ENDBRANCH   8   9
ENDBRANCH   7   8
ENDBRANCH   6   7
ENDBRANCH   5   6
ENDBRANCH   4   5
ENDBRANCH   3   4
ENDBRANCH   2   3
ENDBRANCH   1   2
BRANCH   1  17
ATOM     17  C   UNL     1      39.865  56.231  18.371  1.00  0.00     0.000 C 
BRANCH  17  18
ATOM     18  C   UNL     1      38.697  57.176  18.028  1.00  0.00     0.000 C 
BRANCH  18  19
ATOM     19  C   UNL     1      37.829  56.728  16.837  1.00  0.00     0.000 C 
BRANCH  19  20
ATOM     20  C   UNL     1      36.432  57.374  16.845  1.00  0.00     0.000 C 
BRANCH  20  21
ATOM     21  C   UNL     1      36.002  57.868  15.456  1.00  0.00     0.000 C 
BRANCH  21  22
ATOM     22  C   UNL     1      35.359  56.757  14.603  1.00  0.00    -0.000 C 
BRANCH  22  23
ATOM     23  C   UNL     1      34.056  57.213  13.911  1.00  0.00    -0.000 C 
BRANCH  23  24
ATOM     24  C   UNL     1      32.872  56.242  14.088  1.00  0.00    -0.000 C 
BRANCH  24  25
ATOM     25  C   UNL     1      31.480  56.859  13.876  1.00  0.00    -0.000 C 
BRANCH  25  26
ATOM     26  C   UNL     1      30.535  56.615  15.063  1.00  0.00    -0.000 C 
BRANCH  26  27
ATOM     27  C   UNL     1      31.202  57.017  16.386  1.00  0.00    -0.000 C 
BRANCH  27  28
ATOM     28  C   UNL     1      31.033  55.957  17.490  1.00  0.00    -0.000 C 
BRANCH  28  29
ATOM     29  C   UNL     1      31.594  54.563  17.147  1.00  0.00    -0.003 C 
ATOM     30  C   UNL     1      33.122  54.520  17.127  1.00  0.00     0.004 C 
ENDBRANCH  28  29
ENDBRANCH  27  28
ENDBRANCH  26  27
ENDBRANCH  25  26
ENDBRANCH  24  25
ENDBRANCH  23  24
ENDBRANCH  22  23
ENDBRANCH  21  22
ENDBRANCH  20  21
ENDBRANCH  19  20
ENDBRANCH  18  19
ENDBRANCH  17  18
ENDBRANCH   1  17
TORSDOF 26
ENDMDL
MODEL 3
REMARK VINA RESULT:    -5.163      3.863     13.042
REMARK INTER + INTRA:         -15.249
REMARK INTER:                 -13.325
REMARK INTRA:                  -1.924
REMARK UNBOUND:                -2.238
REMARK SMILES CCCCCCCCCCCCCCCCCCCCCCCCCCCC(=O)[O-]
REMARK SMILES IDX 15 1 16 2 17 3 18 4 19 5 20 6 21 7 22 8 23 9 24 10 25 11
REMARK SMILES IDX 26 12 27 13 28 14 29 15 30 16 14 17 13 18 12 19 11 20 10 21
REMARK SMILES IDX 9 22 8 23 7 24 6 25 5 26 4 27 3 28 2 29 1 30
REMARK H PARENT
REMARK Flexibility Score: inf
ROOT
ATOM      1  C   UNL     1      40.047  56.036  18.287  1.00  0.00     0.000 C 
ENDROOT
BRANCH   1   2
ATOM      2  C   UNL     1      38.986  57.117  17.996  1.00  0.00     0.000 C 
BRANCH   2   3
ATOM      3  C   UNL     1      37.919  56.718  16.956  1.00  0.00     0.000 C 
BRANCH   3   4
ATOM      4  C   UNL     1      36.582  57.482  17.055  1.00  0.00     0.000 C 
BRANCH   4   5
ATOM      5  C   UNL     1      35.932  57.839  15.705  1.00  0.00     0.000 C 
BRANCH   5   6
ATOM      6  C   UNL     1      35.906  56.653  14.725  1.00  0.00     0.000 C 
BRANCH   6   7
ATOM      7  C   UNL     1      34.515  56.010  14.610  1.00  0.00     0.000 C 
BRANCH   7   8
ATOM      8  C   UNL     1      33.566  56.425  15.746  1.00  0.00     0.000 C 
BRANCH   8   9
ATOM      9  C   UNL     1      33.261  55.242  16.694  1.00  0.00     0.000 C 
BRANCH   9  10
ATOM     10  C   UNL     1      31.823  55.276  17.245  1.00  0.00     0.000 C 
BRANCH  10  11
ATOM     11  C   UNL     1      31.078  53.934  17.055  1.00  0.00     0.000 C 
BRANCH  11  12
ATOM     12  C   UNL     1      31.737  52.989  16.034  1.00  0.00     0.006 C 
BRANCH  12  13
ATOM     13  C   UNL     1      31.504  51.495  16.322  1.00  0.00     0.053 C 
BRANCH  13  14
ATOM     14  C   UNL     1      32.783  50.750  16.576  1.00  0.00     0.041 C 
ATOM     15  O   UNL     1      32.764  49.506  16.776  1.00  0.00    -0.550 OA
ATOM     16  O   UNL     1      33.991  51.434  16.639  1.00  0.00    -0.550 OA
ENDBRANCH  13  14
ENDBRANCH  12  13
ENDBRANCH  11  12
ENDBRANCH  10  11
ENDBRANCH   9  10
ENDBRANCH   8   9
ENDBRANCH   7   8
ENDBRANCH   6   7
ENDBRANCH   5   6
ENDBRANCH   4   5
ENDBRANCH   3   4
ENDBRANCH   2   3
ENDBRANCH   1   2
BRANCH   1  17
ATOM     17  C   UNL     1      41.198  55.970  17.263  1.00  0.00     0.000 C 
BRANCH  17  18
ATOM     18  C   UNL     1      42.473  55.260  17.760  1.00  0.00     0.000 C 
BRANCH  18  19
ATOM     19  C   UNL     1      43.426  54.787  16.648  1.00  0.00     0.000 C 
BRANCH  19  20
ATOM     20  C   UNL     1      42.925  53.515  15.940  1.00  0.00     0.000 C 
BRANCH  20  21
ATOM     21  C   UNL     1      43.624  53.274  14.594  1.00  0.00     0.000 C 
BRANCH  21  22
ATOM     22  C   UNL     1      45.149  53.478  14.671  1.00  0.00    -0.000 C 
BRANCH  22  23
ATOM     23  C   UNL     1      45.941  52.327  14.014  1.00  0.00    -0.000 C 
BRANCH  23  24
ATOM     24  C   UNL     1      47.226  51.931  14.767  1.00  0.00    -0.000 C 
BRANCH  24  25
ATOM     25  C   UNL     1      48.414  52.890  14.586  1.00  0.00    -0.000 C 
BRANCH  25  26
ATOM     26  C   UNL     1      48.769  53.647  15.876  1.00  0.00    -0.000 C 
BRANCH  26  27
ATOM     27  C   UNL     1      48.381  55.129  15.765  1.00  0.00    -0.000 C 
BRANCH  27  28
ATOM     28  C   UNL     1      47.432  55.585  16.889  1.00  0.00    -0.000 C 
BRANCH  28  29
ATOM     29  C   UNL     1      47.110  57.092  16.899  1.00  0.00    -0.003 C 
ATOM     30  C   UNL     1      45.856  57.443  16.100  1.00  0.00     0.004 C 
ENDBRANCH  28  29
ENDBRANCH  27  28
ENDBRANCH  26  27
ENDBRANCH  25  26
ENDBRANCH  24  25
ENDBRANCH  23  24
ENDBRANCH  22  23
ENDBRANCH  21  22
ENDBRANCH  20  21
ENDBRANCH  19  20
ENDBRANCH  18  19
ENDBRANCH  17  18
ENDBRANCH   1  17
TORSDOF 26
ENDMDL
MODEL 4
REMARK VINA RESULT:    -5.075      4.409     13.398
REMARK INTER + INTRA:         -15.027
REMARK INTER:                 -12.519
REMARK INTRA:                  -2.508
REMARK UNBOUND:                -2.238
REMARK SMILES CCCCCCCCCCCCCCCCCCCCCCCCCCCC(=O)[O-]
REMARK SMILES IDX 15 1 16 2 17 3 18 4 19 5 20 6 21 7 22 8 23 9 24 10 25 11
REMARK SMILES IDX 26 12 27 13 28 14 29 15 30 16 14 17 13 18 12 19 11 20 10 21
REMARK SMILES IDX 9 22 8 23 7 24 6 25 5 26 4 27 3 28 2 29 1 30
REMARK H PARENT
REMARK Flexibility Score: inf
ROOT
ATOM      1  C   UNL     1      39.314  56.607  17.781  1.00  0.00     0.000 C 
ENDROOT
BRANCH   1   2
ATOM      2  C   UNL     1      38.015  56.473  16.961  1.00  0.00     0.000 C 
BRANCH   2   3
ATOM      3  C   UNL     1      36.997  57.614  17.163  1.00  0.00     0.000 C 
BRANCH   3   4
ATOM      4  C   UNL     1      36.166  57.986  15.917  1.00  0.00     0.000 C 
BRANCH   4   5
ATOM      5  C   UNL     1      36.620  57.318  14.606  1.00  0.00     0.000 C 
BRANCH   5   6
ATOM      6  C   UNL     1      35.488  56.545  13.908  1.00  0.00     0.000 C 
BRANCH   6   7
ATOM      7  C   UNL     1      34.093  56.988  14.376  1.00  0.00     0.000 C 
BRANCH   7   8
ATOM      8  C   UNL     1      33.350  55.900  15.168  1.00  0.00     0.000 C 
BRANCH   8   9
ATOM      9  C   UNL     1      32.943  56.398  16.574  1.00  0.00     0.000 C 
BRANCH   9  10
ATOM     10  C   UNL     1      31.416  56.519  16.743  1.00  0.00     0.000 C 
BRANCH  10  11
ATOM     11  C   UNL     1      30.886  55.728  17.962  1.00  0.00     0.000 C 
BRANCH  11  12
ATOM     12  C   UNL     1      30.097  54.458  17.594  1.00  0.00     0.006 C 
BRANCH  12  13
ATOM     13  C   UNL     1      30.917  53.417  16.811  1.00  0.00     0.053 C 
BRANCH  13  14
ATOM     14  C   UNL     1      30.330  53.118  15.460  1.00  0.00     0.041 C 
ATOM     15  O   UNL     1      29.113  52.810  15.351  1.00  0.00    -0.550 OA
ATOM     16  O   UNL     1      31.137  53.134  14.328  1.00  0.00    -0.550 OA
ENDBRANCH  13  14
ENDBRANCH  12  13
ENDBRANCH  11  12
ENDBRANCH  10  11
ENDBRANCH   9  10
ENDBRANCH   8   9
ENDBRANCH   7   8
ENDBRANCH   6   7
ENDBRANCH   5   6
ENDBRANCH   4   5
ENDBRANCH   3   4
ENDBRANCH   2   3
ENDBRANCH   1   2
BRANCH   1  17
ATOM     17  C   UNL     1      40.578  56.069  17.080  1.00  0.00     0.000 C 
BRANCH  17  18
ATOM     18  C   UNL     1      41.734  55.684  18.024  1.00  0.00     0.000 C 
BRANCH  18  19
ATOM     19  C   UNL     1      43.044  55.290  17.318  1.00  0.00     0.000 C 
BRANCH  19  20
ATOM     20  C   UNL     1      43.135  53.778  17.040  1.00  0.00     0.000 C 
BRANCH  20  21
ATOM     21  C   UNL     1      42.852  53.430  15.571  1.00  0.00     0.000 C 
BRANCH  21  22
ATOM     22  C   UNL     1      44.031  53.775  14.641  1.00  0.00    -0.000 C 
BRANCH  22  23
ATOM     23  C   UNL     1      45.211  52.789  14.778  1.00  0.00    -0.000 C 
BRANCH  23  24
ATOM     24  C   UNL     1      46.519  53.271  14.121  1.00  0.00    -0.000 C 
BRANCH  24  25
ATOM     25  C   UNL     1      47.808  52.688  14.723  1.00  0.00    -0.000 C 
BRANCH  25  26
ATOM     26  C   UNL     1      48.807  53.774  15.154  1.00  0.00    -0.000 C 
BRANCH  26  27
ATOM     27  C   UNL     1      48.566  54.192  16.611  1.00  0.00    -0.000 C 
BRANCH  27  28
ATOM     28  C   UNL     1      48.156  55.670  16.751  1.00  0.00    -0.000 C 
BRANCH  28  29
ATOM     29  C   UNL     1      46.637  55.922  16.819  1.00  0.00    -0.003 C 
ATOM     30  C   UNL     1      46.098  56.665  15.597  1.00  0.00     0.004 C 
ENDBRANCH  28  29
ENDBRANCH  27  28
ENDBRANCH  26  27
ENDBRANCH  25  26
ENDBRANCH  24  25
ENDBRANCH  23  24
ENDBRANCH  22  23
ENDBRANCH  21  22
ENDBRANCH  20  21
ENDBRANCH  19  20
ENDBRANCH  18  19
ENDBRANCH  17  18
ENDBRANCH   1  17
TORSDOF 26
ENDMDL
MODEL 5
REMARK VINA RESULT:    -5.065      1.431      1.805
REMARK INTER + INTRA:         -15.003
REMARK INTER:                 -12.646
REMARK INTRA:                  -2.357
REMARK UNBOUND:                -2.238
REMARK SMILES CCCCCCCCCCCCCCCCCCCCCCCCCCCC(=O)[O-]
REMARK SMILES IDX 15 1 16 2 17 3 18 4 19 5 20 6 21 7 22 8 23 9 24 10 25 11
REMARK SMILES IDX 26 12 27 13 28 14 29 15 30 16 14 17 13 18 12 19 11 20 10 21
REMARK SMILES IDX 9 22 8 23 7 24 6 25 5 26 4 27 3 28 2 29 1 30
REMARK H PARENT
REMARK Flexibility Score: inf
ROOT
ATOM      1  C   UNL     1      40.102  56.017  18.201  1.00  0.00     0.000 C 
ENDROOT
BRANCH   1   2
ATOM      2  C   UNL     1      41.123  55.933  17.049  1.00  0.00     0.000 C 
BRANCH   2   3
ATOM      3  C   UNL     1      42.565  55.596  17.480  1.00  0.00     0.000 C 
BRANCH   3   4
ATOM      4  C   UNL     1      43.004  54.136  17.238  1.00  0.00     0.000 C 
BRANCH   4   5
ATOM      5  C   UNL     1      42.989  53.687  15.765  1.00  0.00     0.000 C 
BRANCH   5   6
ATOM      6  C   UNL     1      43.689  54.688  14.830  1.00  0.00     0.000 C 
BRANCH   6   7
ATOM      7  C   UNL     1      44.802  54.039  13.993  1.00  0.00     0.000 C 
BRANCH   7   8
ATOM      8  C   UNL     1      45.358  52.753  14.627  1.00  0.00     0.000 C 
BRANCH   8   9
ATOM      9  C   UNL     1      46.847  52.542  14.272  1.00  0.00     0.000 C 
BRANCH   9  10
ATOM     10  C   UNL     1      47.697  53.807  14.497  1.00  0.00     0.000 C 
BRANCH  10  11
ATOM     11  C   UNL     1      48.394  53.822  15.877  1.00  0.00     0.000 C 
BRANCH  11  12
ATOM     12  C   UNL     1      48.324  55.178  16.603  1.00  0.00     0.006 C 
BRANCH  12  13
ATOM     13  C   UNL     1      46.891  55.688  16.840  1.00  0.00     0.053 C 
BRANCH  13  14
ATOM     14  C   UNL     1      46.596  56.950  16.081  1.00  0.00     0.041 C 
ATOM     15  O   UNL     1      47.476  57.466  15.341  1.00  0.00    -0.550 OA
ATOM     16  O   UNL     1      45.367  57.584  16.227  1.00  0.00    -0.550 OA
ENDBRANCH  13  14
ENDBRANCH  12  13
ENDBRANCH  11  12
ENDBRANCH  10  11
ENDBRANCH   9  10
ENDBRANCH   8   9
ENDBRANCH   7   8
ENDBRANCH   6   7
ENDBRANCH   5   6
ENDBRANCH   4   5
ENDBRANCH   3   4
ENDBRANCH   2   3
ENDBRANCH   1   2
BRANCH   1  17
ATOM     17  C   UNL     1      38.996  57.074  18.007  1.00  0.00     0.000 C 
BRANCH  17  18
ATOM     18  C   UNL     1      37.962  56.744  16.912  1.00  0.00     0.000 C 
BRANCH  18  19
ATOM     19  C   UNL     1      36.578  57.388  17.113  1.00  0.00     0.000 C 
BRANCH  19  20
ATOM     20  C   UNL     1      36.092  58.147  15.866  1.00  0.00     0.000 C 
BRANCH  20  21
ATOM     21  C   UNL     1      36.123  57.282  14.598  1.00  0.00     0.000 C 
BRANCH  21  22
ATOM     22  C   UNL     1      34.762  57.234  13.877  1.00  0.00    -0.000 C 
BRANCH  22  23
ATOM     23  C   UNL     1      33.895  56.033  14.313  1.00  0.00    -0.000 C 
BRANCH  23  24
ATOM     24  C   UNL     1      32.658  56.415  15.148  1.00  0.00    -0.000 C 
BRANCH  24  25
ATOM     25  C   UNL     1      32.700  55.978  16.622  1.00  0.00    -0.000 C 
BRANCH  25  26
ATOM     26  C   UNL     1      33.238  54.550  16.803  1.00  0.00    -0.000 C 
BRANCH  26  27
ATOM     27  C   UNL     1      32.328  53.530  16.102  1.00  0.00    -0.000 C 
BRANCH  27  28
ATOM     28  C   UNL     1      33.099  52.310  15.564  1.00  0.00    -0.000 C 
BRANCH  28  29
ATOM     29  C   UNL     1      33.445  51.240  16.618  1.00  0.00    -0.003 C 
ATOM     30  C   UNL     1      32.593  49.977  16.493  1.00  0.00     0.004 C 
ENDBRANCH  28  29
ENDBRANCH  27  28
ENDBRANCH  26  27
ENDBRANCH  25  26
ENDBRANCH  24  25
ENDBRANCH  23  24
ENDBRANCH  22  23
ENDBRANCH  21  22
ENDBRANCH  20  21
ENDBRANCH  19  20
ENDBRANCH  18  19
ENDBRANCH  17  18
ENDBRANCH   1  17
TORSDOF 26
ENDMDL
MODEL 6
REMARK VINA RESULT:    -5.029      1.136      2.491
REMARK INTER + INTRA:         -14.912
REMARK INTER:                 -12.995
REMARK INTRA:                  -1.917
REMARK UNBOUND:                -2.238
REMARK SMILES CCCCCCCCCCCCCCCCCCCCCCCCCCCC(=O)[O-]
REMARK SMILES IDX 15 1 16 2 17 3 18 4 19 5 20 6 21 7 22 8 23 9 24 10 25 11
REMARK SMILES IDX 26 12 27 13 28 14 29 15 30 16 14 17 13 18 12 19 11 20 10 21
REMARK SMILES IDX 9 22 8 23 7 24 6 25 5 26 4 27 3 28 2 29 1 30
REMARK H PARENT
REMARK Flexibility Score: inf
ROOT
ATOM      1  C   UNL     1      37.499  57.494  17.738  1.00  0.00     0.000 C 
ENDROOT
BRANCH   1   2
ATOM      2  C   UNL     1      38.550  56.529  17.153  1.00  0.00     0.000 C 
BRANCH   2   3
ATOM      3  C   UNL     1      39.829  56.368  18.000  1.00  0.00     0.000 C 
BRANCH   3   4
ATOM      4  C   UNL     1      41.103  55.997  17.211  1.00  0.00     0.000 C 
BRANCH   4   5
ATOM      5  C   UNL     1      42.180  55.256  18.023  1.00  0.00     0.000 C 
BRANCH   5   6
ATOM      6  C   UNL     1      43.383  54.826  17.165  1.00  0.00     0.000 C 
BRANCH   6   7
ATOM      7  C   UNL     1      42.976  54.413  15.742  1.00  0.00     0.000 C 
BRANCH   7   8
ATOM      8  C   UNL     1      43.597  53.077  15.303  1.00  0.00     0.000 C 
BRANCH   8   9
ATOM      9  C   UNL     1      44.810  53.292  14.368  1.00  0.00     0.000 C 
BRANCH   9  10
ATOM     10  C   UNL     1      45.912  52.235  14.571  1.00  0.00     0.000 C 
BRANCH  10  11
ATOM     11  C   UNL     1      47.312  52.744  14.156  1.00  0.00     0.000 C 
BRANCH  11  12
ATOM     12  C   UNL     1      48.269  52.985  15.338  1.00  0.00     0.006 C 
BRANCH  12  13
ATOM     13  C   UNL     1      48.693  54.455  15.511  1.00  0.00     0.053 C 
BRANCH  13  14
ATOM     14  C   UNL     1      47.807  55.202  16.467  1.00  0.00     0.041 C 
ATOM     15  O   UNL     1      48.138  55.320  17.677  1.00  0.00    -0.550 OA
ATOM     16  O   UNL     1      46.595  55.726  16.034  1.00  0.00    -0.550 OA
ENDBRANCH  13  14
ENDBRANCH  12  13
ENDBRANCH  11  12
ENDBRANCH  10  11
ENDBRANCH   9  10
ENDBRANCH   8   9
ENDBRANCH   7   8
ENDBRANCH   6   7
ENDBRANCH   5   6
ENDBRANCH   4   5
ENDBRANCH   3   4
ENDBRANCH   2   3
ENDBRANCH   1   2
BRANCH   1  17
ATOM     17  C   UNL     1      36.319  57.808  16.797  1.00  0.00     0.000 C 
BRANCH  17  18
ATOM     18  C   UNL     1      36.306  57.013  15.477  1.00  0.00     0.000 C 
BRANCH  18  19
ATOM     19  C   UNL     1      35.531  57.679  14.326  1.00  0.00     0.000 C 
BRANCH  19  20
ATOM     20  C   UNL     1      34.119  57.092  14.144  1.00  0.00     0.000 C 
BRANCH  20  21
ATOM     21  C   UNL     1      33.904  55.810  14.960  1.00  0.00     0.000 C 
BRANCH  21  22
ATOM     22  C   UNL     1      33.165  56.067  16.288  1.00  0.00    -0.000 C 
BRANCH  22  23
ATOM     23  C   UNL     1      31.798  56.757  16.088  1.00  0.00    -0.000 C 
BRANCH  23  24
ATOM     24  C   UNL     1      30.792  56.513  17.230  1.00  0.00    -0.000 C 
BRANCH  24  25
ATOM     25  C   UNL     1      30.985  55.197  18.003  1.00  0.00    -0.000 C 
BRANCH  25  26
ATOM     26  C   UNL     1      30.003  54.100  17.562  1.00  0.00    -0.000 C 
BRANCH  26  27
ATOM     27  C   UNL     1      30.434  53.485  16.223  1.00  0.00    -0.000 C 
BRANCH  27  28
ATOM     28  C   UNL     1      31.271  52.204  16.394  1.00  0.00    -0.000 C 
BRANCH  28  29
ATOM     29  C   UNL     1      32.658  52.236  15.721  1.00  0.00    -0.003 C 
ATOM     30  C   UNL     1      33.702  51.401  16.462  1.00  0.00     0.004 C 
ENDBRANCH  28  29
ENDBRANCH  27  28
ENDBRANCH  26  27
ENDBRANCH  25  26
ENDBRANCH  24  25
ENDBRANCH  23  24
ENDBRANCH  22  23
ENDBRANCH  21  22
ENDBRANCH  20  21
ENDBRANCH  19  20
ENDBRANCH  18  19
ENDBRANCH  17  18
ENDBRANCH   1  17
TORSDOF 26
ENDMDL
MODEL 7
REMARK VINA RESULT:    -4.953      4.309     12.894
REMARK INTER + INTRA:         -14.721
REMARK INTER:                 -12.113
REMARK INTRA:                  -2.608
REMARK UNBOUND:                -2.238
REMARK SMILES CCCCCCCCCCCCCCCCCCCCCCCCCCCC(=O)[O-]
REMARK SMILES IDX 15 1 16 2 17 3 18 4 19 5 20 6 21 7 22 8 23 9 24 10 25 11
REMARK SMILES IDX 26 12 27 13 28 14 29 15 30 16 14 17 13 18 12 19 11 20 10 21
REMARK SMILES IDX 9 22 8 23 7 24 6 25 5 26 4 27 3 28 2 29 1 30
REMARK H PARENT
REMARK Flexibility Score: inf
ROOT
ATOM      1  C   UNL     1      42.579  54.641  17.001  1.00  0.00     0.000 C 
ENDROOT
BRANCH   1   2
ATOM      2  C   UNL     1      41.719  55.344  18.071  1.00  0.00     0.000 C 
BRANCH   2   3
ATOM      3  C   UNL     1      40.824  56.483  17.541  1.00  0.00     0.000 C 
BRANCH   3   4
ATOM      4  C   UNL     1      39.349  56.431  17.994  1.00  0.00     0.000 C 
BRANCH   4   5
ATOM      5  C   UNL     1      38.315  56.446  16.853  1.00  0.00     0.000 C 
BRANCH   5   6
ATOM      6  C   UNL     1      37.018  57.181  17.234  1.00  0.00     0.000 C 
BRANCH   6   7
ATOM      7  C   UNL     1      36.341  57.851  16.028  1.00  0.00     0.000 C 
BRANCH   7   8
ATOM      8  C   UNL     1      36.078  56.876  14.868  1.00  0.00     0.000 C 
BRANCH   8   9
ATOM      9  C   UNL     1      34.728  57.169  14.174  1.00  0.00     0.000 C 
BRANCH   9  10
ATOM     10  C   UNL     1      33.516  56.777  15.041  1.00  0.00     0.000 C 
BRANCH  10  11
ATOM     11  C   UNL     1      33.511  55.277  15.417  1.00  0.00     0.000 C 
BRANCH  11  12
ATOM     12  C   UNL     1      33.367  55.009  16.927  1.00  0.00     0.006 C 
BRANCH  12  13
ATOM     13  C   UNL     1      31.911  54.839  17.397  1.00  0.00     0.053 C 
BRANCH  13  14
ATOM     14  C   UNL     1      31.181  53.768  16.638  1.00  0.00     0.041 C 
ATOM     15  O   UNL     1      30.102  54.035  16.044  1.00  0.00    -0.550 OA
ATOM     16  O   UNL     1      31.665  52.465  16.625  1.00  0.00    -0.550 OA
ENDBRANCH  13  14
ENDBRANCH  12  13
ENDBRANCH  11  12
ENDBRANCH  10  11
ENDBRANCH   9  10
ENDBRANCH   8   9
ENDBRANCH   7   8
ENDBRANCH   6   7
ENDBRANCH   5   6
ENDBRANCH   4   5
ENDBRANCH   3   4
ENDBRANCH   2   3
ENDBRANCH   1   2
BRANCH   1  17
ATOM     17  C   UNL     1      42.056  54.781  15.558  1.00  0.00     0.000 C 
BRANCH  17  18
ATOM     18  C   UNL     1      42.691  53.816  14.537  1.00  0.00     0.000 C 
BRANCH  18  19
ATOM     19  C   UNL     1      43.863  52.978  15.081  1.00  0.00     0.000 C 
BRANCH  19  20
ATOM     20  C   UNL     1      45.218  53.397  14.483  1.00  0.00     0.000 C 
BRANCH  20  21
ATOM     21  C   UNL     1      46.162  52.206  14.267  1.00  0.00     0.000 C 
BRANCH  21  22
ATOM     22  C   UNL     1      47.642  52.628  14.180  1.00  0.00    -0.000 C 
BRANCH  22  23
ATOM     23  C   UNL     1      48.424  52.338  15.479  1.00  0.00    -0.000 C 
BRANCH  23  24
ATOM     24  C   UNL     1      49.002  53.592  16.163  1.00  0.00    -0.000 C 
BRANCH  24  25
ATOM     25  C   UNL     1      48.378  54.927  15.721  1.00  0.00    -0.000 C 
BRANCH  25  26
ATOM     26  C   UNL     1      47.744  55.701  16.888  1.00  0.00    -0.000 C 
BRANCH  26  27
ATOM     27  C   UNL     1      46.213  55.708  16.773  1.00  0.00    -0.000 C 
BRANCH  27  28
ATOM     28  C   UNL     1      45.651  57.070  16.325  1.00  0.00    -0.000 C 
BRANCH  28  29
ATOM     29  C   UNL     1      45.978  57.465  14.872  1.00  0.00    -0.003 C 
ATOM     30  C   UNL     1      46.961  58.632  14.775  1.00  0.00     0.004 C 
ENDBRANCH  28  29
ENDBRANCH  27  28
ENDBRANCH  26  27
ENDBRANCH  25  26
ENDBRANCH  24  25
ENDBRANCH  23  24
ENDBRANCH  22  23
ENDBRANCH  21  22
ENDBRANCH  20  21
ENDBRANCH  19  20
ENDBRANCH  18  19
ENDBRANCH  17  18
ENDBRANCH   1  17
TORSDOF 26
ENDMDL
MODEL 8
REMARK VINA RESULT:    -4.810      4.421     12.864
REMARK INTER + INTRA:         -14.359
REMARK INTER:                 -11.715
REMARK INTRA:                  -2.644
REMARK UNBOUND:                -2.238
REMARK SMILES CCCCCCCCCCCCCCCCCCCCCCCCCCCC(=O)[O-]
REMARK SMILES IDX 15 1 16 2 17 3 18 4 19 5 20 6 21 7 22 8 23 9 24 10 25 11
REMARK SMILES IDX 26 12 27 13 28 14 29 15 30 16 14 17 13 18 12 19 11 20 10 21
REMARK SMILES IDX 9 22 8 23 7 24 6 25 5 26 4 27 3 28 2 29 1 30
REMARK H PARENT
REMARK Flexibility Score: inf
ROOT
ATOM      1  C   UNL     1      41.783  56.003  17.151  1.00  0.00     0.000 C 
ENDROOT
BRANCH   1   2
ATOM      2  C   UNL     1      40.452  56.000  17.931  1.00  0.00     0.000 C 
BRANCH   2   3
ATOM      3  C   UNL     1      39.203  56.326  17.087  1.00  0.00     0.000 C 
BRANCH   3   4
ATOM      4  C   UNL     1      38.205  57.309  17.736  1.00  0.00     0.000 C 
BRANCH   4   5
ATOM      5  C   UNL     1      36.746  57.161  17.268  1.00  0.00     0.000 C 
BRANCH   5   6
ATOM      6  C   UNL     1      36.429  58.011  16.025  1.00  0.00     0.000 C 
BRANCH   6   7
ATOM      7  C   UNL     1      36.258  57.163  14.756  1.00  0.00     0.000 C 
BRANCH   7   8
ATOM      8  C   UNL     1      35.083  57.624  13.878  1.00  0.00     0.000 C 
BRANCH   8   9
ATOM      9  C   UNL     1      33.806  56.799  14.159  1.00  0.00     0.000 C 
BRANCH   9  10
ATOM     10  C   UNL     1      34.071  55.583  15.067  1.00  0.00     0.000 C 
BRANCH  10  11
ATOM     11  C   UNL     1      33.436  55.736  16.470  1.00  0.00     0.000 C 
BRANCH  11  12
ATOM     12  C   UNL     1      32.427  54.630  16.827  1.00  0.00     0.006 C 
BRANCH  12  13
ATOM     13  C   UNL     1      30.978  55.129  16.979  1.00  0.00     0.053 C 
BRANCH  13  14
ATOM     14  C   UNL     1      30.797  56.532  16.476  1.00  0.00     0.041 C 
ATOM     15  O   UNL     1      30.879  57.506  17.271  1.00  0.00    -0.550 OA
ATOM     16  O   UNL     1      30.489  56.764  15.140  1.00  0.00    -0.550 OA
ENDBRANCH  13  14
ENDBRANCH  12  13
ENDBRANCH  11  12
ENDBRANCH  10  11
ENDBRANCH   9  10
ENDBRANCH   8   9
ENDBRANCH   7   8
ENDBRANCH   6   7
ENDBRANCH   5   6
ENDBRANCH   4   5
ENDBRANCH   3   4
ENDBRANCH   2   3
ENDBRANCH   1   2
BRANCH   1  17
ATOM     17  C   UNL     1      42.846  55.023  17.686  1.00  0.00     0.000 C 
BRANCH  17  18
ATOM     18  C   UNL     1      42.760  53.593  17.117  1.00  0.00     0.000 C 
BRANCH  18  19
ATOM     19  C   UNL     1      42.822  53.502  15.581  1.00  0.00     0.000 C 
BRANCH  19  20
ATOM     20  C   UNL     1      44.118  52.840  15.079  1.00  0.00     0.000 C 
BRANCH  20  21
ATOM     21  C   UNL     1      45.270  53.843  14.921  1.00  0.00     0.000 C 
BRANCH  21  22
ATOM     22  C   UNL     1      44.922  55.002  13.965  1.00  0.00    -0.000 C 
BRANCH  22  23
ATOM     23  C   UNL     1      45.598  56.331  14.365  1.00  0.00    -0.000 C 
BRANCH  23  24
ATOM     24  C   UNL     1      45.391  56.728  15.839  1.00  0.00    -0.000 C 
BRANCH  24  25
ATOM     25  C   UNL     1      46.286  57.874  16.342  1.00  0.00    -0.000 C 
BRANCH  25  26
ATOM     26  C   UNL     1      47.289  57.417  17.413  1.00  0.00    -0.000 C 
BRANCH  26  27
ATOM     27  C   UNL     1      48.436  56.615  16.782  1.00  0.00    -0.000 C 
BRANCH  27  28
ATOM     28  C   UNL     1      48.324  55.102  17.045  1.00  0.00    -0.000 C 
BRANCH  28  29
ATOM     29  C   UNL     1      48.566  54.205  15.815  1.00  0.00    -0.003 C 
ATOM     30  C   UNL     1      48.978  54.993  14.571  1.00  0.00     0.004 C 
ENDBRANCH  28  29
ENDBRANCH  27  28
ENDBRANCH  26  27
ENDBRANCH  25  26
ENDBRANCH  24  25
ENDBRANCH  23  24
ENDBRANCH  22  23
ENDBRANCH  21  22
ENDBRANCH  20  21
ENDBRANCH  19  20
ENDBRANCH  18  19
ENDBRANCH  17  18
ENDBRANCH   1  17
TORSDOF 26
ENDMDL
MODEL 9
REMARK VINA RESULT:    -4.600      1.275      2.676
REMARK INTER + INTRA:         -13.829
REMARK INTER:                 -11.302
REMARK INTRA:                  -2.528
REMARK UNBOUND:                -2.238
REMARK SMILES CCCCCCCCCCCCCCCCCCCCCCCCCCCC(=O)[O-]
REMARK SMILES IDX 15 1 16 2 17 3 18 4 19 5 20 6 21 7 22 8 23 9 24 10 25 11
REMARK SMILES IDX 26 12 27 13 28 14 29 15 30 16 14 17 13 18 12 19 11 20 10 21
REMARK SMILES IDX 9 22 8 23 7 24 6 25 5 26 4 27 3 28 2 29 1 30
REMARK H PARENT
REMARK Flexibility Score: inf
ROOT
ATOM      1  C   UNL     1      37.197  57.334  17.581  1.00  0.00     0.000 C 
ENDROOT
BRANCH   1   2
ATOM      2  C   UNL     1      38.414  56.652  16.924  1.00  0.00     0.000 C 
BRANCH   2   3
ATOM      3  C   UNL     1      39.596  56.371  17.876  1.00  0.00     0.000 C 
BRANCH   3   4
ATOM      4  C   UNL     1      40.925  55.997  17.186  1.00  0.00     0.000 C 
BRANCH   4   5
ATOM      5  C   UNL     1      41.975  55.345  18.105  1.00  0.00     0.000 C 
BRANCH   5   6
ATOM      6  C   UNL     1      43.362  55.246  17.446  1.00  0.00     0.000 C 
BRANCH   6   7
ATOM      7  C   UNL     1      43.420  54.172  16.349  1.00  0.00     0.000 C 
BRANCH   7   8
ATOM      8  C   UNL     1      44.358  54.548  15.189  1.00  0.00     0.000 C 
BRANCH   8   9
ATOM      9  C   UNL     1      45.062  53.304  14.601  1.00  0.00     0.000 C 
BRANCH   9  10
ATOM     10  C   UNL     1      46.555  53.549  14.308  1.00  0.00     0.000 C 
BRANCH  10  11
ATOM     11  C   UNL     1      47.329  54.065  15.543  1.00  0.00     0.000 C 
BRANCH  11  12
ATOM     12  C   UNL     1      48.543  54.948  15.201  1.00  0.00     0.006 C 
BRANCH  12  13
ATOM     13  C   UNL     1      48.212  56.446  15.075  1.00  0.00     0.053 C 
BRANCH  13  14
ATOM     14  C   UNL     1      47.770  57.051  16.377  1.00  0.00     0.041 C 
ATOM     15  O   UNL     1      46.885  57.948  16.391  1.00  0.00    -0.550 OA
ATOM     16  O   UNL     1      48.367  56.659  17.569  1.00  0.00    -0.550 OA
ENDBRANCH  13  14
ENDBRANCH  12  13
ENDBRANCH  11  12
ENDBRANCH  10  11
ENDBRANCH   9  10
ENDBRANCH   8   9
ENDBRANCH   7   8
ENDBRANCH   6   7
ENDBRANCH   5   6
ENDBRANCH   4   5
ENDBRANCH   3   4
ENDBRANCH   2   3
ENDBRANCH   1   2
BRANCH   1  17
ATOM     17  C   UNL     1      35.946  57.424  16.685  1.00  0.00     0.000 C 
BRANCH  17  18
ATOM     18  C   UNL     1      36.113  56.833  15.271  1.00  0.00     0.000 C 
BRANCH  18  19
ATOM     19  C   UNL     1      35.258  57.507  14.182  1.00  0.00     0.000 C 
BRANCH  19  20
ATOM     20  C   UNL     1      33.950  56.746  13.900  1.00  0.00     0.000 C 
BRANCH  20  21
ATOM     21  C   UNL     1      34.137  55.222  13.925  1.00  0.00     0.000 C 
BRANCH  21  22
ATOM     22  C   UNL     1      32.828  54.468  14.231  1.00  0.00    -0.000 C 
BRANCH  22  23
ATOM     23  C   UNL     1      32.961  53.497  15.424  1.00  0.00    -0.000 C 
BRANCH  23  24
ATOM     24  C   UNL     1      33.554  54.134  16.696  1.00  0.00    -0.000 C 
BRANCH  24  25
ATOM     25  C   UNL     1      32.821  55.387  17.204  1.00  0.00    -0.000 C 
BRANCH  25  26
ATOM     26  C   UNL     1      31.389  55.088  17.673  1.00  0.00    -0.000 C 
BRANCH  26  27
ATOM     27  C   UNL     1      30.359  55.647  16.680  1.00  0.00    -0.000 C 
BRANCH  27  28
ATOM     28  C   UNL     1      30.858  56.905  15.946  1.00  0.00    -0.000 C 
BRANCH  28  29
ATOM     29  C   UNL     1      30.218  57.152  14.566  1.00  0.00    -0.003 C 
ATOM     30  C   UNL     1      29.988  58.633  14.268  1.00  0.00     0.004 C 
ENDBRANCH  28  29
ENDBRANCH  27  28
ENDBRANCH  26  27
ENDBRANCH  25  26
ENDBRANCH  24  25
ENDBRANCH  23  24
ENDBRANCH  22  23
ENDBRANCH  21  22
ENDBRANCH  20  21
ENDBRANCH  19  20
ENDBRANCH  18  19
ENDBRANCH  17  18
ENDBRANCH   1  17
TORSDOF 26
ENDMDL
