MODEL 1
REMARK VINA RESULT:     8.520      0.000      0.000
REMARK INTER + INTRA:          22.174
REMARK INTER:                  22.466
REMARK INTRA:                  -0.292
REMARK UNBOUND:                -0.292
REMARK SMILES CCCCCCCCCCCCCCCCCCCCCCCCCCCCCC(=O)[O-]
REMARK SMILES IDX 16 1 17 2 18 3 19 4 20 5 21 6 22 7 23 8 24 9 25 10 26 11
REMARK SMILES IDX 27 12 28 13 29 14 30 15 31 16 32 17 15 18 14 19 13 20 12 21
REMARK SMILES IDX 11 22 10 23 9 24 8 25 7 26 6 27 5 28 4 29 3 30 2 31 1 32
REMARK H PARENT
REMARK Flexibility Score: inf
ROOT
ATOM      1  C   UNL     1       0.428 -31.224  -6.467  1.00  0.00     0.000 C 
ENDROOT
BRANCH   1   2
ATOM      2  C   UNL     1       1.700 -31.627  -7.245  1.00  0.00     0.000 C 
BRANCH   2   3
ATOM      3  C   UNL     1       2.863 -30.620  -7.169  1.00  0.00     0.000 C 
BRANCH   3   4
ATOM      4  C   UNL     1       2.641 -29.448  -6.193  1.00  0.00     0.000 C 
BRANCH   4   5
ATOM      5  C   UNL     1       3.243 -28.103  -6.645  1.00  0.00     0.000 C 
BRANCH   5   6
ATOM      6  C   UNL     1       2.286 -27.197  -7.441  1.00  0.00     0.000 C 
BRANCH   6   7
ATOM      7  C   UNL     1       1.771 -26.007  -6.614  1.00  0.00     0.000 C 
BRANCH   7   8
ATOM      8  C   UNL     1       1.082 -24.938  -7.476  1.00  0.00     0.000 C 
BRANCH   8   9
ATOM      9  C   UNL     1      -0.006 -24.167  -6.706  1.00  0.00     0.000 C 
BRANCH   9  10
ATOM     10  C   UNL     1      -0.041 -22.666  -7.061  1.00  0.00     0.000 C 
BRANCH  10  11
ATOM     11  C   UNL     1      -0.137 -21.734  -5.838  1.00  0.00     0.000 C 
BRANCH  11  12
ATOM     12  C   UNL     1      -1.159 -22.157  -4.766  1.00  0.00     0.000 C 
BRANCH  12  13
ATOM     13  C   UNL     1      -2.521 -22.628  -5.310  1.00  0.00     0.006 C 
BRANCH  13  14
ATOM     14  C   UNL     1      -2.926 -21.914  -6.607  1.00  0.00     0.053 C 
BRANCH  14  15
ATOM     15  C   UNL     1      -4.216 -21.178  -6.432  1.00  0.00     0.041 C 
ATOM     16  O   UNL     1      -4.620 -20.868  -5.280  1.00  0.00    -0.550 OA
ATOM     17  O   UNL     1      -4.991 -20.856  -7.542  1.00  0.00    -0.550 OA
ENDBRANCH  14  15
ENDBRANCH  13  14
ENDBRANCH  12  13
ENDBRANCH  11  12
ENDBRANCH  10  11
ENDBRANCH   9  10
ENDBRANCH   8   9
ENDBRANCH   7   8
ENDBRANCH   6   7
ENDBRANCH   5   6
ENDBRANCH   4   5
ENDBRANCH   3   4
ENDBRANCH   2   3
ENDBRANCH   1   2
BRANCH   1  18
ATOM     18  C   UNL     1      -0.801 -32.125  -6.700  1.00  0.00     0.000 C 
BRANCH  18  19
ATOM     19  C   UNL     1      -1.695 -31.639  -7.855  1.00  0.00     0.000 C 
BRANCH  19  20
ATOM     20  C   UNL     1      -3.193 -31.744  -7.526  1.00  0.00     0.000 C 
BRANCH  20  21
ATOM     21  C   UNL     1      -3.797 -30.413  -7.051  1.00  0.00     0.000 C 
BRANCH  21  22
ATOM     22  C   UNL     1      -4.784 -30.642  -5.898  1.00  0.00     0.000 C 
BRANCH  22  23
ATOM     23  C   UNL     1      -4.178 -31.560  -4.827  1.00  0.00     0.000 C 
BRANCH  23  24
ATOM     24  C   UNL     1      -3.099 -30.858  -3.987  1.00  0.00    -0.000 C 
BRANCH  24  25
ATOM     25  C   UNL     1      -1.881 -31.754  -3.717  1.00  0.00    -0.000 C 
BRANCH  25  26
ATOM     26  C   UNL     1      -0.572 -30.959  -3.848  1.00  0.00    -0.000 C 
BRANCH  26  27
ATOM     27  C   UNL     1       0.403 -31.208  -2.682  1.00  0.00    -0.000 C 
BRANCH  27  28
ATOM     28  C   UNL     1      -0.249 -31.691  -1.372  1.00  0.00    -0.000 C 
BRANCH  28  29
ATOM     29  C   UNL     1       0.725 -31.688  -0.181  1.00  0.00    -0.000 C 
BRANCH  29  30
ATOM     30  C   UNL     1       1.985 -30.850  -0.448  1.00  0.00    -0.000 C 
BRANCH  30  31
ATOM     31  C   UNL     1       1.749 -29.343  -0.262  1.00  0.00    -0.003 C 
ATOM     32  C   UNL     1       1.828 -28.954   1.213  1.00  0.00     0.004 C 
ENDBRANCH  30  31
ENDBRANCH  29  30
ENDBRANCH  28  29
ENDBRANCH  27  28
ENDBRANCH  26  27
ENDBRANCH  25  26
ENDBRANCH  24  25
ENDBRANCH  23  24
ENDBRANCH  22  23
ENDBRANCH  21  22
ENDBRANCH  20  21
ENDBRANCH  19  20
ENDBRANCH  18  19
ENDBRANCH   1  18
TORSDOF 28
ENDMDL
MODEL 2
REMARK VINA RESULT:     9.696      2.551      6.446
REMARK INTER + INTRA:          25.274
REMARK INTER:                  22.007
REMARK INTRA:                   3.267
REMARK UNBOUND:                -0.292
REMARK SMILES CCCCCCCCCCCCCCCCCCCCCCCCCCCCCC(=O)[O-]
REMARK SMILES IDX 16 1 17 2 18 3 19 4 20 5 21 6 22 7 23 8 24 9 25 10 26 11
REMARK SMILES IDX 27 12 28 13 29 14 30 15 31 16 32 17 15 18 14 19 13 20 12 21
REMARK SMILES IDX 11 22 10 23 9 24 8 25 7 26 6 27 5 28 4 29 3 30 2 31 1 32
REMARK H PARENT
REMARK Flexibility Score: inf
ROOT
ATOM      1  C   UNL     1       2.966 -24.383  -5.235  1.00  0.00     0.000 C 
ENDROOT
BRANCH   1   2
ATOM      2  C   UNL     1       1.441 -24.169  -5.357  1.00  0.00     0.000 C 
BRANCH   2   3
ATOM      3  C   UNL     1       0.944 -23.776  -6.760  1.00  0.00     0.000 C 
BRANCH   3   4
ATOM      4  C   UNL     1      -0.087 -22.630  -6.784  1.00  0.00     0.000 C 
BRANCH   4   5
ATOM      5  C   UNL     1      -1.552 -23.078  -6.949  1.00  0.00     0.000 C 
BRANCH   5   6
ATOM      6  C   UNL     1      -2.602 -21.990  -6.653  1.00  0.00     0.000 C 
BRANCH   6   7
ATOM      7  C   UNL     1      -3.726 -21.951  -7.702  1.00  0.00     0.000 C 
BRANCH   7   8
ATOM      8  C   UNL     1      -5.125 -21.877  -7.071  1.00  0.00     0.000 C 
BRANCH   8   9
ATOM      9  C   UNL     1      -5.125 -21.152  -5.713  1.00  0.00     0.000 C 
BRANCH   9  10
ATOM     10  C   UNL     1      -4.850 -19.639  -5.843  1.00  0.00     0.000 C 
BRANCH  10  11
ATOM     11  C   UNL     1      -3.404 -19.231  -5.498  1.00  0.00     0.000 C 
BRANCH  11  12
ATOM     12  C   UNL     1      -2.380 -20.382  -5.485  1.00  0.00     0.000 C 
BRANCH  12  13
ATOM     13  C   UNL     1      -1.350 -20.328  -4.341  1.00  0.00     0.006 C 
BRANCH  13  14
ATOM     14  C   UNL     1      -0.990 -21.717  -3.794  1.00  0.00     0.053 C 
BRANCH  14  15
ATOM     15  C   UNL     1      -0.835 -21.682  -2.307  1.00  0.00     0.041 C 
ATOM     16  O   UNL     1       0.312 -21.671  -1.787  1.00  0.00    -0.550 OA
ATOM     17  O   UNL     1      -1.961 -21.689  -1.489  1.00  0.00    -0.550 OA
ENDBRANCH  14  15
ENDBRANCH  13  14
ENDBRANCH  12  13
ENDBRANCH  11  12
ENDBRANCH  10  11
ENDBRANCH   9  10
ENDBRANCH   8   9
ENDBRANCH   7   8
ENDBRANCH   6   7
ENDBRANCH   5   6
ENDBRANCH   4   5
ENDBRANCH   3   4
ENDBRANCH   2   3
ENDBRANCH   1   2
BRANCH   1  18
ATOM     18  C   UNL     1       3.507 -25.669  -5.890  1.00  0.00     0.000 C 
BRANCH  18  19
ATOM     19  C   UNL     1       2.435 -26.441  -6.680  1.00  0.00     0.000 C 
BRANCH  19  20
ATOM     20  C   UNL     1       2.525 -27.961  -6.468  1.00  0.00     0.000 C 
BRANCH  20  21
ATOM     21  C   UNL     1       3.066 -28.706  -7.698  1.00  0.00     0.000 C 
BRANCH  21  22
ATOM     22  C   UNL     1       2.640 -30.180  -7.675  1.00  0.00     0.000 C 
BRANCH  22  23
ATOM     23  C   UNL     1       2.863 -30.797  -6.286  1.00  0.00     0.000 C 
BRANCH  23  24
ATOM     24  C   UNL     1       2.061 -32.091  -6.077  1.00  0.00    -0.000 C 
BRANCH  24  25
ATOM     25  C   UNL     1       0.564 -31.832  -5.850  1.00  0.00    -0.000 C 
BRANCH  25  26
ATOM     26  C   UNL     1       0.304 -31.313  -4.428  1.00  0.00    -0.000 C 
BRANCH  26  27
ATOM     27  C   UNL     1      -1.106 -31.655  -3.911  1.00  0.00    -0.000 C 
BRANCH  27  28
ATOM     28  C   UNL     1      -2.268 -31.071  -4.737  1.00  0.00    -0.000 C 
BRANCH  28  29
ATOM     29  C   UNL     1      -3.637 -31.651  -4.340  1.00  0.00    -0.000 C 
BRANCH  29  30
ATOM     30  C   UNL     1      -4.532 -31.944  -5.555  1.00  0.00    -0.000 C 
BRANCH  30  31
ATOM     31  C   UNL     1      -4.475 -30.836  -6.618  1.00  0.00    -0.003 C 
ATOM     32  C   UNL     1      -3.982 -31.384  -7.955  1.00  0.00     0.004 C 
ENDBRANCH  30  31
ENDBRANCH  29  30
ENDBRANCH  28  29
ENDBRANCH  27  28
ENDBRANCH  26  27
ENDBRANCH  25  26
ENDBRANCH  24  25
ENDBRANCH  23  24
ENDBRANCH  22  23
ENDBRANCH  21  22
ENDBRANCH  20  21
ENDBRANCH  19  20
ENDBRANCH  18  19
ENDBRANCH   1  18
TORSDOF 28
ENDMDL
MODEL 3
REMARK VINA RESULT:     9.712      1.908      2.330
REMARK INTER + INTRA:          25.317
REMARK INTER:                  25.592
REMARK INTRA:                  -0.275
REMARK UNBOUND:                -0.292
REMARK SMILES CCCCCCCCCCCCCCCCCCCCCCCCCCCCCC(=O)[O-]
REMARK SMILES IDX 16 1 17 2 18 3 19 4 20 5 21 6 22 7 23 8 24 9 25 10 26 11
REMARK SMILES IDX 27 12 28 13 29 14 30 15 31 16 32 17 15 18 14 19 13 20 12 21
REMARK SMILES IDX 11 22 10 23 9 24 8 25 7 26 6 27 5 28 4 29 3 30 2 31 1 32
REMARK H PARENT
REMARK Flexibility Score: inf
ROOT
ATOM      1  C   UNL     1       0.640 -31.056  -6.335  1.00  0.00     0.000 C 
ENDROOT
BRANCH   1   2
ATOM      2  C   UNL     1       1.940 -31.334  -7.123  1.00  0.00     0.000 C 
BRANCH   2   3
ATOM      3  C   UNL     1       2.887 -30.128  -7.273  1.00  0.00     0.000 C 
BRANCH   3   4
ATOM      4  C   UNL     1       2.605 -28.960  -6.307  1.00  0.00     0.000 C 
BRANCH   4   5
ATOM      5  C   UNL     1       2.842 -27.557  -6.899  1.00  0.00     0.000 C 
BRANCH   5   6
ATOM      6  C   UNL     1       1.566 -26.808  -7.328  1.00  0.00     0.000 C 
BRANCH   6   7
ATOM      7  C   UNL     1       1.438 -25.427  -6.663  1.00  0.00     0.000 C 
BRANCH   7   8
ATOM      8  C   UNL     1       0.329 -24.567  -7.288  1.00  0.00     0.000 C 
BRANCH   8   9
ATOM      9  C   UNL     1      -0.246 -23.534  -6.302  1.00  0.00     0.000 C 
BRANCH   9  10
ATOM     10  C   UNL     1      -0.355 -22.121  -6.911  1.00  0.00     0.000 C 
BRANCH  10  11
ATOM     11  C   UNL     1      -1.774 -21.521  -6.858  1.00  0.00     0.000 C 
BRANCH  11  12
ATOM     12  C   UNL     1      -2.447 -21.543  -5.473  1.00  0.00     0.000 C 
BRANCH  12  13
ATOM     13  C   UNL     1      -1.554 -21.081  -4.305  1.00  0.00     0.006 C 
BRANCH  13  14
ATOM     14  C   UNL     1      -1.574 -22.052  -3.116  1.00  0.00     0.053 C 
BRANCH  14  15
ATOM     15  C   UNL     1      -0.226 -22.141  -2.476  1.00  0.00     0.041 C 
ATOM     16  O   UNL     1       0.575 -23.056  -2.805  1.00  0.00    -0.550 OA
ATOM     17  O   UNL     1       0.140 -21.228  -1.491  1.00  0.00    -0.550 OA
ENDBRANCH  14  15
ENDBRANCH  13  14
ENDBRANCH  12  13
ENDBRANCH  11  12
ENDBRANCH  10  11
ENDBRANCH   9  10
ENDBRANCH   8   9
ENDBRANCH   7   8
ENDBRANCH   6   7
ENDBRANCH   5   6
ENDBRANCH   4   5
ENDBRANCH   3   4
ENDBRANCH   2   3
ENDBRANCH   1   2
BRANCH   1  18
ATOM     18  C   UNL     1      -0.468 -32.115  -6.495  1.00  0.00     0.000 C 
BRANCH  18  19
ATOM     19  C   UNL     1      -1.281 -31.947  -7.791  1.00  0.00     0.000 C 
BRANCH  19  20
ATOM     20  C   UNL     1      -2.792 -32.125  -7.567  1.00  0.00     0.000 C 
BRANCH  20  21
ATOM     21  C   UNL     1      -3.524 -30.794  -7.331  1.00  0.00     0.000 C 
BRANCH  21  22
ATOM     22  C   UNL     1      -4.787 -31.007  -6.487  1.00  0.00     0.000 C 
BRANCH  22  23
ATOM     23  C   UNL     1      -4.477 -31.831  -5.229  1.00  0.00     0.000 C 
BRANCH  23  24
ATOM     24  C   UNL     1      -3.590 -31.073  -4.228  1.00  0.00    -0.000 C 
BRANCH  24  25
ATOM     25  C   UNL     1      -2.353 -31.878  -3.803  1.00  0.00    -0.000 C 
BRANCH  25  26
ATOM     26  C   UNL     1      -1.075 -31.037  -3.939  1.00  0.00    -0.000 C 
BRANCH  26  27
ATOM     27  C   UNL     1       0.054 -31.500  -2.998  1.00  0.00    -0.000 C 
BRANCH  27  28
ATOM     28  C   UNL     1       0.278 -30.615  -1.756  1.00  0.00    -0.000 C 
BRANCH  28  29
ATOM     29  C   UNL     1       1.168 -31.287  -0.695  1.00  0.00    -0.000 C 
BRANCH  29  30
ATOM     30  C   UNL     1       0.963 -30.698   0.709  1.00  0.00    -0.000 C 
BRANCH  30  31
ATOM     31  C   UNL     1       1.864 -29.484   0.984  1.00  0.00    -0.003 C 
ATOM     32  C   UNL     1       1.942 -28.571  -0.237  1.00  0.00     0.004 C 
ENDBRANCH  30  31
ENDBRANCH  29  30
ENDBRANCH  28  29
ENDBRANCH  27  28
ENDBRANCH  26  27
ENDBRANCH  25  26
ENDBRANCH  24  25
ENDBRANCH  23  24
ENDBRANCH  22  23
ENDBRANCH  21  22
ENDBRANCH  20  21
ENDBRANCH  19  20
ENDBRANCH  18  19
ENDBRANCH   1  18
TORSDOF 28
ENDMDL
MODEL 4
REMARK VINA RESULT:     9.917      3.133      9.021
REMARK INTER + INTRA:          25.859
REMARK INTER:                  21.528
REMARK INTRA:                   4.331
REMARK UNBOUND:                -0.292
REMARK SMILES CCCCCCCCCCCCCCCCCCCCCCCCCCCCCC(=O)[O-]
REMARK SMILES IDX 16 1 17 2 18 3 19 4 20 5 21 6 22 7 23 8 24 9 25 10 26 11
REMARK SMILES IDX 27 12 28 13 29 14 30 15 31 16 32 17 15 18 14 19 13 20 12 21
REMARK SMILES IDX 11 22 10 23 9 24 8 25 7 26 6 27 5 28 4 29 3 30 2 31 1 32
REMARK H PARENT
REMARK Flexibility Score: inf
ROOT
ATOM      1  C   UNL     1       2.435 -24.606  -4.786  1.00  0.00     0.000 C 
ENDROOT
BRANCH   1   2
ATOM      2  C   UNL     1       3.520 -25.424  -5.521  1.00  0.00     0.000 C 
BRANCH   2   3
ATOM      3  C   UNL     1       3.334 -26.953  -5.474  1.00  0.00     0.000 C 
BRANCH   3   4
ATOM      4  C   UNL     1       2.412 -27.526  -6.568  1.00  0.00     0.000 C 
BRANCH   4   5
ATOM      5  C   UNL     1       2.927 -28.814  -7.242  1.00  0.00     0.000 C 
BRANCH   5   6
ATOM      6  C   UNL     1       2.780 -30.093  -6.398  1.00  0.00     0.000 C 
BRANCH   6   7
ATOM      7  C   UNL     1       2.988 -31.375  -7.223  1.00  0.00     0.000 C 
BRANCH   7   8
ATOM      8  C   UNL     1       1.665 -32.050  -7.614  1.00  0.00     0.000 C 
BRANCH   8   9
ATOM      9  C   UNL     1       0.575 -31.884  -6.540  1.00  0.00     0.000 C 
BRANCH   9  10
ATOM     10  C   UNL     1       1.146 -31.481  -5.164  1.00  0.00     0.000 C 
BRANCH  10  11
ATOM     11  C   UNL     1       0.078 -31.032  -4.148  1.00  0.00     0.000 C 
BRANCH  11  12
ATOM     12  C   UNL     1      -1.177 -31.922  -4.074  1.00  0.00     0.000 C 
BRANCH  12  13
ATOM     13  C   UNL     1      -2.451 -31.307  -4.683  1.00  0.00     0.006 C 
BRANCH  13  14
ATOM     14  C   UNL     1      -2.914 -32.028  -5.956  1.00  0.00     0.053 C 
BRANCH  14  15
ATOM     15  C   UNL     1      -4.115 -31.357  -6.544  1.00  0.00     0.041 C 
ATOM     16  O   UNL     1      -4.690 -31.850  -7.551  1.00  0.00    -0.550 OA
ATOM     17  O   UNL     1      -4.585 -30.167  -5.998  1.00  0.00    -0.550 OA
ENDBRANCH  14  15
ENDBRANCH  13  14
ENDBRANCH  12  13
ENDBRANCH  11  12
ENDBRANCH  10  11
ENDBRANCH   9  10
ENDBRANCH   8   9
ENDBRANCH   7   8
ENDBRANCH   6   7
ENDBRANCH   5   6
ENDBRANCH   4   5
ENDBRANCH   3   4
ENDBRANCH   2   3
ENDBRANCH   1   2
BRANCH   1  18
ATOM     18  C   UNL     1       1.880 -23.397  -5.564  1.00  0.00     0.000 C 
BRANCH  18  19
ATOM     19  C   UNL     1       0.452 -23.622  -6.093  1.00  0.00     0.000 C 
BRANCH  19  20
ATOM     20  C   UNL     1       0.034 -22.568  -7.131  1.00  0.00     0.000 C 
BRANCH  20  21
ATOM     21  C   UNL     1      -1.488 -22.363  -7.196  1.00  0.00     0.000 C 
BRANCH  21  22
ATOM     22  C   UNL     1      -2.148 -22.745  -5.865  1.00  0.00     0.000 C 
BRANCH  22  23
ATOM     23  C   UNL     1      -3.679 -22.714  -5.978  1.00  0.00     0.000 C 
BRANCH  23  24
ATOM     24  C   UNL     1      -4.165 -21.990  -7.244  1.00  0.00    -0.000 C 
BRANCH  24  25
ATOM     25  C   UNL     1      -5.124 -20.831  -6.934  1.00  0.00    -0.000 C 
BRANCH  25  26
ATOM     26  C   UNL     1      -4.375 -19.490  -6.899  1.00  0.00    -0.000 C 
BRANCH  26  27
ATOM     27  C   UNL     1      -3.767 -19.175  -5.520  1.00  0.00    -0.000 C 
BRANCH  27  28
ATOM     28  C   UNL     1      -3.440 -20.404  -4.650  1.00  0.00    -0.000 C 
BRANCH  28  29
ATOM     29  C   UNL     1      -1.965 -20.833  -4.748  1.00  0.00    -0.000 C 
BRANCH  29  30
ATOM     30  C   UNL     1      -1.216 -20.686  -3.414  1.00  0.00    -0.000 C 
BRANCH  30  31
ATOM     31  C   UNL     1      -0.854 -22.038  -2.781  1.00  0.00    -0.003 C 
ATOM     32  C   UNL     1       0.212 -21.871  -1.701  1.00  0.00     0.004 C 
ENDBRANCH  30  31
ENDBRANCH  29  30
ENDBRANCH  28  29
ENDBRANCH  27  28
ENDBRANCH  26  27
ENDBRANCH  25  26
ENDBRANCH  24  25
ENDBRANCH  23  24
ENDBRANCH  22  23
ENDBRANCH  21  22
ENDBRANCH  20  21
ENDBRANCH  19  20
ENDBRANCH  18  19
ENDBRANCH   1  18
TORSDOF 28
ENDMDL
MODEL 5
REMARK VINA RESULT:    10.098      4.124     10.766
REMARK INTER + INTRA:          26.336
REMARK INTER:                  25.834
REMARK INTRA:                   0.502
REMARK UNBOUND:                -0.292
REMARK SMILES CCCCCCCCCCCCCCCCCCCCCCCCCCCCCC(=O)[O-]
REMARK SMILES IDX 16 1 17 2 18 3 19 4 20 5 21 6 22 7 23 8 24 9 25 10 26 11
REMARK SMILES IDX 27 12 28 13 29 14 30 15 31 16 32 17 15 18 14 19 13 20 12 21
REMARK SMILES IDX 11 22 10 23 9 24 8 25 7 26 6 27 5 28 4 29 3 30 2 31 1 32
REMARK H PARENT
REMARK Flexibility Score: inf
ROOT
ATOM      1  C   UNL     1       3.413 -25.805  -5.991  1.00  0.00     0.000 C 
ENDROOT
BRANCH   1   2
ATOM      2  C   UNL     1       2.500 -26.620  -6.934  1.00  0.00     0.000 C 
BRANCH   2   3
ATOM      3  C   UNL     1       3.041 -28.005  -7.335  1.00  0.00     0.000 C 
BRANCH   3   4
ATOM      4  C   UNL     1       2.365 -29.194  -6.625  1.00  0.00     0.000 C 
BRANCH   4   5
ATOM      5  C   UNL     1       2.574 -30.562  -7.305  1.00  0.00     0.000 C 
BRANCH   5   6
ATOM      6  C   UNL     1       2.415 -31.781  -6.377  1.00  0.00     0.000 C 
BRANCH   6   7
ATOM      7  C   UNL     1       1.591 -31.463  -5.118  1.00  0.00     0.000 C 
BRANCH   7   8
ATOM      8  C   UNL     1       0.123 -31.898  -5.243  1.00  0.00     0.000 C 
BRANCH   8   9
ATOM      9  C   UNL     1      -0.839 -30.705  -5.389  1.00  0.00     0.000 C 
BRANCH   9  10
ATOM     10  C   UNL     1      -2.309 -31.082  -5.109  1.00  0.00     0.000 C 
BRANCH  10  11
ATOM     11  C   UNL     1      -2.510 -31.916  -3.829  1.00  0.00     0.000 C 
BRANCH  11  12
ATOM     12  C   UNL     1      -1.343 -31.874  -2.824  1.00  0.00     0.000 C 
BRANCH  12  13
ATOM     13  C   UNL     1      -0.793 -30.468  -2.520  1.00  0.00     0.006 C 
BRANCH  13  14
ATOM     14  C   UNL     1       0.619 -30.495  -1.918  1.00  0.00     0.053 C 
BRANCH  14  15
ATOM     15  C   UNL     1       0.738 -31.567  -0.882  1.00  0.00     0.041 C 
ATOM     16  O   UNL     1       1.871 -31.989  -0.530  1.00  0.00    -0.550 OA
ATOM     17  O   UNL     1      -0.408 -32.125  -0.321  1.00  0.00    -0.550 OA
ENDBRANCH  14  15
ENDBRANCH  13  14
ENDBRANCH  12  13
ENDBRANCH  11  12
ENDBRANCH  10  11
ENDBRANCH   9  10
ENDBRANCH   8   9
ENDBRANCH   7   8
ENDBRANCH   6   7
ENDBRANCH   5   6
ENDBRANCH   4   5
ENDBRANCH   3   4
ENDBRANCH   2   3
ENDBRANCH   1   2
BRANCH   1  18
ATOM     18  C   UNL     1       2.733 -24.624  -5.271  1.00  0.00     0.000 C 
BRANCH  18  19
ATOM     19  C   UNL     1       1.264 -24.429  -5.689  1.00  0.00     0.000 C 
BRANCH  19  20
ATOM     20  C   UNL     1       0.951 -22.977  -6.085  1.00  0.00     0.000 C 
BRANCH  20  21
ATOM     21  C   UNL     1      -0.228 -22.864  -7.066  1.00  0.00     0.000 C 
BRANCH  21  22
ATOM     22  C   UNL     1      -1.230 -21.803  -6.594  1.00  0.00     0.000 C 
BRANCH  22  23
ATOM     23  C   UNL     1      -2.601 -22.006  -7.255  1.00  0.00     0.000 C 
BRANCH  23  24
ATOM     24  C   UNL     1      -3.666 -22.510  -6.269  1.00  0.00    -0.000 C 
BRANCH  24  25
ATOM     25  C   UNL     1      -4.583 -21.388  -5.759  1.00  0.00    -0.000 C 
BRANCH  25  26
ATOM     26  C   UNL     1      -4.366 -20.094  -6.558  1.00  0.00    -0.000 C 
BRANCH  26  27
ATOM     27  C   UNL     1      -3.996 -18.892  -5.669  1.00  0.00    -0.000 C 
BRANCH  27  28
ATOM     28  C   UNL     1      -4.779 -17.596  -5.957  1.00  0.00    -0.000 C 
BRANCH  28  29
ATOM     29  C   UNL     1      -5.122 -17.423  -7.447  1.00  0.00    -0.000 C 
BRANCH  29  30
ATOM     30  C   UNL     1      -4.701 -16.050  -7.997  1.00  0.00    -0.000 C 
BRANCH  30  31
ATOM     31  C   UNL     1      -3.426 -15.508  -7.333  1.00  0.00    -0.003 C 
ATOM     32  C   UNL     1      -3.171 -14.058  -7.738  1.00  0.00     0.004 C 
ENDBRANCH  30  31
ENDBRANCH  29  30
ENDBRANCH  28  29
ENDBRANCH  27  28
ENDBRANCH  26  27
ENDBRANCH  25  26
ENDBRANCH  24  25
ENDBRANCH  23  24
ENDBRANCH  22  23
ENDBRANCH  21  22
ENDBRANCH  20  21
ENDBRANCH  19  20
ENDBRANCH  18  19
ENDBRANCH   1  18
TORSDOF 28
ENDMDL
MODEL 6
REMARK VINA RESULT:    10.328      3.437      6.383
REMARK INTER + INTRA:          26.942
REMARK INTER:                  28.796
REMARK INTRA:                  -1.854
REMARK UNBOUND:                -0.292
REMARK SMILES CCCCCCCCCCCCCCCCCCCCCCCCCCCCCC(=O)[O-]
REMARK SMILES IDX 16 1 17 2 18 3 19 4 20 5 21 6 22 7 23 8 24 9 25 10 26 11
REMARK SMILES IDX 27 12 28 13 29 14 30 15 31 16 32 17 15 18 14 19 13 20 12 21
REMARK SMILES IDX 11 22 10 23 9 24 8 25 7 26 6 27 5 28 4 29 3 30 2 31 1 32
REMARK H PARENT
REMARK Flexibility Score: inf
ROOT
ATOM      1  C   UNL     1       2.841 -24.484  -4.933  1.00  0.00     0.000 C 
ENDROOT
BRANCH   1   2
ATOM      2  C   UNL     1       2.366 -23.399  -5.924  1.00  0.00     0.000 C 
BRANCH   2   3
ATOM      3  C   UNL     1       0.881 -23.008  -5.808  1.00  0.00     0.000 C 
BRANCH   3   4
ATOM      4  C   UNL     1       0.144 -22.855  -7.153  1.00  0.00     0.000 C 
BRANCH   4   5
ATOM      5  C   UNL     1      -1.067 -21.902  -7.127  1.00  0.00     0.000 C 
BRANCH   5   6
ATOM      6  C   UNL     1      -1.517 -21.461  -5.721  1.00  0.00     0.000 C 
BRANCH   6   7
ATOM      7  C   UNL     1      -3.004 -21.752  -5.457  1.00  0.00     0.000 C 
BRANCH   7   8
ATOM      8  C   UNL     1      -3.936 -20.727  -6.120  1.00  0.00     0.000 C 
BRANCH   8   9
ATOM      9  C   UNL     1      -3.269 -19.352  -6.305  1.00  0.00     0.000 C 
BRANCH   9  10
ATOM     10  C   UNL     1      -4.138 -18.189  -5.782  1.00  0.00     0.000 C 
BRANCH  10  11
ATOM     11  C   UNL     1      -5.124 -17.624  -6.823  1.00  0.00     0.000 C 
BRANCH  11  12
ATOM     12  C   UNL     1      -4.479 -16.853  -7.991  1.00  0.00     0.000 C 
BRANCH  12  13
ATOM     13  C   UNL     1      -4.364 -15.331  -7.784  1.00  0.00     0.006 C 
BRANCH  13  14
ATOM     14  C   UNL     1      -2.955 -14.888  -7.368  1.00  0.00     0.053 C 
BRANCH  14  15
ATOM     15  C   UNL     1      -2.665 -13.502  -7.852  1.00  0.00     0.041 C 
ATOM     16  O   UNL     1      -3.609 -12.713  -8.123  1.00  0.00    -0.550 OA
ATOM     17  O   UNL     1      -1.349 -13.088  -8.031  1.00  0.00    -0.550 OA
ENDBRANCH  14  15
ENDBRANCH  13  14
ENDBRANCH  12  13
ENDBRANCH  11  12
ENDBRANCH  10  11
ENDBRANCH   9  10
ENDBRANCH   8   9
ENDBRANCH   7   8
ENDBRANCH   6   7
ENDBRANCH   5   6
ENDBRANCH   4   5
ENDBRANCH   3   4
ENDBRANCH   2   3
ENDBRANCH   1   2
BRANCH   1  18
ATOM     18  C   UNL     1       3.975 -25.394  -5.444  1.00  0.00     0.000 C 
BRANCH  18  19
ATOM     19  C   UNL     1       3.620 -26.891  -5.386  1.00  0.00     0.000 C 
BRANCH  19  20
ATOM     20  C   UNL     1       2.621 -27.303  -6.480  1.00  0.00     0.000 C 
BRANCH  20  21
ATOM     21  C   UNL     1       2.123 -28.749  -6.323  1.00  0.00     0.000 C 
BRANCH  21  22
ATOM     22  C   UNL     1       3.255 -29.748  -6.596  1.00  0.00     0.000 C 
BRANCH  22  23
ATOM     23  C   UNL     1       2.955 -31.111  -5.956  1.00  0.00     0.000 C 
BRANCH  23  24
ATOM     24  C   UNL     1       1.832 -31.040  -4.908  1.00  0.00    -0.000 C 
BRANCH  24  25
ATOM     25  C   UNL     1       0.660 -31.979  -5.229  1.00  0.00    -0.000 C 
BRANCH  25  26
ATOM     26  C   UNL     1      -0.687 -31.280  -4.991  1.00  0.00    -0.000 C 
BRANCH  26  27
ATOM     27  C   UNL     1      -0.824 -30.705  -3.568  1.00  0.00    -0.000 C 
BRANCH  27  28
ATOM     28  C   UNL     1      -0.681 -31.731  -2.428  1.00  0.00    -0.000 C 
BRANCH  28  29
ATOM     29  C   UNL     1      -0.131 -31.112  -1.131  1.00  0.00    -0.000 C 
BRANCH  29  30
ATOM     30  C   UNL     1       1.405 -31.092  -1.088  1.00  0.00    -0.000 C 
BRANCH  30  31
ATOM     31  C   UNL     1       1.964 -29.894  -0.305  1.00  0.00    -0.003 C 
ATOM     32  C   UNL     1       1.260 -29.742   1.042  1.00  0.00     0.004 C 
ENDBRANCH  30  31
ENDBRANCH  29  30
ENDBRANCH  28  29
ENDBRANCH  27  28
ENDBRANCH  26  27
ENDBRANCH  25  26
ENDBRANCH  24  25
ENDBRANCH  23  24
ENDBRANCH  22  23
ENDBRANCH  21  22
ENDBRANCH  20  21
ENDBRANCH  19  20
ENDBRANCH  18  19
ENDBRANCH   1  18
TORSDOF 28
ENDMDL
MODEL 7
REMARK VINA RESULT:    10.452      3.788     10.765
REMARK INTER + INTRA:          27.269
REMARK INTER:                  26.993
REMARK INTRA:                   0.276
REMARK UNBOUND:                -0.292
REMARK SMILES CCCCCCCCCCCCCCCCCCCCCCCCCCCCCC(=O)[O-]
REMARK SMILES IDX 16 1 17 2 18 3 19 4 20 5 21 6 22 7 23 8 24 9 25 10 26 11
REMARK SMILES IDX 27 12 28 13 29 14 30 15 31 16 32 17 15 18 14 19 13 20 12 21
REMARK SMILES IDX 11 22 10 23 9 24 8 25 7 26 6 27 5 28 4 29 3 30 2 31 1 32
REMARK H PARENT
REMARK Flexibility Score: inf
ROOT
ATOM      1  C   UNL     1       2.450 -24.607  -4.901  1.00  0.00     0.000 C 
ENDROOT
BRANCH   1   2
ATOM      2  C   UNL     1       3.436 -25.514  -5.670  1.00  0.00     0.000 C 
BRANCH   2   3
ATOM      3  C   UNL     1       3.061 -27.007  -5.709  1.00  0.00     0.000 C 
BRANCH   3   4
ATOM      4  C   UNL     1       2.162 -27.418  -6.891  1.00  0.00     0.000 C 
BRANCH   4   5
ATOM      5  C   UNL     1       2.377 -28.856  -7.402  1.00  0.00     0.000 C 
BRANCH   5   6
ATOM      6  C   UNL     1       3.206 -29.760  -6.470  1.00  0.00     0.000 C 
BRANCH   6   7
ATOM      7  C   UNL     1       3.704 -31.036  -7.171  1.00  0.00     0.000 C 
BRANCH   7   8
ATOM      8  C   UNL     1       2.566 -32.013  -7.503  1.00  0.00     0.000 C 
BRANCH   8   9
ATOM      9  C   UNL     1       1.415 -31.951  -6.482  1.00  0.00     0.000 C 
BRANCH   9  10
ATOM     10  C   UNL     1       1.732 -31.040  -5.277  1.00  0.00     0.000 C 
BRANCH  10  11
ATOM     11  C   UNL     1       0.525 -30.773  -4.357  1.00  0.00     0.000 C 
BRANCH  11  12
ATOM     12  C   UNL     1      -0.102 -32.024  -3.712  1.00  0.00     0.000 C 
BRANCH  12  13
ATOM     13  C   UNL     1      -1.639 -32.089  -3.771  1.00  0.00     0.006 C 
BRANCH  13  14
ATOM     14  C   UNL     1      -2.194 -31.874  -5.186  1.00  0.00     0.053 C 
BRANCH  14  15
ATOM     15  C   UNL     1      -3.533 -31.209  -5.140  1.00  0.00     0.041 C 
ATOM     16  O   UNL     1      -3.673 -30.101  -4.557  1.00  0.00    -0.550 OA
ATOM     17  O   UNL     1      -4.638 -31.826  -5.718  1.00  0.00    -0.550 OA
ENDBRANCH  14  15
ENDBRANCH  13  14
ENDBRANCH  12  13
ENDBRANCH  11  12
ENDBRANCH  10  11
ENDBRANCH   9  10
ENDBRANCH   8   9
ENDBRANCH   7   8
ENDBRANCH   6   7
ENDBRANCH   5   6
ENDBRANCH   4   5
ENDBRANCH   3   4
ENDBRANCH   2   3
ENDBRANCH   1   2
BRANCH   1  18
ATOM     18  C   UNL     1       1.764 -23.514  -5.743  1.00  0.00     0.000 C 
BRANCH  18  19
ATOM     19  C   UNL     1       0.234 -23.670  -5.803  1.00  0.00     0.000 C 
BRANCH  19  20
ATOM     20  C   UNL     1      -0.401 -22.827  -6.921  1.00  0.00     0.000 C 
BRANCH  20  21
ATOM     21  C   UNL     1      -1.787 -22.278  -6.544  1.00  0.00     0.000 C 
BRANCH  21  22
ATOM     22  C   UNL     1      -1.957 -22.227  -5.021  1.00  0.00     0.000 C 
BRANCH  22  23
ATOM     23  C   UNL     1      -3.442 -22.160  -4.633  1.00  0.00     0.000 C 
BRANCH  23  24
ATOM     24  C   UNL     1      -4.333 -21.668  -5.784  1.00  0.00    -0.000 C 
BRANCH  24  25
ATOM     25  C   UNL     1      -4.976 -20.304  -5.496  1.00  0.00    -0.000 C 
BRANCH  25  26
ATOM     26  C   UNL     1      -4.761 -19.333  -6.667  1.00  0.00    -0.000 C 
BRANCH  26  27
ATOM     27  C   UNL     1      -4.014 -18.050  -6.257  1.00  0.00    -0.000 C 
BRANCH  27  28
ATOM     28  C   UNL     1      -3.775 -17.037  -7.393  1.00  0.00    -0.000 C 
BRANCH  28  29
ATOM     29  C   UNL     1      -5.036 -16.231  -7.752  1.00  0.00    -0.000 C 
BRANCH  29  30
ATOM     30  C   UNL     1      -4.900 -14.738  -7.416  1.00  0.00    -0.000 C 
BRANCH  30  31
ATOM     31  C   UNL     1      -3.483 -14.355  -6.962  1.00  0.00    -0.003 C 
ATOM     32  C   UNL     1      -2.846 -13.363  -7.932  1.00  0.00     0.004 C 
ENDBRANCH  30  31
ENDBRANCH  29  30
ENDBRANCH  28  29
ENDBRANCH  27  28
ENDBRANCH  26  27
ENDBRANCH  25  26
ENDBRANCH  24  25
ENDBRANCH  23  24
ENDBRANCH  22  23
ENDBRANCH  21  22
ENDBRANCH  20  21
ENDBRANCH  19  20
ENDBRANCH  18  19
ENDBRANCH   1  18
TORSDOF 28
ENDMDL
