MODEL 1
REMARK VINA RESULT:    -2.998      0.000      0.000
REMARK INTER + INTRA:          -6.830
REMARK INTER:                  -5.803
REMARK INTRA:                  -1.026
REMARK UNBOUND:                -1.026
REMARK SMILES CCCCCCCCCCCCCCCCCC(=O)[O-]
REMARK SMILES IDX 10 1 11 2 12 3 13 4 14 5 15 6 16 7 17 8 18 9 19 10 20 11
REMARK SMILES IDX 9 12 8 13 7 14 6 15 5 16 4 17 3 18 2 19 1 20
REMARK H PARENT
REMARK Flexibility Score: inf
ROOT
ATOM      1  C   UNL     1     -31.472 -22.365 -33.750  1.00  0.00     0.000 C 
ENDROOT
BRANCH   1   2
ATOM      2  C   UNL     1     -31.824 -23.138 -35.029  1.00  0.00     0.000 C 
BRANCH   2   3
ATOM      3  C   UNL     1     -32.695 -22.321 -36.002  1.00  0.00     0.000 C 
BRANCH   3   4
ATOM      4  C   UNL     1     -32.857 -22.935 -37.406  1.00  0.00     0.000 C 
BRANCH   4   5
ATOM      5  C   UNL     1     -31.547 -23.126 -38.191  1.00  0.00     0.000 C 
BRANCH   5   6
ATOM      6  C   UNL     1     -31.482 -24.474 -38.925  1.00  0.00     0.000 C 
BRANCH   6   7
ATOM      7  C   UNL     1     -31.667 -25.642 -37.945  1.00  0.00     0.006 C 
BRANCH   7   8
ATOM      8  C   UNL     1     -32.891 -26.500 -38.289  1.00  0.00     0.053 C 
BRANCH   8   9
ATOM      9  C   UNL     1     -32.515 -27.927 -38.549  1.00  0.00     0.041 C 
ATOM     10  O   UNL     1     -31.303 -28.258 -38.631  1.00  0.00    -0.550 OA
ATOM     11  O   UNL     1     -33.502 -28.898 -38.666  1.00  0.00    -0.550 OA
ENDBRANCH   8   9
ENDBRANCH   7   8
ENDBRANCH   6   7
ENDBRANCH   5   6
ENDBRANCH   4   5
ENDBRANCH   3   4
ENDBRANCH   2   3
ENDBRANCH   1   2
BRANCH   1  12
ATOM     12  C   UNL     1     -32.018 -20.930 -33.807  1.00  0.00     0.000 C 
BRANCH  12  13
ATOM     13  C   UNL     1     -30.937 -19.875 -33.524  1.00  0.00    -0.000 C 
BRANCH  13  14
ATOM     14  C   UNL     1     -29.565 -20.502 -33.221  1.00  0.00    -0.000 C 
BRANCH  14  15
ATOM     15  C   UNL     1     -29.215 -20.470 -31.725  1.00  0.00    -0.000 C 
BRANCH  15  16
ATOM     16  C   UNL     1     -30.366 -19.922 -30.863  1.00  0.00    -0.000 C 
BRANCH  16  17
ATOM     17  C   UNL     1     -30.775 -20.890 -29.741  1.00  0.00    -0.000 C 
BRANCH  17  18
ATOM     18  C   UNL     1     -29.963 -22.197 -29.764  1.00  0.00    -0.000 C 
BRANCH  18  19
ATOM     19  C   UNL     1     -30.486 -23.196 -30.808  1.00  0.00    -0.003 C 
ATOM     20  C   UNL     1     -30.846 -24.553 -30.203  1.00  0.00     0.004 C 
ENDBRANCH  18  19
ENDBRANCH  17  18
ENDBRANCH  16  17
ENDBRANCH  15  16
ENDBRANCH  14  15
ENDBRANCH  13  14
ENDBRANCH  12  13
ENDBRANCH   1  12
TORSDOF 16
ENDMDL
MODEL 2
REMARK VINA RESULT:    -2.553      1.101      1.803
REMARK INTER + INTRA:          -5.967
REMARK INTER:                  -4.663
REMARK INTRA:                  -1.304
REMARK UNBOUND:                -1.026
REMARK SMILES CCCCCCCCCCCCCCCCCC(=O)[O-]
REMARK SMILES IDX 10 1 11 2 12 3 13 4 14 5 15 6 16 7 17 8 18 9 19 10 20 11
REMARK SMILES IDX 9 12 8 13 7 14 6 15 5 16 4 17 3 18 2 19 1 20
REMARK H PARENT
REMARK Flexibility Score: inf
ROOT
ATOM      1  C   UNL     1     -32.466 -22.309 -35.024  1.00  0.00     0.000 C 
ENDROOT
BRANCH   1   2
ATOM      2  C   UNL     1     -33.473 -22.880 -36.032  1.00  0.00     0.000 C 
BRANCH   2   3
ATOM      3  C   UNL     1     -33.516 -22.086 -37.350  1.00  0.00     0.000 C 
BRANCH   3   4
ATOM      4  C   UNL     1     -32.723 -22.712 -38.515  1.00  0.00     0.000 C 
BRANCH   4   5
ATOM      5  C   UNL     1     -31.241 -23.000 -38.216  1.00  0.00     0.000 C 
BRANCH   5   6
ATOM      6  C   UNL     1     -30.874 -24.481 -38.389  1.00  0.00     0.000 C 
BRANCH   6   7
ATOM      7  C   UNL     1     -32.077 -25.289 -38.896  1.00  0.00     0.006 C 
BRANCH   7   8
ATOM      8  C   UNL     1     -32.515 -26.369 -37.898  1.00  0.00     0.053 C 
BRANCH   8   9
ATOM      9  C   UNL     1     -32.809 -27.670 -38.580  1.00  0.00     0.041 C 
ATOM     10  O   UNL     1     -31.873 -28.457 -38.875  1.00  0.00    -0.550 OA
ATOM     11  O   UNL     1     -34.123 -28.029 -38.858  1.00  0.00    -0.550 OA
ENDBRANCH   8   9
ENDBRANCH   7   8
ENDBRANCH   6   7
ENDBRANCH   5   6
ENDBRANCH   4   5
ENDBRANCH   3   4
ENDBRANCH   2   3
ENDBRANCH   1   2
BRANCH   1  12
ATOM     12  C   UNL     1     -32.283 -20.797 -35.226  1.00  0.00     0.000 C 
BRANCH  12  13
ATOM     13  C   UNL     1     -32.878 -19.971 -34.075  1.00  0.00    -0.000 C 
BRANCH  13  14
ATOM     14  C   UNL     1     -31.940 -19.893 -32.858  1.00  0.00    -0.000 C 
BRANCH  14  15
ATOM     15  C   UNL     1     -30.454 -19.953 -33.249  1.00  0.00    -0.000 C 
BRANCH  15  16
ATOM     16  C   UNL     1     -29.757 -21.219 -32.722  1.00  0.00    -0.000 C 
BRANCH  16  17
ATOM     17  C   UNL     1     -30.667 -22.057 -31.809  1.00  0.00    -0.000 C 
BRANCH  17  18
ATOM     18  C   UNL     1     -29.985 -22.436 -30.482  1.00  0.00    -0.000 C 
BRANCH  18  19
ATOM     19  C   UNL     1     -30.550 -21.654 -29.285  1.00  0.00    -0.003 C 
ATOM     20  C   UNL     1     -31.292 -20.385 -29.703  1.00  0.00     0.004 C 
ENDBRANCH  18  19
ENDBRANCH  17  18
ENDBRANCH  16  17
ENDBRANCH  15  16
ENDBRANCH  14  15
ENDBRANCH  13  14
ENDBRANCH  12  13
ENDBRANCH   1  12
TORSDOF 16
ENDMDL
MODEL 3
REMARK VINA RESULT:    -2.208      3.482      7.962
REMARK INTER + INTRA:          -5.299
REMARK INTER:                  -4.039
REMARK INTRA:                  -1.260
REMARK UNBOUND:                -1.026
REMARK SMILES CCCCCCCCCCCCCCCCCC(=O)[O-]
REMARK SMILES IDX 10 1 11 2 12 3 13 4 14 5 15 6 16 7 17 8 18 9 19 10 20 11
REMARK SMILES IDX 9 12 8 13 7 14 6 15 5 16 4 17 3 18 2 19 1 20
REMARK H PARENT
REMARK Flexibility Score: inf
ROOT
ATOM      1  C   UNL     1     -32.125 -20.029 -34.187  1.00  0.00     0.000 C 
ENDROOT
BRANCH   1   2
ATOM      2  C   UNL     1     -31.438 -21.382 -33.956  1.00  0.00     0.000 C 
BRANCH   2   3
ATOM      3  C   UNL     1     -29.909 -21.262 -33.819  1.00  0.00     0.000 C 
BRANCH   3   4
ATOM      4  C   UNL     1     -29.400 -19.877 -33.372  1.00  0.00     0.000 C 
BRANCH   4   5
ATOM      5  C   UNL     1     -28.246 -19.902 -32.354  1.00  0.00     0.000 C 
BRANCH   5   6
ATOM      6  C   UNL     1     -28.729 -20.097 -30.909  1.00  0.00     0.000 C 
BRANCH   6   7
ATOM      7  C   UNL     1     -30.245 -19.875 -30.803  1.00  0.00     0.006 C 
BRANCH   7   8
ATOM      8  C   UNL     1     -30.893 -20.782 -29.748  1.00  0.00     0.053 C 
BRANCH   8   9
ATOM      9  C   UNL     1     -30.312 -22.162 -29.770  1.00  0.00     0.041 C 
ATOM     10  O   UNL     1     -30.569 -22.944 -30.722  1.00  0.00    -0.550 OA
ATOM     11  O   UNL     1     -29.457 -22.574 -28.754  1.00  0.00    -0.550 OA
ENDBRANCH   8   9
ENDBRANCH   7   8
ENDBRANCH   6   7
ENDBRANCH   5   6
ENDBRANCH   4   5
ENDBRANCH   3   4
ENDBRANCH   2   3
ENDBRANCH   1   2
BRANCH   1  12
ATOM     12  C   UNL     1     -33.416 -20.200 -35.002  1.00  0.00     0.000 C 
BRANCH  12  13
ATOM     13  C   UNL     1     -33.537 -21.598 -35.630  1.00  0.00    -0.000 C 
BRANCH  13  14
ATOM     14  C   UNL     1     -33.400 -21.571 -37.162  1.00  0.00    -0.000 C 
BRANCH  14  15
ATOM     15  C   UNL     1     -32.713 -22.827 -37.719  1.00  0.00    -0.000 C 
BRANCH  15  16
ATOM     16  C   UNL     1     -32.959 -24.070 -36.846  1.00  0.00    -0.000 C 
BRANCH  16  17
ATOM     17  C   UNL     1     -32.020 -25.235 -37.199  1.00  0.00    -0.000 C 
BRANCH  17  18
ATOM     18  C   UNL     1     -32.351 -25.868 -38.562  1.00  0.00    -0.000 C 
BRANCH  18  19
ATOM     19  C   UNL     1     -31.967 -27.355 -38.628  1.00  0.00    -0.003 C 
ATOM     20  C   UNL     1     -33.159 -28.286 -38.408  1.00  0.00     0.004 C 
ENDBRANCH  18  19
ENDBRANCH  17  18
ENDBRANCH  16  17
ENDBRANCH  15  16
ENDBRANCH  14  15
ENDBRANCH  13  14
ENDBRANCH  12  13
ENDBRANCH   1  12
TORSDOF 16
ENDMDL
MODEL 4
REMARK VINA RESULT:    -2.191      1.977      2.805
REMARK INTER + INTRA:          -5.267
REMARK INTER:                  -4.970
REMARK INTRA:                  -0.297
REMARK UNBOUND:                -1.026
REMARK SMILES CCCCCCCCCCCCCCCCCC(=O)[O-]
REMARK SMILES IDX 10 1 11 2 12 3 13 4 14 5 15 6 16 7 17 8 18 9 19 10 20 11
REMARK SMILES IDX 9 12 8 13 7 14 6 15 5 16 4 17 3 18 2 19 1 20
REMARK H PARENT
REMARK Flexibility Score: inf
ROOT
ATOM      1  C   UNL     1     -31.203 -22.336 -33.503  1.00  0.00     0.000 C 
ENDROOT
BRANCH   1   2
ATOM      2  C   UNL     1     -32.266 -22.883 -34.466  1.00  0.00     0.000 C 
BRANCH   2   3
ATOM      3  C   UNL     1     -33.100 -21.773 -35.130  1.00  0.00     0.000 C 
BRANCH   3   4
ATOM      4  C   UNL     1     -33.733 -22.152 -36.484  1.00  0.00     0.000 C 
BRANCH   4   5
ATOM      5  C   UNL     1     -34.071 -20.963 -37.402  1.00  0.00     0.000 C 
BRANCH   5   6
ATOM      6  C   UNL     1     -33.578 -21.164 -38.843  1.00  0.00     0.000 C 
BRANCH   6   7
ATOM      7  C   UNL     1     -33.129 -22.614 -39.073  1.00  0.00     0.006 C 
BRANCH   7   8
ATOM      8  C   UNL     1     -31.651 -22.828 -38.720  1.00  0.00     0.053 C 
BRANCH   8   9
ATOM      9  C   UNL     1     -31.411 -24.184 -38.131  1.00  0.00     0.041 C 
ATOM     10  O   UNL     1     -30.794 -24.302 -37.040  1.00  0.00    -0.550 OA
ATOM     11  O   UNL     1     -31.900 -25.318 -38.770  1.00  0.00    -0.550 OA
ENDBRANCH   8   9
ENDBRANCH   7   8
ENDBRANCH   6   7
ENDBRANCH   5   6
ENDBRANCH   4   5
ENDBRANCH   3   4
ENDBRANCH   2   3
ENDBRANCH   1   2
BRANCH   1  12
ATOM     12  C   UNL     1     -31.505 -20.879 -33.122  1.00  0.00     0.000 C 
BRANCH  12  13
ATOM     13  C   UNL     1     -30.350 -19.926 -33.469  1.00  0.00    -0.000 C 
BRANCH  13  14
ATOM     14  C   UNL     1     -28.986 -20.637 -33.494  1.00  0.00    -0.000 C 
BRANCH  14  15
ATOM     15  C   UNL     1     -28.124 -20.310 -32.263  1.00  0.00    -0.000 C 
BRANCH  15  16
ATOM     16  C   UNL     1     -28.971 -19.979 -31.022  1.00  0.00    -0.000 C 
BRANCH  16  17
ATOM     17  C   UNL     1     -29.799 -21.180 -30.536  1.00  0.00    -0.000 C 
BRANCH  17  18
ATOM     18  C   UNL     1     -30.723 -20.821 -29.359  1.00  0.00    -0.000 C 
BRANCH  18  19
ATOM     19  C   UNL     1     -31.862 -19.876 -29.772  1.00  0.00    -0.003 C 
ATOM     20  C   UNL     1     -33.176 -20.178 -29.053  1.00  0.00     0.004 C 
ENDBRANCH  18  19
ENDBRANCH  17  18
ENDBRANCH  16  17
ENDBRANCH  15  16
ENDBRANCH  14  15
ENDBRANCH  13  14
ENDBRANCH  12  13
ENDBRANCH   1  12
TORSDOF 16
ENDMDL
MODEL 5
REMARK VINA RESULT:    -1.798      4.155      8.292
REMARK INTER + INTRA:          -4.507
REMARK INTER:                  -4.294
REMARK INTRA:                  -0.213
REMARK UNBOUND:                -1.026
REMARK SMILES CCCCCCCCCCCCCCCCCC(=O)[O-]
REMARK SMILES IDX 10 1 11 2 12 3 13 4 14 5 15 6 16 7 17 8 18 9 19 10 20 11
REMARK SMILES IDX 9 12 8 13 7 14 6 15 5 16 4 17 3 18 2 19 1 20
REMARK H PARENT
REMARK Flexibility Score: inf
ROOT
ATOM      1  C   UNL     1     -32.058 -23.743 -35.603  1.00  0.00     0.000 C 
ENDROOT
BRANCH   1   2
ATOM      2  C   UNL     1     -33.149 -22.767 -35.142  1.00  0.00     0.000 C 
BRANCH   2   3
ATOM      3  C   UNL     1     -32.969 -21.352 -35.720  1.00  0.00     0.000 C 
BRANCH   3   4
ATOM      4  C   UNL     1     -32.627 -20.262 -34.685  1.00  0.00     0.000 C 
BRANCH   4   5
ATOM      5  C   UNL     1     -31.827 -20.750 -33.464  1.00  0.00     0.000 C 
BRANCH   5   6
ATOM      6  C   UNL     1     -30.352 -21.026 -33.789  1.00  0.00     0.000 C 
BRANCH   6   7
ATOM      7  C   UNL     1     -29.532 -21.211 -32.504  1.00  0.00     0.006 C 
BRANCH   7   8
ATOM      8  C   UNL     1     -30.410 -21.577 -31.300  1.00  0.00     0.053 C 
BRANCH   8   9
ATOM      9  C   UNL     1     -30.314 -20.554 -30.210  1.00  0.00     0.041 C 
ATOM     10  O   UNL     1     -29.253 -19.898 -30.048  1.00  0.00    -0.550 OA
ATOM     11  O   UNL     1     -31.411 -20.300 -29.395  1.00  0.00    -0.550 OA
ENDBRANCH   8   9
ENDBRANCH   7   8
ENDBRANCH   6   7
ENDBRANCH   5   6
ENDBRANCH   4   5
ENDBRANCH   3   4
ENDBRANCH   2   3
ENDBRANCH   1   2
BRANCH   1  12
ATOM     12  C   UNL     1     -30.949 -23.006 -36.370  1.00  0.00     0.000 C 
BRANCH  12  13
ATOM     13  C   UNL     1     -30.762 -23.541 -37.798  1.00  0.00    -0.000 C 
BRANCH  13  14
ATOM     14  C   UNL     1     -32.094 -23.694 -38.552  1.00  0.00    -0.000 C 
BRANCH  14  15
ATOM     15  C   UNL     1     -32.296 -25.108 -39.120  1.00  0.00    -0.000 C 
BRANCH  15  16
ATOM     16  C   UNL     1     -32.146 -26.201 -38.048  1.00  0.00    -0.000 C 
BRANCH  16  17
ATOM     17  C   UNL     1     -33.422 -27.041 -37.880  1.00  0.00    -0.000 C 
BRANCH  17  18
ATOM     18  C   UNL     1     -33.650 -28.010 -39.055  1.00  0.00    -0.000 C 
BRANCH  18  19
ATOM     19  C   UNL     1     -32.579 -29.111 -39.125  1.00  0.00    -0.003 C 
ATOM     20  C   UNL     1     -31.202 -28.630 -38.669  1.00  0.00     0.004 C 
ENDBRANCH  18  19
ENDBRANCH  17  18
ENDBRANCH  16  17
ENDBRANCH  15  16
ENDBRANCH  14  15
ENDBRANCH  13  14
ENDBRANCH  12  13
ENDBRANCH   1  12
TORSDOF 16
ENDMDL
MODEL 6
REMARK VINA RESULT:    -1.765      3.034      7.665
REMARK INTER + INTRA:          -4.442
REMARK INTER:                  -4.135
REMARK INTRA:                  -0.307
REMARK UNBOUND:                -1.026
REMARK SMILES CCCCCCCCCCCCCCCCCC(=O)[O-]
REMARK SMILES IDX 10 1 11 2 12 3 13 4 14 5 15 6 16 7 17 8 18 9 19 10 20 11
REMARK SMILES IDX 9 12 8 13 7 14 6 15 5 16 4 17 3 18 2 19 1 20
REMARK H PARENT
REMARK Flexibility Score: inf
ROOT
ATOM      1  C   UNL     1     -31.458 -21.998 -33.428  1.00  0.00     0.000 C 
ENDROOT
BRANCH   1   2
ATOM      2  C   UNL     1     -31.404 -20.480 -33.653  1.00  0.00     0.000 C 
BRANCH   2   3
ATOM      3  C   UNL     1     -30.019 -19.879 -33.352  1.00  0.00     0.000 C 
BRANCH   3   4
ATOM      4  C   UNL     1     -29.073 -20.791 -32.545  1.00  0.00     0.000 C 
BRANCH   4   5
ATOM      5  C   UNL     1     -28.525 -20.175 -31.244  1.00  0.00     0.000 C 
BRANCH   5   6
ATOM      6  C   UNL     1     -29.626 -19.876 -30.217  1.00  0.00     0.000 C 
BRANCH   6   7
ATOM      7  C   UNL     1     -30.608 -21.051 -30.105  1.00  0.00     0.006 C 
BRANCH   7   8
ATOM      8  C   UNL     1     -29.964 -22.288 -29.465  1.00  0.00     0.053 C 
BRANCH   8   9
ATOM      9  C   UNL     1     -30.347 -23.547 -30.179  1.00  0.00     0.041 C 
ATOM     10  O   UNL     1     -30.777 -23.500 -31.361  1.00  0.00    -0.550 OA
ATOM     11  O   UNL     1     -30.194 -24.778 -29.552  1.00  0.00    -0.550 OA
ENDBRANCH   8   9
ENDBRANCH   7   8
ENDBRANCH   6   7
ENDBRANCH   5   6
ENDBRANCH   4   5
ENDBRANCH   3   4
ENDBRANCH   2   3
ENDBRANCH   1   2
BRANCH   1  12
ATOM     12  C   UNL     1     -31.561 -22.748 -34.765  1.00  0.00     0.000 C 
BRANCH  12  13
ATOM     13  C   UNL     1     -32.995 -22.780 -35.316  1.00  0.00    -0.000 C 
BRANCH  13  14
ATOM     14  C   UNL     1     -33.470 -21.401 -35.809  1.00  0.00    -0.000 C 
BRANCH  14  15
ATOM     15  C   UNL     1     -33.463 -21.285 -37.342  1.00  0.00    -0.000 C 
BRANCH  15  16
ATOM     16  C   UNL     1     -33.269 -22.645 -38.035  1.00  0.00    -0.000 C 
BRANCH  16  17
ATOM     17  C   UNL     1     -31.811 -22.889 -38.456  1.00  0.00    -0.000 C 
BRANCH  17  18
ATOM     18  C   UNL     1     -31.578 -24.318 -38.978  1.00  0.00    -0.000 C 
BRANCH  18  19
ATOM     19  C   UNL     1     -32.012 -25.391 -37.967  1.00  0.00    -0.003 C 
ATOM     20  C   UNL     1     -31.968 -26.805 -38.546  1.00  0.00     0.004 C 
ENDBRANCH  18  19
ENDBRANCH  17  18
ENDBRANCH  16  17
ENDBRANCH  15  16
ENDBRANCH  14  15
ENDBRANCH  13  14
ENDBRANCH  12  13
ENDBRANCH   1  12
TORSDOF 16
ENDMDL
MODEL 7
REMARK VINA RESULT:    -1.197      1.163      1.684
REMARK INTER + INTRA:          -3.343
REMARK INTER:                  -2.790
REMARK INTRA:                  -0.553
REMARK UNBOUND:                -1.026
REMARK SMILES CCCCCCCCCCCCCCCCCC(=O)[O-]
REMARK SMILES IDX 10 1 11 2 12 3 13 4 14 5 15 6 16 7 17 8 18 9 19 10 20 11
REMARK SMILES IDX 9 12 8 13 7 14 6 15 5 16 4 17 3 18 2 19 1 20
REMARK H PARENT
REMARK Flexibility Score: inf
ROOT
ATOM      1  C   UNL     1     -30.614 -21.320 -33.974  1.00  0.00     0.000 C 
ENDROOT
BRANCH   1   2
ATOM      2  C   UNL     1     -31.860 -22.215 -33.912  1.00  0.00     0.000 C 
BRANCH   2   3
ATOM      3  C   UNL     1     -32.589 -22.320 -35.263  1.00  0.00     0.000 C 
BRANCH   3   4
ATOM      4  C   UNL     1     -32.694 -23.746 -35.840  1.00  0.00     0.000 C 
BRANCH   4   5
ATOM      5  C   UNL     1     -32.592 -23.839 -37.374  1.00  0.00     0.000 C 
BRANCH   5   6
ATOM      6  C   UNL     1     -31.210 -24.306 -37.852  1.00  0.00     0.000 C 
BRANCH   6   7
ATOM      7  C   UNL     1     -31.198 -25.821 -38.101  1.00  0.00     0.006 C 
BRANCH   7   8
ATOM      8  C   UNL     1     -32.462 -26.301 -38.825  1.00  0.00     0.053 C 
BRANCH   8   9
ATOM      9  C   UNL     1     -32.594 -27.793 -38.784  1.00  0.00     0.041 C 
ATOM     10  O   UNL     1     -31.573 -28.522 -38.875  1.00  0.00    -0.550 OA
ATOM     11  O   UNL     1     -33.843 -28.377 -38.610  1.00  0.00    -0.550 OA
ENDBRANCH   8   9
ENDBRANCH   7   8
ENDBRANCH   6   7
ENDBRANCH   5   6
ENDBRANCH   4   5
ENDBRANCH   3   4
ENDBRANCH   2   3
ENDBRANCH   1   2
BRANCH   1  12
ATOM     12  C   UNL     1     -30.927 -19.907 -33.458  1.00  0.00     0.000 C 
BRANCH  12  13
ATOM     13  C   UNL     1     -32.074 -19.891 -32.436  1.00  0.00    -0.000 C 
BRANCH  13  14
ATOM     14  C   UNL     1     -31.571 -19.931 -30.982  1.00  0.00    -0.000 C 
BRANCH  14  15
ATOM     15  C   UNL     1     -30.038 -19.876 -30.883  1.00  0.00    -0.000 C 
BRANCH  15  16
ATOM     16  C   UNL     1     -29.394 -21.273 -30.918  1.00  0.00    -0.000 C 
BRANCH  16  17
ATOM     17  C   UNL     1     -30.419 -22.399 -30.706  1.00  0.00    -0.000 C 
BRANCH  17  18
ATOM     18  C   UNL     1     -29.971 -23.412 -29.637  1.00  0.00    -0.000 C 
BRANCH  18  19
ATOM     19  C   UNL     1     -29.636 -22.740 -28.295  1.00  0.00    -0.003 C 
ATOM     20  C   UNL     1     -28.695 -23.578 -27.430  1.00  0.00     0.004 C 
ENDBRANCH  18  19
ENDBRANCH  17  18
ENDBRANCH  16  17
ENDBRANCH  15  16
ENDBRANCH  14  15
ENDBRANCH  13  14
ENDBRANCH  12  13
ENDBRANCH   1  12
TORSDOF 16
ENDMDL
