MODEL 1
REMARK VINA RESULT:    -3.951      0.000      0.000
REMARK INTER + INTRA:         -15.967
REMARK INTER:                 -10.417
REMARK INTRA:                  -5.550
REMARK UNBOUND:                -5.550
REMARK SMILES CCCCCCCCCCCCCCCCCCCCCCCCCCCCCC(=O)[O-]
REMARK SMILES IDX 16 1 17 2 18 3 19 4 20 5 21 6 22 7 23 8 24 9 25 10 26 11
REMARK SMILES IDX 27 12 28 13 29 14 30 15 31 16 32 17 15 18 14 19 13 20 12 21
REMARK SMILES IDX 11 22 10 23 9 24 8 25 7 26 6 27 5 28 4 29 3 30 2 31 1 32
REMARK H PARENT
REMARK Flexibility Score: inf
ROOT
ATOM      1  C   UNL     1       9.757 -23.846 -36.030  1.00  0.00     0.000 C 
ENDROOT
BRANCH   1   2
ATOM      2  C   UNL     1       9.746 -22.856 -34.854  1.00  0.00     0.000 C 
BRANCH   2   3
ATOM      3  C   UNL     1       8.517 -21.931 -34.867  1.00  0.00     0.000 C 
BRANCH   3   4
ATOM      4  C   UNL     1       7.515 -22.310 -35.970  1.00  0.00     0.000 C 
BRANCH   4   5
ATOM      5  C   UNL     1       6.760 -21.086 -36.519  1.00  0.00     0.000 C 
BRANCH   5   6
ATOM      6  C   UNL     1       5.634 -21.471 -37.493  1.00  0.00     0.000 C 
BRANCH   6   7
ATOM      7  C   UNL     1       4.863 -20.284 -38.100  1.00  0.00     0.000 C 
BRANCH   7   8
ATOM      8  C   UNL     1       5.541 -19.663 -39.340  1.00  0.00     0.000 C 
BRANCH   8   9
ATOM      9  C   UNL     1       5.570 -18.125 -39.292  1.00  0.00     0.000 C 
BRANCH   9  10
ATOM     10  C   UNL     1       6.982 -17.557 -39.079  1.00  0.00     0.000 C 
BRANCH  10  11
ATOM     11  C   UNL     1       7.412 -17.485 -37.596  1.00  0.00     0.000 C 
BRANCH  11  12
ATOM     12  C   UNL     1       6.446 -16.678 -36.709  1.00  0.00     0.000 C 
BRANCH  12  13
ATOM     13  C   UNL     1       5.775 -17.529 -35.605  1.00  0.00     0.006 C 
BRANCH  13  14
ATOM     14  C   UNL     1       4.667 -16.754 -34.879  1.00  0.00     0.053 C 
BRANCH  14  15
ATOM     15  C   UNL     1       5.053 -16.485 -33.459  1.00  0.00     0.041 C 
ATOM     16  O   UNL     1       5.400 -15.326 -33.103  1.00  0.00    -0.550 OA
ATOM     17  O   UNL     1       5.067 -17.523 -32.535  1.00  0.00    -0.550 OA
ENDBRANCH  14  15
ENDBRANCH  13  14
ENDBRANCH  12  13
ENDBRANCH  11  12
ENDBRANCH  10  11
ENDBRANCH   9  10
ENDBRANCH   8   9
ENDBRANCH   7   8
ENDBRANCH   6   7
ENDBRANCH   5   6
ENDBRANCH   4   5
ENDBRANCH   3   4
ENDBRANCH   2   3
ENDBRANCH   1   2
BRANCH   1  18
ATOM     18  C   UNL     1      10.797 -23.480 -37.103  1.00  0.00     0.000 C 
BRANCH  18  19
ATOM     19  C   UNL     1      11.095 -24.643 -38.062  1.00  0.00     0.000 C 
BRANCH  19  20
ATOM     20  C   UNL     1      12.262 -24.335 -39.020  1.00  0.00     0.000 C 
BRANCH  20  21
ATOM     21  C   UNL     1      11.797 -24.098 -40.473  1.00  0.00     0.000 C 
BRANCH  21  22
ATOM     22  C   UNL     1      12.223 -22.738 -41.059  1.00  0.00     0.000 C 
BRANCH  22  23
ATOM     23  C   UNL     1      11.324 -21.545 -40.688  1.00  0.00     0.000 C 
BRANCH  23  24
ATOM     24  C   UNL     1       9.831 -21.879 -40.524  1.00  0.00    -0.000 C 
BRANCH  24  25
ATOM     25  C   UNL     1       9.182 -21.158 -39.329  1.00  0.00    -0.000 C 
BRANCH  25  26
ATOM     26  C   UNL     1      10.025 -19.977 -38.812  1.00  0.00    -0.000 C 
BRANCH  26  27
ATOM     27  C   UNL     1       9.967 -19.755 -37.289  1.00  0.00    -0.000 C 
BRANCH  27  28
ATOM     28  C   UNL     1      11.356 -19.742 -36.628  1.00  0.00    -0.000 C 
BRANCH  28  29
ATOM     29  C   UNL     1      12.496 -19.741 -37.665  1.00  0.00    -0.000 C 
BRANCH  29  30
ATOM     30  C   UNL     1      13.854 -20.210 -37.107  1.00  0.00    -0.000 C 
BRANCH  30  31
ATOM     31  C   UNL     1      14.256 -21.633 -37.541  1.00  0.00    -0.003 C 
ATOM     32  C   UNL     1      14.983 -21.660 -38.885  1.00  0.00     0.004 C 
ENDBRANCH  30  31
ENDBRANCH  29  30
ENDBRANCH  28  29
ENDBRANCH  27  28
ENDBRANCH  26  27
ENDBRANCH  25  26
ENDBRANCH  24  25
ENDBRANCH  23  24
ENDBRANCH  22  23
ENDBRANCH  21  22
ENDBRANCH  20  21
ENDBRANCH  19  20
ENDBRANCH  18  19
ENDBRANCH   1  18
TORSDOF 28
ENDMDL
MODEL 2
REMARK VINA RESULT:    -3.939      1.260      3.201
REMARK INTER + INTRA:         -15.936
REMARK INTER:                 -10.136
REMARK INTRA:                  -5.800
REMARK UNBOUND:                -5.550
REMARK SMILES CCCCCCCCCCCCCCCCCCCCCCCCCCCCCC(=O)[O-]
REMARK SMILES IDX 16 1 17 2 18 3 19 4 20 5 21 6 22 7 23 8 24 9 25 10 26 11
REMARK SMILES IDX 27 12 28 13 29 14 30 15 31 16 32 17 15 18 14 19 13 20 12 21
REMARK SMILES IDX 11 22 10 23 9 24 8 25 7 26 6 27 5 28 4 29 3 30 2 31 1 32
REMARK H PARENT
REMARK Flexibility Score: inf
ROOT
ATOM      1  C   UNL     1      11.131 -23.016 -37.124  1.00  0.00     0.000 C 
ENDROOT
BRANCH   1   2
ATOM      2  C   UNL     1      10.086 -23.802 -36.317  1.00  0.00     0.000 C 
BRANCH   2   3
ATOM      3  C   UNL     1       9.800 -23.174 -34.942  1.00  0.00     0.000 C 
BRANCH   3   4
ATOM      4  C   UNL     1       8.434 -22.469 -34.897  1.00  0.00     0.000 C 
BRANCH   4   5
ATOM      5  C   UNL     1       8.523 -20.993 -35.325  1.00  0.00     0.000 C 
BRANCH   5   6
ATOM      6  C   UNL     1       7.375 -20.575 -36.258  1.00  0.00     0.000 C 
BRANCH   6   7
ATOM      7  C   UNL     1       6.437 -21.718 -36.690  1.00  0.00     0.000 C 
BRANCH   7   8
ATOM      8  C   UNL     1       5.439 -21.325 -37.801  1.00  0.00     0.000 C 
BRANCH   8   9
ATOM      9  C   UNL     1       5.165 -19.811 -37.843  1.00  0.00     0.000 C 
BRANCH   9  10
ATOM     10  C   UNL     1       5.799 -19.119 -39.061  1.00  0.00     0.000 C 
BRANCH  10  11
ATOM     11  C   UNL     1       5.541 -17.596 -39.121  1.00  0.00     0.000 C 
BRANCH  11  12
ATOM     12  C   UNL     1       6.772 -16.745 -38.760  1.00  0.00     0.000 C 
BRANCH  12  13
ATOM     13  C   UNL     1       7.102 -16.756 -37.249  1.00  0.00     0.006 C 
BRANCH  13  14
ATOM     14  C   UNL     1       6.156 -15.849 -36.450  1.00  0.00     0.053 C 
BRANCH  14  15
ATOM     15  C   UNL     1       5.381 -16.647 -35.449  1.00  0.00     0.041 C 
ATOM     16  O   UNL     1       4.245 -16.256 -35.067  1.00  0.00    -0.550 OA
ATOM     17  O   UNL     1       5.929 -17.804 -34.908  1.00  0.00    -0.550 OA
ENDBRANCH  14  15
ENDBRANCH  13  14
ENDBRANCH  12  13
ENDBRANCH  11  12
ENDBRANCH  10  11
ENDBRANCH   9  10
ENDBRANCH   8   9
ENDBRANCH   7   8
ENDBRANCH   6   7
ENDBRANCH   5   6
ENDBRANCH   4   5
ENDBRANCH   3   4
ENDBRANCH   2   3
ENDBRANCH   1   2
BRANCH   1  18
ATOM     18  C   UNL     1      10.723 -22.822 -38.594  1.00  0.00     0.000 C 
BRANCH  18  19
ATOM     19  C   UNL     1       9.207 -22.647 -38.772  1.00  0.00     0.000 C 
BRANCH  19  20
ATOM     20  C   UNL     1       8.853 -21.472 -39.703  1.00  0.00     0.000 C 
BRANCH  20  21
ATOM     21  C   UNL     1       9.908 -20.345 -39.674  1.00  0.00     0.000 C 
BRANCH  21  22
ATOM     22  C   UNL     1       9.533 -19.151 -38.775  1.00  0.00     0.000 C 
BRANCH  22  23
ATOM     23  C   UNL     1      10.706 -18.490 -38.028  1.00  0.00     0.000 C 
BRANCH  23  24
ATOM     24  C   UNL     1      11.250 -19.289 -36.830  1.00  0.00    -0.000 C 
BRANCH  24  25
ATOM     25  C   UNL     1      12.690 -19.787 -37.045  1.00  0.00    -0.000 C 
BRANCH  25  26
ATOM     26  C   UNL     1      13.331 -19.230 -38.331  1.00  0.00    -0.000 C 
BRANCH  26  27
ATOM     27  C   UNL     1      13.918 -20.293 -39.278  1.00  0.00    -0.000 C 
BRANCH  27  28
ATOM     28  C   UNL     1      14.477 -21.519 -38.537  1.00  0.00    -0.000 C 
BRANCH  28  29
ATOM     29  C   UNL     1      14.963 -22.614 -39.507  1.00  0.00    -0.000 C 
BRANCH  29  30
ATOM     30  C   UNL     1      14.785 -24.049 -38.975  1.00  0.00    -0.000 C 
BRANCH  30  31
ATOM     31  C   UNL     1      13.809 -24.911 -39.799  1.00  0.00    -0.003 C 
ATOM     32  C   UNL     1      13.203 -24.155 -40.981  1.00  0.00     0.004 C 
ENDBRANCH  30  31
ENDBRANCH  29  30
ENDBRANCH  28  29
ENDBRANCH  27  28
ENDBRANCH  26  27
ENDBRANCH  25  26
ENDBRANCH  24  25
ENDBRANCH  23  24
ENDBRANCH  22  23
ENDBRANCH  21  22
ENDBRANCH  20  21
ENDBRANCH  19  20
ENDBRANCH  18  19
ENDBRANCH   1  18
TORSDOF 28
ENDMDL
MODEL 3
REMARK VINA RESULT:    -3.830      2.846      6.347
REMARK INTER + INTRA:         -15.649
REMARK INTER:                  -9.611
REMARK INTRA:                  -6.038
REMARK UNBOUND:                -5.550
REMARK SMILES CCCCCCCCCCCCCCCCCCCCCCCCCCCCCC(=O)[O-]
REMARK SMILES IDX 16 1 17 2 18 3 19 4 20 5 21 6 22 7 23 8 24 9 25 10 26 11
REMARK SMILES IDX 27 12 28 13 29 14 30 15 31 16 32 17 15 18 14 19 13 20 12 21
REMARK SMILES IDX 11 22 10 23 9 24 8 25 7 26 6 27 5 28 4 29 3 30 2 31 1 32
REMARK H PARENT
REMARK Flexibility Score: inf
ROOT
ATOM      1  C   UNL     1       8.201 -18.225 -39.885  1.00  0.00     0.000 C 
ENDROOT
BRANCH   1   2
ATOM      2  C   UNL     1       7.770 -16.984 -39.087  1.00  0.00     0.000 C 
BRANCH   2   3
ATOM      3  C   UNL     1       6.249 -16.756 -39.117  1.00  0.00     0.000 C 
BRANCH   3   4
ATOM      4  C   UNL     1       5.655 -16.605 -37.707  1.00  0.00     0.000 C 
BRANCH   4   5
ATOM      5  C   UNL     1       5.207 -17.953 -37.114  1.00  0.00     0.000 C 
BRANCH   5   6
ATOM      6  C   UNL     1       6.045 -18.374 -35.896  1.00  0.00     0.000 C 
BRANCH   6   7
ATOM      7  C   UNL     1       7.177 -19.374 -36.198  1.00  0.00     0.000 C 
BRANCH   7   8
ATOM      8  C   UNL     1       6.682 -20.759 -36.669  1.00  0.00     0.000 C 
BRANCH   8   9
ATOM      9  C   UNL     1       7.400 -21.918 -35.956  1.00  0.00     0.000 C 
BRANCH   9  10
ATOM     10  C   UNL     1       8.633 -21.463 -35.159  1.00  0.00     0.000 C 
BRANCH  10  11
ATOM     11  C   UNL     1       9.606 -22.609 -34.800  1.00  0.00     0.000 C 
BRANCH  11  12
ATOM     12  C   UNL     1       9.259 -23.951 -35.471  1.00  0.00     0.000 C 
BRANCH  12  13
ATOM     13  C   UNL     1      10.048 -24.203 -36.777  1.00  0.00     0.006 C 
BRANCH  13  14
ATOM     14  C   UNL     1       9.342 -25.219 -37.685  1.00  0.00     0.053 C 
BRANCH  14  15
ATOM     15  C   UNL     1       8.520 -24.519 -38.721  1.00  0.00     0.041 C 
ATOM     16  O   UNL     1       7.716 -25.170 -39.441  1.00  0.00    -0.550 OA
ATOM     17  O   UNL     1       8.668 -23.151 -38.918  1.00  0.00    -0.550 OA
ENDBRANCH  14  15
ENDBRANCH  13  14
ENDBRANCH  12  13
ENDBRANCH  11  12
ENDBRANCH  10  11
ENDBRANCH   9  10
ENDBRANCH   8   9
ENDBRANCH   7   8
ENDBRANCH   6   7
ENDBRANCH   5   6
ENDBRANCH   4   5
ENDBRANCH   3   4
ENDBRANCH   2   3
ENDBRANCH   1   2
BRANCH   1  18
ATOM     18  C   UNL     1       9.304 -19.031 -39.178  1.00  0.00     0.000 C 
BRANCH  18  19
ATOM     19  C   UNL     1      10.046 -18.213 -38.110  1.00  0.00     0.000 C 
BRANCH  19  20
ATOM     20  C   UNL     1      11.155 -19.022 -37.409  1.00  0.00     0.000 C 
BRANCH  20  21
ATOM     21  C   UNL     1      11.028 -20.542 -37.647  1.00  0.00     0.000 C 
BRANCH  21  22
ATOM     22  C   UNL     1      12.288 -21.347 -37.275  1.00  0.00     0.000 C 
BRANCH  22  23
ATOM     23  C   UNL     1      13.628 -20.619 -37.489  1.00  0.00     0.000 C 
BRANCH  23  24
ATOM     24  C   UNL     1      14.770 -21.499 -38.030  1.00  0.00    -0.000 C 
BRANCH  24  25
ATOM     25  C   UNL     1      14.543 -22.999 -37.777  1.00  0.00    -0.000 C 
BRANCH  25  26
ATOM     26  C   UNL     1      14.298 -23.795 -39.073  1.00  0.00    -0.000 C 
BRANCH  26  27
ATOM     27  C   UNL     1      12.902 -24.434 -39.190  1.00  0.00    -0.000 C 
BRANCH  27  28
ATOM     28  C   UNL     1      11.984 -23.703 -40.184  1.00  0.00    -0.000 C 
BRANCH  28  29
ATOM     29  C   UNL     1      12.753 -22.679 -41.042  1.00  0.00    -0.000 C 
BRANCH  29  30
ATOM     30  C   UNL     1      12.147 -21.262 -41.021  1.00  0.00    -0.000 C 
BRANCH  30  31
ATOM     31  C   UNL     1      13.178 -20.132 -41.211  1.00  0.00    -0.003 C 
ATOM     32  C   UNL     1      12.645 -18.765 -40.784  1.00  0.00     0.004 C 
ENDBRANCH  30  31
ENDBRANCH  29  30
ENDBRANCH  28  29
ENDBRANCH  27  28
ENDBRANCH  26  27
ENDBRANCH  25  26
ENDBRANCH  24  25
ENDBRANCH  23  24
ENDBRANCH  22  23
ENDBRANCH  21  22
ENDBRANCH  20  21
ENDBRANCH  19  20
ENDBRANCH  18  19
ENDBRANCH   1  18
TORSDOF 28
ENDMDL
MODEL 4
REMARK VINA RESULT:    -3.785      3.420      7.405
REMARK INTER + INTRA:         -15.530
REMARK INTER:                 -10.156
REMARK INTRA:                  -5.375
REMARK UNBOUND:                -5.550
REMARK SMILES CCCCCCCCCCCCCCCCCCCCCCCCCCCCCC(=O)[O-]
REMARK SMILES IDX 16 1 17 2 18 3 19 4 20 5 21 6 22 7 23 8 24 9 25 10 26 11
REMARK SMILES IDX 27 12 28 13 29 14 30 15 31 16 32 17 15 18 14 19 13 20 12 21
REMARK SMILES IDX 11 22 10 23 9 24 8 25 7 26 6 27 5 28 4 29 3 30 2 31 1 32
REMARK H PARENT
REMARK Flexibility Score: inf
ROOT
ATOM      1  C   UNL     1       9.644 -22.389 -34.945  1.00  0.00     0.000 C 
ENDROOT
BRANCH   1   2
ATOM      2  C   UNL     1       9.358 -23.724 -35.651  1.00  0.00     0.000 C 
BRANCH   2   3
ATOM      3  C   UNL     1      10.544 -24.213 -36.501  1.00  0.00     0.000 C 
BRANCH   3   4
ATOM      4  C   UNL     1      10.398 -23.825 -37.982  1.00  0.00     0.000 C 
BRANCH   4   5
ATOM      5  C   UNL     1       8.945 -23.943 -38.476  1.00  0.00     0.000 C 
BRANCH   5   6
ATOM      6  C   UNL     1       8.525 -22.765 -39.370  1.00  0.00     0.000 C 
BRANCH   6   7
ATOM      7  C   UNL     1       9.660 -22.143 -40.205  1.00  0.00     0.000 C 
BRANCH   7   8
ATOM      8  C   UNL     1       9.864 -20.632 -39.958  1.00  0.00     0.000 C 
BRANCH   8   9
ATOM      9  C   UNL     1       9.630 -20.234 -38.490  1.00  0.00     0.000 C 
BRANCH   9  10
ATOM     10  C   UNL     1      10.627 -19.177 -37.988  1.00  0.00     0.000 C 
BRANCH  10  11
ATOM     11  C   UNL     1      11.480 -19.640 -36.785  1.00  0.00     0.000 C 
BRANCH  11  12
ATOM     12  C   UNL     1      12.359 -20.868 -37.086  1.00  0.00     0.000 C 
BRANCH  12  13
ATOM     13  C   UNL     1      13.829 -20.505 -37.401  1.00  0.00     0.006 C 
BRANCH  13  14
ATOM     14  C   UNL     1      14.730 -21.747 -37.437  1.00  0.00     0.053 C 
BRANCH  14  15
ATOM     15  C   UNL     1      14.746 -22.348 -38.807  1.00  0.00     0.041 C 
ATOM     16  O   UNL     1      14.078 -23.388 -39.053  1.00  0.00    -0.550 OA
ATOM     17  O   UNL     1      15.528 -21.779 -39.805  1.00  0.00    -0.550 OA
ENDBRANCH  14  15
ENDBRANCH  13  14
ENDBRANCH  12  13
ENDBRANCH  11  12
ENDBRANCH  10  11
ENDBRANCH   9  10
ENDBRANCH   8   9
ENDBRANCH   7   8
ENDBRANCH   6   7
ENDBRANCH   5   6
ENDBRANCH   4   5
ENDBRANCH   3   4
ENDBRANCH   2   3
ENDBRANCH   1   2
BRANCH   1  18
ATOM     18  C   UNL     1       8.539 -21.346 -35.179  1.00  0.00     0.000 C 
BRANCH  18  19
ATOM     19  C   UNL     1       7.349 -21.908 -35.972  1.00  0.00     0.000 C 
BRANCH  19  20
ATOM     20  C   UNL     1       6.613 -20.824 -36.784  1.00  0.00     0.000 C 
BRANCH  20  21
ATOM     21  C   UNL     1       5.322 -21.347 -37.448  1.00  0.00     0.000 C 
BRANCH  21  22
ATOM     22  C   UNL     1       4.877 -20.543 -38.685  1.00  0.00     0.000 C 
BRANCH  22  23
ATOM     23  C   UNL     1       6.012 -20.064 -39.609  1.00  0.00     0.000 C 
BRANCH  23  24
ATOM     24  C   UNL     1       6.064 -18.545 -39.847  1.00  0.00    -0.000 C 
BRANCH  24  25
ATOM     25  C   UNL     1       7.257 -17.868 -39.150  1.00  0.00    -0.000 C 
BRANCH  25  26
ATOM     26  C   UNL     1       7.016 -16.372 -38.868  1.00  0.00    -0.000 C 
BRANCH  26  27
ATOM     27  C   UNL     1       6.712 -16.029 -37.398  1.00  0.00    -0.000 C 
BRANCH  27  28
ATOM     28  C   UNL     1       5.228 -16.202 -37.032  1.00  0.00    -0.000 C 
BRANCH  28  29
ATOM     29  C   UNL     1       4.959 -17.535 -36.306  1.00  0.00    -0.000 C 
BRANCH  29  30
ATOM     30  C   UNL     1       5.633 -17.646 -34.925  1.00  0.00    -0.000 C 
BRANCH  30  31
ATOM     31  C   UNL     1       5.140 -16.610 -33.897  1.00  0.00    -0.003 C 
ATOM     32  C   UNL     1       4.929 -17.208 -32.506  1.00  0.00     0.004 C 
ENDBRANCH  30  31
ENDBRANCH  29  30
ENDBRANCH  28  29
ENDBRANCH  27  28
ENDBRANCH  26  27
ENDBRANCH  25  26
ENDBRANCH  24  25
ENDBRANCH  23  24
ENDBRANCH  22  23
ENDBRANCH  21  22
ENDBRANCH  20  21
ENDBRANCH  19  20
ENDBRANCH  18  19
ENDBRANCH   1  18
TORSDOF 28
ENDMDL
MODEL 5
REMARK VINA RESULT:    -3.747      3.382      7.234
REMARK INTER + INTRA:         -15.430
REMARK INTER:                  -9.469
REMARK INTRA:                  -5.961
REMARK UNBOUND:                -5.550
REMARK SMILES CCCCCCCCCCCCCCCCCCCCCCCCCCCCCC(=O)[O-]
REMARK SMILES IDX 16 1 17 2 18 3 19 4 20 5 21 6 22 7 23 8 24 9 25 10 26 11
REMARK SMILES IDX 27 12 28 13 29 14 30 15 31 16 32 17 15 18 14 19 13 20 12 21
REMARK SMILES IDX 11 22 10 23 9 24 8 25 7 26 6 27 5 28 4 29 3 30 2 31 1 32
REMARK H PARENT
REMARK Flexibility Score: inf
ROOT
ATOM      1  C   UNL     1       7.181 -20.324 -36.460  1.00  0.00     0.000 C 
ENDROOT
BRANCH   1   2
ATOM      2  C   UNL     1       8.419 -20.543 -35.576  1.00  0.00     0.000 C 
BRANCH   2   3
ATOM      3  C   UNL     1       8.395 -21.897 -34.844  1.00  0.00     0.000 C 
BRANCH   3   4
ATOM      4  C   UNL     1       9.732 -22.646 -34.964  1.00  0.00     0.000 C 
BRANCH   4   5
ATOM      5  C   UNL     1       9.713 -23.701 -36.085  1.00  0.00     0.000 C 
BRANCH   5   6
ATOM      6  C   UNL     1      10.958 -23.634 -36.984  1.00  0.00     0.000 C 
BRANCH   6   7
ATOM      7  C   UNL     1      10.677 -23.314 -38.464  1.00  0.00     0.000 C 
BRANCH   7   8
ATOM      8  C   UNL     1       9.771 -22.082 -38.678  1.00  0.00     0.000 C 
BRANCH   8   9
ATOM      9  C   UNL     1      10.536 -20.875 -39.248  1.00  0.00     0.000 C 
BRANCH   9  10
ATOM     10  C   UNL     1      10.204 -19.558 -38.528  1.00  0.00     0.000 C 
BRANCH  10  11
ATOM     11  C   UNL     1      11.415 -18.906 -37.822  1.00  0.00     0.000 C 
BRANCH  11  12
ATOM     12  C   UNL     1      12.076 -19.809 -36.764  1.00  0.00     0.000 C 
BRANCH  12  13
ATOM     13  C   UNL     1      13.594 -20.004 -36.989  1.00  0.00     0.006 C 
BRANCH  13  14
ATOM     14  C   UNL     1      13.909 -21.368 -37.618  1.00  0.00     0.053 C 
BRANCH  14  15
ATOM     15  C   UNL     1      14.479 -21.196 -38.991  1.00  0.00     0.041 C 
ATOM     16  O   UNL     1      14.281 -20.129 -39.632  1.00  0.00    -0.550 OA
ATOM     17  O   UNL     1      15.199 -22.229 -39.578  1.00  0.00    -0.550 OA
ENDBRANCH  14  15
ENDBRANCH  13  14
ENDBRANCH  12  13
ENDBRANCH  11  12
ENDBRANCH  10  11
ENDBRANCH   9  10
ENDBRANCH   8   9
ENDBRANCH   7   8
ENDBRANCH   6   7
ENDBRANCH   5   6
ENDBRANCH   4   5
ENDBRANCH   3   4
ENDBRANCH   2   3
ENDBRANCH   1   2
BRANCH   1  18
ATOM     18  C   UNL     1       6.423 -21.630 -36.754  1.00  0.00     0.000 C 
BRANCH  18  19
ATOM     19  C   UNL     1       5.930 -21.718 -38.206  1.00  0.00     0.000 C 
BRANCH  19  20
ATOM     20  C   UNL     1       5.110 -20.484 -38.629  1.00  0.00     0.000 C 
BRANCH  20  21
ATOM     21  C   UNL     1       5.443 -20.004 -40.057  1.00  0.00     0.000 C 
BRANCH  21  22
ATOM     22  C   UNL     1       6.948 -20.000 -40.388  1.00  0.00     0.000 C 
BRANCH  22  23
ATOM     23  C   UNL     1       7.355 -19.160 -41.613  1.00  0.00     0.000 C 
BRANCH  23  24
ATOM     24  C   UNL     1       8.402 -18.067 -41.336  1.00  0.00    -0.000 C 
BRANCH  24  25
ATOM     25  C   UNL     1       7.809 -16.832 -40.634  1.00  0.00    -0.000 C 
BRANCH  25  26
ATOM     26  C   UNL     1       8.444 -16.563 -39.257  1.00  0.00    -0.000 C 
BRANCH  26  27
ATOM     27  C   UNL     1       7.553 -16.912 -38.050  1.00  0.00    -0.000 C 
BRANCH  27  28
ATOM     28  C   UNL     1       6.050 -16.869 -38.377  1.00  0.00    -0.000 C 
BRANCH  28  29
ATOM     29  C   UNL     1       5.286 -15.878 -37.476  1.00  0.00    -0.000 C 
BRANCH  29  30
ATOM     30  C   UNL     1       4.098 -16.503 -36.721  1.00  0.00    -0.000 C 
BRANCH  30  31
ATOM     31  C   UNL     1       4.318 -16.640 -35.202  1.00  0.00    -0.003 C 
ATOM     32  C   UNL     1       5.603 -17.390 -34.853  1.00  0.00     0.004 C 
ENDBRANCH  30  31
ENDBRANCH  29  30
ENDBRANCH  28  29
ENDBRANCH  27  28
ENDBRANCH  26  27
ENDBRANCH  25  26
ENDBRANCH  24  25
ENDBRANCH  23  24
ENDBRANCH  22  23
ENDBRANCH  21  22
ENDBRANCH  20  21
ENDBRANCH  19  20
ENDBRANCH  18  19
ENDBRANCH   1  18
TORSDOF 28
ENDMDL
MODEL 6
REMARK VINA RESULT:    -3.731      3.319      7.030
REMARK INTER + INTRA:         -15.387
REMARK INTER:                  -9.364
REMARK INTRA:                  -6.022
REMARK UNBOUND:                -5.550
REMARK SMILES CCCCCCCCCCCCCCCCCCCCCCCCCCCCCC(=O)[O-]
REMARK SMILES IDX 16 1 17 2 18 3 19 4 20 5 21 6 22 7 23 8 24 9 25 10 26 11
REMARK SMILES IDX 27 12 28 13 29 14 30 15 31 16 32 17 15 18 14 19 13 20 12 21
REMARK SMILES IDX 11 22 10 23 9 24 8 25 7 26 6 27 5 28 4 29 3 30 2 31 1 32
REMARK H PARENT
REMARK Flexibility Score: inf
ROOT
ATOM      1  C   UNL     1       9.501 -24.174 -37.279  1.00  0.00     0.000 C 
ENDROOT
BRANCH   1   2
ATOM      2  C   UNL     1       9.042 -24.267 -35.815  1.00  0.00     0.000 C 
BRANCH   2   3
ATOM      3  C   UNL     1       9.628 -23.148 -34.937  1.00  0.00     0.000 C 
BRANCH   3   4
ATOM      4  C   UNL     1       8.818 -21.845 -35.038  1.00  0.00     0.000 C 
BRANCH   4   5
ATOM      5  C   UNL     1       9.717 -20.610 -35.225  1.00  0.00     0.000 C 
BRANCH   5   6
ATOM      6  C   UNL     1      10.470 -20.622 -36.566  1.00  0.00     0.000 C 
BRANCH   6   7
ATOM      7  C   UNL     1      10.104 -19.477 -37.529  1.00  0.00     0.000 C 
BRANCH   7   8
ATOM      8  C   UNL     1      11.249 -19.069 -38.482  1.00  0.00     0.000 C 
BRANCH   8   9
ATOM      9  C   UNL     1      11.131 -19.729 -39.867  1.00  0.00     0.000 C 
BRANCH   9  10
ATOM     10  C   UNL     1      12.307 -20.664 -40.190  1.00  0.00     0.000 C 
BRANCH  10  11
ATOM     11  C   UNL     1      11.880 -22.045 -40.736  1.00  0.00     0.000 C 
BRANCH  11  12
ATOM     12  C   UNL     1      12.328 -23.226 -39.856  1.00  0.00     0.000 C 
BRANCH  12  13
ATOM     13  C   UNL     1      12.640 -22.816 -38.397  1.00  0.00     0.006 C 
BRANCH  13  14
ATOM     14  C   UNL     1      14.118 -23.031 -38.046  1.00  0.00     0.053 C 
BRANCH  14  15
ATOM     15  C   UNL     1      14.807 -21.718 -37.840  1.00  0.00     0.041 C 
ATOM     16  O   UNL     1      14.325 -20.865 -37.048  1.00  0.00    -0.550 OA
ATOM     17  O   UNL     1      15.964 -21.423 -38.551  1.00  0.00    -0.550 OA
ENDBRANCH  14  15
ENDBRANCH  13  14
ENDBRANCH  12  13
ENDBRANCH  11  12
ENDBRANCH  10  11
ENDBRANCH   9  10
ENDBRANCH   8   9
ENDBRANCH   7   8
ENDBRANCH   6   7
ENDBRANCH   5   6
ENDBRANCH   4   5
ENDBRANCH   3   4
ENDBRANCH   2   3
ENDBRANCH   1   2
BRANCH   1  18
ATOM     18  C   UNL     1       8.352 -23.822 -38.239  1.00  0.00     0.000 C 
BRANCH  18  19
ATOM     19  C   UNL     1       8.640 -22.566 -39.076  1.00  0.00     0.000 C 
BRANCH  19  20
ATOM     20  C   UNL     1       7.467 -21.568 -39.070  1.00  0.00     0.000 C 
BRANCH  20  21
ATOM     21  C   UNL     1       6.277 -22.048 -38.213  1.00  0.00     0.000 C 
BRANCH  21  22
ATOM     22  C   UNL     1       5.854 -21.060 -37.109  1.00  0.00     0.000 C 
BRANCH  22  23
ATOM     23  C   UNL     1       6.427 -19.637 -37.237  1.00  0.00     0.000 C 
BRANCH  23  24
ATOM     24  C   UNL     1       6.575 -18.870 -35.911  1.00  0.00    -0.000 C 
BRANCH  24  25
ATOM     25  C   UNL     1       5.672 -17.628 -35.832  1.00  0.00    -0.000 C 
BRANCH  25  26
ATOM     26  C   UNL     1       6.347 -16.360 -36.389  1.00  0.00    -0.000 C 
BRANCH  26  27
ATOM     27  C   UNL     1       5.601 -15.686 -37.556  1.00  0.00    -0.000 C 
BRANCH  27  28
ATOM     28  C   UNL     1       5.791 -16.417 -38.897  1.00  0.00    -0.000 C 
BRANCH  28  29
ATOM     29  C   UNL     1       7.125 -16.051 -39.576  1.00  0.00    -0.000 C 
BRANCH  29  30
ATOM     30  C   UNL     1       8.123 -17.222 -39.674  1.00  0.00    -0.000 C 
BRANCH  30  31
ATOM     31  C   UNL     1       7.647 -18.383 -40.569  1.00  0.00    -0.003 C 
ATOM     32  C   UNL     1       8.350 -18.412 -41.926  1.00  0.00     0.004 C 
ENDBRANCH  30  31
ENDBRANCH  29  30
ENDBRANCH  28  29
ENDBRANCH  27  28
ENDBRANCH  26  27
ENDBRANCH  25  26
ENDBRANCH  24  25
ENDBRANCH  23  24
ENDBRANCH  22  23
ENDBRANCH  21  22
ENDBRANCH  20  21
ENDBRANCH  19  20
ENDBRANCH  18  19
ENDBRANCH   1  18
TORSDOF 28
ENDMDL
MODEL 7
REMARK VINA RESULT:    -3.717      3.729      7.756
REMARK INTER + INTRA:         -15.352
REMARK INTER:                  -9.713
REMARK INTRA:                  -5.639
REMARK UNBOUND:                -5.550
REMARK SMILES CCCCCCCCCCCCCCCCCCCCCCCCCCCCCC(=O)[O-]
REMARK SMILES IDX 16 1 17 2 18 3 19 4 20 5 21 6 22 7 23 8 24 9 25 10 26 11
REMARK SMILES IDX 27 12 28 13 29 14 30 15 31 16 32 17 15 18 14 19 13 20 12 21
REMARK SMILES IDX 11 22 10 23 9 24 8 25 7 26 6 27 5 28 4 29 3 30 2 31 1 32
REMARK H PARENT
REMARK Flexibility Score: inf
ROOT
ATOM      1  C   UNL     1      10.805 -24.021 -36.842  1.00  0.00     0.000 C 
ENDROOT
BRANCH   1   2
ATOM      2  C   UNL     1      10.286 -23.732 -38.259  1.00  0.00     0.000 C 
BRANCH   2   3
ATOM      3  C   UNL     1      10.728 -22.355 -38.785  1.00  0.00     0.000 C 
BRANCH   3   4
ATOM      4  C   UNL     1       9.531 -21.437 -39.089  1.00  0.00     0.000 C 
BRANCH   4   5
ATOM      5  C   UNL     1       9.837 -19.959 -38.787  1.00  0.00     0.000 C 
BRANCH   5   6
ATOM      6  C   UNL     1      10.110 -19.702 -37.296  1.00  0.00     0.000 C 
BRANCH   6   7
ATOM      7  C   UNL     1      11.548 -19.260 -36.964  1.00  0.00     0.000 C 
BRANCH   7   8
ATOM      8  C   UNL     1      12.368 -18.816 -38.194  1.00  0.00     0.000 C 
BRANCH   8   9
ATOM      9  C   UNL     1      13.573 -19.733 -38.467  1.00  0.00     0.000 C 
BRANCH   9  10
ATOM     10  C   UNL     1      13.809 -20.763 -37.350  1.00  0.00     0.000 C 
BRANCH  10  11
ATOM     11  C   UNL     1      14.964 -21.748 -37.639  1.00  0.00     0.000 C 
BRANCH  11  12
ATOM     12  C   UNL     1      15.484 -21.686 -39.088  1.00  0.00     0.000 C 
BRANCH  12  13
ATOM     13  C   UNL     1      15.653 -23.080 -39.737  1.00  0.00     0.006 C 
BRANCH  13  14
ATOM     14  C   UNL     1      14.860 -24.160 -38.988  1.00  0.00     0.053 C 
BRANCH  14  15
ATOM     15  C   UNL     1      13.678 -24.599 -39.793  1.00  0.00     0.041 C 
ATOM     16  O   UNL     1      13.308 -23.930 -40.795  1.00  0.00    -0.550 OA
ATOM     17  O   UNL     1      12.961 -25.727 -39.414  1.00  0.00    -0.550 OA
ENDBRANCH  14  15
ENDBRANCH  13  14
ENDBRANCH  12  13
ENDBRANCH  11  12
ENDBRANCH  10  11
ENDBRANCH   9  10
ENDBRANCH   8   9
ENDBRANCH   7   8
ENDBRANCH   6   7
ENDBRANCH   5   6
ENDBRANCH   4   5
ENDBRANCH   3   4
ENDBRANCH   2   3
ENDBRANCH   1   2
BRANCH   1  18
ATOM     18  C   UNL     1       9.687 -24.007 -35.786  1.00  0.00     0.000 C 
BRANCH  18  19
ATOM     19  C   UNL     1       9.761 -22.788 -34.855  1.00  0.00     0.000 C 
BRANCH  19  20
ATOM     20  C   UNL     1       8.498 -21.909 -34.927  1.00  0.00     0.000 C 
BRANCH  20  21
ATOM     21  C   UNL     1       7.544 -22.324 -36.068  1.00  0.00     0.000 C 
BRANCH  21  22
ATOM     22  C   UNL     1       6.713 -21.165 -36.650  1.00  0.00     0.000 C 
BRANCH  22  23
ATOM     23  C   UNL     1       6.891 -19.804 -35.951  1.00  0.00     0.000 C 
BRANCH  23  24
ATOM     24  C   UNL     1       6.035 -18.660 -36.522  1.00  0.00    -0.000 C 
BRANCH  24  25
ATOM     25  C   UNL     1       6.484 -18.216 -37.925  1.00  0.00    -0.000 C 
BRANCH  25  26
ATOM     26  C   UNL     1       7.462 -17.026 -37.892  1.00  0.00    -0.000 C 
BRANCH  26  27
ATOM     27  C   UNL     1       7.706 -16.348 -39.253  1.00  0.00    -0.000 C 
BRANCH  27  28
ATOM     28  C   UNL     1       9.095 -16.651 -39.839  1.00  0.00    -0.000 C 
BRANCH  28  29
ATOM     29  C   UNL     1       9.067 -16.769 -41.376  1.00  0.00    -0.000 C 
BRANCH  29  30
ATOM     30  C   UNL     1       7.863 -17.561 -41.923  1.00  0.00    -0.000 C 
BRANCH  30  31
ATOM     31  C   UNL     1       8.043 -19.091 -41.881  1.00  0.00    -0.003 C 
ATOM     32  C   UNL     1       6.911 -19.801 -41.140  1.00  0.00     0.004 C 
ENDBRANCH  30  31
ENDBRANCH  29  30
ENDBRANCH  28  29
ENDBRANCH  27  28
ENDBRANCH  26  27
ENDBRANCH  25  26
ENDBRANCH  24  25
ENDBRANCH  23  24
ENDBRANCH  22  23
ENDBRANCH  21  22
ENDBRANCH  20  21
ENDBRANCH  19  20
ENDBRANCH  18  19
ENDBRANCH   1  18
TORSDOF 28
ENDMDL
MODEL 8
REMARK VINA RESULT:    -3.703      1.379      3.699
REMARK INTER + INTRA:         -15.315
REMARK INTER:                  -9.723
REMARK INTRA:                  -5.592
REMARK UNBOUND:                -5.550
REMARK SMILES CCCCCCCCCCCCCCCCCCCCCCCCCCCCCC(=O)[O-]
REMARK SMILES IDX 16 1 17 2 18 3 19 4 20 5 21 6 22 7 23 8 24 9 25 10 26 11
REMARK SMILES IDX 27 12 28 13 29 14 30 15 31 16 32 17 15 18 14 19 13 20 12 21
REMARK SMILES IDX 11 22 10 23 9 24 8 25 7 26 6 27 5 28 4 29 3 30 2 31 1 32
REMARK H PARENT
REMARK Flexibility Score: inf
ROOT
ATOM      1  C   UNL     1      10.142 -20.658 -36.236  1.00  0.00     0.000 C 
ENDROOT
BRANCH   1   2
ATOM      2  C   UNL     1      10.283 -19.424 -37.142  1.00  0.00     0.000 C 
BRANCH   2   3
ATOM      3  C   UNL     1      10.054 -19.748 -38.628  1.00  0.00     0.000 C 
BRANCH   3   4
ATOM      4  C   UNL     1      10.218 -21.247 -38.929  1.00  0.00     0.000 C 
BRANCH   4   5
ATOM      5  C   UNL     1       9.044 -21.811 -39.749  1.00  0.00     0.000 C 
BRANCH   5   6
ATOM      6  C   UNL     1       8.190 -22.811 -38.952  1.00  0.00     0.000 C 
BRANCH   6   7
ATOM      7  C   UNL     1       6.733 -22.375 -38.707  1.00  0.00     0.000 C 
BRANCH   7   8
ATOM      8  C   UNL     1       6.549 -20.848 -38.575  1.00  0.00     0.000 C 
BRANCH   8   9
ATOM      9  C   UNL     1       5.641 -20.460 -37.395  1.00  0.00     0.000 C 
BRANCH   9  10
ATOM     10  C   UNL     1       5.601 -18.945 -37.139  1.00  0.00     0.000 C 
BRANCH  10  11
ATOM     11  C   UNL     1       6.819 -18.180 -37.707  1.00  0.00     0.000 C 
BRANCH  11  12
ATOM     12  C   UNL     1       6.887 -16.707 -37.263  1.00  0.00     0.000 C 
BRANCH  12  13
ATOM     13  C   UNL     1       5.619 -16.235 -36.513  1.00  0.00     0.006 C 
BRANCH  13  14
ATOM     14  C   UNL     1       5.942 -15.169 -35.458  1.00  0.00     0.053 C 
BRANCH  14  15
ATOM     15  C   UNL     1       4.937 -15.201 -34.350  1.00  0.00     0.041 C 
ATOM     16  O   UNL     1       3.745 -14.852 -34.564  1.00  0.00    -0.550 OA
ATOM     17  O   UNL     1       5.325 -15.582 -33.071  1.00  0.00    -0.550 OA
ENDBRANCH  14  15
ENDBRANCH  13  14
ENDBRANCH  12  13
ENDBRANCH  11  12
ENDBRANCH  10  11
ENDBRANCH   9  10
ENDBRANCH   8   9
ENDBRANCH   7   8
ENDBRANCH   6   7
ENDBRANCH   5   6
ENDBRANCH   4   5
ENDBRANCH   3   4
ENDBRANCH   2   3
ENDBRANCH   1   2
BRANCH   1  18
ATOM     18  C   UNL     1       8.780 -20.718 -35.524  1.00  0.00     0.000 C 
BRANCH  18  19
ATOM     19  C   UNL     1       8.291 -22.156 -35.296  1.00  0.00     0.000 C 
BRANCH  19  20
ATOM     20  C   UNL     1       9.439 -23.124 -34.949  1.00  0.00     0.000 C 
BRANCH  20  21
ATOM     21  C   UNL     1       9.590 -24.266 -35.977  1.00  0.00     0.000 C 
BRANCH  21  22
ATOM     22  C   UNL     1      10.882 -24.196 -36.813  1.00  0.00     0.000 C 
BRANCH  22  23
ATOM     23  C   UNL     1      10.976 -25.202 -37.976  1.00  0.00     0.000 C 
BRANCH  23  24
ATOM     24  C   UNL     1      11.500 -24.621 -39.301  1.00  0.00    -0.000 C 
BRANCH  24  25
ATOM     25  C   UNL     1      12.848 -25.226 -39.729  1.00  0.00    -0.000 C 
BRANCH  25  26
ATOM     26  C   UNL     1      13.886 -24.157 -40.123  1.00  0.00    -0.000 C 
BRANCH  26  27
ATOM     27  C   UNL     1      14.982 -23.897 -39.073  1.00  0.00    -0.000 C 
BRANCH  27  28
ATOM     28  C   UNL     1      14.458 -23.180 -37.817  1.00  0.00    -0.000 C 
BRANCH  28  29
ATOM     29  C   UNL     1      14.910 -21.707 -37.756  1.00  0.00    -0.000 C 
BRANCH  29  30
ATOM     30  C   UNL     1      13.756 -20.691 -37.854  1.00  0.00    -0.000 C 
BRANCH  30  31
ATOM     31  C   UNL     1      13.892 -19.692 -39.018  1.00  0.00    -0.003 C 
ATOM     32  C   UNL     1      13.455 -20.281 -40.359  1.00  0.00     0.004 C 
ENDBRANCH  30  31
ENDBRANCH  29  30
ENDBRANCH  28  29
ENDBRANCH  27  28
ENDBRANCH  26  27
ENDBRANCH  25  26
ENDBRANCH  24  25
ENDBRANCH  23  24
ENDBRANCH  22  23
ENDBRANCH  21  22
ENDBRANCH  20  21
ENDBRANCH  19  20
ENDBRANCH  18  19
ENDBRANCH   1  18
TORSDOF 28
ENDMDL
MODEL 9
REMARK VINA RESULT:    -3.668      3.029      6.806
REMARK INTER + INTRA:         -15.223
REMARK INTER:                  -9.043
REMARK INTRA:                  -6.180
REMARK UNBOUND:                -5.550
REMARK SMILES CCCCCCCCCCCCCCCCCCCCCCCCCCCCCC(=O)[O-]
REMARK SMILES IDX 16 1 17 2 18 3 19 4 20 5 21 6 22 7 23 8 24 9 25 10 26 11
REMARK SMILES IDX 27 12 28 13 29 14 30 15 31 16 32 17 15 18 14 19 13 20 12 21
REMARK SMILES IDX 11 22 10 23 9 24 8 25 7 26 6 27 5 28 4 29 3 30 2 31 1 32
REMARK H PARENT
REMARK Flexibility Score: inf
ROOT
ATOM      1  C   UNL     1       9.983 -20.557 -35.920  1.00  0.00     0.000 C 
ENDROOT
BRANCH   1   2
ATOM      2  C   UNL     1       8.640 -20.839 -35.227  1.00  0.00     0.000 C 
BRANCH   2   3
ATOM      3  C   UNL     1       8.369 -22.343 -35.046  1.00  0.00     0.000 C 
BRANCH   3   4
ATOM      4  C   UNL     1       9.664 -23.147 -34.841  1.00  0.00     0.000 C 
BRANCH   4   5
ATOM      5  C   UNL     1       9.852 -24.235 -35.914  1.00  0.00     0.000 C 
BRANCH   5   6
ATOM      6  C   UNL     1       8.898 -24.062 -37.107  1.00  0.00     0.000 C 
BRANCH   6   7
ATOM      7  C   UNL     1       9.380 -24.700 -38.424  1.00  0.00     0.000 C 
BRANCH   7   8
ATOM      8  C   UNL     1      10.577 -25.661 -38.255  1.00  0.00     0.000 C 
BRANCH   8   9
ATOM      9  C   UNL     1      11.824 -25.197 -39.028  1.00  0.00     0.000 C 
BRANCH   9  10
ATOM     10  C   UNL     1      11.616 -23.860 -39.758  1.00  0.00     0.000 C 
BRANCH  10  11
ATOM     11  C   UNL     1      12.684 -22.793 -39.427  1.00  0.00     0.000 C 
BRANCH  11  12
ATOM     12  C   UNL     1      12.872 -22.550 -37.918  1.00  0.00     0.000 C 
BRANCH  12  13
ATOM     13  C   UNL     1      14.032 -21.579 -37.595  1.00  0.00     0.006 C 
BRANCH  13  14
ATOM     14  C   UNL     1      13.528 -20.153 -37.333  1.00  0.00     0.053 C 
BRANCH  14  15
ATOM     15  C   UNL     1      13.560 -19.344 -38.591  1.00  0.00     0.041 C 
ATOM     16  O   UNL     1      12.801 -18.346 -38.725  1.00  0.00    -0.550 OA
ATOM     17  O   UNL     1      14.404 -19.711 -39.632  1.00  0.00    -0.550 OA
ENDBRANCH  14  15
ENDBRANCH  13  14
ENDBRANCH  12  13
ENDBRANCH  11  12
ENDBRANCH  10  11
ENDBRANCH   9  10
ENDBRANCH   8   9
ENDBRANCH   7   8
ENDBRANCH   6   7
ENDBRANCH   5   6
ENDBRANCH   4   5
ENDBRANCH   3   4
ENDBRANCH   2   3
ENDBRANCH   1   2
BRANCH   1  18
ATOM     18  C   UNL     1       9.814 -19.817 -37.258  1.00  0.00     0.000 C 
BRANCH  18  19
ATOM     19  C   UNL     1       9.814 -20.766 -38.467  1.00  0.00     0.000 C 
BRANCH  19  20
ATOM     20  C   UNL     1       8.937 -20.250 -39.624  1.00  0.00     0.000 C 
BRANCH  20  21
ATOM     21  C   UNL     1       8.096 -21.365 -40.281  1.00  0.00     0.000 C 
BRANCH  21  22
ATOM     22  C   UNL     1       6.609 -21.357 -39.874  1.00  0.00     0.000 C 
BRANCH  22  23
ATOM     23  C   UNL     1       6.278 -22.083 -38.557  1.00  0.00     0.000 C 
BRANCH  23  24
ATOM     24  C   UNL     1       5.764 -21.177 -37.423  1.00  0.00    -0.000 C 
BRANCH  24  25
ATOM     25  C   UNL     1       4.649 -20.220 -37.878  1.00  0.00    -0.000 C 
BRANCH  25  26
ATOM     26  C   UNL     1       4.924 -18.754 -37.491  1.00  0.00    -0.000 C 
BRANCH  26  27
ATOM     27  C   UNL     1       6.291 -18.501 -36.830  1.00  0.00    -0.000 C 
BRANCH  27  28
ATOM     28  C   UNL     1       7.148 -17.472 -37.588  1.00  0.00    -0.000 C 
BRANCH  28  29
ATOM     29  C   UNL     1       6.540 -17.102 -38.956  1.00  0.00    -0.000 C 
BRANCH  29  30
ATOM     30  C   UNL     1       7.493 -16.312 -39.874  1.00  0.00    -0.000 C 
BRANCH  30  31
ATOM     31  C   UNL     1       7.955 -17.089 -41.121  1.00  0.00    -0.003 C 
ATOM     32  C   UNL     1       9.470 -17.044 -41.321  1.00  0.00     0.004 C 
ENDBRANCH  30  31
ENDBRANCH  29  30
ENDBRANCH  28  29
ENDBRANCH  27  28
ENDBRANCH  26  27
ENDBRANCH  25  26
ENDBRANCH  24  25
ENDBRANCH  23  24
ENDBRANCH  22  23
ENDBRANCH  21  22
ENDBRANCH  20  21
ENDBRANCH  19  20
ENDBRANCH  18  19
ENDBRANCH   1  18
TORSDOF 28
ENDMDL
