MODEL 1
REMARK VINA RESULT:     6.335      0.000      0.000
REMARK INTER + INTRA:          11.985
REMARK INTER:                  12.261
REMARK INTRA:                  -0.276
REMARK UNBOUND:                -0.276
REMARK SMILES CCCCCCCCCCCCCCCCCC(=O)[O-]
REMARK SMILES IDX 10 1 11 2 12 3 13 4 14 5 15 6 16 7 17 8 18 9 19 10 20 11
REMARK SMILES IDX 9 12 8 13 7 14 6 15 5 16 4 17 3 18 2 19 1 20
REMARK H PARENT
REMARK Flexibility Score: inf
ROOT
ATOM      1  C   UNL     1      12.384  -0.576 -17.476  1.00  0.00     0.000 C 
ENDROOT
BRANCH   1   2
ATOM      2  C   UNL     1      11.974  -1.359 -16.219  1.00  0.00     0.000 C 
BRANCH   2   3
ATOM      3  C   UNL     1      10.801  -2.320 -16.473  1.00  0.00     0.000 C 
BRANCH   3   4
ATOM      4  C   UNL     1      11.148  -3.817 -16.341  1.00  0.00     0.000 C 
BRANCH   4   5
ATOM      5  C   UNL     1      11.241  -4.557 -17.692  1.00  0.00     0.000 C 
BRANCH   5   6
ATOM      6  C   UNL     1      12.213  -5.750 -17.637  1.00  0.00     0.000 C 
BRANCH   6   7
ATOM      7  C   UNL     1      12.831  -6.080 -19.008  1.00  0.00     0.006 C 
BRANCH   7   8
ATOM      8  C   UNL     1      14.364  -6.195 -18.985  1.00  0.00     0.053 C 
BRANCH   8   9
ATOM      9  C   UNL     1      14.841  -7.311 -18.108  1.00  0.00     0.041 C 
ATOM     10  O   UNL     1      15.332  -8.350 -18.617  1.00  0.00    -0.550 OA
ATOM     11  O   UNL     1      14.758  -7.196 -16.724  1.00  0.00    -0.550 OA
ENDBRANCH   8   9
ENDBRANCH   7   8
ENDBRANCH   6   7
ENDBRANCH   5   6
ENDBRANCH   4   5
ENDBRANCH   3   4
ENDBRANCH   2   3
ENDBRANCH   1   2
BRANCH   1  12
ATOM     12  C   UNL     1      13.880  -0.226 -17.441  1.00  0.00     0.000 C 
BRANCH  12  13
ATOM     13  C   UNL     1      14.215   1.009 -18.293  1.00  0.00    -0.000 C 
BRANCH  13  14
ATOM     14  C   UNL     1      13.401   2.247 -17.882  1.00  0.00    -0.000 C 
BRANCH  14  15
ATOM     15  C   UNL     1      13.028   2.242 -16.390  1.00  0.00    -0.000 C 
BRANCH  15  16
ATOM     16  C   UNL     1      11.515   2.213 -16.095  1.00  0.00    -0.000 C 
BRANCH  16  17
ATOM     17  C   UNL     1      11.040   3.205 -15.016  1.00  0.00    -0.000 C 
BRANCH  17  18
ATOM     18  C   UNL     1      10.525   2.507 -13.749  1.00  0.00    -0.000 C 
BRANCH  18  19
ATOM     19  C   UNL     1      10.394   0.994 -13.970  1.00  0.00    -0.003 C 
ATOM     20  C   UNL     1       9.456   0.365 -12.944  1.00  0.00     0.004 C 
ENDBRANCH  18  19
ENDBRANCH  17  18
ENDBRANCH  16  17
ENDBRANCH  15  16
ENDBRANCH  14  15
ENDBRANCH  13  14
ENDBRANCH  12  13
ENDBRANCH   1  12
TORSDOF 16
ENDMDL
MODEL 2
REMARK VINA RESULT:     6.352      0.776      1.344
REMARK INTER + INTRA:          12.018
REMARK INTER:                  12.793
REMARK INTRA:                  -0.775
REMARK UNBOUND:                -0.276
REMARK SMILES CCCCCCCCCCCCCCCCCC(=O)[O-]
REMARK SMILES IDX 10 1 11 2 12 3 13 4 14 5 15 6 16 7 17 8 18 9 19 10 20 11
REMARK SMILES IDX 9 12 8 13 7 14 6 15 5 16 4 17 3 18 2 19 1 20
REMARK H PARENT
REMARK Flexibility Score: inf
ROOT
ATOM      1  C   UNL     1      14.162  -0.474 -17.089  1.00  0.00     0.000 C 
ENDROOT
BRANCH   1   2
ATOM      2  C   UNL     1      12.713  -0.859 -17.427  1.00  0.00     0.000 C 
BRANCH   2   3
ATOM      3  C   UNL     1      11.940  -1.395 -16.211  1.00  0.00     0.000 C 
BRANCH   3   4
ATOM      4  C   UNL     1      10.782  -2.356 -16.549  1.00  0.00     0.000 C 
BRANCH   4   5
ATOM      5  C   UNL     1      11.132  -3.846 -16.354  1.00  0.00     0.000 C 
BRANCH   5   6
ATOM      6  C   UNL     1      11.281  -4.589 -17.695  1.00  0.00     0.000 C 
BRANCH   6   7
ATOM      7  C   UNL     1      12.211  -5.813 -17.598  1.00  0.00     0.006 C 
BRANCH   7   8
ATOM      8  C   UNL     1      12.961  -6.124 -18.903  1.00  0.00     0.053 C 
BRANCH   8   9
ATOM      9  C   UNL     1      14.380  -6.536 -18.664  1.00  0.00     0.041 C 
ATOM     10  O   UNL     1      14.651  -7.395 -17.787  1.00  0.00    -0.550 OA
ATOM     11  O   UNL     1      15.406  -5.981 -19.423  1.00  0.00    -0.550 OA
ENDBRANCH   8   9
ENDBRANCH   7   8
ENDBRANCH   6   7
ENDBRANCH   5   6
ENDBRANCH   4   5
ENDBRANCH   3   4
ENDBRANCH   2   3
ENDBRANCH   1   2
BRANCH   1  12
ATOM     12  C   UNL     1      14.830   0.247 -18.271  1.00  0.00     0.000 C 
BRANCH  12  13
ATOM     13  C   UNL     1      14.176   1.603 -18.579  1.00  0.00    -0.000 C 
BRANCH  13  14
ATOM     14  C   UNL     1      13.831   2.393 -17.306  1.00  0.00    -0.000 C 
BRANCH  14  15
ATOM     15  C   UNL     1      12.317   2.471 -17.050  1.00  0.00    -0.000 C 
BRANCH  15  16
ATOM     16  C   UNL     1      11.860   1.951 -15.672  1.00  0.00    -0.000 C 
BRANCH  16  17
ATOM     17  C   UNL     1      10.911   2.888 -14.901  1.00  0.00    -0.000 C 
BRANCH  17  18
ATOM     18  C   UNL     1      10.398   2.272 -13.591  1.00  0.00    -0.000 C 
BRANCH  18  19
ATOM     19  C   UNL     1      10.085   0.780 -13.771  1.00  0.00    -0.003 C 
ATOM     20  C   UNL     1       9.314   0.229 -12.575  1.00  0.00     0.004 C 
ENDBRANCH  18  19
ENDBRANCH  17  18
ENDBRANCH  16  17
ENDBRANCH  15  16
ENDBRANCH  14  15
ENDBRANCH  13  14
ENDBRANCH  12  13
ENDBRANCH   1  12
TORSDOF 16
ENDMDL
MODEL 3
REMARK VINA RESULT:     6.894      1.022      3.837
REMARK INTER + INTRA:          13.066
REMARK INTER:                  13.100
REMARK INTRA:                  -0.034
REMARK UNBOUND:                -0.276
REMARK SMILES CCCCCCCCCCCCCCCCCC(=O)[O-]
REMARK SMILES IDX 10 1 11 2 12 3 13 4 14 5 15 6 16 7 17 8 18 9 19 10 20 11
REMARK SMILES IDX 9 12 8 13 7 14 6 15 5 16 4 17 3 18 2 19 1 20
REMARK H PARENT
REMARK Flexibility Score: inf
ROOT
ATOM      1  C   UNL     1      10.563  -0.167 -14.905  1.00  0.00     0.000 C 
ENDROOT
BRANCH   1   2
ATOM      2  C   UNL     1      11.933  -0.833 -15.110  1.00  0.00     0.000 C 
BRANCH   2   3
ATOM      3  C   UNL     1      11.960  -1.777 -16.323  1.00  0.00     0.000 C 
BRANCH   3   4
ATOM      4  C   UNL     1      10.717  -2.677 -16.475  1.00  0.00     0.000 C 
BRANCH   4   5
ATOM      5  C   UNL     1      11.037  -4.186 -16.483  1.00  0.00     0.000 C 
BRANCH   5   6
ATOM      6  C   UNL     1      11.392  -4.698 -17.891  1.00  0.00     0.000 C 
BRANCH   6   7
ATOM      7  C   UNL     1      12.260  -5.970 -17.862  1.00  0.00     0.006 C 
BRANCH   7   8
ATOM      8  C   UNL     1      13.179  -6.120 -19.086  1.00  0.00     0.053 C 
BRANCH   8   9
ATOM      9  C   UNL     1      14.567  -6.537 -18.713  1.00  0.00     0.041 C 
ATOM     10  O   UNL     1      15.547  -6.172 -19.411  1.00  0.00    -0.550 OA
ATOM     11  O   UNL     1      14.781  -7.318 -17.581  1.00  0.00    -0.550 OA
ENDBRANCH   8   9
ENDBRANCH   7   8
ENDBRANCH   6   7
ENDBRANCH   5   6
ENDBRANCH   4   5
ENDBRANCH   3   4
ENDBRANCH   2   3
ENDBRANCH   1   2
BRANCH   1  12
ATOM     12  C   UNL     1      10.511   0.585 -13.566  1.00  0.00     0.000 C 
BRANCH  12  13
ATOM     13  C   UNL     1      10.104   2.058 -13.732  1.00  0.00    -0.000 C 
BRANCH  13  14
ATOM     14  C   UNL     1      11.155   2.876 -14.500  1.00  0.00    -0.000 C 
BRANCH  14  15
ATOM     15  C   UNL     1      11.234   2.492 -15.987  1.00  0.00    -0.000 C 
BRANCH  15  16
ATOM     16  C   UNL     1      12.661   2.280 -16.531  1.00  0.00    -0.000 C 
BRANCH  16  17
ATOM     17  C   UNL     1      12.821   1.097 -17.504  1.00  0.00    -0.000 C 
BRANCH  17  18
ATOM     18  C   UNL     1      13.912   1.334 -18.559  1.00  0.00    -0.000 C 
BRANCH  18  19
ATOM     19  C   UNL     1      15.047   0.312 -18.414  1.00  0.00    -0.003 C 
ATOM     20  C   UNL     1      16.214   0.648 -19.338  1.00  0.00     0.004 C 
ENDBRANCH  18  19
ENDBRANCH  17  18
ENDBRANCH  16  17
ENDBRANCH  15  16
ENDBRANCH  14  15
ENDBRANCH  13  14
ENDBRANCH  12  13
ENDBRANCH   1  12
TORSDOF 16
ENDMDL
MODEL 4
REMARK VINA RESULT:     7.034      3.647      8.431
REMARK INTER + INTRA:          13.338
REMARK INTER:                  13.328
REMARK INTRA:                   0.011
REMARK UNBOUND:                -0.276
REMARK SMILES CCCCCCCCCCCCCCCCCC(=O)[O-]
REMARK SMILES IDX 10 1 11 2 12 3 13 4 14 5 15 6 16 7 17 8 18 9 19 10 20 11
REMARK SMILES IDX 9 12 8 13 7 14 6 15 5 16 4 17 3 18 2 19 1 20
REMARK H PARENT
REMARK Flexibility Score: inf
ROOT
ATOM      1  C   UNL     1      12.580  -0.388 -17.485  1.00  0.00     0.000 C 
ENDROOT
BRANCH   1   2
ATOM      2  C   UNL     1      14.109  -0.397 -17.642  1.00  0.00     0.000 C 
BRANCH   2   3
ATOM      3  C   UNL     1      14.623   0.751 -18.527  1.00  0.00     0.000 C 
BRANCH   3   4
ATOM      4  C   UNL     1      13.834   2.070 -18.403  1.00  0.00     0.000 C 
BRANCH   4   5
ATOM      5  C   UNL     1      13.434   2.424 -16.955  1.00  0.00     0.000 C 
BRANCH   5   6
ATOM      6  C   UNL     1      11.908   2.421 -16.756  1.00  0.00     0.000 C 
BRANCH   6   7
ATOM      7  C   UNL     1      11.498   2.551 -15.277  1.00  0.00     0.006 C 
BRANCH   7   8
ATOM      8  C   UNL     1      10.829   1.290 -14.707  1.00  0.00     0.053 C 
BRANCH   8   9
ATOM      9  C   UNL     1      10.030   1.574 -13.473  1.00  0.00     0.041 C 
ATOM     10  O   UNL     1      10.099   2.701 -12.919  1.00  0.00    -0.550 OA
ATOM     11  O   UNL     1       9.195   0.597 -12.941  1.00  0.00    -0.550 OA
ENDBRANCH   8   9
ENDBRANCH   7   8
ENDBRANCH   6   7
ENDBRANCH   5   6
ENDBRANCH   4   5
ENDBRANCH   3   4
ENDBRANCH   2   3
ENDBRANCH   1   2
BRANCH   1  12
ATOM     12  C   UNL     1      12.141  -1.286 -16.317  1.00  0.00     0.000 C 
BRANCH  12  13
ATOM     13  C   UNL     1      11.018  -2.258 -16.712  1.00  0.00    -0.000 C 
BRANCH  13  14
ATOM     14  C   UNL     1      11.171  -3.636 -16.047  1.00  0.00    -0.000 C 
BRANCH  14  15
ATOM     15  C   UNL     1      10.872  -4.796 -17.011  1.00  0.00    -0.000 C 
BRANCH  15  16
ATOM     16  C   UNL     1      11.852  -4.930 -18.194  1.00  0.00    -0.000 C 
BRANCH  16  17
ATOM     17  C   UNL     1      12.746  -6.184 -18.164  1.00  0.00    -0.000 C 
BRANCH  17  18
ATOM     18  C   UNL     1      13.870  -6.141 -19.209  1.00  0.00    -0.000 C 
BRANCH  18  19
ATOM     19  C   UNL     1      15.161  -6.758 -18.654  1.00  0.00    -0.003 C 
ATOM     20  C   UNL     1      14.882  -8.086 -17.956  1.00  0.00     0.004 C 
ENDBRANCH  18  19
ENDBRANCH  17  18
ENDBRANCH  16  17
ENDBRANCH  15  16
ENDBRANCH  14  15
ENDBRANCH  13  14
ENDBRANCH  12  13
ENDBRANCH   1  12
TORSDOF 16
ENDMDL
MODEL 5
REMARK VINA RESULT:     7.321      2.744      7.617
REMARK INTER + INTRA:          13.892
REMARK INTER:                  14.456
REMARK INTRA:                  -0.564
REMARK UNBOUND:                -0.276
REMARK SMILES CCCCCCCCCCCCCCCCCC(=O)[O-]
REMARK SMILES IDX 10 1 11 2 12 3 13 4 14 5 15 6 16 7 17 8 18 9 19 10 20 11
REMARK SMILES IDX 9 12 8 13 7 14 6 15 5 16 4 17 3 18 2 19 1 20
REMARK H PARENT
REMARK Flexibility Score: inf
ROOT
ATOM      1  C   UNL     1      11.804  -0.576 -14.802  1.00  0.00     0.000 C 
ENDROOT
BRANCH   1   2
ATOM      2  C   UNL     1      10.431   0.085 -14.601  1.00  0.00     0.000 C 
BRANCH   2   3
ATOM      3  C   UNL     1      10.509   1.384 -13.783  1.00  0.00     0.000 C 
BRANCH   3   4
ATOM      4  C   UNL     1      11.119   2.587 -14.530  1.00  0.00     0.000 C 
BRANCH   4   5
ATOM      5  C   UNL     1      11.154   2.416 -16.063  1.00  0.00     0.000 C 
BRANCH   5   6
ATOM      6  C   UNL     1      12.585   2.218 -16.595  1.00  0.00     0.000 C 
BRANCH   6   7
ATOM      7  C   UNL     1      12.656   1.214 -17.760  1.00  0.00     0.006 C 
BRANCH   7   8
ATOM      8  C   UNL     1      13.778   1.513 -18.768  1.00  0.00     0.053 C 
BRANCH   8   9
ATOM      9  C   UNL     1      15.015   0.713 -18.503  1.00  0.00     0.041 C 
ATOM     10  O   UNL     1      15.772   0.384 -19.451  1.00  0.00    -0.550 OA
ATOM     11  O   UNL     1      15.341   0.341 -17.202  1.00  0.00    -0.550 OA
ENDBRANCH   8   9
ENDBRANCH   7   8
ENDBRANCH   6   7
ENDBRANCH   5   6
ENDBRANCH   4   5
ENDBRANCH   3   4
ENDBRANCH   2   3
ENDBRANCH   1   2
BRANCH   1  12
ATOM     12  C   UNL     1      11.853  -1.352 -16.128  1.00  0.00     0.000 C 
BRANCH  12  13
ATOM     13  C   UNL     1      10.682  -2.336 -16.277  1.00  0.00    -0.000 C 
BRANCH  13  14
ATOM     14  C   UNL     1      11.146  -3.802 -16.309  1.00  0.00    -0.000 C 
BRANCH  14  15
ATOM     15  C   UNL     1      11.320  -4.337 -17.740  1.00  0.00    -0.000 C 
BRANCH  15  16
ATOM     16  C   UNL     1      11.723  -5.822 -17.837  1.00  0.00    -0.000 C 
BRANCH  16  17
ATOM     17  C   UNL     1      12.958  -6.109 -18.711  1.00  0.00    -0.000 C 
BRANCH  17  18
ATOM     18  C   UNL     1      14.020  -6.951 -17.987  1.00  0.00    -0.000 C 
BRANCH  18  19
ATOM     19  C   UNL     1      15.343  -6.951 -18.764  1.00  0.00    -0.003 C 
ATOM     20  C   UNL     1      15.336  -5.899 -19.869  1.00  0.00     0.004 C 
ENDBRANCH  18  19
ENDBRANCH  17  18
ENDBRANCH  16  17
ENDBRANCH  15  16
ENDBRANCH  14  15
ENDBRANCH  13  14
ENDBRANCH  12  13
ENDBRANCH   1  12
TORSDOF 16
ENDMDL
MODEL 6
REMARK VINA RESULT:     7.456      6.237      9.143
REMARK INTER + INTRA:          14.154
REMARK INTER:                  14.772
REMARK INTRA:                  -0.618
REMARK UNBOUND:                -0.276
REMARK SMILES CCCCCCCCCCCCCCCCCC(=O)[O-]
REMARK SMILES IDX 10 1 11 2 12 3 13 4 14 5 15 6 16 7 17 8 18 9 19 10 20 11
REMARK SMILES IDX 9 12 8 13 7 14 6 15 5 16 4 17 3 18 2 19 1 20
REMARK H PARENT
REMARK Flexibility Score: inf
ROOT
ATOM      1  C   UNL     1       7.048   1.627 -13.985  1.00  0.00     0.000 C 
ENDROOT
BRANCH   1   2
ATOM      2  C   UNL     1       8.021   0.995 -12.979  1.00  0.00     0.000 C 
BRANCH   2   3
ATOM      3  C   UNL     1       9.473   0.980 -13.483  1.00  0.00     0.000 C 
BRANCH   3   4
ATOM      4  C   UNL     1      10.224   2.320 -13.343  1.00  0.00     0.000 C 
BRANCH   4   5
ATOM      5  C   UNL     1      11.028   2.719 -14.598  1.00  0.00     0.000 C 
BRANCH   5   6
ATOM      6  C   UNL     1      11.202   1.543 -15.576  1.00  0.00     0.000 C 
BRANCH   6   7
ATOM      7  C   UNL     1      12.181   1.859 -16.722  1.00  0.00     0.006 C 
BRANCH   7   8
ATOM      8  C   UNL     1      13.097   0.683 -17.096  1.00  0.00     0.053 C 
BRANCH   8   9
ATOM      9  C   UNL     1      13.977   0.991 -18.268  1.00  0.00     0.041 C 
ATOM     10  O   UNL     1      13.661   1.903 -19.073  1.00  0.00    -0.550 OA
ATOM     11  O   UNL     1      15.157   0.280 -18.461  1.00  0.00    -0.550 OA
ENDBRANCH   8   9
ENDBRANCH   7   8
ENDBRANCH   6   7
ENDBRANCH   5   6
ENDBRANCH   4   5
ENDBRANCH   3   4
ENDBRANCH   2   3
ENDBRANCH   1   2
BRANCH   1  12
ATOM     12  C   UNL     1       5.690   1.921 -13.328  1.00  0.00     0.000 C 
BRANCH  12  13
ATOM     13  C   UNL     1       4.514   1.307 -14.105  1.00  0.00    -0.000 C 
BRANCH  13  14
ATOM     14  C   UNL     1       3.508   0.595 -13.186  1.00  0.00    -0.000 C 
BRANCH  14  15
ATOM     15  C   UNL     1       2.056   0.749 -13.666  1.00  0.00    -0.000 C 
BRANCH  15  16
ATOM     16  C   UNL     1       1.745   0.091 -15.026  1.00  0.00    -0.000 C 
BRANCH  16  17
ATOM     17  C   UNL     1       0.273   0.179 -15.473  1.00  0.00    -0.000 C 
BRANCH  17  18
ATOM     18  C   UNL     1       0.074  -0.204 -16.947  1.00  0.00    -0.000 C 
BRANCH  18  19
ATOM     19  C   UNL     1       0.482  -1.662 -17.196  1.00  0.00    -0.003 C 
ATOM     20  C   UNL     1       0.166  -2.087 -18.628  1.00  0.00     0.004 C 
ENDBRANCH  18  19
ENDBRANCH  17  18
ENDBRANCH  16  17
ENDBRANCH  15  16
ENDBRANCH  14  15
ENDBRANCH  13  14
ENDBRANCH  12  13
ENDBRANCH   1  12
TORSDOF 16
ENDMDL
