MODEL 1
REMARK VINA RESULT:    -5.021      0.000      0.000
REMARK INTER + INTRA:         -11.275
REMARK INTER:                  -9.130
REMARK INTRA:                  -2.145
REMARK UNBOUND:                -2.145
REMARK SMILES CCCCCCCCCCCCCCCC(=O)[O-]
REMARK SMILES IDX 9 1 10 2 11 3 12 4 13 5 14 6 15 7 16 8 17 9 18 10 8 11 7 12
REMARK SMILES IDX 6 13 5 14 4 15 3 16 2 17 1 18
REMARK H PARENT
REMARK Flexibility Score: inf
ROOT
ATOM      1  C   UNL     1      12.560  46.774   6.638  1.00  0.00     0.000 C 
ENDROOT
BRANCH   1   2
ATOM      2  C   UNL     1      11.692  46.245   7.792  1.00  0.00     0.000 C 
BRANCH   2   3
ATOM      3  C   UNL     1      12.324  45.037   8.500  1.00  0.00     0.000 C 
BRANCH   3   4
ATOM      4  C   UNL     1      13.718  44.735   7.930  1.00  0.00     0.000 C 
BRANCH   4   5
ATOM      5  C   UNL     1      14.392  43.524   8.601  1.00  0.00     0.000 C 
BRANCH   5   6
ATOM      6  C   UNL     1      14.906  42.440   7.631  1.00  0.00     0.006 C 
BRANCH   6   7
ATOM      7  C   UNL     1      16.188  42.820   6.873  1.00  0.00     0.053 C 
BRANCH   7   8
ATOM      8  C   UNL     1      17.203  43.454   7.773  1.00  0.00     0.041 C 
ATOM      9  O   UNL     1      17.840  42.754   8.603  1.00  0.00    -0.550 OA
ATOM     10  O   UNL     1      17.471  44.813   7.671  1.00  0.00    -0.550 OA
ENDBRANCH   7   8
ENDBRANCH   6   7
ENDBRANCH   5   6
ENDBRANCH   4   5
ENDBRANCH   3   4
ENDBRANCH   2   3
ENDBRANCH   1   2
BRANCH   1  11
ATOM     11  C   UNL     1      11.816  46.774   5.291  1.00  0.00     0.000 C 
BRANCH  11  12
ATOM     12  C   UNL     1      12.724  46.375   4.117  1.00  0.00    -0.000 C 
BRANCH  12  13
ATOM     13  C   UNL     1      14.150  46.025   4.564  1.00  0.00    -0.000 C 
BRANCH  13  14
ATOM     14  C   UNL     1      14.800  45.028   3.593  1.00  0.00    -0.000 C 
BRANCH  14  15
ATOM     15  C   UNL     1      14.483  43.564   3.941  1.00  0.00    -0.000 C 
BRANCH  15  16
ATOM     16  C   UNL     1      13.273  42.967   3.196  1.00  0.00    -0.000 C 
BRANCH  16  17
ATOM     17  C   UNL     1      12.294  42.204   4.112  1.00  0.00    -0.003 C 
ATOM     18  C   UNL     1      11.932  42.994   5.370  1.00  0.00     0.004 C 
ENDBRANCH  16  17
ENDBRANCH  15  16
ENDBRANCH  14  15
ENDBRANCH  13  14
ENDBRANCH  12  13
ENDBRANCH  11  12
ENDBRANCH   1  11
TORSDOF 14
ENDMDL
MODEL 2
REMARK VINA RESULT:    -4.982      1.355      4.076
REMARK INTER + INTRA:         -11.205
REMARK INTER:                  -8.675
REMARK INTRA:                  -2.530
REMARK UNBOUND:                -2.145
REMARK SMILES CCCCCCCCCCCCCCCC(=O)[O-]
REMARK SMILES IDX 9 1 10 2 11 3 12 4 13 5 14 6 15 7 16 8 17 9 18 10 8 11 7 12
REMARK SMILES IDX 6 13 5 14 4 15 3 16 2 17 1 18
REMARK H PARENT
REMARK Flexibility Score: inf
ROOT
ATOM      1  C   UNL     1      12.676  42.690   3.830  1.00  0.00     0.000 C 
ENDROOT
BRANCH   1   2
ATOM      2  C   UNL     1      13.504  43.918   3.416  1.00  0.00     0.000 C 
BRANCH   2   3
ATOM      3  C   UNL     1      15.016  43.662   3.492  1.00  0.00     0.000 C 
BRANCH   3   4
ATOM      4  C   UNL     1      15.738  44.837   4.169  1.00  0.00     0.000 C 
BRANCH   4   5
ATOM      5  C   UNL     1      16.310  44.475   5.551  1.00  0.00     0.000 C 
BRANCH   5   6
ATOM      6  C   UNL     1      16.649  42.982   5.749  1.00  0.00     0.006 C 
BRANCH   6   7
ATOM      7  C   UNL     1      16.024  42.347   7.002  1.00  0.00     0.053 C 
BRANCH   7   8
ATOM      8  C   UNL     1      16.605  42.909   8.263  1.00  0.00     0.041 C 
ATOM      9  O   UNL     1      15.859  43.463   9.112  1.00  0.00    -0.550 OA
ATOM     10  O   UNL     1      17.966  42.791   8.514  1.00  0.00    -0.550 OA
ENDBRANCH   7   8
ENDBRANCH   6   7
ENDBRANCH   5   6
ENDBRANCH   4   5
ENDBRANCH   3   4
ENDBRANCH   2   3
ENDBRANCH   1   2
BRANCH   1  11
ATOM     11  C   UNL     1      12.598  42.516   5.357  1.00  0.00     0.000 C 
BRANCH  11  12
ATOM     12  C   UNL     1      12.050  43.764   6.066  1.00  0.00    -0.000 C 
BRANCH  12  13
ATOM     13  C   UNL     1      12.849  44.127   7.326  1.00  0.00    -0.000 C 
BRANCH  13  14
ATOM     14  C   UNL     1      13.345  45.579   7.260  1.00  0.00    -0.000 C 
BRANCH  14  15
ATOM     15  C   UNL     1      12.847  46.324   6.010  1.00  0.00    -0.000 C 
BRANCH  15  16
ATOM     16  C   UNL     1      11.969  47.558   6.298  1.00  0.00    -0.000 C 
BRANCH  16  17
ATOM     17  C   UNL     1      10.480  47.357   5.950  1.00  0.00    -0.003 C 
ATOM     18  C   UNL     1       9.652  46.914   7.157  1.00  0.00     0.004 C 
ENDBRANCH  16  17
ENDBRANCH  15  16
ENDBRANCH  14  15
ENDBRANCH  13  14
ENDBRANCH  12  13
ENDBRANCH  11  12
ENDBRANCH   1  11
TORSDOF 14
ENDMDL
MODEL 3
REMARK VINA RESULT:    -4.962      2.477      5.510
REMARK INTER + INTRA:         -11.168
REMARK INTER:                  -9.123
REMARK INTRA:                  -2.045
REMARK UNBOUND:                -2.145
REMARK SMILES CCCCCCCCCCCCCCCC(=O)[O-]
REMARK SMILES IDX 9 1 10 2 11 3 12 4 13 5 14 6 15 7 16 8 17 9 18 10 8 11 7 12
REMARK SMILES IDX 6 13 5 14 4 15 3 16 2 17 1 18
REMARK H PARENT
REMARK Flexibility Score: inf
ROOT
ATOM      1  C   UNL     1      16.887  43.581   4.812  1.00  0.00     0.000 C 
ENDROOT
BRANCH   1   2
ATOM      2  C   UNL     1      15.606  44.418   4.663  1.00  0.00     0.000 C 
BRANCH   2   3
ATOM      3  C   UNL     1      14.851  44.114   3.360  1.00  0.00     0.000 C 
BRANCH   3   4
ATOM      4  C   UNL     1      13.681  43.152   3.615  1.00  0.00     0.000 C 
BRANCH   4   5
ATOM      5  C   UNL     1      13.344  42.998   5.109  1.00  0.00     0.000 C 
BRANCH   5   6
ATOM      6  C   UNL     1      11.892  43.350   5.493  1.00  0.00     0.006 C 
BRANCH   6   7
ATOM      7  C   UNL     1      11.759  44.529   6.470  1.00  0.00     0.053 C 
BRANCH   7   8
ATOM      8  C   UNL     1      12.406  45.771   5.941  1.00  0.00     0.041 C 
ATOM      9  O   UNL     1      12.004  46.286   4.865  1.00  0.00    -0.550 OA
ATOM     10  O   UNL     1      13.431  46.379   6.654  1.00  0.00    -0.550 OA
ENDBRANCH   7   8
ENDBRANCH   6   7
ENDBRANCH   5   6
ENDBRANCH   4   5
ENDBRANCH   3   4
ENDBRANCH   2   3
ENDBRANCH   1   2
BRANCH   1  11
ATOM     11  C   UNL     1      17.537  43.737   6.198  1.00  0.00     0.000 C 
BRANCH  11  12
ATOM     12  C   UNL     1      16.836  44.796   7.063  1.00  0.00    -0.000 C 
BRANCH  12  13
ATOM     13  C   UNL     1      16.423  44.255   8.440  1.00  0.00    -0.000 C 
BRANCH  13  14
ATOM     14  C   UNL     1      15.001  43.676   8.396  1.00  0.00    -0.000 C 
BRANCH  14  15
ATOM     15  C   UNL     1      14.984  42.141   8.303  1.00  0.00    -0.000 C 
BRANCH  15  16
ATOM     16  C   UNL     1      16.276  41.449   8.779  1.00  0.00    -0.000 C 
BRANCH  16  17
ATOM     17  C   UNL     1      16.088  39.960   9.136  1.00  0.00    -0.003 C 
ATOM     18  C   UNL     1      14.840  39.714   9.984  1.00  0.00     0.004 C 
ENDBRANCH  16  17
ENDBRANCH  15  16
ENDBRANCH  14  15
ENDBRANCH  13  14
ENDBRANCH  12  13
ENDBRANCH  11  12
ENDBRANCH   1  11
TORSDOF 14
ENDMDL
MODEL 4
REMARK VINA RESULT:    -4.931      1.217      3.720
REMARK INTER + INTRA:         -11.112
REMARK INTER:                  -9.002
REMARK INTRA:                  -2.110
REMARK UNBOUND:                -2.145
REMARK SMILES CCCCCCCCCCCCCCCC(=O)[O-]
REMARK SMILES IDX 9 1 10 2 11 3 12 4 13 5 14 6 15 7 16 8 17 9 18 10 8 11 7 12
REMARK SMILES IDX 6 13 5 14 4 15 3 16 2 17 1 18
REMARK H PARENT
REMARK Flexibility Score: inf
ROOT
ATOM      1  C   UNL     1      13.561  43.291   3.746  1.00  0.00     0.000 C 
ENDROOT
BRANCH   1   2
ATOM      2  C   UNL     1      14.903  43.900   3.308  1.00  0.00     0.000 C 
BRANCH   2   3
ATOM      3  C   UNL     1      15.811  44.245   4.497  1.00  0.00     0.000 C 
BRANCH   3   4
ATOM      4  C   UNL     1      16.724  43.062   4.851  1.00  0.00     0.000 C 
BRANCH   4   5
ATOM      5  C   UNL     1      16.420  42.462   6.235  1.00  0.00     0.000 C 
BRANCH   5   6
ATOM      6  C   UNL     1      15.170  43.034   6.936  1.00  0.00     0.006 C 
BRANCH   6   7
ATOM      7  C   UNL     1      15.403  43.484   8.387  1.00  0.00     0.053 C 
BRANCH   7   8
ATOM      8  C   UNL     1      16.696  44.224   8.543  1.00  0.00     0.041 C 
ATOM      9  O   UNL     1      17.612  43.756   9.268  1.00  0.00    -0.550 OA
ATOM     10  O   UNL     1      16.902  45.415   7.859  1.00  0.00    -0.550 OA
ENDBRANCH   7   8
ENDBRANCH   6   7
ENDBRANCH   5   6
ENDBRANCH   4   5
ENDBRANCH   3   4
ENDBRANCH   2   3
ENDBRANCH   1   2
BRANCH   1  11
ATOM     11  C   UNL     1      12.673  44.298   4.499  1.00  0.00     0.000 C 
BRANCH  11  12
ATOM     12  C   UNL     1      12.648  45.680   3.829  1.00  0.00    -0.000 C 
BRANCH  12  13
ATOM     13  C   UNL     1      12.813  46.828   4.835  1.00  0.00    -0.000 C 
BRANCH  13  14
ATOM     14  C   UNL     1      13.512  46.339   6.113  1.00  0.00    -0.000 C 
BRANCH  14  15
ATOM     15  C   UNL     1      12.719  46.665   7.389  1.00  0.00    -0.000 C 
BRANCH  15  16
ATOM     16  C   UNL     1      12.144  45.439   8.126  1.00  0.00    -0.000 C 
BRANCH  16  17
ATOM     17  C   UNL     1      10.667  45.148   7.790  1.00  0.00    -0.003 C 
ATOM     18  C   UNL     1       9.835  46.423   7.654  1.00  0.00     0.004 C 
ENDBRANCH  16  17
ENDBRANCH  15  16
ENDBRANCH  14  15
ENDBRANCH  13  14
ENDBRANCH  12  13
ENDBRANCH  11  12
ENDBRANCH   1  11
TORSDOF 14
ENDMDL
MODEL 5
REMARK VINA RESULT:    -4.894      1.586      3.726
REMARK INTER + INTRA:         -11.044
REMARK INTER:                  -8.711
REMARK INTRA:                  -2.333
REMARK UNBOUND:                -2.145
REMARK SMILES CCCCCCCCCCCCCCCC(=O)[O-]
REMARK SMILES IDX 9 1 10 2 11 3 12 4 13 5 14 6 15 7 16 8 17 9 18 10 8 11 7 12
REMARK SMILES IDX 6 13 5 14 4 15 3 16 2 17 1 18
REMARK H PARENT
REMARK Flexibility Score: inf
ROOT
ATOM      1  C   UNL     1      14.884  43.734   3.847  1.00  0.00     0.000 C 
ENDROOT
BRANCH   1   2
ATOM      2  C   UNL     1      15.556  43.362   5.179  1.00  0.00     0.000 C 
BRANCH   2   3
ATOM      3  C   UNL     1      17.087  43.310   5.074  1.00  0.00     0.000 C 
BRANCH   3   4
ATOM      4  C   UNL     1      17.744  44.070   6.236  1.00  0.00     0.000 C 
BRANCH   4   5
ATOM      5  C   UNL     1      16.804  45.100   6.888  1.00  0.00     0.000 C 
BRANCH   5   6
ATOM      6  C   UNL     1      16.588  44.920   8.405  1.00  0.00     0.006 C 
BRANCH   6   7
ATOM      7  C   UNL     1      17.052  43.564   8.959  1.00  0.00     0.053 C 
BRANCH   7   8
ATOM      8  C   UNL     1      16.005  42.505   8.798  1.00  0.00     0.041 C 
ATOM      9  O   UNL     1      14.836  42.700   9.221  1.00  0.00    -0.550 OA
ATOM     10  O   UNL     1      16.313  41.316   8.149  1.00  0.00    -0.550 OA
ENDBRANCH   7   8
ENDBRANCH   6   7
ENDBRANCH   5   6
ENDBRANCH   4   5
ENDBRANCH   3   4
ENDBRANCH   2   3
ENDBRANCH   1   2
BRANCH   1  11
ATOM     11  C   UNL     1      14.875  45.252   3.593  1.00  0.00     0.000 C 
BRANCH  11  12
ATOM     12  C   UNL     1      13.609  45.934   4.135  1.00  0.00    -0.000 C 
BRANCH  12  13
ATOM     13  C   UNL     1      13.888  46.797   5.375  1.00  0.00    -0.000 C 
BRANCH  13  14
ATOM     14  C   UNL     1      12.703  46.750   6.351  1.00  0.00    -0.000 C 
BRANCH  14  15
ATOM     15  C   UNL     1      13.005  45.931   7.617  1.00  0.00    -0.000 C 
BRANCH  15  16
ATOM     16  C   UNL     1      12.393  44.517   7.636  1.00  0.00    -0.000 C 
BRANCH  16  17
ATOM     17  C   UNL     1      11.323  44.288   6.549  1.00  0.00    -0.003 C 
ATOM     18  C   UNL     1      11.719  43.193   5.558  1.00  0.00     0.004 C 
ENDBRANCH  16  17
ENDBRANCH  15  16
ENDBRANCH  14  15
ENDBRANCH  13  14
ENDBRANCH  12  13
ENDBRANCH  11  12
ENDBRANCH   1  11
TORSDOF 14
ENDMDL
MODEL 6
REMARK VINA RESULT:    -4.864      1.743      4.062
REMARK INTER + INTRA:         -10.990
REMARK INTER:                  -8.786
REMARK INTRA:                  -2.204
REMARK UNBOUND:                -2.145
REMARK SMILES CCCCCCCCCCCCCCCC(=O)[O-]
REMARK SMILES IDX 9 1 10 2 11 3 12 4 13 5 14 6 15 7 16 8 17 9 18 10 8 11 7 12
REMARK SMILES IDX 6 13 5 14 4 15 3 16 2 17 1 18
REMARK H PARENT
REMARK Flexibility Score: inf
ROOT
ATOM      1  C   UNL     1      16.695  43.374   4.049  1.00  0.00     0.000 C 
ENDROOT
BRANCH   1   2
ATOM      2  C   UNL     1      16.640  43.028   5.547  1.00  0.00     0.000 C 
BRANCH   2   3
ATOM      3  C   UNL     1      17.702  43.779   6.365  1.00  0.00     0.000 C 
BRANCH   3   4
ATOM      4  C   UNL     1      17.073  44.947   7.139  1.00  0.00     0.000 C 
BRANCH   4   5
ATOM      5  C   UNL     1      15.574  44.745   7.419  1.00  0.00     0.000 C 
BRANCH   5   6
ATOM      6  C   UNL     1      15.250  43.880   8.656  1.00  0.00     0.006 C 
BRANCH   6   7
ATOM      7  C   UNL     1      14.419  42.622   8.353  1.00  0.00     0.053 C 
BRANCH   7   8
ATOM      8  C   UNL     1      15.100  41.375   8.826  1.00  0.00     0.041 C 
ATOM      9  O   UNL     1      16.314  41.175   8.561  1.00  0.00    -0.550 OA
ATOM     10  O   UNL     1      14.401  40.449   9.590  1.00  0.00    -0.550 OA
ENDBRANCH   7   8
ENDBRANCH   6   7
ENDBRANCH   5   6
ENDBRANCH   4   5
ENDBRANCH   3   4
ENDBRANCH   2   3
ENDBRANCH   1   2
BRANCH   1  11
ATOM     11  C   UNL     1      15.308  43.699   3.467  1.00  0.00     0.000 C 
BRANCH  11  12
ATOM     12  C   UNL     1      14.903  45.164   3.687  1.00  0.00    -0.000 C 
BRANCH  12  13
ATOM     13  C   UNL     1      13.540  45.303   4.380  1.00  0.00    -0.000 C 
BRANCH  13  14
ATOM     14  C   UNL     1      12.989  43.928   4.786  1.00  0.00    -0.000 C 
BRANCH  14  15
ATOM     15  C   UNL     1      11.928  44.014   5.895  1.00  0.00    -0.000 C 
BRANCH  15  16
ATOM     16  C   UNL     1      11.975  45.302   6.739  1.00  0.00    -0.000 C 
BRANCH  16  17
ATOM     17  C   UNL     1      10.685  46.145   6.661  1.00  0.00    -0.003 C 
ATOM     18  C   UNL     1      10.924  47.528   6.056  1.00  0.00     0.004 C 
ENDBRANCH  16  17
ENDBRANCH  15  16
ENDBRANCH  14  15
ENDBRANCH  13  14
ENDBRANCH  12  13
ENDBRANCH  11  12
ENDBRANCH   1  11
TORSDOF 14
ENDMDL
MODEL 7
REMARK VINA RESULT:    -4.859      1.156      3.394
REMARK INTER + INTRA:         -10.980
REMARK INTER:                  -8.713
REMARK INTRA:                  -2.267
REMARK UNBOUND:                -2.145
REMARK SMILES CCCCCCCCCCCCCCCC(=O)[O-]
REMARK SMILES IDX 9 1 10 2 11 3 12 4 13 5 14 6 15 7 16 8 17 9 18 10 8 11 7 12
REMARK SMILES IDX 6 13 5 14 4 15 3 16 2 17 1 18
REMARK H PARENT
REMARK Flexibility Score: inf
ROOT
ATOM      1  C   UNL     1      13.028  42.989   3.847  1.00  0.00     0.000 C 
ENDROOT
BRANCH   1   2
ATOM      2  C   UNL     1      12.824  42.403   5.254  1.00  0.00     0.000 C 
BRANCH   2   3
ATOM      3  C   UNL     1      14.042  42.621   6.165  1.00  0.00     0.000 C 
BRANCH   3   4
ATOM      4  C   UNL     1      13.698  43.570   7.323  1.00  0.00     0.000 C 
BRANCH   4   5
ATOM      5  C   UNL     1      14.917  44.355   7.839  1.00  0.00     0.000 C 
BRANCH   5   6
ATOM      6  C   UNL     1      16.059  44.535   6.817  1.00  0.00     0.006 C 
BRANCH   6   7
ATOM      7  C   UNL     1      17.241  43.571   7.006  1.00  0.00     0.053 C 
BRANCH   7   8
ATOM      8  C   UNL     1      17.255  42.966   8.376  1.00  0.00     0.041 C 
ATOM      9  O   UNL     1      16.819  41.799   8.559  1.00  0.00    -0.550 OA
ATOM     10  O   UNL     1      17.783  43.678   9.445  1.00  0.00    -0.550 OA
ENDBRANCH   7   8
ENDBRANCH   6   7
ENDBRANCH   5   6
ENDBRANCH   4   5
ENDBRANCH   3   4
ENDBRANCH   2   3
ENDBRANCH   1   2
BRANCH   1  11
ATOM     11  C   UNL     1      14.453  43.528   3.631  1.00  0.00     0.000 C 
BRANCH  11  12
ATOM     12  C   UNL     1      14.502  45.063   3.586  1.00  0.00    -0.000 C 
BRANCH  12  13
ATOM     13  C   UNL     1      13.174  45.710   4.005  1.00  0.00    -0.000 C 
BRANCH  13  14
ATOM     14  C   UNL     1      13.398  46.759   5.104  1.00  0.00    -0.000 C 
BRANCH  14  15
ATOM     15  C   UNL     1      12.116  47.083   5.889  1.00  0.00    -0.000 C 
BRANCH  15  16
ATOM     16  C   UNL     1      12.205  46.834   7.408  1.00  0.00    -0.000 C 
BRANCH  16  17
ATOM     17  C   UNL     1      11.041  45.991   7.969  1.00  0.00    -0.003 C 
ATOM     18  C   UNL     1      10.354  45.151   6.892  1.00  0.00     0.004 C 
ENDBRANCH  16  17
ENDBRANCH  15  16
ENDBRANCH  14  15
ENDBRANCH  13  14
ENDBRANCH  12  13
ENDBRANCH  11  12
ENDBRANCH   1  11
TORSDOF 14
ENDMDL
MODEL 8
REMARK VINA RESULT:    -4.834      2.451      5.425
REMARK INTER + INTRA:         -10.935
REMARK INTER:                  -9.079
REMARK INTRA:                  -1.856
REMARK UNBOUND:                -2.145
REMARK SMILES CCCCCCCCCCCCCCCC(=O)[O-]
REMARK SMILES IDX 9 1 10 2 11 3 12 4 13 5 14 6 15 7 16 8 17 9 18 10 8 11 7 12
REMARK SMILES IDX 6 13 5 14 4 15 3 16 2 17 1 18
REMARK H PARENT
REMARK Flexibility Score: inf
ROOT
ATOM      1  C   UNL     1      15.483  43.199   4.973  1.00  0.00     0.000 C 
ENDROOT
BRANCH   1   2
ATOM      2  C   UNL     1      14.807  43.723   3.695  1.00  0.00     0.000 C 
BRANCH   2   3
ATOM      3  C   UNL     1      14.814  45.256   3.610  1.00  0.00     0.000 C 
BRANCH   3   4
ATOM      4  C   UNL     1      13.522  45.844   4.197  1.00  0.00     0.000 C 
BRANCH   4   5
ATOM      5  C   UNL     1      13.773  46.743   5.421  1.00  0.00     0.000 C 
BRANCH   5   6
ATOM      6  C   UNL     1      12.529  47.029   6.289  1.00  0.00     0.006 C 
BRANCH   6   7
ATOM      7  C   UNL     1      12.426  46.167   7.558  1.00  0.00     0.053 C 
BRANCH   7   8
ATOM      8  C   UNL     1      11.975  44.772   7.252  1.00  0.00     0.041 C 
ATOM      9  O   UNL     1      12.808  43.829   7.218  1.00  0.00    -0.550 OA
ATOM     10  O   UNL     1      10.628  44.508   7.038  1.00  0.00    -0.550 OA
ENDBRANCH   7   8
ENDBRANCH   6   7
ENDBRANCH   5   6
ENDBRANCH   4   5
ENDBRANCH   3   4
ENDBRANCH   2   3
ENDBRANCH   1   2
BRANCH   1  11
ATOM     11  C   UNL     1      17.004  43.435   4.976  1.00  0.00     0.000 C 
BRANCH  11  12
ATOM     12  C   UNL     1      17.523  43.913   6.341  1.00  0.00    -0.000 C 
BRANCH  12  13
ATOM     13  C   UNL     1      16.801  45.173   6.840  1.00  0.00    -0.000 C 
BRANCH  13  14
ATOM     14  C   UNL     1      16.152  44.926   8.209  1.00  0.00    -0.000 C 
BRANCH  14  15
ATOM     15  C   UNL     1      16.592  43.598   8.848  1.00  0.00    -0.000 C 
BRANCH  15  16
ATOM     16  C   UNL     1      15.520  42.492   8.848  1.00  0.00    -0.000 C 
BRANCH  16  17
ATOM     17  C   UNL     1      16.005  41.155   8.249  1.00  0.00    -0.003 C 
ATOM     18  C   UNL     1      16.058  40.034   9.286  1.00  0.00     0.004 C 
ENDBRANCH  16  17
ENDBRANCH  15  16
ENDBRANCH  14  15
ENDBRANCH  13  14
ENDBRANCH  12  13
ENDBRANCH  11  12
ENDBRANCH   1  11
TORSDOF 14
ENDMDL
MODEL 9
REMARK VINA RESULT:    -4.818      3.045      5.272
REMARK INTER + INTRA:         -10.906
REMARK INTER:                  -8.673
REMARK INTRA:                  -2.233
REMARK UNBOUND:                -2.145
REMARK SMILES CCCCCCCCCCCCCCCC(=O)[O-]
REMARK SMILES IDX 9 1 10 2 11 3 12 4 13 5 14 6 15 7 16 8 17 9 18 10 8 11 7 12
REMARK SMILES IDX 6 13 5 14 4 15 3 16 2 17 1 18
REMARK H PARENT
REMARK Flexibility Score: inf
ROOT
ATOM      1  C   UNL     1      12.771  43.073   3.705  1.00  0.00     0.000 C 
ENDROOT
BRANCH   1   2
ATOM      2  C   UNL     1      12.429  43.707   5.063  1.00  0.00     0.000 C 
BRANCH   2   3
ATOM      3  C   UNL     1      13.111  42.991   6.238  1.00  0.00     0.000 C 
BRANCH   3   4
ATOM      4  C   UNL     1      13.433  43.978   7.370  1.00  0.00     0.000 C 
BRANCH   4   5
ATOM      5  C   UNL     1      13.468  45.442   6.899  1.00  0.00     0.000 C 
BRANCH   5   6
ATOM      6  C   UNL     1      12.591  46.414   7.716  1.00  0.00     0.006 C 
BRANCH   6   7
ATOM      7  C   UNL     1      11.088  46.090   7.692  1.00  0.00     0.053 C 
BRANCH   7   8
ATOM      8  C   UNL     1      10.340  46.975   6.745  1.00  0.00     0.041 C 
ATOM      9  O   UNL     1       9.304  47.581   7.127  1.00  0.00    -0.550 OA
ATOM     10  O   UNL     1      10.805  47.158   5.449  1.00  0.00    -0.550 OA
ENDBRANCH   7   8
ENDBRANCH   6   7
ENDBRANCH   5   6
ENDBRANCH   4   5
ENDBRANCH   3   4
ENDBRANCH   2   3
ENDBRANCH   1   2
BRANCH   1  11
ATOM     11  C   UNL     1      14.217  43.362   3.264  1.00  0.00     0.000 C 
BRANCH  11  12
ATOM     12  C   UNL     1      14.647  44.807   3.563  1.00  0.00    -0.000 C 
BRANCH  12  13
ATOM     13  C   UNL     1      16.021  44.886   4.244  1.00  0.00    -0.000 C 
BRANCH  13  14
ATOM     14  C   UNL     1      16.433  43.517   4.806  1.00  0.00    -0.000 C 
BRANCH  14  15
ATOM     15  C   UNL     1      17.351  43.628   6.034  1.00  0.00    -0.000 C 
BRANCH  15  16
ATOM     16  C   UNL     1      17.174  44.915   6.863  1.00  0.00    -0.000 C 
BRANCH  16  17
ATOM     17  C   UNL     1      16.880  44.658   8.356  1.00  0.00    -0.003 C 
ATOM     18  C   UNL     1      17.510  43.360   8.861  1.00  0.00     0.004 C 
ENDBRANCH  16  17
ENDBRANCH  15  16
ENDBRANCH  14  15
ENDBRANCH  13  14
ENDBRANCH  12  13
ENDBRANCH  11  12
ENDBRANCH   1  11
TORSDOF 14
ENDMDL
