MODEL 1
REMARK VINA RESULT:    -5.748      0.000      0.000
REMARK INTER + INTRA:          -7.039
REMARK INTER:                  -6.756
REMARK INTRA:                  -0.283
REMARK UNBOUND:                -0.283
REMARK SMILES O=c1cc(-c2ccc(O)c(O)c2)oc2cc(O)cc(O)c12
REMARK SMILES IDX 4 1 3 2 2 3 1 4 21 5 19 6 18 7 16 8 15 9 14 10 13 11 5 12
REMARK SMILES IDX 6 13 7 14 8 15 12 16 10 17 9 18 11 20 20 22 17 24
REMARK H PARENT 9 19 11 21 20 23 17 25
REMARK Flexibility Score: inf
ROOT
ATOM      1  C   UNL     1      -2.962  -0.906  -9.371  1.00  0.00     0.138 A 
ATOM      2  C   UNL     1      -2.995  -2.310  -9.396  1.00  0.00     0.100 A 
ATOM      3  C   UNL     1      -1.805  -3.022  -9.558  1.00  0.00     0.197 A 
ATOM      4  O   UNL     1      -1.847  -4.281  -9.581  1.00  0.00    -0.289 OA
ATOM      5  C   UNL     1      -0.590  -2.323  -9.700  1.00  0.00     0.107 A 
ATOM      6  C   UNL     1       0.658  -2.968  -9.868  1.00  0.00     0.134 A 
ATOM      7  C   UNL     1       1.823  -2.199 -10.008  1.00  0.00     0.093 A 
ATOM      8  C   UNL     1       1.764  -0.803  -9.983  1.00  0.00     0.123 A 
ATOM      9  C   UNL     1       0.533  -0.162  -9.817  1.00  0.00     0.094 A 
ATOM     10  C   UNL     1      -0.640  -0.909  -9.676  1.00  0.00     0.146 A 
ATOM     11  O   UNL     1      -1.798  -0.276  -9.517  1.00  0.00    -0.456 OA
ENDROOT
BRANCH   1  12
ATOM     12  C   UNL     1      -4.195  -0.096  -9.203  1.00  0.00     0.021 A 
ATOM     13  C   UNL     1      -4.339   1.102  -9.924  1.00  0.00     0.016 A 
ATOM     14  C   UNL     1      -5.486   1.887  -9.777  1.00  0.00     0.051 A 
ATOM     15  C   UNL     1      -6.505   1.493  -8.900  1.00  0.00     0.157 A 
ATOM     16  C   UNL     1      -5.217  -0.480  -8.312  1.00  0.00     0.062 A 
ATOM     17  C   UNL     1      -6.366   0.306  -8.162  1.00  0.00     0.158 A 
BRANCH  15  18
ATOM     18  O   UNL     1      -7.648   2.276  -8.757  1.00  0.00    -0.504 OA
ATOM     19  H   UNL     1      -8.057   2.767  -9.543  1.00  0.00     0.293 HD
ENDBRANCH  15  18
BRANCH  17  20
ATOM     20  O   UNL     1      -7.357  -0.109  -7.273  1.00  0.00    -0.504 OA
ATOM     21  H   UNL     1      -7.670   0.475  -6.506  1.00  0.00     0.293 HD
ENDBRANCH  17  20
ENDBRANCH   1  12
BRANCH   6  22
ATOM     22  O   UNL     1       0.749  -4.360  -9.897  1.00  0.00    -0.507 OA
ATOM     23  H   UNL     1       1.537  -4.850  -9.491  1.00  0.00     0.293 HD
ENDBRANCH   6  22
BRANCH   8  24
ATOM     24  O   UNL     1       2.936  -0.064 -10.125  1.00  0.00    -0.508 OA
ATOM     25  H   UNL     1       3.844  -0.512 -10.160  1.00  0.00     0.293 HD
ENDBRANCH   8  24
TORSDOF 5
ENDMDL
MODEL 2
REMARK VINA RESULT:    -5.209      1.069      2.638
REMARK INTER + INTRA:          -6.406
REMARK INTER:                  -6.117
REMARK INTRA:                  -0.289
REMARK UNBOUND:                -0.283
REMARK SMILES O=c1cc(-c2ccc(O)c(O)c2)oc2cc(O)cc(O)c12
REMARK SMILES IDX 4 1 3 2 2 3 1 4 21 5 19 6 18 7 16 8 15 9 14 10 13 11 5 12
REMARK SMILES IDX 6 13 7 14 8 15 12 16 10 17 9 18 11 20 20 22 17 24
REMARK H PARENT 9 19 11 21 20 23 17 25
REMARK Flexibility Score: inf
ROOT
ATOM      1  C   UNL     1      -2.782   0.079  -9.505  1.00  0.00     0.138 A 
ATOM      2  C   UNL     1      -1.759   1.040  -9.569  1.00  0.00     0.100 A 
ATOM      3  C   UNL     1      -0.437   0.626  -9.743  1.00  0.00     0.197 A 
ATOM      4  O   UNL     1       0.472   1.497  -9.797  1.00  0.00    -0.289 OA
ATOM      5  C   UNL     1      -0.147  -0.748  -9.848  1.00  0.00     0.107 A 
ATOM      6  C   UNL     1       1.163  -1.252 -10.027  1.00  0.00     0.134 A 
ATOM      7  C   UNL     1       1.369  -2.636 -10.117  1.00  0.00     0.093 A 
ATOM      8  C   UNL     1       0.294  -3.524 -10.033  1.00  0.00     0.123 A 
ATOM      9  C   UNL     1      -1.003  -3.032  -9.856  1.00  0.00     0.094 A 
ATOM     10  C   UNL     1      -1.230  -1.656  -9.764  1.00  0.00     0.146 A 
ATOM     11  O   UNL     1      -2.472  -1.213  -9.599  1.00  0.00    -0.456 OA
ENDROOT
BRANCH   1  12
ATOM     12  C   UNL     1      -4.204   0.460  -9.320  1.00  0.00     0.021 A 
ATOM     13  C   UNL     1      -4.759   1.471 -10.125  1.00  0.00     0.016 A 
ATOM     14  C   UNL     1      -6.094   1.854  -9.965  1.00  0.00     0.051 A 
ATOM     15  C   UNL     1      -6.894   1.241  -8.994  1.00  0.00     0.157 A 
ATOM     16  C   UNL     1      -5.011  -0.143  -8.336  1.00  0.00     0.062 A 
ATOM     17  C   UNL     1      -6.347   0.241  -8.173  1.00  0.00     0.158 A 
BRANCH  15  18
ATOM     18  O   UNL     1      -8.225   1.623  -8.838  1.00  0.00    -0.504 OA
ATOM     19  H   UNL     1      -8.863   1.657  -9.625  1.00  0.00     0.293 HD
ENDBRANCH  15  18
BRANCH  17  20
ATOM     20  O   UNL     1      -7.115  -0.382  -7.189  1.00  0.00    -0.504 OA
ATOM     21  H   UNL     1      -8.005  -0.007  -6.883  1.00  0.00     0.293 HD
ENDBRANCH  17  20
ENDBRANCH   1  12
BRANCH   6  22
ATOM     22  O   UNL     1       2.257  -0.390 -10.114  1.00  0.00    -0.507 OA
ATOM     23  H   UNL     1       2.942  -0.321  -9.371  1.00  0.00     0.293 HD
ENDBRANCH   6  22
BRANCH   8  24
ATOM     24  O   UNL     1       0.526  -4.895 -10.125  1.00  0.00    -0.508 OA
ATOM     25  H   UNL     1      -0.191  -5.570  -9.891  1.00  0.00     0.293 HD
ENDBRANCH   8  24
TORSDOF 5
ENDMDL
MODEL 3
REMARK VINA RESULT:    -5.069      1.211      3.021
REMARK INTER + INTRA:          -6.241
REMARK INTER:                  -5.965
REMARK INTRA:                  -0.276
REMARK UNBOUND:                -0.283
REMARK SMILES O=c1cc(-c2ccc(O)c(O)c2)oc2cc(O)cc(O)c12
REMARK SMILES IDX 4 1 3 2 2 3 1 4 21 5 19 6 18 7 16 8 15 9 14 10 13 11 5 12
REMARK SMILES IDX 6 13 7 14 8 15 12 16 10 17 9 18 11 20 20 22 17 24
REMARK H PARENT 9 19 11 21 20 23 17 25
REMARK Flexibility Score: inf
ROOT
ATOM      1  C   UNL     1      -3.151   0.123  -9.126  1.00  0.00     0.138 A 
ATOM      2  C   UNL     1      -2.225   1.172  -9.241  1.00  0.00     0.100 A 
ATOM      3  C   UNL     1      -0.889   0.882  -9.524  1.00  0.00     0.197 A 
ATOM      4  O   UNL     1      -0.066   1.830  -9.624  1.00  0.00    -0.289 OA
ATOM      5  C   UNL     1      -0.489  -0.460  -9.686  1.00  0.00     0.107 A 
ATOM      6  C   UNL     1       0.843  -0.840  -9.975  1.00  0.00     0.134 A 
ATOM      7  C   UNL     1       1.162  -2.199 -10.116  1.00  0.00     0.093 A 
ATOM      8  C   UNL     1       0.179  -3.181  -9.974  1.00  0.00     0.123 A 
ATOM      9  C   UNL     1      -1.139  -2.810  -9.688  1.00  0.00     0.094 A 
ATOM     10  C   UNL     1      -1.478  -1.461  -9.544  1.00  0.00     0.146 A 
ATOM     11  O   UNL     1      -2.738  -1.134  -9.276  1.00  0.00    -0.456 OA
ENDROOT
BRANCH   1  12
ATOM     12  C   UNL     1      -4.583   0.372  -8.825  1.00  0.00     0.021 A 
ATOM     13  C   UNL     1      -5.221  -0.382  -7.824  1.00  0.00     0.016 A 
ATOM     14  C   UNL     1      -6.570  -0.173  -7.527  1.00  0.00     0.051 A 
ATOM     15  C   UNL     1      -7.309   0.786  -8.231  1.00  0.00     0.157 A 
ATOM     16  C   UNL     1      -5.336   1.325  -9.539  1.00  0.00     0.062 A 
ATOM     17  C   UNL     1      -6.688   1.535  -9.244  1.00  0.00     0.158 A 
BRANCH  15  18
ATOM     18  O   UNL     1      -8.653   0.994  -7.931  1.00  0.00    -0.504 OA
ATOM     19  H   UNL     1      -9.223   1.638  -8.467  1.00  0.00     0.293 HD
ENDBRANCH  15  18
BRANCH  17  20
ATOM     20  O   UNL     1      -7.399   2.490  -9.971  1.00  0.00    -0.504 OA
ATOM     21  H   UNL     1      -6.941   3.132 -10.607  1.00  0.00     0.293 HD
ENDBRANCH  17  20
ENDBRANCH   1  12
BRANCH   6  22
ATOM     22  O   UNL     1       1.847   0.117 -10.122  1.00  0.00    -0.507 OA
ATOM     23  H   UNL     1       1.750   0.896 -10.762  1.00  0.00     0.293 HD
ENDBRANCH   6  22
BRANCH   8  24
ATOM     24  O   UNL     1       0.522  -4.523 -10.118  1.00  0.00    -0.508 OA
ATOM     25  H   UNL     1       0.482  -4.986 -11.019  1.00  0.00     0.293 HD
ENDBRANCH   8  24
TORSDOF 5
ENDMDL
MODEL 4
REMARK VINA RESULT:    -4.965      1.933      4.214
REMARK INTER + INTRA:          -6.119
REMARK INTER:                  -5.823
REMARK INTRA:                  -0.296
REMARK UNBOUND:                -0.283
REMARK SMILES O=c1cc(-c2ccc(O)c(O)c2)oc2cc(O)cc(O)c12
REMARK SMILES IDX 4 1 3 2 2 3 1 4 21 5 19 6 18 7 16 8 15 9 14 10 13 11 5 12
REMARK SMILES IDX 6 13 7 14 8 15 12 16 10 17 9 18 11 20 20 22 17 24
REMARK H PARENT 9 19 11 21 20 23 17 25
REMARK Flexibility Score: inf
ROOT
ATOM      1  C   UNL     1       0.095  -1.544  -9.741  1.00  0.00     0.138 A 
ATOM      2  C   UNL     1       1.079  -0.543  -9.788  1.00  0.00     0.100 A 
ATOM      3  C   UNL     1       2.423  -0.904  -9.895  1.00  0.00     0.197 A 
ATOM      4  O   UNL     1       3.297   0.003  -9.934  1.00  0.00    -0.289 OA
ATOM      5  C   UNL     1       2.774  -2.267  -9.950  1.00  0.00     0.107 A 
ATOM      6  C   UNL     1       4.111  -2.718 -10.060  1.00  0.00     0.134 A 
ATOM      7  C   UNL     1       4.378  -4.094 -10.104  1.00  0.00     0.093 A 
ATOM      8  C   UNL     1       3.339  -5.026 -10.041  1.00  0.00     0.123 A 
ATOM      9  C   UNL     1       2.016  -4.584  -9.932  1.00  0.00     0.094 A 
ATOM     10  C   UNL     1       1.728  -3.217  -9.887  1.00  0.00     0.146 A 
ATOM     11  O   UNL     1       0.462  -2.824  -9.787  1.00  0.00    -0.456 OA
ENDROOT
BRANCH   1  12
ATOM     12  C   UNL     1      -1.348  -1.220  -9.626  1.00  0.00     0.021 A 
ATOM     13  C   UNL     1      -2.303  -2.235  -9.821  1.00  0.00     0.016 A 
ATOM     14  C   UNL     1      -3.668  -1.954  -9.726  1.00  0.00     0.051 A 
ATOM     15  C   UNL     1      -4.105  -0.653  -9.445  1.00  0.00     0.157 A 
ATOM     16  C   UNL     1      -1.795   0.089  -9.357  1.00  0.00     0.062 A 
ATOM     17  C   UNL     1      -3.163   0.372  -9.264  1.00  0.00     0.158 A 
BRANCH  15  18
ATOM     18  O   UNL     1      -5.467  -0.377  -9.349  1.00  0.00    -0.504 OA
ATOM     19  H   UNL     1      -5.902   0.347  -9.909  1.00  0.00     0.293 HD
ENDBRANCH  15  18
BRANCH  17  20
ATOM     20  O   UNL     1      -3.565   1.680  -8.993  1.00  0.00    -0.504 OA
ATOM     21  H   UNL     1      -4.334   1.888  -8.368  1.00  0.00     0.293 HD
ENDBRANCH  17  20
ENDBRANCH   1  12
BRANCH   6  22
ATOM     22  O   UNL     1       5.171  -1.813 -10.125  1.00  0.00    -0.507 OA
ATOM     23  H   UNL     1       6.130  -2.104  -9.978  1.00  0.00     0.293 HD
ENDBRANCH   6  22
BRANCH   8  24
ATOM     24  O   UNL     1       3.632  -6.387 -10.086  1.00  0.00    -0.508 OA
ATOM     25  H   UNL     1       3.573  -6.912 -10.950  1.00  0.00     0.293 HD
ENDBRANCH   8  24
TORSDOF 5
ENDMDL
MODEL 5
REMARK VINA RESULT:    -4.093      2.405      8.017
REMARK INTER + INTRA:          -5.094
REMARK INTER:                  -4.777
REMARK INTRA:                  -0.317
REMARK UNBOUND:                -0.283
REMARK SMILES O=c1cc(-c2ccc(O)c(O)c2)oc2cc(O)cc(O)c12
REMARK SMILES IDX 4 1 3 2 2 3 1 4 21 5 19 6 18 7 16 8 15 9 14 10 13 11 5 12
REMARK SMILES IDX 6 13 7 14 8 15 12 16 10 17 9 18 11 20 20 22 17 24
REMARK H PARENT 9 19 11 21 20 23 17 25
REMARK Flexibility Score: inf
ROOT
ATOM      1  C   UNL     1       1.393  -2.473  -9.839  1.00  0.00     0.138 A 
ATOM      2  C   UNL     1       1.808  -1.143 -10.017  1.00  0.00     0.100 A 
ATOM      3  C   UNL     1       0.865  -0.115  -9.961  1.00  0.00     0.197 A 
ATOM      4  O   UNL     1       1.248   1.074 -10.125  1.00  0.00    -0.289 OA
ATOM      5  C   UNL     1      -0.490  -0.427  -9.731  1.00  0.00     0.107 A 
ATOM      6  C   UNL     1      -1.508   0.554  -9.658  1.00  0.00     0.134 A 
ATOM      7  C   UNL     1      -2.835   0.161  -9.430  1.00  0.00     0.093 A 
ATOM      8  C   UNL     1      -3.163  -1.188  -9.274  1.00  0.00     0.123 A 
ATOM      9  C   UNL     1      -2.160  -2.160  -9.345  1.00  0.00     0.094 A 
ATOM     10  C   UNL     1      -0.831  -1.790  -9.571  1.00  0.00     0.146 A 
ATOM     11  O   UNL     1       0.103  -2.733  -9.631  1.00  0.00    -0.456 OA
ENDROOT
BRANCH   1  12
ATOM     12  C   UNL     1       2.350  -3.606  -9.889  1.00  0.00     0.021 A 
ATOM     13  C   UNL     1       3.730  -3.343  -9.960  1.00  0.00     0.016 A 
ATOM     14  C   UNL     1       4.651  -4.392 -10.016  1.00  0.00     0.051 A 
ATOM     15  C   UNL     1       4.211  -5.721 -10.013  1.00  0.00     0.157 A 
ATOM     16  C   UNL     1       1.913  -4.945  -9.900  1.00  0.00     0.062 A 
ATOM     17  C   UNL     1       2.835  -5.997  -9.958  1.00  0.00     0.158 A 
BRANCH  15  18
ATOM     18  O   UNL     1       5.132  -6.765 -10.067  1.00  0.00    -0.504 OA
ATOM     19  H   UNL     1       5.230  -7.427  -9.306  1.00  0.00     0.293 HD
ENDBRANCH  15  18
BRANCH  17  20
ATOM     20  O   UNL     1       2.363  -7.310  -9.964  1.00  0.00    -0.504 OA
ATOM     21  H   UNL     1       1.872  -7.701 -10.758  1.00  0.00     0.293 HD
ENDBRANCH  17  20
ENDBRANCH   1  12
BRANCH   6  22
ATOM     22  O   UNL     1      -1.211   1.909  -9.810  1.00  0.00    -0.507 OA
ATOM     23  H   UNL     1      -1.564   2.607  -9.166  1.00  0.00     0.293 HD
ENDBRANCH   6  22
BRANCH   8  24
ATOM     24  O   UNL     1      -4.489  -1.550  -9.049  1.00  0.00    -0.508 OA
ATOM     25  H   UNL     1      -4.798  -2.511  -9.141  1.00  0.00     0.293 HD
ENDBRANCH   8  24
TORSDOF 5
ENDMDL
MODEL 6
REMARK VINA RESULT:    -3.845     12.176     14.792
REMARK INTER + INTRA:          -4.802
REMARK INTER:                  -4.537
REMARK INTRA:                  -0.265
REMARK UNBOUND:                -0.283
REMARK SMILES O=c1cc(-c2ccc(O)c(O)c2)oc2cc(O)cc(O)c12
REMARK SMILES IDX 4 1 3 2 2 3 1 4 21 5 19 6 18 7 16 8 15 9 14 10 13 11 5 12
REMARK SMILES IDX 6 13 7 14 8 15 12 16 10 17 9 18 11 20 20 22 17 24
REMARK H PARENT 9 19 11 21 20 23 17 25
REMARK Flexibility Score: inf
ROOT
ATOM      1  C   UNL     1      -0.310   7.549   0.565  1.00  0.00     0.138 A 
ATOM      2  C   UNL     1      -0.735   8.380   1.614  1.00  0.00     0.100 A 
ATOM      3  C   UNL     1      -1.997   8.973   1.554  1.00  0.00     0.197 A 
ATOM      4  O   UNL     1      -2.367   9.718   2.500  1.00  0.00    -0.289 OA
ATOM      5  C   UNL     1      -2.825   8.732   0.440  1.00  0.00     0.107 A 
ATOM      6  C   UNL     1      -4.118   9.291   0.300  1.00  0.00     0.134 A 
ATOM      7  C   UNL     1      -4.878   9.006  -0.843  1.00  0.00     0.093 A 
ATOM      8  C   UNL     1      -4.374   8.176  -1.847  1.00  0.00     0.123 A 
ATOM      9  C   UNL     1      -3.097   7.620  -1.713  1.00  0.00     0.094 A 
ATOM     10  C   UNL     1      -2.323   7.891  -0.581  1.00  0.00     0.146 A 
ATOM     11  O   UNL     1      -1.114   7.349  -0.478  1.00  0.00    -0.456 OA
ENDROOT
BRANCH   1  12
ATOM     12  C   UNL     1       1.021   6.893   0.575  1.00  0.00     0.021 A 
ATOM     13  C   UNL     1       1.175   5.650   1.214  1.00  0.00     0.016 A 
ATOM     14  C   UNL     1       2.420   5.016   1.244  1.00  0.00     0.051 A 
ATOM     15  C   UNL     1       3.535   5.616   0.645  1.00  0.00     0.157 A 
ATOM     16  C   UNL     1       2.149   7.498  -0.014  1.00  0.00     0.062 A 
ATOM     17  C   UNL     1       3.397   6.865   0.017  1.00  0.00     0.158 A 
BRANCH  15  18
ATOM     18  O   UNL     1       4.774   4.980   0.675  1.00  0.00    -0.504 OA
ATOM     19  H   UNL     1       4.875   4.002   0.430  1.00  0.00     0.293 HD
ENDBRANCH  15  18
BRANCH  17  20
ATOM     20  O   UNL     1       4.490   7.494  -0.580  1.00  0.00    -0.504 OA
ATOM     21  H   UNL     1       5.108   8.105  -0.060  1.00  0.00     0.293 HD
ENDBRANCH  17  20
ENDBRANCH   1  12
BRANCH   6  22
ATOM     22  O   UNL     1      -4.649  10.125   1.286  1.00  0.00    -0.507 OA
ATOM     23  H   UNL     1      -5.604  10.459   1.242  1.00  0.00     0.293 HD
ENDBRANCH   6  22
BRANCH   8  24
ATOM     24  O   UNL     1      -5.150   7.909  -2.972  1.00  0.00    -0.508 OA
ATOM     25  H   UNL     1      -5.609   7.015  -3.100  1.00  0.00     0.293 HD
ENDBRANCH   8  24
TORSDOF 5
ENDMDL
MODEL 7
REMARK VINA RESULT:    -3.276     11.438     11.880
REMARK INTER + INTRA:          -4.134
REMARK INTER:                  -3.869
REMARK INTRA:                  -0.265
REMARK UNBOUND:                -0.283
REMARK SMILES O=c1cc(-c2ccc(O)c(O)c2)oc2cc(O)cc(O)c12
REMARK SMILES IDX 4 1 3 2 2 3 1 4 21 5 19 6 18 7 16 8 15 9 14 10 13 11 5 12
REMARK SMILES IDX 6 13 7 14 8 15 12 16 10 17 9 18 11 20 20 22 17 24
REMARK H PARENT 9 19 11 21 20 23 17 25
REMARK Flexibility Score: inf
ROOT
ATOM      1  C   UNL     1       0.377   3.338   1.057  1.00  0.00     0.138 A 
ATOM      2  C   UNL     1      -0.151   2.702   2.193  1.00  0.00     0.100 A 
ATOM      3  C   UNL     1      -0.257   1.311   2.215  1.00  0.00     0.197 A 
ATOM      4  O   UNL     1      -0.733   0.751   3.239  1.00  0.00    -0.289 OA
ATOM      5  C   UNL     1       0.163   0.564   1.097  1.00  0.00     0.107 A 
ATOM      6  C   UNL     1       0.092  -0.848   1.038  1.00  0.00     0.134 A 
ATOM      7  C   UNL     1       0.526  -1.518  -0.115  1.00  0.00     0.093 A 
ATOM      8  C   UNL     1       1.028  -0.806  -1.207  1.00  0.00     0.123 A 
ATOM      9  C   UNL     1       1.101   0.589  -1.154  1.00  0.00     0.094 A 
ATOM     10  C   UNL     1       0.674   1.276  -0.014  1.00  0.00     0.146 A 
ATOM     11  O   UNL     1       0.756   2.602   0.013  1.00  0.00    -0.456 OA
ENDROOT
BRANCH   1  12
ATOM     12  C   UNL     1       0.512   4.813   0.976  1.00  0.00     0.021 A 
ATOM     13  C   UNL     1       1.790   5.395   1.038  1.00  0.00     0.016 A 
ATOM     14  C   UNL     1       1.944   6.783   0.972  1.00  0.00     0.051 A 
ATOM     15  C   UNL     1       0.823   7.614   0.853  1.00  0.00     0.157 A 
ATOM     16  C   UNL     1      -0.613   5.656   0.870  1.00  0.00     0.062 A 
ATOM     17  C   UNL     1      -0.461   7.046   0.806  1.00  0.00     0.158 A 
BRANCH  15  18
ATOM     18  O   UNL     1       0.980   8.996   0.786  1.00  0.00    -0.504 OA
ATOM     19  H   UNL     1       1.304   9.533   1.582  1.00  0.00     0.293 HD
ENDBRANCH  15  18
BRANCH  17  20
ATOM     20  O   UNL     1      -1.598   7.847   0.699  1.00  0.00    -0.504 OA
ATOM     21  H   UNL     1      -1.738   8.480  -0.079  1.00  0.00     0.293 HD
ENDBRANCH  17  20
ENDBRANCH   1  12
BRANCH   6  22
ATOM     22  O   UNL     1      -0.406  -1.587   2.112  1.00  0.00    -0.507 OA
ATOM     23  H   UNL     1      -0.483  -2.597   2.074  1.00  0.00     0.293 HD
ENDBRANCH   6  22
BRANCH   8  24
ATOM     24  O   UNL     1       1.452  -1.496  -2.341  1.00  0.00    -0.508 OA
ATOM     25  H   UNL     1       0.889  -2.229  -2.756  1.00  0.00     0.293 HD
ENDBRANCH   8  24
TORSDOF 5
ENDMDL
MODEL 8
REMARK VINA RESULT:    -2.971     11.893     13.625
REMARK INTER + INTRA:          -3.775
REMARK INTER:                  -3.511
REMARK INTRA:                  -0.264
REMARK UNBOUND:                -0.283
REMARK SMILES O=c1cc(-c2ccc(O)c(O)c2)oc2cc(O)cc(O)c12
REMARK SMILES IDX 4 1 3 2 2 3 1 4 21 5 19 6 18 7 16 8 15 9 14 10 13 11 5 12
REMARK SMILES IDX 6 13 7 14 8 15 12 16 10 17 9 18 11 20 20 22 17 24
REMARK H PARENT 9 19 11 21 20 23 17 25
REMARK Flexibility Score: inf
ROOT
ATOM      1  C   UNL     1      -0.123   4.776   0.936  1.00  0.00     0.138 A 
ATOM      2  C   UNL     1       0.943   5.658   1.175  1.00  0.00     0.100 A 
ATOM      3  C   UNL     1       0.750   7.031   1.007  1.00  0.00     0.197 A 
ATOM      4  O   UNL     1       1.714   7.813   1.223  1.00  0.00    -0.289 OA
ATOM      5  C   UNL     1      -0.509   7.511   0.597  1.00  0.00     0.107 A 
ATOM      6  C   UNL     1      -0.789   8.885   0.404  1.00  0.00     0.134 A 
ATOM      7  C   UNL     1      -2.068   9.282  -0.011  1.00  0.00     0.093 A 
ATOM      8  C   UNL     1      -3.071   8.335  -0.237  1.00  0.00     0.123 A 
ATOM      9  C   UNL     1      -2.799   6.976  -0.049  1.00  0.00     0.094 A 
ATOM     10  C   UNL     1      -1.530   6.559   0.365  1.00  0.00     0.146 A 
ATOM     11  O   UNL     1      -1.298   5.262   0.540  1.00  0.00    -0.456 OA
ENDROOT
BRANCH   1  12
ATOM     12  C   UNL     1       0.023   3.308   1.096  1.00  0.00     0.021 A 
ATOM     13  C   UNL     1      -0.700   2.647   2.105  1.00  0.00     0.016 A 
ATOM     14  C   UNL     1      -0.573   1.267   2.283  1.00  0.00     0.051 A 
ATOM     15  C   UNL     1       0.284   0.524   1.462  1.00  0.00     0.157 A 
ATOM     16  C   UNL     1       0.895   2.557   0.283  1.00  0.00     0.062 A 
ATOM     17  C   UNL     1       1.024   1.174   0.460  1.00  0.00     0.158 A 
BRANCH  15  18
ATOM     18  O   UNL     1       0.407  -0.852   1.640  1.00  0.00    -0.504 OA
ATOM     19  H   UNL     1      -0.319  -1.395   2.093  1.00  0.00     0.293 HD
ENDBRANCH  15  18
BRANCH  17  20
ATOM     20  O   UNL     1       1.895   0.465  -0.367  1.00  0.00    -0.504 OA
ATOM     21  H   UNL     1       1.560  -0.159  -1.091  1.00  0.00     0.293 HD
ENDBRANCH  17  20
ENDBRANCH   1  12
BRANCH   6  22
ATOM     22  O   UNL     1       0.191   9.854   0.622  1.00  0.00    -0.507 OA
ATOM     23  H   UNL     1       0.298  10.311   1.520  1.00  0.00     0.293 HD
ENDBRANCH   6  22
BRANCH   8  24
ATOM     24  O   UNL     1      -4.333   8.756  -0.650  1.00  0.00    -0.508 OA
ATOM     25  H   UNL     1      -4.534   9.734  -0.822  1.00  0.00     0.293 HD
ENDBRANCH   8  24
TORSDOF 5
ENDMDL
