MODEL 1
REMARK VINA RESULT:    -5.292      0.000      0.000
REMARK INTER + INTRA:         -13.014
REMARK INTER:                 -10.242
REMARK INTRA:                  -2.772
REMARK UNBOUND:                -2.772
REMARK SMILES CCCCCCCCCCCCCCCCCC(=O)[O-]
REMARK SMILES IDX 10 1 11 2 12 3 13 4 14 5 15 6 16 7 17 8 18 9 19 10 20 11
REMARK SMILES IDX 9 12 8 13 7 14 6 15 5 16 4 17 3 18 2 19 1 20
REMARK H PARENT
REMARK Flexibility Score: inf
ROOT
ATOM      1  C   UNL     1       3.053   5.927   6.926  1.00  0.00     0.000 C 
ENDROOT
BRANCH   1   2
ATOM      2  C   UNL     1       3.088   7.393   6.469  1.00  0.00     0.000 C 
BRANCH   2   3
ATOM      3  C   UNL     1       3.623   8.343   7.553  1.00  0.00     0.000 C 
BRANCH   3   4
ATOM      4  C   UNL     1       2.543   9.299   8.088  1.00  0.00     0.000 C 
BRANCH   4   5
ATOM      5  C   UNL     1       2.343   9.171   9.607  1.00  0.00     0.000 C 
BRANCH   5   6
ATOM      6  C   UNL     1       1.731   7.821  10.013  1.00  0.00     0.000 C 
BRANCH   6   7
ATOM      7  C   UNL     1       0.279   7.710   9.530  1.00  0.00     0.006 C 
BRANCH   7   8
ATOM      8  C   UNL     1       0.045   6.387   8.796  1.00  0.00     0.053 C 
BRANCH   8   9
ATOM      9  C   UNL     1       0.269   5.228   9.715  1.00  0.00     0.041 C 
ATOM     10  O   UNL     1       1.120   4.345   9.427  1.00  0.00    -0.550 OA
ATOM     11  O   UNL     1      -0.432   5.145  10.913  1.00  0.00    -0.550 OA
ENDBRANCH   8   9
ENDBRANCH   7   8
ENDBRANCH   6   7
ENDBRANCH   5   6
ENDBRANCH   4   5
ENDBRANCH   3   4
ENDBRANCH   2   3
ENDBRANCH   1   2
BRANCH   1  12
ATOM     12  C   UNL     1       4.211   5.622   7.884  1.00  0.00     0.000 C 
BRANCH  12  13
ATOM     13  C   UNL     1       4.799   4.229   7.612  1.00  0.00    -0.000 C 
BRANCH  13  14
ATOM     14  C   UNL     1       6.327   4.191   7.780  1.00  0.00    -0.000 C 
BRANCH  14  15
ATOM     15  C   UNL     1       6.886   5.495   8.379  1.00  0.00    -0.000 C 
BRANCH  15  16
ATOM     16  C   UNL     1       8.359   5.729   8.009  1.00  0.00    -0.000 C 
BRANCH  16  17
ATOM     17  C   UNL     1       8.555   6.969   7.125  1.00  0.00    -0.000 C 
BRANCH  17  18
ATOM     18  C   UNL     1       7.204   7.549   6.680  1.00  0.00    -0.000 C 
BRANCH  18  19
ATOM     19  C   UNL     1       7.069   7.629   5.152  1.00  0.00    -0.003 C 
ATOM     20  C   UNL     1       6.144   6.550   4.582  1.00  0.00     0.004 C 
ENDBRANCH  18  19
ENDBRANCH  17  18
ENDBRANCH  16  17
ENDBRANCH  15  16
ENDBRANCH  14  15
ENDBRANCH  13  14
ENDBRANCH  12  13
ENDBRANCH   1  12
TORSDOF 16
ENDMDL
MODEL 2
REMARK VINA RESULT:    -5.284      3.141      7.107
REMARK INTER + INTRA:         -12.998
REMARK INTER:                 -10.660
REMARK INTRA:                  -2.338
REMARK UNBOUND:                -2.772
REMARK SMILES CCCCCCCCCCCCCCCCCC(=O)[O-]
REMARK SMILES IDX 10 1 11 2 12 3 13 4 14 5 15 6 16 7 17 8 18 9 19 10 20 11
REMARK SMILES IDX 9 12 8 13 7 14 6 15 5 16 4 17 3 18 2 19 1 20
REMARK H PARENT
REMARK Flexibility Score: inf
ROOT
ATOM      1  C   UNL     1       2.950   7.697   7.953  1.00  0.00     0.000 C 
ENDROOT
BRANCH   1   2
ATOM      2  C   UNL     1       2.207   6.682   7.071  1.00  0.00     0.000 C 
BRANCH   2   3
ATOM      3  C   UNL     1       2.221   5.260   7.656  1.00  0.00     0.000 C 
BRANCH   3   4
ATOM      4  C   UNL     1       3.459   4.990   8.527  1.00  0.00     0.000 C 
BRANCH   4   5
ATOM      5  C   UNL     1       4.450   4.021   7.861  1.00  0.00     0.000 C 
BRANCH   5   6
ATOM      6  C   UNL     1       5.863   4.612   7.736  1.00  0.00     0.000 C 
BRANCH   6   7
ATOM      7  C   UNL     1       5.934   5.627   6.587  1.00  0.00     0.006 C 
BRANCH   7   8
ATOM      8  C   UNL     1       6.428   6.987   7.088  1.00  0.00     0.053 C 
BRANCH   8   9
ATOM      9  C   UNL     1       7.888   7.152   6.807  1.00  0.00     0.041 C 
ATOM     10  O   UNL     1       8.273   7.898   5.868  1.00  0.00    -0.550 OA
ATOM     11  O   UNL     1       8.827   6.516   7.611  1.00  0.00    -0.550 OA
ENDBRANCH   8   9
ENDBRANCH   7   8
ENDBRANCH   6   7
ENDBRANCH   5   6
ENDBRANCH   4   5
ENDBRANCH   3   4
ENDBRANCH   2   3
ENDBRANCH   1   2
BRANCH   1  12
ATOM     12  C   UNL     1       1.993   8.772   8.481  1.00  0.00     0.000 C 
BRANCH  12  13
ATOM     13  C   UNL     1       2.361   9.180   9.915  1.00  0.00    -0.000 C 
BRANCH  13  14
ATOM     14  C   UNL     1       1.165   9.092  10.878  1.00  0.00    -0.000 C 
BRANCH  14  15
ATOM     15  C   UNL     1       1.571   8.599  12.279  1.00  0.00    -0.000 C 
BRANCH  15  16
ATOM     16  C   UNL     1       0.828   7.319  12.690  1.00  0.00    -0.000 C 
BRANCH  16  17
ATOM     17  C   UNL     1       0.850   6.244  11.593  1.00  0.00    -0.000 C 
BRANCH  17  18
ATOM     18  C   UNL     1      -0.573   5.771  11.257  1.00  0.00    -0.000 C 
BRANCH  18  19
ATOM     19  C   UNL     1      -0.804   5.619   9.745  1.00  0.00    -0.003 C 
ATOM     20  C   UNL     1      -1.277   6.915   9.085  1.00  0.00     0.004 C 
ENDBRANCH  18  19
ENDBRANCH  17  18
ENDBRANCH  16  17
ENDBRANCH  15  16
ENDBRANCH  14  15
ENDBRANCH  13  14
ENDBRANCH  12  13
ENDBRANCH   1  12
TORSDOF 16
ENDMDL
MODEL 3
REMARK VINA RESULT:    -5.260      1.930      3.747
REMARK INTER + INTRA:         -12.952
REMARK INTER:                 -10.404
REMARK INTRA:                  -2.548
REMARK UNBOUND:                -2.772
REMARK SMILES CCCCCCCCCCCCCCCCCC(=O)[O-]
REMARK SMILES IDX 10 1 11 2 12 3 13 4 14 5 15 6 16 7 17 8 18 9 19 10 20 11
REMARK SMILES IDX 9 12 8 13 7 14 6 15 5 16 4 17 3 18 2 19 1 20
REMARK H PARENT
REMARK Flexibility Score: inf
ROOT
ATOM      1  C   UNL     1       3.063   4.968   7.375  1.00  0.00     0.000 C 
ENDROOT
BRANCH   1   2
ATOM      2  C   UNL     1       2.858   4.778   8.886  1.00  0.00     0.000 C 
BRANCH   2   3
ATOM      3  C   UNL     1       1.416   4.386   9.248  1.00  0.00     0.000 C 
BRANCH   3   4
ATOM      4  C   UNL     1       0.796   5.320  10.301  1.00  0.00     0.000 C 
BRANCH   4   5
ATOM      5  C   UNL     1      -0.252   6.271   9.702  1.00  0.00     0.000 C 
BRANCH   5   6
ATOM      6  C   UNL     1       0.264   7.712   9.567  1.00  0.00     0.000 C 
BRANCH   6   7
ATOM      7  C   UNL     1       1.523   7.927  10.418  1.00  0.00     0.006 C 
BRANCH   7   8
ATOM      8  C   UNL     1       1.241   8.879  11.583  1.00  0.00     0.053 C 
BRANCH   8   9
ATOM      9  C   UNL     1       1.435   8.180  12.892  1.00  0.00     0.041 C 
ATOM     10  O   UNL     1       2.326   8.570  13.693  1.00  0.00    -0.550 OA
ATOM     11  O   UNL     1       0.603   7.125  13.247  1.00  0.00    -0.550 OA
ENDBRANCH   8   9
ENDBRANCH   7   8
ENDBRANCH   6   7
ENDBRANCH   5   6
ENDBRANCH   4   5
ENDBRANCH   3   4
ENDBRANCH   2   3
ENDBRANCH   1   2
BRANCH   1  12
ATOM     12  C   UNL     1       2.059   5.978   6.807  1.00  0.00     0.000 C 
BRANCH  12  13
ATOM     13  C   UNL     1       2.782   7.151   6.128  1.00  0.00    -0.000 C 
BRANCH  13  14
ATOM     14  C   UNL     1       2.664   8.459   6.929  1.00  0.00    -0.000 C 
BRANCH  14  15
ATOM     15  C   UNL     1       4.035   9.013   7.358  1.00  0.00    -0.000 C 
BRANCH  15  16
ATOM     16  C   UNL     1       4.733   8.121   8.396  1.00  0.00    -0.000 C 
BRANCH  16  17
ATOM     17  C   UNL     1       6.035   7.503   7.863  1.00  0.00    -0.000 C 
BRANCH  17  18
ATOM     18  C   UNL     1       6.453   8.159   6.538  1.00  0.00    -0.000 C 
BRANCH  18  19
ATOM     19  C   UNL     1       7.854   7.722   6.080  1.00  0.00    -0.003 C 
ATOM     20  C   UNL     1       8.629   6.980   7.170  1.00  0.00     0.004 C 
ENDBRANCH  18  19
ENDBRANCH  17  18
ENDBRANCH  16  17
ENDBRANCH  15  16
ENDBRANCH  14  15
ENDBRANCH  13  14
ENDBRANCH  12  13
ENDBRANCH   1  12
TORSDOF 16
ENDMDL
MODEL 4
REMARK VINA RESULT:    -5.240      2.479      6.846
REMARK INTER + INTRA:         -12.914
REMARK INTER:                 -10.272
REMARK INTRA:                  -2.642
REMARK UNBOUND:                -2.772
REMARK SMILES CCCCCCCCCCCCCCCCCC(=O)[O-]
REMARK SMILES IDX 10 1 11 2 12 3 13 4 14 5 15 6 16 7 17 8 18 9 19 10 20 11
REMARK SMILES IDX 9 12 8 13 7 14 6 15 5 16 4 17 3 18 2 19 1 20
REMARK H PARENT
REMARK Flexibility Score: inf
ROOT
ATOM      1  C   UNL     1       3.688   6.641   8.892  1.00  0.00     0.000 C 
ENDROOT
BRANCH   1   2
ATOM      2  C   UNL     1       3.173   5.229   8.572  1.00  0.00     0.000 C 
BRANCH   2   3
ATOM      3  C   UNL     1       4.005   4.522   7.489  1.00  0.00     0.000 C 
BRANCH   3   4
ATOM      4  C   UNL     1       5.337   3.976   8.030  1.00  0.00     0.000 C 
BRANCH   4   5
ATOM      5  C   UNL     1       6.554   4.526   7.268  1.00  0.00     0.000 C 
BRANCH   5   6
ATOM      6  C   UNL     1       7.299   5.618   8.051  1.00  0.00     0.000 C 
BRANCH   6   7
ATOM      7  C   UNL     1       7.345   6.929   7.256  1.00  0.00     0.006 C 
BRANCH   7   8
ATOM      8  C   UNL     1       6.566   6.803   5.944  1.00  0.00     0.053 C 
BRANCH   8   9
ATOM      9  C   UNL     1       5.383   7.720   5.945  1.00  0.00     0.041 C 
ATOM     10  O   UNL     1       4.313   7.375   5.377  1.00  0.00    -0.550 OA
ATOM     11  O   UNL     1       5.448   8.938   6.612  1.00  0.00    -0.550 OA
ENDBRANCH   8   9
ENDBRANCH   7   8
ENDBRANCH   6   7
ENDBRANCH   5   6
ENDBRANCH   4   5
ENDBRANCH   3   4
ENDBRANCH   2   3
ENDBRANCH   1   2
BRANCH   1  12
ATOM     12  C   UNL     1       2.645   7.704   8.524  1.00  0.00     0.000 C 
BRANCH  12  13
ATOM     13  C   UNL     1       2.715   8.899   9.485  1.00  0.00    -0.000 C 
BRANCH  13  14
ATOM     14  C   UNL     1       1.438   9.055  10.327  1.00  0.00    -0.000 C 
BRANCH  14  15
ATOM     15  C   UNL     1       1.656   8.679  11.804  1.00  0.00    -0.000 C 
BRANCH  15  16
ATOM     16  C   UNL     1       0.706   7.568  12.276  1.00  0.00    -0.000 C 
BRANCH  16  17
ATOM     17  C   UNL     1       0.977   6.225  11.582  1.00  0.00    -0.000 C 
BRANCH  17  18
ATOM     18  C   UNL     1      -0.320   5.626  11.015  1.00  0.00    -0.000 C 
BRANCH  18  19
ATOM     19  C   UNL     1      -0.427   5.786   9.490  1.00  0.00    -0.003 C 
ATOM     20  C   UNL     1      -1.315   6.963   9.079  1.00  0.00     0.004 C 
ENDBRANCH  18  19
ENDBRANCH  17  18
ENDBRANCH  16  17
ENDBRANCH  15  16
ENDBRANCH  14  15
ENDBRANCH  13  14
ENDBRANCH  12  13
ENDBRANCH   1  12
TORSDOF 16
ENDMDL
MODEL 5
REMARK VINA RESULT:    -5.232      1.602      3.303
REMARK INTER + INTRA:         -12.897
REMARK INTER:                 -10.354
REMARK INTRA:                  -2.543
REMARK UNBOUND:                -2.772
REMARK SMILES CCCCCCCCCCCCCCCCCC(=O)[O-]
REMARK SMILES IDX 10 1 11 2 12 3 13 4 14 5 15 6 16 7 17 8 18 9 19 10 20 11
REMARK SMILES IDX 9 12 8 13 7 14 6 15 5 16 4 17 3 18 2 19 1 20
REMARK H PARENT
REMARK Flexibility Score: inf
ROOT
ATOM      1  C   UNL     1       5.113   8.292   8.001  1.00  0.00     0.000 C 
ENDROOT
BRANCH   1   2
ATOM      2  C   UNL     1       3.706   8.483   8.589  1.00  0.00     0.000 C 
BRANCH   2   3
ATOM      3  C   UNL     1       2.614   8.564   7.510  1.00  0.00     0.000 C 
BRANCH   3   4
ATOM      4  C   UNL     1       2.416   7.231   6.767  1.00  0.00     0.000 C 
BRANCH   4   5
ATOM      5  C   UNL     1       1.524   6.249   7.544  1.00  0.00     0.000 C 
BRANCH   5   6
ATOM      6  C   UNL     1       2.309   5.054   8.107  1.00  0.00     0.000 C 
BRANCH   6   7
ATOM      7  C   UNL     1       2.392   5.124   9.637  1.00  0.00     0.006 C 
BRANCH   7   8
ATOM      8  C   UNL     1       0.994   5.173  10.261  1.00  0.00     0.053 C 
BRANCH   8   9
ATOM      9  C   UNL     1       0.899   6.291  11.251  1.00  0.00     0.041 C 
ATOM     10  O   UNL     1       1.680   7.277  11.170  1.00  0.00    -0.550 OA
ATOM     11  O   UNL     1      -0.080   6.265  12.237  1.00  0.00    -0.550 OA
ENDBRANCH   8   9
ENDBRANCH   7   8
ENDBRANCH   6   7
ENDBRANCH   5   6
ENDBRANCH   4   5
ENDBRANCH   3   4
ENDBRANCH   2   3
ENDBRANCH   1   2
BRANCH   1  12
ATOM     12  C   UNL     1       5.321   9.183   6.771  1.00  0.00     0.000 C 
BRANCH  12  13
ATOM     13  C   UNL     1       6.253   8.509   5.753  1.00  0.00    -0.000 C 
BRANCH  13  14
ATOM     14  C   UNL     1       5.528   7.459   4.896  1.00  0.00    -0.000 C 
BRANCH  14  15
ATOM     15  C   UNL     1       6.092   6.041   5.098  1.00  0.00    -0.000 C 
BRANCH  15  16
ATOM     16  C   UNL     1       5.497   5.340   6.329  1.00  0.00    -0.000 C 
BRANCH  16  17
ATOM     17  C   UNL     1       6.527   4.475   7.072  1.00  0.00    -0.000 C 
BRANCH  17  18
ATOM     18  C   UNL     1       6.954   5.139   8.390  1.00  0.00    -0.000 C 
BRANCH  18  19
ATOM     19  C   UNL     1       8.455   5.466   8.427  1.00  0.00    -0.003 C 
ATOM     20  C   UNL     1       8.811   6.704   7.602  1.00  0.00     0.004 C 
ENDBRANCH  18  19
ENDBRANCH  17  18
ENDBRANCH  16  17
ENDBRANCH  15  16
ENDBRANCH  14  15
ENDBRANCH  13  14
ENDBRANCH  12  13
ENDBRANCH   1  12
TORSDOF 16
ENDMDL
MODEL 6
REMARK VINA RESULT:    -5.225      1.293      4.173
REMARK INTER + INTRA:         -12.884
REMARK INTER:                 -10.277
REMARK INTRA:                  -2.607
REMARK UNBOUND:                -2.772
REMARK SMILES CCCCCCCCCCCCCCCCCC(=O)[O-]
REMARK SMILES IDX 10 1 11 2 12 3 13 4 14 5 15 6 16 7 17 8 18 9 19 10 20 11
REMARK SMILES IDX 9 12 8 13 7 14 6 15 5 16 4 17 3 18 2 19 1 20
REMARK H PARENT
REMARK Flexibility Score: inf
ROOT
ATOM      1  C   UNL     1       8.231   5.081   8.021  1.00  0.00     0.000 C 
ENDROOT
BRANCH   1   2
ATOM      2  C   UNL     1       6.737   5.290   8.317  1.00  0.00     0.000 C 
BRANCH   2   3
ATOM      3  C   UNL     1       5.839   4.267   7.604  1.00  0.00     0.000 C 
BRANCH   3   4
ATOM      4  C   UNL     1       4.448   4.149   8.250  1.00  0.00     0.000 C 
BRANCH   4   5
ATOM      5  C   UNL     1       3.310   4.438   7.258  1.00  0.00     0.000 C 
BRANCH   5   6
ATOM      6  C   UNL     1       2.090   5.088   7.929  1.00  0.00     0.000 C 
BRANCH   6   7
ATOM      7  C   UNL     1       1.971   4.650   9.395  1.00  0.00     0.006 C 
BRANCH   7   8
ATOM      8  C   UNL     1       1.183   5.678  10.212  1.00  0.00     0.053 C 
BRANCH   8   9
ATOM      9  C   UNL     1      -0.206   5.188  10.476  1.00  0.00     0.041 C 
ATOM     10  O   UNL     1      -0.738   5.368  11.604  1.00  0.00    -0.550 OA
ATOM     11  O   UNL     1      -0.929   4.570   9.463  1.00  0.00    -0.550 OA
ENDBRANCH   8   9
ENDBRANCH   7   8
ENDBRANCH   6   7
ENDBRANCH   5   6
ENDBRANCH   4   5
ENDBRANCH   3   4
ENDBRANCH   2   3
ENDBRANCH   1   2
BRANCH   1  12
ATOM     12  C   UNL     1       8.904   6.402   7.630  1.00  0.00     0.000 C 
BRANCH  12  13
ATOM     13  C   UNL     1       7.861   7.452   7.221  1.00  0.00    -0.000 C 
BRANCH  13  14
ATOM     14  C   UNL     1       8.027   7.912   5.763  1.00  0.00    -0.000 C 
BRANCH  14  15
ATOM     15  C   UNL     1       6.678   8.179   5.071  1.00  0.00    -0.000 C 
BRANCH  15  16
ATOM     16  C   UNL     1       5.672   7.037   5.281  1.00  0.00    -0.000 C 
BRANCH  16  17
ATOM     17  C   UNL     1       4.303   7.537   5.768  1.00  0.00    -0.000 C 
BRANCH  17  18
ATOM     18  C   UNL     1       4.464   8.614   6.852  1.00  0.00    -0.000 C 
BRANCH  18  19
ATOM     19  C   UNL     1       4.348   8.043   8.274  1.00  0.00    -0.003 C 
ATOM     20  C   UNL     1       3.116   8.558   9.020  1.00  0.00     0.004 C 
ENDBRANCH  18  19
ENDBRANCH  17  18
ENDBRANCH  16  17
ENDBRANCH  15  16
ENDBRANCH  14  15
ENDBRANCH  13  14
ENDBRANCH  12  13
ENDBRANCH   1  12
TORSDOF 16
ENDMDL
MODEL 7
REMARK VINA RESULT:    -5.223      1.312      1.752
REMARK INTER + INTRA:         -12.881
REMARK INTER:                 -10.318
REMARK INTRA:                  -2.563
REMARK UNBOUND:                -2.772
REMARK SMILES CCCCCCCCCCCCCCCCCC(=O)[O-]
REMARK SMILES IDX 10 1 11 2 12 3 13 4 14 5 15 6 16 7 17 8 18 9 19 10 20 11
REMARK SMILES IDX 9 12 8 13 7 14 6 15 5 16 4 17 3 18 2 19 1 20
REMARK H PARENT
REMARK Flexibility Score: inf
ROOT
ATOM      1  C   UNL     1       2.369   7.028   7.020  1.00  0.00     0.000 C 
ENDROOT
BRANCH   1   2
ATOM      2  C   UNL     1       2.481   8.456   7.576  1.00  0.00     0.000 C 
BRANCH   2   3
ATOM      3  C   UNL     1       2.998   8.493   9.023  1.00  0.00     0.000 C 
BRANCH   3   4
ATOM      4  C   UNL     1       2.259   9.527   9.889  1.00  0.00     0.000 C 
BRANCH   4   5
ATOM      5  C   UNL     1       1.076   8.916  10.658  1.00  0.00     0.000 C 
BRANCH   5   6
ATOM      6  C   UNL     1       1.499   8.291  11.996  1.00  0.00     0.000 C 
BRANCH   6   7
ATOM      7  C   UNL     1       0.740   6.983  12.255  1.00  0.00     0.006 C 
BRANCH   7   8
ATOM      8  C   UNL     1       0.829   6.049  11.045  1.00  0.00     0.053 C 
BRANCH   8   9
ATOM      9  C   UNL     1      -0.537   5.608  10.619  1.00  0.00     0.041 C 
ATOM     10  O   UNL     1      -1.418   5.353  11.483  1.00  0.00    -0.550 OA
ATOM     11  O   UNL     1      -0.850   5.522   9.268  1.00  0.00    -0.550 OA
ENDBRANCH   8   9
ENDBRANCH   7   8
ENDBRANCH   6   7
ENDBRANCH   5   6
ENDBRANCH   4   5
ENDBRANCH   3   4
ENDBRANCH   2   3
ENDBRANCH   1   2
BRANCH   1  12
ATOM     12  C   UNL     1       3.001   6.013   7.979  1.00  0.00     0.000 C 
BRANCH  12  13
ATOM     13  C   UNL     1       3.598   4.825   7.209  1.00  0.00    -0.000 C 
BRANCH  13  14
ATOM     14  C   UNL     1       5.033   4.496   7.653  1.00  0.00    -0.000 C 
BRANCH  14  15
ATOM     15  C   UNL     1       5.759   5.714   8.252  1.00  0.00    -0.000 C 
BRANCH  15  16
ATOM     16  C   UNL     1       7.210   5.834   7.762  1.00  0.00    -0.000 C 
BRANCH  16  17
ATOM     17  C   UNL     1       7.450   7.103   6.931  1.00  0.00    -0.000 C 
BRANCH  17  18
ATOM     18  C   UNL     1       6.218   8.021   6.959  1.00  0.00    -0.000 C 
BRANCH  18  19
ATOM     19  C   UNL     1       5.679   8.329   5.553  1.00  0.00    -0.003 C 
ATOM     20  C   UNL     1       5.640   7.095   4.650  1.00  0.00     0.004 C 
ENDBRANCH  18  19
ENDBRANCH  17  18
ENDBRANCH  16  17
ENDBRANCH  15  16
ENDBRANCH  14  15
ENDBRANCH  13  14
ENDBRANCH  12  13
ENDBRANCH   1  12
TORSDOF 16
ENDMDL
MODEL 8
REMARK VINA RESULT:    -5.188      2.991      6.376
REMARK INTER + INTRA:         -12.813
REMARK INTER:                 -10.107
REMARK INTRA:                  -2.706
REMARK UNBOUND:                -2.772
REMARK SMILES CCCCCCCCCCCCCCCCCC(=O)[O-]
REMARK SMILES IDX 10 1 11 2 12 3 13 4 14 5 15 6 16 7 17 8 18 9 19 10 20 11
REMARK SMILES IDX 9 12 8 13 7 14 6 15 5 16 4 17 3 18 2 19 1 20
REMARK H PARENT
REMARK Flexibility Score: inf
ROOT
ATOM      1  C   UNL     1       2.513   8.494   7.188  1.00  0.00     0.000 C 
ENDROOT
BRANCH   1   2
ATOM      2  C   UNL     1       3.739   8.492   8.115  1.00  0.00     0.000 C 
BRANCH   2   3
ATOM      3  C   UNL     1       5.016   8.989   7.417  1.00  0.00     0.000 C 
BRANCH   3   4
ATOM      4  C   UNL     1       6.116   7.915   7.363  1.00  0.00     0.000 C 
BRANCH   4   5
ATOM      5  C   UNL     1       6.115   7.136   6.038  1.00  0.00     0.000 C 
BRANCH   5   6
ATOM      6  C   UNL     1       5.851   5.635   6.234  1.00  0.00     0.000 C 
BRANCH   6   7
ATOM      7  C   UNL     1       6.002   5.239   7.708  1.00  0.00     0.006 C 
BRANCH   7   8
ATOM      8  C   UNL     1       7.199   4.305   7.905  1.00  0.00     0.053 C 
BRANCH   8   9
ATOM      9  C   UNL     1       8.308   5.015   8.617  1.00  0.00     0.041 C 
ATOM     10  O   UNL     1       8.662   4.644   9.768  1.00  0.00    -0.550 OA
ATOM     11  O   UNL     1       8.980   6.058   7.991  1.00  0.00    -0.550 OA
ENDBRANCH   8   9
ENDBRANCH   7   8
ENDBRANCH   6   7
ENDBRANCH   5   6
ENDBRANCH   4   5
ENDBRANCH   3   4
ENDBRANCH   2   3
ENDBRANCH   1   2
BRANCH   1  12
ATOM     12  C   UNL     1       2.493   7.244   6.301  1.00  0.00     0.000 C 
BRANCH  12  13
ATOM     13  C   UNL     1       1.620   6.143   6.919  1.00  0.00    -0.000 C 
BRANCH  13  14
ATOM     14  C   UNL     1       2.410   4.857   7.210  1.00  0.00    -0.000 C 
BRANCH  14  15
ATOM     15  C   UNL     1       2.313   4.425   8.684  1.00  0.00    -0.000 C 
BRANCH  15  16
ATOM     16  C   UNL     1       2.688   5.554   9.655  1.00  0.00    -0.000 C 
BRANCH  16  17
ATOM     17  C   UNL     1       1.609   5.801  10.720  1.00  0.00    -0.000 C 
BRANCH  17  18
ATOM     18  C   UNL     1       0.594   6.851  10.244  1.00  0.00    -0.000 C 
BRANCH  18  19
ATOM     19  C   UNL     1      -0.793   6.251   9.970  1.00  0.00    -0.003 C 
ATOM     20  C   UNL     1      -1.153   5.124  10.940  1.00  0.00     0.004 C 
ENDBRANCH  18  19
ENDBRANCH  17  18
ENDBRANCH  16  17
ENDBRANCH  15  16
ENDBRANCH  14  15
ENDBRANCH  13  14
ENDBRANCH  12  13
ENDBRANCH   1  12
TORSDOF 16
ENDMDL
MODEL 9
REMARK VINA RESULT:    -5.155      2.066      5.932
REMARK INTER + INTRA:         -12.748
REMARK INTER:                 -10.506
REMARK INTRA:                  -2.242
REMARK UNBOUND:                -2.772
REMARK SMILES CCCCCCCCCCCCCCCCCC(=O)[O-]
REMARK SMILES IDX 10 1 11 2 12 3 13 4 14 5 15 6 16 7 17 8 18 9 19 10 20 11
REMARK SMILES IDX 9 12 8 13 7 14 6 15 5 16 4 17 3 18 2 19 1 20
REMARK H PARENT
REMARK Flexibility Score: inf
ROOT
ATOM      1  C   UNL     1       7.175   4.466   7.713  1.00  0.00     0.000 C 
ENDROOT
BRANCH   1   2
ATOM      2  C   UNL     1       7.333   5.959   8.042  1.00  0.00     0.000 C 
BRANCH   2   3
ATOM      3  C   UNL     1       8.483   6.622   7.266  1.00  0.00     0.000 C 
BRANCH   3   4
ATOM      4  C   UNL     1       7.997   7.738   6.326  1.00  0.00     0.000 C 
BRANCH   4   5
ATOM      5  C   UNL     1       6.842   7.285   5.419  1.00  0.00     0.000 C 
BRANCH   5   6
ATOM      6  C   UNL     1       5.625   8.221   5.496  1.00  0.00     0.000 C 
BRANCH   6   7
ATOM      7  C   UNL     1       5.593   8.970   6.834  1.00  0.00     0.006 C 
BRANCH   7   8
ATOM      8  C   UNL     1       4.504   8.407   7.752  1.00  0.00     0.053 C 
BRANCH   8   9
ATOM      9  C   UNL     1       3.150   8.847   7.293  1.00  0.00     0.041 C 
ATOM     10  O   UNL     1       2.367   8.025   6.748  1.00  0.00    -0.550 OA
ATOM     11  O   UNL     1       2.734  10.156   7.508  1.00  0.00    -0.550 OA
ENDBRANCH   8   9
ENDBRANCH   7   8
ENDBRANCH   6   7
ENDBRANCH   5   6
ENDBRANCH   4   5
ENDBRANCH   3   4
ENDBRANCH   2   3
ENDBRANCH   1   2
BRANCH   1  12
ATOM     12  C   UNL     1       5.741   3.993   7.979  1.00  0.00     0.000 C 
BRANCH  12  13
ATOM     13  C   UNL     1       4.738   4.761   7.107  1.00  0.00    -0.000 C 
BRANCH  13  14
ATOM     14  C   UNL     1       3.316   4.747   7.693  1.00  0.00    -0.000 C 
BRANCH  14  15
ATOM     15  C   UNL     1       3.276   5.228   9.155  1.00  0.00    -0.000 C 
BRANCH  15  16
ATOM     16  C   UNL     1       2.101   4.627   9.941  1.00  0.00    -0.000 C 
BRANCH  16  17
ATOM     17  C   UNL     1       0.783   4.665   9.153  1.00  0.00    -0.000 C 
BRANCH  17  18
ATOM     18  C   UNL     1      -0.364   5.201  10.024  1.00  0.00    -0.000 C 
BRANCH  18  19
ATOM     19  C   UNL     1      -0.973   6.497   9.466  1.00  0.00    -0.003 C 
ATOM     20  C   UNL     1       0.009   7.670   9.486  1.00  0.00     0.004 C 
ENDBRANCH  18  19
ENDBRANCH  17  18
ENDBRANCH  16  17
ENDBRANCH  15  16
ENDBRANCH  14  15
ENDBRANCH  13  14
ENDBRANCH  12  13
ENDBRANCH   1  12
TORSDOF 16
ENDMDL
