MODEL 1
REMARK VINA RESULT:    -4.013      0.000      0.000
REMARK INTER + INTRA:         -15.884
REMARK INTER:                 -10.581
REMARK INTRA:                  -5.303
REMARK UNBOUND:                -5.303
REMARK SMILES CCCCCCCCCCCCCCCCCCCCCCCCCCCCCC(=O)[O-]
REMARK SMILES IDX 16 1 17 2 18 3 19 4 20 5 21 6 22 7 23 8 24 9 25 10 26 11
REMARK SMILES IDX 27 12 28 13 29 14 30 15 31 16 32 17 15 18 14 19 13 20 12 21
REMARK SMILES IDX 11 22 10 23 9 24 8 25 7 26 6 27 5 28 4 29 3 30 2 31 1 32
REMARK H PARENT
REMARK Flexibility Score: inf
ROOT
ATOM      1  C   UNL     1     169.280 178.972 185.864  1.00  0.00     0.000 C 
ENDROOT
BRANCH   1   2
ATOM      2  C   UNL     1     169.538 178.835 187.375  1.00  0.00     0.000 C 
BRANCH   2   3
ATOM      3  C   UNL     1     168.416 178.084 188.113  1.00  0.00     0.000 C 
BRANCH   3   4
ATOM      4  C   UNL     1     168.850 176.790 188.829  1.00  0.00     0.000 C 
BRANCH   4   5
ATOM      5  C   UNL     1     170.326 176.437 188.588  1.00  0.00     0.000 C 
BRANCH   5   6
ATOM      6  C   UNL     1     170.466 175.241 187.641  1.00  0.00     0.000 C 
BRANCH   6   7
ATOM      7  C   UNL     1     171.775 175.327 186.840  1.00  0.00     0.000 C 
BRANCH   7   8
ATOM      8  C   UNL     1     172.566 176.613 187.128  1.00  0.00     0.000 C 
BRANCH   8   9
ATOM      9  C   UNL     1     172.828 177.448 185.864  1.00  0.00     0.000 C 
BRANCH   9  10
ATOM     10  C   UNL     1     173.008 178.952 186.169  1.00  0.00     0.000 C 
BRANCH  10  11
ATOM     11  C   UNL     1     173.166 179.269 187.667  1.00  0.00     0.000 C 
BRANCH  11  12
ATOM     12  C   UNL     1     174.568 179.752 188.078  1.00  0.00     0.000 C 
BRANCH  12  13
ATOM     13  C   UNL     1     175.654 179.484 187.009  1.00  0.00     0.006 C 
BRANCH  13  14
ATOM     14  C   UNL     1     176.350 178.123 187.156  1.00  0.00     0.053 C 
BRANCH  14  15
ATOM     15  C   UNL     1     176.576 177.441 185.837  1.00  0.00     0.041 C 
ATOM     16  O   UNL     1     176.250 178.019 184.766  1.00  0.00    -0.550 OA
ATOM     17  O   UNL     1     177.076 176.145 185.791  1.00  0.00    -0.550 OA
ENDBRANCH  14  15
ENDBRANCH  13  14
ENDBRANCH  12  13
ENDBRANCH  11  12
ENDBRANCH  10  11
ENDBRANCH   9  10
ENDBRANCH   8   9
ENDBRANCH   7   8
ENDBRANCH   6   7
ENDBRANCH   5   6
ENDBRANCH   4   5
ENDBRANCH   3   4
ENDBRANCH   2   3
ENDBRANCH   1   2
BRANCH   1  18
ATOM     18  C   UNL     1     169.334 177.625 185.127  1.00  0.00     0.000 C 
BRANCH  18  19
ATOM     19  C   UNL     1     167.984 177.107 184.593  1.00  0.00     0.000 C 
BRANCH  19  20
ATOM     20  C   UNL     1     167.465 175.844 185.310  1.00  0.00     0.000 C 
BRANCH  20  21
ATOM     21  C   UNL     1     166.039 176.011 185.864  1.00  0.00     0.000 C 
BRANCH  21  22
ATOM     22  C   UNL     1     165.453 177.409 185.600  1.00  0.00     0.000 C 
BRANCH  22  23
ATOM     23  C   UNL     1     165.117 178.197 186.884  1.00  0.00     0.000 C 
BRANCH  23  24
ATOM     24  C   UNL     1     163.615 178.517 186.990  1.00  0.00    -0.000 C 
BRANCH  24  25
ATOM     25  C   UNL     1     162.863 177.557 187.925  1.00  0.00    -0.000 C 
BRANCH  25  26
ATOM     26  C   UNL     1     161.376 177.420 187.564  1.00  0.00    -0.000 C 
BRANCH  26  27
ATOM     27  C   UNL     1     161.059 178.150 186.253  1.00  0.00    -0.000 C 
BRANCH  27  28
ATOM     28  C   UNL     1     160.395 177.203 185.239  1.00  0.00    -0.000 C 
BRANCH  28  29
ATOM     29  C   UNL     1     161.300 176.898 184.034  1.00  0.00    -0.000 C 
BRANCH  29  30
ATOM     30  C   UNL     1     162.549 176.089 184.415  1.00  0.00    -0.000 C 
BRANCH  30  31
ATOM     31  C   UNL     1     162.197 174.614 184.641  1.00  0.00    -0.003 C 
ATOM     32  C   UNL     1     162.452 174.199 186.088  1.00  0.00     0.004 C 
ENDBRANCH  30  31
ENDBRANCH  29  30
ENDBRANCH  28  29
ENDBRANCH  27  28
ENDBRANCH  26  27
ENDBRANCH  25  26
ENDBRANCH  24  25
ENDBRANCH  23  24
ENDBRANCH  22  23
ENDBRANCH  21  22
ENDBRANCH  20  21
ENDBRANCH  19  20
ENDBRANCH  18  19
ENDBRANCH   1  18
TORSDOF 28
ENDMDL
MODEL 2
REMARK VINA RESULT:    -3.853      1.657      3.164
REMARK INTER + INTRA:         -15.462
REMARK INTER:                 -11.603
REMARK INTRA:                  -3.859
REMARK UNBOUND:                -5.303
REMARK SMILES CCCCCCCCCCCCCCCCCCCCCCCCCCCCCC(=O)[O-]
REMARK SMILES IDX 16 1 17 2 18 3 19 4 20 5 21 6 22 7 23 8 24 9 25 10 26 11
REMARK SMILES IDX 27 12 28 13 29 14 30 15 31 16 32 17 15 18 14 19 13 20 12 21
REMARK SMILES IDX 11 22 10 23 9 24 8 25 7 26 6 27 5 28 4 29 3 30 2 31 1 32
REMARK H PARENT
REMARK Flexibility Score: inf
ROOT
ATOM      1  C   UNL     1     168.125 176.562 187.946  1.00  0.00     0.000 C 
ENDROOT
BRANCH   1   2
ATOM      2  C   UNL     1     168.374 178.058 188.207  1.00  0.00     0.000 C 
BRANCH   2   3
ATOM      3  C   UNL     1     169.786 178.515 187.798  1.00  0.00     0.000 C 
BRANCH   3   4
ATOM      4  C   UNL     1     170.829 177.389 187.664  1.00  0.00     0.000 C 
BRANCH   4   5
ATOM      5  C   UNL     1     171.726 177.545 186.426  1.00  0.00     0.000 C 
BRANCH   5   6
ATOM      6  C   UNL     1     171.556 178.927 185.784  1.00  0.00     0.000 C 
BRANCH   6   7
ATOM      7  C   UNL     1     172.819 179.779 185.976  1.00  0.00     0.000 C 
BRANCH   7   8
ATOM      8  C   UNL     1     173.190 179.970 187.456  1.00  0.00     0.000 C 
BRANCH   8   9
ATOM      9  C   UNL     1     174.681 179.715 187.735  1.00  0.00     0.000 C 
BRANCH   9  10
ATOM     10  C   UNL     1     174.984 178.232 188.049  1.00  0.00     0.000 C 
BRANCH  10  11
ATOM     11  C   UNL     1     175.973 177.578 187.066  1.00  0.00     0.000 C 
BRANCH  11  12
ATOM     12  C   UNL     1     176.035 178.242 185.679  1.00  0.00     0.000 C 
BRANCH  12  13
ATOM     13  C   UNL     1     175.389 177.394 184.557  1.00  0.00     0.006 C 
BRANCH  13  14
ATOM     14  C   UNL     1     175.995 177.635 183.167  1.00  0.00     0.053 C 
BRANCH  14  15
ATOM     15  C   UNL     1     175.338 178.770 182.435  1.00  0.00     0.041 C 
ATOM     16  O   UNL     1     176.016 179.492 181.656  1.00  0.00    -0.550 OA
ATOM     17  O   UNL     1     174.002 179.076 182.663  1.00  0.00    -0.550 OA
ENDBRANCH  14  15
ENDBRANCH  13  14
ENDBRANCH  12  13
ENDBRANCH  11  12
ENDBRANCH  10  11
ENDBRANCH   9  10
ENDBRANCH   8   9
ENDBRANCH   7   8
ENDBRANCH   6   7
ENDBRANCH   5   6
ENDBRANCH   4   5
ENDBRANCH   3   4
ENDBRANCH   2   3
ENDBRANCH   1   2
BRANCH   1  18
ATOM     18  C   UNL     1     166.881 176.308 187.080  1.00  0.00     0.000 C 
BRANCH  18  19
ATOM     19  C   UNL     1     166.634 177.336 185.959  1.00  0.00     0.000 C 
BRANCH  19  20
ATOM     20  C   UNL     1     165.234 177.985 185.995  1.00  0.00     0.000 C 
BRANCH  20  21
ATOM     21  C   UNL     1     164.305 177.350 187.044  1.00  0.00     0.000 C 
BRANCH  21  22
ATOM     22  C   UNL     1     163.216 178.316 187.543  1.00  0.00     0.000 C 
BRANCH  22  23
ATOM     23  C   UNL     1     162.132 177.640 188.409  1.00  0.00     0.000 C 
BRANCH  23  24
ATOM     24  C   UNL     1     160.851 177.346 187.608  1.00  0.00    -0.000 C 
BRANCH  24  25
ATOM     25  C   UNL     1     160.701 178.245 186.370  1.00  0.00    -0.000 C 
BRANCH  25  26
ATOM     26  C   UNL     1     160.469 177.444 185.080  1.00  0.00    -0.000 C 
BRANCH  26  27
ATOM     27  C   UNL     1     161.796 176.936 184.501  1.00  0.00    -0.000 C 
BRANCH  27  28
ATOM     28  C   UNL     1     161.735 175.425 184.222  1.00  0.00    -0.000 C 
BRANCH  28  29
ATOM     29  C   UNL     1     160.760 174.690 185.155  1.00  0.00    -0.000 C 
BRANCH  29  30
ATOM     30  C   UNL     1     161.407 173.497 185.874  1.00  0.00    -0.000 C 
BRANCH  30  31
ATOM     31  C   UNL     1     161.510 173.758 187.382  1.00  0.00    -0.003 C 
ATOM     32  C   UNL     1     162.951 174.041 187.797  1.00  0.00     0.004 C 
ENDBRANCH  30  31
ENDBRANCH  29  30
ENDBRANCH  28  29
ENDBRANCH  27  28
ENDBRANCH  26  27
ENDBRANCH  25  26
ENDBRANCH  24  25
ENDBRANCH  23  24
ENDBRANCH  22  23
ENDBRANCH  21  22
ENDBRANCH  20  21
ENDBRANCH  19  20
ENDBRANCH  18  19
ENDBRANCH   1  18
TORSDOF 28
ENDMDL
MODEL 3
REMARK VINA RESULT:    -3.841      4.582     11.677
REMARK INTER + INTRA:         -15.430
REMARK INTER:                 -11.890
REMARK INTRA:                  -3.540
REMARK UNBOUND:                -5.303
REMARK SMILES CCCCCCCCCCCCCCCCCCCCCCCCCCCCCC(=O)[O-]
REMARK SMILES IDX 16 1 17 2 18 3 19 4 20 5 21 6 22 7 23 8 24 9 25 10 26 11
REMARK SMILES IDX 27 12 28 13 29 14 30 15 31 16 32 17 15 18 14 19 13 20 12 21
REMARK SMILES IDX 11 22 10 23 9 24 8 25 7 26 6 27 5 28 4 29 3 30 2 31 1 32
REMARK H PARENT
REMARK Flexibility Score: inf
ROOT
ATOM      1  C   UNL     1     165.890 177.810 186.382  1.00  0.00     0.000 C 
ENDROOT
BRANCH   1   2
ATOM      2  C   UNL     1     165.098 176.490 186.388  1.00  0.00     0.000 C 
BRANCH   2   3
ATOM      3  C   UNL     1     164.011 176.442 187.477  1.00  0.00     0.000 C 
BRANCH   3   4
ATOM      4  C   UNL     1     163.141 177.709 187.592  1.00  0.00     0.000 C 
BRANCH   4   5
ATOM      5  C   UNL     1     161.771 177.441 188.234  1.00  0.00     0.000 C 
BRANCH   5   6
ATOM      6  C   UNL     1     160.627 177.866 187.308  1.00  0.00     0.000 C 
BRANCH   6   7
ATOM      7  C   UNL     1     161.154 178.202 185.904  1.00  0.00     0.000 C 
BRANCH   7   8
ATOM      8  C   UNL     1     160.129 177.913 184.797  1.00  0.00     0.000 C 
BRANCH   8   9
ATOM      9  C   UNL     1     160.493 176.680 183.953  1.00  0.00     0.000 C 
BRANCH   9  10
ATOM     10  C   UNL     1     161.937 176.191 184.205  1.00  0.00     0.000 C 
BRANCH  10  11
ATOM     11  C   UNL     1     162.018 174.871 184.994  1.00  0.00     0.000 C 
BRANCH  11  12
ATOM     12  C   UNL     1     160.659 174.310 185.449  1.00  0.00     0.000 C 
BRANCH  12  13
ATOM     13  C   UNL     1     160.553 174.112 186.980  1.00  0.00     0.006 C 
BRANCH  13  14
ATOM     14  C   UNL     1     161.550 173.091 187.547  1.00  0.00     0.053 C 
BRANCH  14  15
ATOM     15  C   UNL     1     160.983 171.702 187.616  1.00  0.00     0.041 C 
ATOM     16  O   UNL     1     160.685 171.091 186.555  1.00  0.00    -0.550 OA
ATOM     17  O   UNL     1     160.719 171.109 188.845  1.00  0.00    -0.550 OA
ENDBRANCH  14  15
ENDBRANCH  13  14
ENDBRANCH  12  13
ENDBRANCH  11  12
ENDBRANCH  10  11
ENDBRANCH   9  10
ENDBRANCH   8   9
ENDBRANCH   7   8
ENDBRANCH   6   7
ENDBRANCH   5   6
ENDBRANCH   4   5
ENDBRANCH   3   4
ENDBRANCH   2   3
ENDBRANCH   1   2
BRANCH   1  18
ATOM     18  C   UNL     1     166.931 177.884 187.510  1.00  0.00     0.000 C 
BRANCH  18  19
ATOM     19  C   UNL     1     167.950 176.729 187.547  1.00  0.00     0.000 C 
BRANCH  19  20
ATOM     20  C   UNL     1     169.333 177.125 188.105  1.00  0.00     0.000 C 
BRANCH  20  21
ATOM     21  C   UNL     1     169.926 178.365 187.415  1.00  0.00     0.000 C 
BRANCH  21  22
ATOM     22  C   UNL     1     171.460 178.434 187.520  1.00  0.00     0.000 C 
BRANCH  22  23
ATOM     23  C   UNL     1     172.027 179.867 187.438  1.00  0.00     0.000 C 
BRANCH  23  24
ATOM     24  C   UNL     1     173.526 179.878 187.088  1.00  0.00    -0.000 C 
BRANCH  24  25
ATOM     25  C   UNL     1     174.426 179.636 188.310  1.00  0.00    -0.000 C 
BRANCH  25  26
ATOM     26  C   UNL     1     175.557 178.636 188.025  1.00  0.00    -0.000 C 
BRANCH  26  27
ATOM     27  C   UNL     1     175.205 177.733 186.836  1.00  0.00    -0.000 C 
BRANCH  27  28
ATOM     28  C   UNL     1     176.420 177.534 185.914  1.00  0.00    -0.000 C 
BRANCH  28  29
ATOM     29  C   UNL     1     176.021 177.359 184.440  1.00  0.00    -0.000 C 
BRANCH  29  30
ATOM     30  C   UNL     1     174.544 177.692 184.178  1.00  0.00    -0.000 C 
BRANCH  30  31
ATOM     31  C   UNL     1     174.409 178.730 183.058  1.00  0.00    -0.003 C 
ATOM     32  C   UNL     1     174.150 180.125 183.624  1.00  0.00     0.004 C 
ENDBRANCH  30  31
ENDBRANCH  29  30
ENDBRANCH  28  29
ENDBRANCH  27  28
ENDBRANCH  26  27
ENDBRANCH  25  26
ENDBRANCH  24  25
ENDBRANCH  23  24
ENDBRANCH  22  23
ENDBRANCH  21  22
ENDBRANCH  20  21
ENDBRANCH  19  20
ENDBRANCH  18  19
ENDBRANCH   1  18
TORSDOF 28
ENDMDL
MODEL 4
REMARK VINA RESULT:    -3.818      1.568      3.771
REMARK INTER + INTRA:         -15.371
REMARK INTER:                 -11.534
REMARK INTRA:                  -3.837
REMARK UNBOUND:                -5.303
REMARK SMILES CCCCCCCCCCCCCCCCCCCCCCCCCCCCCC(=O)[O-]
REMARK SMILES IDX 16 1 17 2 18 3 19 4 20 5 21 6 22 7 23 8 24 9 25 10 26 11
REMARK SMILES IDX 27 12 28 13 29 14 30 15 31 16 32 17 15 18 14 19 13 20 12 21
REMARK SMILES IDX 11 22 10 23 9 24 8 25 7 26 6 27 5 28 4 29 3 30 2 31 1 32
REMARK H PARENT
REMARK Flexibility Score: inf
ROOT
ATOM      1  C   UNL     1     164.970 176.687 184.920  1.00  0.00     0.000 C 
ENDROOT
BRANCH   1   2
ATOM      2  C   UNL     1     166.316 175.948 185.032  1.00  0.00     0.000 C 
BRANCH   2   3
ATOM      3  C   UNL     1     166.286 174.788 186.044  1.00  0.00     0.000 C 
BRANCH   3   4
ATOM      4  C   UNL     1     167.487 174.726 187.008  1.00  0.00     0.000 C 
BRANCH   4   5
ATOM      5  C   UNL     1     168.309 176.023 187.029  1.00  0.00     0.000 C 
BRANCH   5   6
ATOM      6  C   UNL     1     168.078 176.809 188.325  1.00  0.00     0.000 C 
BRANCH   6   7
ATOM      7  C   UNL     1     168.490 178.280 188.154  1.00  0.00     0.000 C 
BRANCH   7   8
ATOM      8  C   UNL     1     169.247 178.538 186.841  1.00  0.00     0.000 C 
BRANCH   8   9
ATOM      9  C   UNL     1     170.363 179.584 186.992  1.00  0.00     0.000 C 
BRANCH   9  10
ATOM     10  C   UNL     1     171.681 178.979 187.524  1.00  0.00     0.000 C 
BRANCH  10  11
ATOM     11  C   UNL     1     172.942 179.739 187.073  1.00  0.00     0.000 C 
BRANCH  11  12
ATOM     12  C   UNL     1     174.141 179.624 188.031  1.00  0.00     0.000 C 
BRANCH  12  13
ATOM     13  C   UNL     1     175.307 178.779 187.464  1.00  0.00     0.006 C 
BRANCH  13  14
ATOM     14  C   UNL     1     174.986 178.091 186.130  1.00  0.00     0.053 C 
BRANCH  14  15
ATOM     15  C   UNL     1     176.218 177.638 185.399  1.00  0.00     0.041 C 
ATOM     16  O   UNL     1     177.138 177.046 186.024  1.00  0.00    -0.550 OA
ATOM     17  O   UNL     1     176.384 177.929 184.050  1.00  0.00    -0.550 OA
ENDBRANCH  14  15
ENDBRANCH  13  14
ENDBRANCH  12  13
ENDBRANCH  11  12
ENDBRANCH  10  11
ENDBRANCH   9  10
ENDBRANCH   8   9
ENDBRANCH   7   8
ENDBRANCH   6   7
ENDBRANCH   5   6
ENDBRANCH   4   5
ENDBRANCH   3   4
ENDBRANCH   2   3
ENDBRANCH   1   2
BRANCH   1  18
ATOM     18  C   UNL     1     164.997 178.074 185.580  1.00  0.00     0.000 C 
BRANCH  18  19
ATOM     19  C   UNL     1     164.600 178.107 187.069  1.00  0.00     0.000 C 
BRANCH  19  20
ATOM     20  C   UNL     1     163.601 177.005 187.480  1.00  0.00     0.000 C 
BRANCH  20  21
ATOM     21  C   UNL     1     162.451 177.533 188.355  1.00  0.00     0.000 C 
BRANCH  21  22
ATOM     22  C   UNL     1     161.064 177.281 187.738  1.00  0.00     0.000 C 
BRANCH  22  23
ATOM     23  C   UNL     1     160.680 178.290 186.635  1.00  0.00     0.000 C 
BRANCH  23  24
ATOM     24  C   UNL     1     160.886 177.711 185.224  1.00  0.00    -0.000 C 
BRANCH  24  25
ATOM     25  C   UNL     1     160.682 176.189 185.165  1.00  0.00    -0.000 C 
BRANCH  25  26
ATOM     26  C   UNL     1     161.649 175.497 184.192  1.00  0.00    -0.000 C 
BRANCH  26  27
ATOM     27  C   UNL     1     162.255 174.237 184.823  1.00  0.00    -0.000 C 
BRANCH  27  28
ATOM     28  C   UNL     1     161.724 174.024 186.251  1.00  0.00    -0.000 C 
BRANCH  28  29
ATOM     29  C   UNL     1     161.054 172.653 186.433  1.00  0.00    -0.000 C 
BRANCH  29  30
ATOM     30  C   UNL     1     160.526 172.431 187.859  1.00  0.00    -0.000 C 
BRANCH  30  31
ATOM     31  C   UNL     1     161.000 171.082 188.414  1.00  0.00    -0.003 C 
ATOM     32  C   UNL     1     162.382 171.201 189.053  1.00  0.00     0.004 C 
ENDBRANCH  30  31
ENDBRANCH  29  30
ENDBRANCH  28  29
ENDBRANCH  27  28
ENDBRANCH  26  27
ENDBRANCH  25  26
ENDBRANCH  24  25
ENDBRANCH  23  24
ENDBRANCH  22  23
ENDBRANCH  21  22
ENDBRANCH  20  21
ENDBRANCH  19  20
ENDBRANCH  18  19
ENDBRANCH   1  18
TORSDOF 28
ENDMDL
MODEL 5
REMARK VINA RESULT:    -3.798      3.530     10.774
REMARK INTER + INTRA:         -15.317
REMARK INTER:                 -11.341
REMARK INTRA:                  -3.976
REMARK UNBOUND:                -5.303
REMARK SMILES CCCCCCCCCCCCCCCCCCCCCCCCCCCCCC(=O)[O-]
REMARK SMILES IDX 16 1 17 2 18 3 19 4 20 5 21 6 22 7 23 8 24 9 25 10 26 11
REMARK SMILES IDX 27 12 28 13 29 14 30 15 31 16 32 17 15 18 14 19 13 20 12 21
REMARK SMILES IDX 11 22 10 23 9 24 8 25 7 26 6 27 5 28 4 29 3 30 2 31 1 32
REMARK H PARENT
REMARK Flexibility Score: inf
ROOT
ATOM      1  C   UNL     1     167.536 176.795 187.314  1.00  0.00     0.000 C 
ENDROOT
BRANCH   1   2
ATOM      2  C   UNL     1     167.292 177.758 186.139  1.00  0.00     0.000 C 
BRANCH   2   3
ATOM      3  C   UNL     1     165.810 177.847 185.729  1.00  0.00     0.000 C 
BRANCH   3   4
ATOM      4  C   UNL     1     164.799 177.486 186.835  1.00  0.00     0.000 C 
BRANCH   4   5
ATOM      5  C   UNL     1     163.443 178.188 186.662  1.00  0.00     0.000 C 
BRANCH   5   6
ATOM      6  C   UNL     1     162.480 177.831 187.799  1.00  0.00     0.000 C 
BRANCH   6   7
ATOM      7  C   UNL     1     161.100 177.442 187.247  1.00  0.00     0.000 C 
BRANCH   7   8
ATOM      8  C   UNL     1     160.594 176.099 187.797  1.00  0.00     0.000 C 
BRANCH   8   9
ATOM      9  C   UNL     1     160.553 174.994 186.729  1.00  0.00     0.000 C 
BRANCH   9  10
ATOM     10  C   UNL     1     161.961 174.509 186.316  1.00  0.00     0.000 C 
BRANCH  10  11
ATOM     11  C   UNL     1     162.319 174.813 184.850  1.00  0.00     0.000 C 
BRANCH  11  12
ATOM     12  C   UNL     1     161.108 175.001 183.919  1.00  0.00     0.000 C 
BRANCH  12  13
ATOM     13  C   UNL     1     161.276 176.164 182.912  1.00  0.00     0.006 C 
BRANCH  13  14
ATOM     14  C   UNL     1     161.972 177.401 183.499  1.00  0.00     0.053 C 
BRANCH  14  15
ATOM     15  C   UNL     1     163.161 177.836 182.692  1.00  0.00     0.041 C 
ATOM     16  O   UNL     1     164.216 177.146 182.705  1.00  0.00    -0.550 OA
ATOM     17  O   UNL     1     163.134 179.032 181.986  1.00  0.00    -0.550 OA
ENDBRANCH  14  15
ENDBRANCH  13  14
ENDBRANCH  12  13
ENDBRANCH  11  12
ENDBRANCH  10  11
ENDBRANCH   9  10
ENDBRANCH   8   9
ENDBRANCH   7   8
ENDBRANCH   6   7
ENDBRANCH   5   6
ENDBRANCH   4   5
ENDBRANCH   3   4
ENDBRANCH   2   3
ENDBRANCH   1   2
BRANCH   1  18
ATOM     18  C   UNL     1     168.552 177.343 188.329  1.00  0.00     0.000 C 
BRANCH  18  19
ATOM     19  C   UNL     1     169.192 178.696 187.962  1.00  0.00     0.000 C 
BRANCH  19  20
ATOM     20  C   UNL     1     170.667 178.597 187.522  1.00  0.00     0.000 C 
BRANCH  20  21
ATOM     21  C   UNL     1     171.388 179.956 187.530  1.00  0.00     0.000 C 
BRANCH  21  22
ATOM     22  C   UNL     1     172.905 179.831 187.303  1.00  0.00     0.000 C 
BRANCH  22  23
ATOM     23  C   UNL     1     173.519 178.542 187.890  1.00  0.00     0.000 C 
BRANCH  23  24
ATOM     24  C   UNL     1     175.047 178.646 188.040  1.00  0.00    -0.000 C 
BRANCH  24  25
ATOM     25  C   UNL     1     175.759 178.951 186.713  1.00  0.00    -0.000 C 
BRANCH  25  26
ATOM     26  C   UNL     1     175.967 177.697 185.849  1.00  0.00    -0.000 C 
BRANCH  26  27
ATOM     27  C   UNL     1     175.750 178.011 184.363  1.00  0.00    -0.000 C 
BRANCH  27  28
ATOM     28  C   UNL     1     174.595 179.008 184.172  1.00  0.00    -0.000 C 
BRANCH  28  29
ATOM     29  C   UNL     1     173.233 178.313 184.018  1.00  0.00    -0.000 C 
BRANCH  29  30
ATOM     30  C   UNL     1     172.125 179.268 183.549  1.00  0.00    -0.000 C 
BRANCH  30  31
ATOM     31  C   UNL     1     170.740 178.645 183.763  1.00  0.00    -0.003 C 
ATOM     32  C   UNL     1     169.708 179.706 184.141  1.00  0.00     0.004 C 
ENDBRANCH  30  31
ENDBRANCH  29  30
ENDBRANCH  28  29
ENDBRANCH  27  28
ENDBRANCH  26  27
ENDBRANCH  25  26
ENDBRANCH  24  25
ENDBRANCH  23  24
ENDBRANCH  22  23
ENDBRANCH  21  22
ENDBRANCH  20  21
ENDBRANCH  19  20
ENDBRANCH  18  19
ENDBRANCH   1  18
TORSDOF 28
ENDMDL
MODEL 6
REMARK VINA RESULT:    -3.791      4.481      8.800
REMARK INTER + INTRA:         -15.300
REMARK INTER:                 -10.072
REMARK INTRA:                  -5.228
REMARK UNBOUND:                -5.303
REMARK SMILES CCCCCCCCCCCCCCCCCCCCCCCCCCCCCC(=O)[O-]
REMARK SMILES IDX 16 1 17 2 18 3 19 4 20 5 21 6 22 7 23 8 24 9 25 10 26 11
REMARK SMILES IDX 27 12 28 13 29 14 30 15 31 16 32 17 15 18 14 19 13 20 12 21
REMARK SMILES IDX 11 22 10 23 9 24 8 25 7 26 6 27 5 28 4 29 3 30 2 31 1 32
REMARK H PARENT
REMARK Flexibility Score: inf
ROOT
ATOM      1  C   UNL     1     161.915 174.382 183.634  1.00  0.00     0.000 C 
ENDROOT
BRANCH   1   2
ATOM      2  C   UNL     1     161.639 174.093 182.148  1.00  0.00     0.000 C 
BRANCH   2   3
ATOM      3  C   UNL     1     160.330 174.726 181.642  1.00  0.00     0.000 C 
BRANCH   3   4
ATOM      4  C   UNL     1     160.040 174.526 180.142  1.00  0.00     0.000 C 
BRANCH   4   5
ATOM      5  C   UNL     1     160.052 175.841 179.347  1.00  0.00     0.000 C 
BRANCH   5   6
ATOM      6  C   UNL     1     161.464 176.431 179.264  1.00  0.00     0.000 C 
BRANCH   6   7
ATOM      7  C   UNL     1     161.445 177.941 179.551  1.00  0.00     0.000 C 
BRANCH   7   8
ATOM      8  C   UNL     1     161.672 178.268 181.035  1.00  0.00     0.000 C 
BRANCH   8   9
ATOM      9  C   UNL     1     162.838 177.476 181.649  1.00  0.00     0.000 C 
BRANCH   9  10
ATOM     10  C   UNL     1     163.545 178.242 182.790  1.00  0.00     0.000 C 
BRANCH  10  11
ATOM     11  C   UNL     1     164.116 177.329 183.891  1.00  0.00     0.000 C 
BRANCH  11  12
ATOM     12  C   UNL     1     165.385 176.555 183.492  1.00  0.00     0.000 C 
BRANCH  12  13
ATOM     13  C   UNL     1     166.477 176.548 184.588  1.00  0.00     0.006 C 
BRANCH  13  14
ATOM     14  C   UNL     1     166.446 177.779 185.505  1.00  0.00     0.053 C 
BRANCH  14  15
ATOM     15  C   UNL     1     167.544 177.767 186.530  1.00  0.00     0.041 C 
ATOM     16  O   UNL     1     168.739 177.599 186.169  1.00  0.00    -0.550 OA
ATOM     17  O   UNL     1     167.245 177.868 187.884  1.00  0.00    -0.550 OA
ENDBRANCH  14  15
ENDBRANCH  13  14
ENDBRANCH  12  13
ENDBRANCH  11  12
ENDBRANCH  10  11
ENDBRANCH   9  10
ENDBRANCH   8   9
ENDBRANCH   7   8
ENDBRANCH   6   7
ENDBRANCH   5   6
ENDBRANCH   4   5
ENDBRANCH   3   4
ENDBRANCH   2   3
ENDBRANCH   1   2
BRANCH   1  18
ATOM     18  C   UNL     1     160.628 174.498 184.466  1.00  0.00     0.000 C 
BRANCH  18  19
ATOM     19  C   UNL     1     160.627 175.610 185.533  1.00  0.00     0.000 C 
BRANCH  19  20
ATOM     20  C   UNL     1     160.625 177.040 184.953  1.00  0.00     0.000 C 
BRANCH  20  21
ATOM     21  C   UNL     1     160.785 178.125 186.031  1.00  0.00     0.000 C 
BRANCH  21  22
ATOM     22  C   UNL     1     160.815 177.553 187.459  1.00  0.00     0.000 C 
BRANCH  22  23
ATOM     23  C   UNL     1     162.142 177.806 188.205  1.00  0.00     0.000 C 
BRANCH  23  24
ATOM     24  C   UNL     1     163.333 177.112 187.520  1.00  0.00    -0.000 C 
BRANCH  24  25
ATOM     25  C   UNL     1     163.411 175.610 187.833  1.00  0.00    -0.000 C 
BRANCH  25  26
ATOM     26  C   UNL     1     163.941 174.784 186.651  1.00  0.00    -0.000 C 
BRANCH  26  27
ATOM     27  C   UNL     1     164.263 173.348 187.085  1.00  0.00    -0.000 C 
BRANCH  27  28
ATOM     28  C   UNL     1     164.107 172.368 185.911  1.00  0.00    -0.000 C 
BRANCH  28  29
ATOM     29  C   UNL     1     163.184 171.185 186.247  1.00  0.00    -0.000 C 
BRANCH  29  30
ATOM     30  C   UNL     1     161.704 171.589 186.333  1.00  0.00    -0.000 C 
BRANCH  30  31
ATOM     31  C   UNL     1     160.927 170.627 187.240  1.00  0.00    -0.003 C 
ATOM     32  C   UNL     1     160.963 171.086 188.695  1.00  0.00     0.004 C 
ENDBRANCH  30  31
ENDBRANCH  29  30
ENDBRANCH  28  29
ENDBRANCH  27  28
ENDBRANCH  26  27
ENDBRANCH  25  26
ENDBRANCH  24  25
ENDBRANCH  23  24
ENDBRANCH  22  23
ENDBRANCH  21  22
ENDBRANCH  20  21
ENDBRANCH  19  20
ENDBRANCH  18  19
ENDBRANCH   1  18
TORSDOF 28
ENDMDL
MODEL 7
REMARK VINA RESULT:    -3.787      7.755     11.596
REMARK INTER + INTRA:         -15.288
REMARK INTER:                 -10.742
REMARK INTRA:                  -4.546
REMARK UNBOUND:                -5.303
REMARK SMILES CCCCCCCCCCCCCCCCCCCCCCCCCCCCCC(=O)[O-]
REMARK SMILES IDX 16 1 17 2 18 3 19 4 20 5 21 6 22 7 23 8 24 9 25 10 26 11
REMARK SMILES IDX 27 12 28 13 29 14 30 15 31 16 32 17 15 18 14 19 13 20 12 21
REMARK SMILES IDX 11 22 10 23 9 24 8 25 7 26 6 27 5 28 4 29 3 30 2 31 1 32
REMARK H PARENT
REMARK Flexibility Score: inf
ROOT
ATOM      1  C   UNL     1     164.294 175.702 185.094  1.00  0.00     0.000 C 
ENDROOT
BRANCH   1   2
ATOM      2  C   UNL     1     163.593 174.444 185.635  1.00  0.00     0.000 C 
BRANCH   2   3
ATOM      3  C   UNL     1     164.020 174.084 187.069  1.00  0.00     0.000 C 
BRANCH   3   4
ATOM      4  C   UNL     1     162.884 173.599 187.991  1.00  0.00     0.000 C 
BRANCH   4   5
ATOM      5  C   UNL     1     161.485 173.899 187.431  1.00  0.00     0.000 C 
BRANCH   5   6
ATOM      6  C   UNL     1     160.526 172.727 187.666  1.00  0.00     0.000 C 
BRANCH   6   7
ATOM      7  C   UNL     1     161.276 171.510 188.228  1.00  0.00     0.000 C 
BRANCH   7   8
ATOM      8  C   UNL     1     160.531 170.187 187.985  1.00  0.00     0.000 C 
BRANCH   8   9
ATOM      9  C   UNL     1     161.265 169.261 187.001  1.00  0.00     0.000 C 
BRANCH   9  10
ATOM     10  C   UNL     1     160.298 168.420 186.137  1.00  0.00     0.000 C 
BRANCH  10  11
ATOM     11  C   UNL     1     160.793 166.988 185.865  1.00  0.00     0.000 C 
BRANCH  11  12
ATOM     12  C   UNL     1     160.940 166.109 187.120  1.00  0.00     0.000 C 
BRANCH  12  13
ATOM     13  C   UNL     1     161.719 164.796 186.868  1.00  0.00     0.006 C 
BRANCH  13  14
ATOM     14  C   UNL     1     161.141 163.578 187.604  1.00  0.00     0.053 C 
BRANCH  14  15
ATOM     15  C   UNL     1     161.716 162.279 187.117  1.00  0.00     0.041 C 
ATOM     16  O   UNL     1     162.105 162.171 185.923  1.00  0.00    -0.550 OA
ATOM     17  O   UNL     1     161.757 161.170 187.953  1.00  0.00    -0.550 OA
ENDBRANCH  14  15
ENDBRANCH  13  14
ENDBRANCH  12  13
ENDBRANCH  11  12
ENDBRANCH  10  11
ENDBRANCH   9  10
ENDBRANCH   8   9
ENDBRANCH   7   8
ENDBRANCH   6   7
ENDBRANCH   5   6
ENDBRANCH   4   5
ENDBRANCH   3   4
ENDBRANCH   2   3
ENDBRANCH   1   2
BRANCH   1  18
ATOM     18  C   UNL     1     164.809 176.623 186.212  1.00  0.00     0.000 C 
BRANCH  18  19
ATOM     19  C   UNL     1     164.624 178.132 185.964  1.00  0.00     0.000 C 
BRANCH  19  20
ATOM     20  C   UNL     1     163.651 178.818 186.946  1.00  0.00     0.000 C 
BRANCH  20  21
ATOM     21  C   UNL     1     163.058 177.846 187.981  1.00  0.00     0.000 C 
BRANCH  21  22
ATOM     22  C   UNL     1     161.550 177.613 187.789  1.00  0.00     0.000 C 
BRANCH  22  23
ATOM     23  C   UNL     1     161.013 178.095 186.424  1.00  0.00     0.000 C 
BRANCH  23  24
ATOM     24  C   UNL     1     160.596 176.923 185.519  1.00  0.00    -0.000 C 
BRANCH  24  25
ATOM     25  C   UNL     1     160.282 177.360 184.080  1.00  0.00    -0.000 C 
BRANCH  25  26
ATOM     26  C   UNL     1     161.513 177.312 183.163  1.00  0.00    -0.000 C 
BRANCH  26  27
ATOM     27  C   UNL     1     161.279 176.367 181.977  1.00  0.00    -0.000 C 
BRANCH  27  28
ATOM     28  C   UNL     1     160.050 175.474 182.217  1.00  0.00    -0.000 C 
BRANCH  28  29
ATOM     29  C   UNL     1     160.417 173.990 182.370  1.00  0.00    -0.000 C 
BRANCH  29  30
ATOM     30  C   UNL     1     160.817 173.619 183.807  1.00  0.00    -0.000 C 
BRANCH  30  31
ATOM     31  C   UNL     1     160.672 172.111 184.042  1.00  0.00    -0.003 C 
ATOM     32  C   UNL     1     161.954 171.514 184.619  1.00  0.00     0.004 C 
ENDBRANCH  30  31
ENDBRANCH  29  30
ENDBRANCH  28  29
ENDBRANCH  27  28
ENDBRANCH  26  27
ENDBRANCH  25  26
ENDBRANCH  24  25
ENDBRANCH  23  24
ENDBRANCH  22  23
ENDBRANCH  21  22
ENDBRANCH  20  21
ENDBRANCH  19  20
ENDBRANCH  18  19
ENDBRANCH   1  18
TORSDOF 28
ENDMDL
MODEL 8
REMARK VINA RESULT:    -3.773      7.181      9.993
REMARK INTER + INTRA:         -15.253
REMARK INTER:                  -9.292
REMARK INTRA:                  -5.961
REMARK UNBOUND:                -5.303
REMARK SMILES CCCCCCCCCCCCCCCCCCCCCCCCCCCCCC(=O)[O-]
REMARK SMILES IDX 16 1 17 2 18 3 19 4 20 5 21 6 22 7 23 8 24 9 25 10 26 11
REMARK SMILES IDX 27 12 28 13 29 14 30 15 31 16 32 17 15 18 14 19 13 20 12 21
REMARK SMILES IDX 11 22 10 23 9 24 8 25 7 26 6 27 5 28 4 29 3 30 2 31 1 32
REMARK H PARENT
REMARK Flexibility Score: inf
ROOT
ATOM      1  C   UNL     1     165.188 176.079 184.297  1.00  0.00     0.000 C 
ENDROOT
BRANCH   1   2
ATOM      2  C   UNL     1     164.653 177.474 183.927  1.00  0.00     0.000 C 
BRANCH   2   3
ATOM      3  C   UNL     1     164.024 178.216 185.120  1.00  0.00     0.000 C 
BRANCH   3   4
ATOM      4  C   UNL     1     164.099 177.474 186.469  1.00  0.00     0.000 C 
BRANCH   4   5
ATOM      5  C   UNL     1     163.210 178.105 187.552  1.00  0.00     0.000 C 
BRANCH   5   6
ATOM      6  C   UNL     1     162.317 177.055 188.223  1.00  0.00     0.000 C 
BRANCH   6   7
ATOM      7  C   UNL     1     160.942 176.989 187.540  1.00  0.00     0.000 C 
BRANCH   7   8
ATOM      8  C   UNL     1     160.527 178.327 186.906  1.00  0.00     0.000 C 
BRANCH   8   9
ATOM      9  C   UNL     1     160.251 178.212 185.398  1.00  0.00     0.000 C 
BRANCH   9  10
ATOM     10  C   UNL     1     160.619 176.823 184.828  1.00  0.00     0.000 C 
BRANCH  10  11
ATOM     11  C   UNL     1     160.428 176.706 183.305  1.00  0.00     0.000 C 
BRANCH  11  12
ATOM     12  C   UNL     1     161.445 177.500 182.466  1.00  0.00     0.000 C 
BRANCH  12  13
ATOM     13  C   UNL     1     161.452 177.110 180.969  1.00  0.00     0.006 C 
BRANCH  13  14
ATOM     14  C   UNL     1     162.192 175.799 180.671  1.00  0.00     0.053 C 
BRANCH  14  15
ATOM     15  C   UNL     1     161.261 174.673 180.320  1.00  0.00     0.041 C 
ATOM     16  O   UNL     1     160.752 174.614 179.169  1.00  0.00    -0.550 OA
ATOM     17  O   UNL     1     160.900 173.733 181.278  1.00  0.00    -0.550 OA
ENDBRANCH  14  15
ENDBRANCH  13  14
ENDBRANCH  12  13
ENDBRANCH  11  12
ENDBRANCH  10  11
ENDBRANCH   9  10
ENDBRANCH   8   9
ENDBRANCH   7   8
ENDBRANCH   6   7
ENDBRANCH   5   6
ENDBRANCH   4   5
ENDBRANCH   3   4
ENDBRANCH   2   3
ENDBRANCH   1   2
BRANCH   1  18
ATOM     18  C   UNL     1     164.602 174.965 183.414  1.00  0.00     0.000 C 
BRANCH  18  19
ATOM     19  C   UNL     1     163.256 174.384 183.888  1.00  0.00     0.000 C 
BRANCH  19  20
ATOM     20  C   UNL     1     163.216 174.028 185.389  1.00  0.00     0.000 C 
BRANCH  20  21
ATOM     21  C   UNL     1     161.797 173.717 185.895  1.00  0.00     0.000 C 
BRANCH  21  22
ATOM     22  C   UNL     1     161.756 173.376 187.394  1.00  0.00     0.000 C 
BRANCH  22  23
ATOM     23  C   UNL     1     160.432 172.725 187.850  1.00  0.00     0.000 C 
BRANCH  23  24
ATOM     24  C   UNL     1     160.654 171.330 188.460  1.00  0.00    -0.000 C 
BRANCH  24  25
ATOM     25  C   UNL     1     162.068 170.784 188.207  1.00  0.00    -0.000 C 
BRANCH  25  26
ATOM     26  C   UNL     1     162.062 169.453 187.439  1.00  0.00    -0.000 C 
BRANCH  26  27
ATOM     27  C   UNL     1     160.667 169.149 186.878  1.00  0.00    -0.000 C 
BRANCH  27  28
ATOM     28  C   UNL     1     160.697 169.054 185.343  1.00  0.00    -0.000 C 
BRANCH  28  29
ATOM     29  C   UNL     1     161.111 170.376 184.677  1.00  0.00    -0.000 C 
BRANCH  29  30
ATOM     30  C   UNL     1     161.804 170.170 183.321  1.00  0.00    -0.000 C 
BRANCH  30  31
ATOM     31  C   UNL     1     163.175 170.855 183.298  1.00  0.00    -0.003 C 
ATOM     32  C   UNL     1     164.008 170.469 184.517  1.00  0.00     0.004 C 
ENDBRANCH  30  31
ENDBRANCH  29  30
ENDBRANCH  28  29
ENDBRANCH  27  28
ENDBRANCH  26  27
ENDBRANCH  25  26
ENDBRANCH  24  25
ENDBRANCH  23  24
ENDBRANCH  22  23
ENDBRANCH  21  22
ENDBRANCH  20  21
ENDBRANCH  19  20
ENDBRANCH  18  19
ENDBRANCH   1  18
TORSDOF 28
ENDMDL
MODEL 9
REMARK VINA RESULT:    -3.754      2.092      4.377
REMARK INTER + INTRA:         -15.201
REMARK INTER:                 -11.009
REMARK INTRA:                  -4.192
REMARK UNBOUND:                -5.303
REMARK SMILES CCCCCCCCCCCCCCCCCCCCCCCCCCCCCC(=O)[O-]
REMARK SMILES IDX 16 1 17 2 18 3 19 4 20 5 21 6 22 7 23 8 24 9 25 10 26 11
REMARK SMILES IDX 27 12 28 13 29 14 30 15 31 16 32 17 15 18 14 19 13 20 12 21
REMARK SMILES IDX 11 22 10 23 9 24 8 25 7 26 6 27 5 28 4 29 3 30 2 31 1 32
REMARK H PARENT
REMARK Flexibility Score: inf
ROOT
ATOM      1  C   UNL     1     164.811 178.251 186.256  1.00  0.00     0.000 C 
ENDROOT
BRANCH   1   2
ATOM      2  C   UNL     1     165.624 177.079 186.833  1.00  0.00     0.000 C 
BRANCH   2   3
ATOM      3  C   UNL     1     166.614 176.475 185.821  1.00  0.00     0.000 C 
BRANCH   3   4
ATOM      4  C   UNL     1     167.453 175.293 186.347  1.00  0.00     0.000 C 
BRANCH   4   5
ATOM      5  C   UNL     1     167.723 175.373 187.857  1.00  0.00     0.000 C 
BRANCH   5   6
ATOM      6  C   UNL     1     168.970 176.213 188.157  1.00  0.00     0.000 C 
BRANCH   6   7
ATOM      7  C   UNL     1     168.585 177.546 188.817  1.00  0.00     0.000 C 
BRANCH   7   8
ATOM      8  C   UNL     1     169.169 178.764 188.083  1.00  0.00     0.000 C 
BRANCH   8   9
ATOM      9  C   UNL     1     169.561 178.453 186.629  1.00  0.00     0.000 C 
BRANCH   9  10
ATOM     10  C   UNL     1     170.984 178.941 186.277  1.00  0.00     0.000 C 
BRANCH  10  11
ATOM     11  C   UNL     1     171.664 179.741 187.402  1.00  0.00     0.000 C 
BRANCH  11  12
ATOM     12  C   UNL     1     173.202 179.715 187.373  1.00  0.00     0.000 C 
BRANCH  12  13
ATOM     13  C   UNL     1     173.813 178.465 188.051  1.00  0.00     0.006 C 
BRANCH  13  14
ATOM     14  C   UNL     1     174.370 177.430 187.062  1.00  0.00     0.053 C 
BRANCH  14  15
ATOM     15  C   UNL     1     173.551 176.171 187.017  1.00  0.00     0.041 C 
ATOM     16  O   UNL     1     172.600 176.011 187.827  1.00  0.00    -0.550 OA
ATOM     17  O   UNL     1     173.879 175.149 186.135  1.00  0.00    -0.550 OA
ENDBRANCH  14  15
ENDBRANCH  13  14
ENDBRANCH  12  13
ENDBRANCH  11  12
ENDBRANCH  10  11
ENDBRANCH   9  10
ENDBRANCH   8   9
ENDBRANCH   7   8
ENDBRANCH   6   7
ENDBRANCH   5   6
ENDBRANCH   4   5
ENDBRANCH   3   4
ENDBRANCH   2   3
ENDBRANCH   1   2
BRANCH   1  18
ATOM     18  C   UNL     1     163.614 178.636 187.140  1.00  0.00     0.000 C 
BRANCH  18  19
ATOM     19  C   UNL     1     162.910 177.463 187.849  1.00  0.00     0.000 C 
BRANCH  19  20
ATOM     20  C   UNL     1     161.370 177.514 187.776  1.00  0.00     0.000 C 
BRANCH  20  21
ATOM     21  C   UNL     1     160.851 178.179 186.489  1.00  0.00     0.000 C 
BRANCH  21  22
ATOM     22  C   UNL     1     160.619 177.175 185.347  1.00  0.00     0.000 C 
BRANCH  22  23
ATOM     23  C   UNL     1     161.820 177.031 184.388  1.00  0.00     0.000 C 
BRANCH  23  24
ATOM     24  C   UNL     1     162.145 175.558 184.084  1.00  0.00    -0.000 C 
BRANCH  24  25
ATOM     25  C   UNL     1     163.291 175.008 184.948  1.00  0.00    -0.000 C 
BRANCH  25  26
ATOM     26  C   UNL     1     162.790 174.275 186.201  1.00  0.00    -0.000 C 
BRANCH  26  27
ATOM     27  C   UNL     1     161.422 173.628 185.950  1.00  0.00    -0.000 C 
BRANCH  27  28
ATOM     28  C   UNL     1     160.756 173.211 187.272  1.00  0.00    -0.000 C 
BRANCH  28  29
ATOM     29  C   UNL     1     160.594 171.688 187.398  1.00  0.00    -0.000 C 
BRANCH  29  30
ATOM     30  C   UNL     1     161.156 171.135 188.716  1.00  0.00    -0.000 C 
BRANCH  30  31
ATOM     31  C   UNL     1     162.690 171.149 188.706  1.00  0.00    -0.003 C 
ATOM     32  C   UNL     1     163.253 171.128 190.125  1.00  0.00     0.004 C 
ENDBRANCH  30  31
ENDBRANCH  29  30
ENDBRANCH  28  29
ENDBRANCH  27  28
ENDBRANCH  26  27
ENDBRANCH  25  26
ENDBRANCH  24  25
ENDBRANCH  23  24
ENDBRANCH  22  23
ENDBRANCH  21  22
ENDBRANCH  20  21
ENDBRANCH  19  20
ENDBRANCH  18  19
ENDBRANCH   1  18
TORSDOF 28
ENDMDL
