MODEL 1
REMARK VINA RESULT:    -6.998      0.000      0.000
REMARK INTER + INTRA:          -8.708
REMARK INTER:                  -8.429
REMARK INTRA:                  -0.278
REMARK UNBOUND:                -0.278
REMARK SMILES O=c1c(O)c(-c2ccc(O)c(O)c2)oc2cc(O)cc(O)c12
REMARK SMILES IDX 5 1 3 2 2 3 1 4 22 5 20 6 19 7 17 8 16 9 15 10 14 11 6 12
REMARK SMILES IDX 7 13 8 14 9 15 13 16 11 17 10 18 12 20 4 22 21 24 18 26
REMARK H PARENT 10 19 12 21 4 23 21 25 18 27
REMARK Flexibility Score: inf
ROOT
ATOM      1  C   UNL     1      16.122 -21.035  12.786  1.00  0.00     0.180 A 
ATOM      2  C   UNL     1      17.381 -21.100  12.160  1.00  0.00     0.208 A 
ATOM      3  C   UNL     1      18.513 -21.385  12.941  1.00  0.00     0.238 A 
ATOM      4  O   UNL     1      19.645 -21.457  12.389  1.00  0.00    -0.285 OA
ATOM      5  C   UNL     1      18.370 -21.580  14.330  1.00  0.00     0.111 A 
ATOM      6  C   UNL     1      19.459 -21.867  15.188  1.00  0.00     0.134 A 
ATOM      7  C   UNL     1      19.236 -22.038  16.562  1.00  0.00     0.093 A 
ATOM      8  C   UNL     1      17.945 -21.927  17.094  1.00  0.00     0.123 A 
ATOM      9  C   UNL     1      16.869 -21.645  16.252  1.00  0.00     0.094 A 
ATOM     10  C   UNL     1      17.071 -21.472  14.879  1.00  0.00     0.146 A 
ATOM     11  O   UNL     1      16.027 -21.210  14.100  1.00  0.00    -0.452 OA
ENDROOT
BRANCH   1  12
ATOM     12  C   UNL     1      14.880 -20.759  12.027  1.00  0.00     0.025 A 
ATOM     13  C   UNL     1      14.284 -21.739  11.216  1.00  0.00     0.016 A 
ATOM     14  C   UNL     1      13.099 -21.462  10.529  1.00  0.00     0.051 A 
ATOM     15  C   UNL     1      12.487 -20.208  10.652  1.00  0.00     0.157 A 
ATOM     16  C   UNL     1      14.252 -19.510  12.164  1.00  0.00     0.062 A 
ATOM     17  C   UNL     1      13.065 -19.229  11.476  1.00  0.00     0.158 A 
BRANCH  15  18
ATOM     18  O   UNL     1      11.306 -19.935   9.963  1.00  0.00    -0.504 OA
ATOM     19  H   UNL     1      10.695 -19.173  10.236  1.00  0.00     0.293 HD
ENDBRANCH  15  18
BRANCH  17  20
ATOM     20  O   UNL     1      12.477 -17.973  11.626  1.00  0.00    -0.504 OA
ATOM     21  H   UNL     1      11.643 -17.833  12.183  1.00  0.00     0.293 HD
ENDBRANCH  17  20
ENDBRANCH   1  12
BRANCH   2  22
ATOM     22  O   UNL     1      17.503 -20.855  10.789  1.00  0.00    -0.502 OA
ATOM     23  H   UNL     1      17.615 -19.921  10.413  1.00  0.00     0.293 HD
ENDBRANCH   2  22
BRANCH   6  24
ATOM     24  O   UNL     1      20.756 -21.982  14.688  1.00  0.00    -0.507 OA
ATOM     25  H   UNL     1      20.987 -21.715  13.738  1.00  0.00     0.293 HD
ENDBRANCH   6  24
BRANCH   8  26
ATOM     26  O   UNL     1      17.723 -22.096  18.458  1.00  0.00    -0.508 OA
ATOM     27  H   UNL     1      17.030 -22.750  18.805  1.00  0.00     0.293 HD
ENDBRANCH   8  26
TORSDOF 6
ENDMDL
MODEL 2
REMARK VINA RESULT:    -5.977      2.966      8.183
REMARK INTER + INTRA:          -7.478
REMARK INTER:                  -7.900
REMARK INTRA:                   0.422
REMARK UNBOUND:                -0.278
REMARK SMILES O=c1c(O)c(-c2ccc(O)c(O)c2)oc2cc(O)cc(O)c12
REMARK SMILES IDX 5 1 3 2 2 3 1 4 22 5 20 6 19 7 17 8 16 9 15 10 14 11 6 12
REMARK SMILES IDX 7 13 8 14 9 15 13 16 11 17 10 18 12 20 4 22 21 24 18 26
REMARK H PARENT 10 19 12 21 4 23 21 25 18 27
REMARK Flexibility Score: inf
ROOT
ATOM      1  C   UNL     1      19.956 -21.458  17.094  1.00  0.00     0.180 A 
ATOM      2  C   UNL     1      20.924 -21.177  16.112  1.00  0.00     0.208 A 
ATOM      3  C   UNL     1      20.528 -21.115  14.767  1.00  0.00     0.238 A 
ATOM      4  O   UNL     1      21.385 -20.853  13.879  1.00  0.00    -0.285 OA
ATOM      5  C   UNL     1      19.181 -21.353  14.425  1.00  0.00     0.111 A 
ATOM      6  C   UNL     1      18.701 -21.313  13.094  1.00  0.00     0.134 A 
ATOM      7  C   UNL     1      17.347 -21.571  12.834  1.00  0.00     0.093 A 
ATOM      8  C   UNL     1      16.465 -21.869  13.880  1.00  0.00     0.123 A 
ATOM      9  C   UNL     1      16.934 -21.908  15.194  1.00  0.00     0.094 A 
ATOM     10  C   UNL     1      18.280 -21.652  15.473  1.00  0.00     0.146 A 
ATOM     11  O   UNL     1      18.697 -21.691  16.733  1.00  0.00    -0.452 OA
ENDROOT
BRANCH   1  12
ATOM     12  C   UNL     1      20.292 -21.521  18.535  1.00  0.00     0.025 A 
ATOM     13  C   UNL     1      19.303 -21.390  19.525  1.00  0.00     0.016 A 
ATOM     14  C   UNL     1      19.642 -21.478  20.878  1.00  0.00     0.051 A 
ATOM     15  C   UNL     1      20.969 -21.709  21.261  1.00  0.00     0.157 A 
ATOM     16  C   UNL     1      21.618 -21.774  18.923  1.00  0.00     0.062 A 
ATOM     17  C   UNL     1      21.961 -21.861  20.278  1.00  0.00     0.158 A 
BRANCH  15  18
ATOM     18  O   UNL     1      21.304 -21.794  22.612  1.00  0.00    -0.504 OA
ATOM     19  H   UNL     1      22.051 -21.236  23.010  1.00  0.00     0.293 HD
ENDBRANCH  15  18
BRANCH  17  20
ATOM     20  O   UNL     1      23.291 -22.099  20.626  1.00  0.00    -0.504 OA
ATOM     21  H   UNL     1      23.763 -22.961  20.382  1.00  0.00     0.293 HD
ENDBRANCH  17  20
ENDBRANCH   1  12
BRANCH   2  22
ATOM     22  O   UNL     1      22.263 -20.993  16.471  1.00  0.00    -0.502 OA
ATOM     23  H   UNL     1      22.724 -21.572  17.162  1.00  0.00     0.293 HD
ENDBRANCH   2  22
BRANCH   6  24
ATOM     24  O   UNL     1      19.556 -21.021  12.030  1.00  0.00    -0.507 OA
ATOM     25  H   UNL     1      19.489 -20.151  11.515  1.00  0.00     0.293 HD
ENDBRANCH   6  24
BRANCH   8  26
ATOM     26  O   UNL     1      15.120 -22.125  13.624  1.00  0.00    -0.508 OA
ATOM     27  H   UNL     1      14.784 -23.065  13.448  1.00  0.00     0.293 HD
ENDBRANCH   8  26
TORSDOF 6
ENDMDL
MODEL 3
REMARK VINA RESULT:    -5.903     11.257     14.257
REMARK INTER + INTRA:          -7.389
REMARK INTER:                  -7.430
REMARK INTRA:                   0.041
REMARK UNBOUND:                -0.278
REMARK SMILES O=c1c(O)c(-c2ccc(O)c(O)c2)oc2cc(O)cc(O)c12
REMARK SMILES IDX 5 1 3 2 2 3 1 4 22 5 20 6 19 7 17 8 16 9 15 10 14 11 6 12
REMARK SMILES IDX 7 13 8 14 9 15 13 16 11 17 10 18 12 20 4 22 21 24 18 26
REMARK H PARENT 10 19 12 21 4 23 21 25 18 27
REMARK Flexibility Score: inf
ROOT
ATOM      1  C   UNL     1      12.257  -8.590  10.824  1.00  0.00     0.180 A 
ATOM      2  C   UNL     1      12.091  -7.963   9.574  1.00  0.00     0.208 A 
ATOM      3  C   UNL     1      12.902  -6.862   9.255  1.00  0.00     0.238 A 
ATOM      4  O   UNL     1      12.770  -6.300   8.133  1.00  0.00    -0.285 OA
ATOM      5  C   UNL     1      13.845  -6.396  10.193  1.00  0.00     0.111 A 
ATOM      6  C   UNL     1      14.697  -5.291   9.951  1.00  0.00     0.134 A 
ATOM      7  C   UNL     1      15.603  -4.881  10.940  1.00  0.00     0.093 A 
ATOM      8  C   UNL     1      15.673  -5.555  12.165  1.00  0.00     0.123 A 
ATOM      9  C   UNL     1      14.836  -6.645  12.407  1.00  0.00     0.094 A 
ATOM     10  C   UNL     1      13.927  -7.069  11.434  1.00  0.00     0.146 A 
ATOM     11  O   UNL     1      13.147  -8.113  11.689  1.00  0.00    -0.452 OA
ENDROOT
BRANCH   1  12
ATOM     12  C   UNL     1      11.454  -9.768  11.226  1.00  0.00     0.025 A 
ATOM     13  C   UNL     1      12.057 -10.914  11.772  1.00  0.00     0.016 A 
ATOM     14  C   UNL     1      11.275 -12.003  12.166  1.00  0.00     0.051 A 
ATOM     15  C   UNL     1       9.882 -11.959  12.032  1.00  0.00     0.157 A 
ATOM     16  C   UNL     1      10.055  -9.720  11.113  1.00  0.00     0.062 A 
ATOM     17  C   UNL     1       9.269 -10.810  11.506  1.00  0.00     0.158 A 
BRANCH  15  18
ATOM     18  O   UNL     1       9.105 -13.049  12.424  1.00  0.00    -0.504 OA
ATOM     19  H   UNL     1       8.550 -13.573  11.758  1.00  0.00     0.293 HD
ENDBRANCH  15  18
BRANCH  17  20
ATOM     20  O   UNL     1       7.883 -10.731  11.366  1.00  0.00    -0.504 OA
ATOM     21  H   UNL     1       7.379 -11.288  10.686  1.00  0.00     0.293 HD
ENDBRANCH  17  20
ENDBRANCH   1  12
BRANCH   2  22
ATOM     22  O   UNL     1      11.115  -8.415   8.681  1.00  0.00    -0.502 OA
ATOM     23  H   UNL     1      10.178  -8.656   8.978  1.00  0.00     0.293 HD
ENDBRANCH   2  22
BRANCH   6  24
ATOM     24  O   UNL     1      14.649  -4.598   8.741  1.00  0.00    -0.507 OA
ATOM     25  H   UNL     1      15.221  -3.780   8.572  1.00  0.00     0.293 HD
ENDBRANCH   6  24
BRANCH   8  26
ATOM     26  O   UNL     1      16.573  -5.149  13.148  1.00  0.00    -0.508 OA
ATOM     27  H   UNL     1      16.294  -4.526  13.898  1.00  0.00     0.293 HD
ENDBRANCH   8  26
TORSDOF 6
ENDMDL
MODEL 4
REMARK VINA RESULT:    -5.750      2.657      8.386
REMARK INTER + INTRA:          -7.204
REMARK INTER:                  -6.872
REMARK INTRA:                  -0.332
REMARK UNBOUND:                -0.278
REMARK SMILES O=c1c(O)c(-c2ccc(O)c(O)c2)oc2cc(O)cc(O)c12
REMARK SMILES IDX 5 1 3 2 2 3 1 4 22 5 20 6 19 7 17 8 16 9 15 10 14 11 6 12
REMARK SMILES IDX 7 13 8 14 9 15 13 16 11 17 10 18 12 20 4 22 21 24 18 26
REMARK H PARENT 10 19 12 21 4 23 21 25 18 27
REMARK Flexibility Score: inf
ROOT
ATOM      1  C   UNL     1      12.971 -19.471  10.621  1.00  0.00     0.180 A 
ATOM      2  C   UNL     1      12.065 -20.353  10.002  1.00  0.00     0.208 A 
ATOM      3  C   UNL     1      10.834 -19.853   9.548  1.00  0.00     0.238 A 
ATOM      4  O   UNL     1      10.019 -20.631   8.982  1.00  0.00    -0.285 OA
ATOM      5  C   UNL     1      10.523 -18.491   9.736  1.00  0.00     0.111 A 
ATOM      6  C   UNL     1       9.305 -17.908   9.311  1.00  0.00     0.134 A 
ATOM      7  C   UNL     1       9.066 -16.546   9.545  1.00  0.00     0.093 A 
ATOM      8  C   UNL     1      10.022 -15.756  10.194  1.00  0.00     0.123 A 
ATOM      9  C   UNL     1      11.225 -16.325  10.613  1.00  0.00     0.094 A 
ATOM     10  C   UNL     1      11.482 -17.682  10.390  1.00  0.00     0.146 A 
ATOM     11  O   UNL     1      12.637 -18.195  10.794  1.00  0.00    -0.452 OA
ENDROOT
BRANCH   1  12
ATOM     12  C   UNL     1      14.295 -19.919  11.109  1.00  0.00     0.025 A 
ATOM     13  C   UNL     1      15.433 -19.875  10.285  1.00  0.00     0.016 A 
ATOM     14  C   UNL     1      16.677 -20.280  10.776  1.00  0.00     0.051 A 
ATOM     15  C   UNL     1      16.805 -20.723  12.099  1.00  0.00     0.157 A 
ATOM     16  C   UNL     1      14.432 -20.343  12.441  1.00  0.00     0.062 A 
ATOM     17  C   UNL     1      15.677 -20.751  12.935  1.00  0.00     0.158 A 
BRANCH  15  18
ATOM     18  O   UNL     1      18.047 -21.129  12.585  1.00  0.00    -0.504 OA
ATOM     19  H   UNL     1      18.852 -20.513  12.567  1.00  0.00     0.293 HD
ENDBRANCH  15  18
BRANCH  17  20
ATOM     20  O   UNL     1      15.772 -21.180  14.260  1.00  0.00    -0.504 OA
ATOM     21  H   UNL     1      16.268 -20.646  14.963  1.00  0.00     0.293 HD
ENDBRANCH  17  20
ENDBRANCH   1  12
BRANCH   2  22
ATOM     22  O   UNL     1      12.376 -21.709   9.871  1.00  0.00    -0.502 OA
ATOM     23  H   UNL     1      12.329 -22.355  10.651  1.00  0.00     0.293 HD
ENDBRANCH   2  22
BRANCH   6  24
ATOM     24  O   UNL     1       8.332 -18.670   8.663  1.00  0.00    -0.507 OA
ATOM     25  H   UNL     1       8.039 -19.573   9.017  1.00  0.00     0.293 HD
ENDBRANCH   6  24
BRANCH   8  26
ATOM     26  O   UNL     1       9.786 -14.403  10.426  1.00  0.00    -0.508 OA
ATOM     27  H   UNL     1       9.168 -13.863   9.830  1.00  0.00     0.293 HD
ENDBRANCH   8  26
TORSDOF 6
ENDMDL
MODEL 5
REMARK VINA RESULT:    -5.731      1.555      6.581
REMARK INTER + INTRA:          -7.182
REMARK INTER:                  -7.405
REMARK INTRA:                   0.222
REMARK UNBOUND:                -0.278
REMARK SMILES O=c1c(O)c(-c2ccc(O)c(O)c2)oc2cc(O)cc(O)c12
REMARK SMILES IDX 5 1 3 2 2 3 1 4 22 5 20 6 19 7 17 8 16 9 15 10 14 11 6 12
REMARK SMILES IDX 7 13 8 14 9 15 13 16 11 17 10 18 12 20 4 22 21 24 18 26
REMARK H PARENT 10 19 12 21 4 23 21 25 18 27
REMARK Flexibility Score: inf
ROOT
ATOM      1  C   UNL     1      17.649 -21.365  13.896  1.00  0.00     0.180 A 
ATOM      2  C   UNL     1      18.632 -21.349  12.889  1.00  0.00     0.208 A 
ATOM      3  C   UNL     1      18.226 -21.335  11.545  1.00  0.00     0.238 A 
ATOM      4  O   UNL     1      19.098 -21.310  10.634  1.00  0.00    -0.285 OA
ATOM      5  C   UNL     1      16.852 -21.358  11.232  1.00  0.00     0.111 A 
ATOM      6  C   UNL     1      16.360 -21.349   9.904  1.00  0.00     0.134 A 
ATOM      7  C   UNL     1      14.976 -21.384   9.675  1.00  0.00     0.093 A 
ATOM      8  C   UNL     1      14.077 -21.426  10.748  1.00  0.00     0.123 A 
ATOM      9  C   UNL     1      14.558 -21.432  12.057  1.00  0.00     0.094 A 
ATOM     10  C   UNL     1      15.933 -21.398  12.307  1.00  0.00     0.146 A 
ATOM     11  O   UNL     1      16.363 -21.400  13.563  1.00  0.00    -0.452 OA
ENDROOT
BRANCH   1  12
ATOM     12  C   UNL     1      17.998 -21.360  15.335  1.00  0.00     0.025 A 
ATOM     13  C   UNL     1      17.276 -22.125  16.267  1.00  0.00     0.016 A 
ATOM     14  C   UNL     1      17.640 -22.124  17.616  1.00  0.00     0.051 A 
ATOM     15  C   UNL     1      18.737 -21.370  18.052  1.00  0.00     0.157 A 
ATOM     16  C   UNL     1      19.111 -20.623  15.773  1.00  0.00     0.062 A 
ATOM     17  C   UNL     1      19.477 -20.618  17.125  1.00  0.00     0.158 A 
BRANCH  15  18
ATOM     18  O   UNL     1      19.096 -21.369  19.399  1.00  0.00    -0.504 OA
ATOM     19  H   UNL     1      19.830 -20.767  19.753  1.00  0.00     0.293 HD
ENDBRANCH  15  18
BRANCH  17  20
ATOM     20  O   UNL     1      20.580 -19.862  17.525  1.00  0.00    -0.504 OA
ATOM     21  H   UNL     1      21.345 -19.654  16.895  1.00  0.00     0.293 HD
ENDBRANCH  17  20
ENDBRANCH   1  12
BRANCH   2  22
ATOM     22  O   UNL     1      19.989 -21.376  13.224  1.00  0.00    -0.502 OA
ATOM     23  H   UNL     1      20.608 -20.594  13.047  1.00  0.00     0.293 HD
ENDBRANCH   2  22
BRANCH   6  24
ATOM     24  O   UNL     1      17.231 -21.310   8.816  1.00  0.00    -0.507 OA
ATOM     25  H   UNL     1      17.154 -20.600   8.097  1.00  0.00     0.293 HD
ENDBRANCH   6  24
BRANCH   8  26
ATOM     26  O   UNL     1      12.703 -21.459  10.521  1.00  0.00    -0.508 OA
ATOM     27  H   UNL     1      12.038 -21.310  11.272  1.00  0.00     0.293 HD
ENDBRANCH   8  26
TORSDOF 6
ENDMDL
MODEL 6
REMARK VINA RESULT:    -5.718      2.207      3.911
REMARK INTER + INTRA:          -7.166
REMARK INTER:                  -6.881
REMARK INTRA:                  -0.285
REMARK UNBOUND:                -0.278
REMARK SMILES O=c1c(O)c(-c2ccc(O)c(O)c2)oc2cc(O)cc(O)c12
REMARK SMILES IDX 5 1 3 2 2 3 1 4 22 5 20 6 19 7 17 8 16 9 15 10 14 11 6 12
REMARK SMILES IDX 7 13 8 14 9 15 13 16 11 17 10 18 12 20 4 22 21 24 18 26
REMARK H PARENT 10 19 12 21 4 23 21 25 18 27
REMARK Flexibility Score: inf
ROOT
ATOM      1  C   UNL     1      13.735 -19.858  10.443  1.00  0.00     0.180 A 
ATOM      2  C   UNL     1      14.649 -20.250   9.447  1.00  0.00     0.208 A 
ATOM      3  C   UNL     1      15.850 -20.866   9.833  1.00  0.00     0.238 A 
ATOM      4  O   UNL     1      16.672 -21.232   8.949  1.00  0.00    -0.285 OA
ATOM      5  C   UNL     1      16.125 -21.061  11.202  1.00  0.00     0.111 A 
ATOM      6  C   UNL     1      17.312 -21.670  11.675  1.00  0.00     0.134 A 
ATOM      7  C   UNL     1      17.516 -21.819  13.055  1.00  0.00     0.093 A 
ATOM      8  C   UNL     1      16.556 -21.371  13.969  1.00  0.00     0.123 A 
ATOM      9  C   UNL     1      15.384 -20.771  13.508  1.00  0.00     0.094 A 
ATOM     10  C   UNL     1      15.161 -20.614  12.136  1.00  0.00     0.146 A 
ATOM     11  O   UNL     1      14.034 -20.045  11.725  1.00  0.00    -0.452 OA
ENDROOT
BRANCH   1  12
ATOM     12  C   UNL     1      12.439 -19.220  10.114  1.00  0.00     0.025 A 
ATOM     13  C   UNL     1      12.361 -17.866   9.748  1.00  0.00     0.016 A 
ATOM     14  C   UNL     1      11.130 -17.293   9.418  1.00  0.00     0.051 A 
ATOM     15  C   UNL     1       9.963 -18.067   9.437  1.00  0.00     0.157 A 
ATOM     16  C   UNL     1      11.269 -19.998  10.111  1.00  0.00     0.062 A 
ATOM     17  C   UNL     1      10.034 -19.426   9.782  1.00  0.00     0.158 A 
BRANCH  15  18
ATOM     18  O   UNL     1       8.736 -17.491   9.110  1.00  0.00    -0.504 OA
ATOM     19  H   UNL     1       8.638 -16.493   8.968  1.00  0.00     0.293 HD
ENDBRANCH  15  18
BRANCH  17  20
ATOM     20  O   UNL     1       8.891 -20.226   9.803  1.00  0.00    -0.504 OA
ATOM     21  H   UNL     1       8.889 -21.170   9.436  1.00  0.00     0.293 HD
ENDBRANCH  17  20
ENDBRANCH   1  12
BRANCH   2  22
ATOM     22  O   UNL     1      14.376 -20.002   8.099  1.00  0.00    -0.502 OA
ATOM     23  H   UNL     1      13.866 -20.657   7.519  1.00  0.00     0.293 HD
ENDBRANCH   2  22
BRANCH   6  24
ATOM     24  O   UNL     1      18.288 -22.125  10.788  1.00  0.00    -0.507 OA
ATOM     25  H   UNL     1      18.519 -23.108  10.707  1.00  0.00     0.293 HD
ENDBRANCH   6  24
BRANCH   8  26
ATOM     26  O   UNL     1      16.757 -21.518  15.340  1.00  0.00    -0.508 OA
ATOM     27  H   UNL     1      16.316 -22.266  15.863  1.00  0.00     0.293 HD
ENDBRANCH   8  26
TORSDOF 6
ENDMDL
MODEL 7
REMARK VINA RESULT:    -5.680      2.805      8.379
REMARK INTER + INTRA:          -7.121
REMARK INTER:                  -6.790
REMARK INTRA:                  -0.331
REMARK UNBOUND:                -0.278
REMARK SMILES O=c1c(O)c(-c2ccc(O)c(O)c2)oc2cc(O)cc(O)c12
REMARK SMILES IDX 5 1 3 2 2 3 1 4 22 5 20 6 19 7 17 8 16 9 15 10 14 11 6 12
REMARK SMILES IDX 7 13 8 14 9 15 13 16 11 17 10 18 12 20 4 22 21 24 18 26
REMARK H PARENT 10 19 12 21 4 23 21 25 18 27
REMARK Flexibility Score: inf
ROOT
ATOM      1  C   UNL     1      13.263 -19.106  10.605  1.00  0.00     0.180 A 
ATOM      2  C   UNL     1      13.407 -17.772  10.179  1.00  0.00     0.208 A 
ATOM      3  C   UNL     1      12.292 -17.106   9.646  1.00  0.00     0.238 A 
ATOM      4  O   UNL     1      12.407 -15.907   9.272  1.00  0.00    -0.285 OA
ATOM      5  C   UNL     1      11.064 -17.787   9.530  1.00  0.00     0.111 A 
ATOM      6  C   UNL     1       9.894 -17.190   9.001  1.00  0.00     0.134 A 
ATOM      7  C   UNL     1       8.711 -17.939   8.909  1.00  0.00     0.093 A 
ATOM      8  C   UNL     1       8.676 -19.272   9.336  1.00  0.00     0.123 A 
ATOM      9  C   UNL     1       9.826 -19.863   9.859  1.00  0.00     0.094 A 
ATOM     10  C   UNL     1      11.015 -19.134   9.960  1.00  0.00     0.146 A 
ATOM     11  O   UNL     1      12.093 -19.721  10.467  1.00  0.00    -0.452 OA
ENDROOT
BRANCH   1  12
ATOM     12  C   UNL     1      14.387 -19.869  11.195  1.00  0.00     0.025 A 
ATOM     13  C   UNL     1      14.612 -19.888  12.582  1.00  0.00     0.016 A 
ATOM     14  C   UNL     1      15.664 -20.635  13.118  1.00  0.00     0.051 A 
ATOM     15  C   UNL     1      16.499 -21.382  12.278  1.00  0.00     0.157 A 
ATOM     16  C   UNL     1      15.214 -20.637  10.359  1.00  0.00     0.062 A 
ATOM     17  C   UNL     1      16.271 -21.385  10.892  1.00  0.00     0.158 A 
BRANCH  15  18
ATOM     18  O   UNL     1      17.550 -22.124  12.815  1.00  0.00    -0.504 OA
ATOM     19  H   UNL     1      17.573 -23.136  12.753  1.00  0.00     0.293 HD
ENDBRANCH  15  18
BRANCH  17  20
ATOM     20  O   UNL     1      17.080 -22.125  10.029  1.00  0.00    -0.504 OA
ATOM     21  H   UNL     1      16.735 -22.940   9.537  1.00  0.00     0.293 HD
ENDBRANCH  17  20
ENDBRANCH   1  12
BRANCH   2  22
ATOM     22  O   UNL     1      14.649 -17.134  10.260  1.00  0.00    -0.502 OA
ATOM     23  H   UNL     1      15.424 -17.520  10.785  1.00  0.00     0.293 HD
ENDBRANCH   2  22
BRANCH   6  24
ATOM     24  O   UNL     1       9.898 -15.865   8.566  1.00  0.00    -0.507 OA
ATOM     25  H   UNL     1       9.450 -15.127   9.097  1.00  0.00     0.293 HD
ENDBRANCH   6  24
BRANCH   8  26
ATOM     26  O   UNL     1       7.502 -20.015   9.246  1.00  0.00    -0.508 OA
ATOM     27  H   UNL     1       6.597 -19.603   9.442  1.00  0.00     0.293 HD
ENDBRANCH   8  26
TORSDOF 6
ENDMDL
