MODEL 1
REMARK VINA RESULT:    -6.302      0.000      0.000
REMARK INTER + INTRA:          -7.878
REMARK INTER:                  -7.592
REMARK INTRA:                  -0.286
REMARK UNBOUND:                -0.286
REMARK SMILES O=c1c(O)c(-c2ccc(O)c(O)c2)oc2cc(O)cc(O)c12
REMARK SMILES IDX 5 1 3 2 2 3 1 4 22 5 20 6 19 7 17 8 16 9 15 10 14 11 6 12
REMARK SMILES IDX 7 13 8 14 9 15 13 16 11 17 10 18 12 20 4 22 21 24 18 26
REMARK H PARENT 10 19 12 21 4 23 21 25 18 27
REMARK Flexibility Score: inf
ROOT
ATOM      1  C   UNL     1     -45.237 -11.769   0.614  1.00  0.00     0.180 A 
ATOM      2  C   UNL     1     -44.040 -11.206   0.132  1.00  0.00     0.208 A 
ATOM      3  C   UNL     1     -43.526 -11.654  -1.095  1.00  0.00     0.238 A 
ATOM      4  O   UNL     1     -42.460 -11.149  -1.542  1.00  0.00    -0.285 OA
ATOM      5  C   UNL     1     -44.202 -12.665  -1.807  1.00  0.00     0.111 A 
ATOM      6  C   UNL     1     -43.748 -13.175  -3.048  1.00  0.00     0.134 A 
ATOM      7  C   UNL     1     -44.473 -14.189  -3.690  1.00  0.00     0.093 A 
ATOM      8  C   UNL     1     -45.641 -14.704  -3.116  1.00  0.00     0.123 A 
ATOM      9  C   UNL     1     -46.093 -14.204  -1.893  1.00  0.00     0.094 A 
ATOM     10  C   UNL     1     -45.385 -13.192  -1.238  1.00  0.00     0.146 A 
ATOM     11  O   UNL     1     -45.841 -12.732  -0.078  1.00  0.00    -0.452 OA
ENDROOT
BRANCH   1  12
ATOM     12  C   UNL     1     -45.854 -11.337   1.889  1.00  0.00     0.025 A 
ATOM     13  C   UNL     1     -46.972 -10.486   1.910  1.00  0.00     0.016 A 
ATOM     14  C   UNL     1     -47.551 -10.111   3.125  1.00  0.00     0.051 A 
ATOM     15  C   UNL     1     -47.031 -10.589   4.334  1.00  0.00     0.157 A 
ATOM     16  C   UNL     1     -45.348 -11.830   3.103  1.00  0.00     0.062 A 
ATOM     17  C   UNL     1     -45.926 -11.456   4.322  1.00  0.00     0.158 A 
BRANCH  15  18
ATOM     18  O   UNL     1     -47.610 -10.210   5.545  1.00  0.00    -0.504 OA
ATOM     19  H   UNL     1     -48.614 -10.212   5.676  1.00  0.00     0.293 HD
ENDBRANCH  15  18
BRANCH  17  20
ATOM     20  O   UNL     1     -45.387 -11.955   5.508  1.00  0.00    -0.504 OA
ATOM     21  H   UNL     1     -44.483 -12.410   5.538  1.00  0.00     0.293 HD
ENDBRANCH  17  20
ENDBRANCH   1  12
BRANCH   2  22
ATOM     22  O   UNL     1     -43.364 -10.240   0.881  1.00  0.00    -0.502 OA
ATOM     23  H   UNL     1     -42.507 -10.444   1.383  1.00  0.00     0.293 HD
ENDBRANCH   2  22
BRANCH   6  24
ATOM     24  O   UNL     1     -42.587 -12.682  -3.644  1.00  0.00    -0.507 OA
ATOM     25  H   UNL     1     -41.743 -13.240  -3.707  1.00  0.00     0.293 HD
ENDBRANCH   6  24
BRANCH   8  26
ATOM     26  O   UNL     1     -46.362 -15.711  -3.753  1.00  0.00    -0.508 OA
ATOM     27  H   UNL     1     -46.730 -16.504  -3.239  1.00  0.00     0.293 HD
ENDBRANCH   8  26
TORSDOF 6
ENDMDL
MODEL 2
REMARK VINA RESULT:    -6.298      1.966      2.361
REMARK INTER + INTRA:          -7.873
REMARK INTER:                  -7.619
REMARK INTRA:                  -0.254
REMARK UNBOUND:                -0.286
REMARK SMILES O=c1c(O)c(-c2ccc(O)c(O)c2)oc2cc(O)cc(O)c12
REMARK SMILES IDX 5 1 3 2 2 3 1 4 22 5 20 6 19 7 17 8 16 9 15 10 14 11 6 12
REMARK SMILES IDX 7 13 8 14 9 15 13 16 11 17 10 18 12 20 4 22 21 24 18 26
REMARK H PARENT 10 19 12 21 4 23 21 25 18 27
REMARK Flexibility Score: inf
ROOT
ATOM      1  C   UNL     1     -43.994 -11.056  -0.392  1.00  0.00     0.180 A 
ATOM      2  C   UNL     1     -42.601 -11.096  -0.588  1.00  0.00     0.208 A 
ATOM      3  C   UNL     1     -42.057 -12.123  -1.377  1.00  0.00     0.238 A 
ATOM      4  O   UNL     1     -40.810 -12.163  -1.569  1.00  0.00    -0.285 OA
ATOM      5  C   UNL     1     -42.907 -13.097  -1.937  1.00  0.00     0.111 A 
ATOM      6  C   UNL     1     -42.439 -14.165  -2.739  1.00  0.00     0.134 A 
ATOM      7  C   UNL     1     -43.349 -15.101  -3.253  1.00  0.00     0.093 A 
ATOM      8  C   UNL     1     -44.717 -14.989  -2.979  1.00  0.00     0.123 A 
ATOM      9  C   UNL     1     -45.184 -13.937  -2.188  1.00  0.00     0.094 A 
ATOM     10  C   UNL     1     -44.293 -12.993  -1.669  1.00  0.00     0.146 A 
ATOM     11  O   UNL     1     -44.765 -12.000  -0.924  1.00  0.00    -0.452 OA
ENDROOT
BRANCH   1  12
ATOM     12  C   UNL     1     -44.646  -9.995   0.410  1.00  0.00     0.025 A 
ATOM     13  C   UNL     1     -44.740  -8.674  -0.062  1.00  0.00     0.016 A 
ATOM     14  C   UNL     1     -45.381  -7.695   0.703  1.00  0.00     0.051 A 
ATOM     15  C   UNL     1     -45.946  -8.023   1.942  1.00  0.00     0.157 A 
ATOM     16  C   UNL     1     -45.232 -10.323   1.644  1.00  0.00     0.062 A 
ATOM     17  C   UNL     1     -45.874  -9.345   2.412  1.00  0.00     0.158 A 
BRANCH  15  18
ATOM     18  O   UNL     1     -46.582  -7.043   2.703  1.00  0.00    -0.504 OA
ATOM     19  H   UNL     1     -46.488  -6.058   2.486  1.00  0.00     0.293 HD
ENDBRANCH  15  18
BRANCH  17  20
ATOM     20  O   UNL     1     -46.433  -9.705   3.638  1.00  0.00    -0.504 OA
ATOM     21  H   UNL     1     -46.369 -10.649   4.001  1.00  0.00     0.293 HD
ENDBRANCH  17  20
ENDBRANCH   1  12
BRANCH   2  22
ATOM     22  O   UNL     1     -41.775 -10.147   0.019  1.00  0.00    -0.502 OA
ATOM     23  H   UNL     1     -41.205 -10.362   0.829  1.00  0.00     0.293 HD
ENDBRANCH   2  22
BRANCH   6  24
ATOM     24  O   UNL     1     -41.081 -14.303  -3.029  1.00  0.00    -0.507 OA
ATOM     25  H   UNL     1     -40.593 -15.181  -2.890  1.00  0.00     0.293 HD
ENDBRANCH   6  24
BRANCH   8  26
ATOM     26  O   UNL     1     -45.622 -15.918  -3.487  1.00  0.00    -0.508 OA
ATOM     27  H   UNL     1     -46.371 -15.640  -4.111  1.00  0.00     0.293 HD
ENDBRANCH   8  26
TORSDOF 6
ENDMDL
MODEL 3
REMARK VINA RESULT:    -6.256      2.899      4.912
REMARK INTER + INTRA:          -7.822
REMARK INTER:                  -7.684
REMARK INTRA:                  -0.138
REMARK UNBOUND:                -0.286
REMARK SMILES O=c1c(O)c(-c2ccc(O)c(O)c2)oc2cc(O)cc(O)c12
REMARK SMILES IDX 5 1 3 2 2 3 1 4 22 5 20 6 19 7 17 8 16 9 15 10 14 11 6 12
REMARK SMILES IDX 7 13 8 14 9 15 13 16 11 17 10 18 12 20 4 22 21 24 18 26
REMARK H PARENT 10 19 12 21 4 23 21 25 18 27
REMARK Flexibility Score: inf
ROOT
ATOM      1  C   UNL     1     -43.144 -10.359  -0.671  1.00  0.00     0.180 A 
ATOM      2  C   UNL     1     -44.420 -10.541  -0.104  1.00  0.00     0.208 A 
ATOM      3  C   UNL     1     -45.157 -11.686  -0.446  1.00  0.00     0.238 A 
ATOM      4  O   UNL     1     -46.297 -11.864   0.065  1.00  0.00    -0.285 OA
ATOM      5  C   UNL     1     -44.619 -12.615  -1.359  1.00  0.00     0.111 A 
ATOM      6  C   UNL     1     -45.299 -13.791  -1.759  1.00  0.00     0.134 A 
ATOM      7  C   UNL     1     -44.699 -14.662  -2.680  1.00  0.00     0.093 A 
ATOM      8  C   UNL     1     -43.434 -14.380  -3.209  1.00  0.00     0.123 A 
ATOM      9  C   UNL     1     -42.760 -13.221  -2.817  1.00  0.00     0.094 A 
ATOM     10  C   UNL     1     -43.340 -12.341  -1.899  1.00  0.00     0.146 A 
ATOM     11  O   UNL     1     -42.674 -11.250  -1.541  1.00  0.00    -0.452 OA
ENDROOT
BRANCH   1  12
ATOM     12  C   UNL     1     -42.297  -9.189  -0.346  1.00  0.00     0.025 A 
ATOM     13  C   UNL     1     -41.958  -8.237  -1.324  1.00  0.00     0.016 A 
ATOM     14  C   UNL     1     -41.177  -7.128  -0.988  1.00  0.00     0.051 A 
ATOM     15  C   UNL     1     -40.734  -6.947   0.328  1.00  0.00     0.157 A 
ATOM     16  C   UNL     1     -41.868  -8.992   0.976  1.00  0.00     0.062 A 
ATOM     17  C   UNL     1     -41.085  -7.882   1.316  1.00  0.00     0.158 A 
BRANCH  15  18
ATOM     18  O   UNL     1     -39.953  -5.841   0.659  1.00  0.00    -0.504 OA
ATOM     19  H   UNL     1     -39.798  -5.569   1.623  1.00  0.00     0.293 HD
ENDBRANCH  15  18
BRANCH  17  20
ATOM     20  O   UNL     1     -40.666  -7.728   2.637  1.00  0.00    -0.504 OA
ATOM     21  H   UNL     1     -39.738  -7.997   2.942  1.00  0.00     0.293 HD
ENDBRANCH  17  20
ENDBRANCH   1  12
BRANCH   2  22
ATOM     22  O   UNL     1     -44.951  -9.580   0.761  1.00  0.00    -0.502 OA
ATOM     23  H   UNL     1     -45.753  -9.013   0.514  1.00  0.00     0.293 HD
ENDBRANCH   2  22
BRANCH   6  24
ATOM     24  O   UNL     1     -46.561 -14.099  -1.250  1.00  0.00    -0.507 OA
ATOM     25  H   UNL     1     -46.739 -14.131  -0.253  1.00  0.00     0.293 HD
ENDBRANCH   6  24
BRANCH   8  26
ATOM     26  O   UNL     1     -42.838 -15.243  -4.125  1.00  0.00    -0.508 OA
ATOM     27  H   UNL     1     -43.195 -15.343  -5.069  1.00  0.00     0.293 HD
ENDBRANCH   8  26
TORSDOF 6
ENDMDL
MODEL 4
REMARK VINA RESULT:    -6.238      2.938      7.137
REMARK INTER + INTRA:          -7.800
REMARK INTER:                  -7.497
REMARK INTRA:                  -0.303
REMARK UNBOUND:                -0.286
REMARK SMILES O=c1c(O)c(-c2ccc(O)c(O)c2)oc2cc(O)cc(O)c12
REMARK SMILES IDX 5 1 3 2 2 3 1 4 22 5 20 6 19 7 17 8 16 9 15 10 14 11 6 12
REMARK SMILES IDX 7 13 8 14 9 15 13 16 11 17 10 18 12 20 4 22 21 24 18 26
REMARK H PARENT 10 19 12 21 4 23 21 25 18 27
REMARK Flexibility Score: inf
ROOT
ATOM      1  C   UNL     1     -43.332 -11.689  -0.252  1.00  0.00     0.180 A 
ATOM      2  C   UNL     1     -44.606 -11.161   0.030  1.00  0.00     0.208 A 
ATOM      3  C   UNL     1     -44.702  -9.855   0.536  1.00  0.00     0.238 A 
ATOM      4  O   UNL     1     -45.839  -9.367   0.781  1.00  0.00    -0.285 OA
ATOM      5  C   UNL     1     -43.529  -9.110   0.770  1.00  0.00     0.111 A 
ATOM      6  C   UNL     1     -43.538  -7.790   1.281  1.00  0.00     0.134 A 
ATOM      7  C   UNL     1     -42.326  -7.118   1.496  1.00  0.00     0.093 A 
ATOM      8  C   UNL     1     -41.105  -7.740   1.209  1.00  0.00     0.123 A 
ATOM      9  C   UNL     1     -41.091  -9.041   0.703  1.00  0.00     0.094 A 
ATOM     10  C   UNL     1     -42.289  -9.728   0.481  1.00  0.00     0.146 A 
ATOM     11  O   UNL     1     -42.245 -10.962  -0.005  1.00  0.00    -0.452 OA
ENDROOT
BRANCH   1  12
ATOM     12  C   UNL     1     -43.149 -13.050  -0.805  1.00  0.00     0.025 A 
ATOM     13  C   UNL     1     -43.183 -14.187   0.021  1.00  0.00     0.016 A 
ATOM     14  C   UNL     1     -43.031 -15.463  -0.527  1.00  0.00     0.051 A 
ATOM     15  C   UNL     1     -42.855 -15.624  -1.907  1.00  0.00     0.157 A 
ATOM     16  C   UNL     1     -42.992 -13.218  -2.191  1.00  0.00     0.062 A 
ATOM     17  C   UNL     1     -42.839 -14.495  -2.743  1.00  0.00     0.158 A 
BRANCH  15  18
ATOM     18  O   UNL     1     -42.701 -16.899  -2.451  1.00  0.00    -0.504 OA
ATOM     19  H   UNL     1     -41.864 -17.163  -2.956  1.00  0.00     0.293 HD
ENDBRANCH  15  18
BRANCH  17  20
ATOM     20  O   UNL     1     -42.673 -14.621  -4.122  1.00  0.00    -0.504 OA
ATOM     21  H   UNL     1     -42.252 -15.442  -4.540  1.00  0.00     0.293 HD
ENDBRANCH  17  20
ENDBRANCH   1  12
BRANCH   2  22
ATOM     22  O   UNL     1     -45.751 -11.938  -0.165  1.00  0.00    -0.502 OA
ATOM     23  H   UNL     1     -46.645 -11.700   0.250  1.00  0.00     0.293 HD
ENDBRANCH   2  22
BRANCH   6  24
ATOM     24  O   UNL     1     -44.739  -7.143   1.578  1.00  0.00    -0.507 OA
ATOM     25  H   UNL     1     -44.949  -6.220   1.218  1.00  0.00     0.293 HD
ENDBRANCH   6  24
BRANCH   8  26
ATOM     26  O   UNL     1     -39.901  -7.074   1.422  1.00  0.00    -0.508 OA
ATOM     27  H   UNL     1     -39.844  -6.263   2.028  1.00  0.00     0.293 HD
ENDBRANCH   8  26
TORSDOF 6
ENDMDL
MODEL 5
REMARK VINA RESULT:    -6.204      2.158      6.961
REMARK INTER + INTRA:          -7.759
REMARK INTER:                  -7.452
REMARK INTRA:                  -0.307
REMARK UNBOUND:                -0.286
REMARK SMILES O=c1c(O)c(-c2ccc(O)c(O)c2)oc2cc(O)cc(O)c12
REMARK SMILES IDX 5 1 3 2 2 3 1 4 22 5 20 6 19 7 17 8 16 9 15 10 14 11 6 12
REMARK SMILES IDX 7 13 8 14 9 15 13 16 11 17 10 18 12 20 4 22 21 24 18 26
REMARK H PARENT 10 19 12 21 4 23 21 25 18 27
REMARK Flexibility Score: inf
ROOT
ATOM      1  C   UNL     1     -45.391 -12.273   0.066  1.00  0.00     0.180 A 
ATOM      2  C   UNL     1     -46.209 -12.543   1.180  1.00  0.00     0.208 A 
ATOM      3  C   UNL     1     -46.699 -11.468   1.938  1.00  0.00     0.238 A 
ATOM      4  O   UNL     1     -47.442 -11.698   2.931  1.00  0.00    -0.285 OA
ATOM      5  C   UNL     1     -46.349 -10.149   1.585  1.00  0.00     0.111 A 
ATOM      6  C   UNL     1     -46.797  -9.011   2.299  1.00  0.00     0.134 A 
ATOM      7  C   UNL     1     -46.397  -7.731   1.890  1.00  0.00     0.093 A 
ATOM      8  C   UNL     1     -45.557  -7.566   0.782  1.00  0.00     0.123 A 
ATOM      9  C   UNL     1     -45.114  -8.686   0.074  1.00  0.00     0.094 A 
ATOM     10  C   UNL     1     -45.503  -9.970   0.465  1.00  0.00     0.146 A 
ATOM     11  O   UNL     1     -45.070 -11.016  -0.229  1.00  0.00    -0.452 OA
ENDROOT
BRANCH   1  12
ATOM     12  C   UNL     1     -44.852 -13.350  -0.795  1.00  0.00     0.025 A 
ATOM     13  C   UNL     1     -43.559 -13.866  -0.597  1.00  0.00     0.016 A 
ATOM     14  C   UNL     1     -43.080 -14.899  -1.407  1.00  0.00     0.051 A 
ATOM     15  C   UNL     1     -43.887 -15.439  -2.417  1.00  0.00     0.157 A 
ATOM     16  C   UNL     1     -45.665 -13.909  -1.794  1.00  0.00     0.062 A 
ATOM     17  C   UNL     1     -45.188 -14.944  -2.608  1.00  0.00     0.158 A 
BRANCH  15  18
ATOM     18  O   UNL     1     -43.406 -16.468  -3.224  1.00  0.00    -0.504 OA
ATOM     19  H   UNL     1     -42.439 -16.769  -3.181  1.00  0.00     0.293 HD
ENDBRANCH  15  18
BRANCH  17  20
ATOM     20  O   UNL     1     -46.020 -15.464  -3.599  1.00  0.00    -0.504 OA
ATOM     21  H   UNL     1     -46.992 -15.191  -3.682  1.00  0.00     0.293 HD
ENDBRANCH  17  20
ENDBRANCH   1  12
BRANCH   2  22
ATOM     22  O   UNL     1     -46.501 -13.862   1.537  1.00  0.00    -0.502 OA
ATOM     23  H   UNL     1     -46.377 -14.637   0.896  1.00  0.00     0.293 HD
ENDBRANCH   2  22
BRANCH   6  24
ATOM     24  O   UNL     1     -47.633  -9.143   3.408  1.00  0.00    -0.507 OA
ATOM     25  H   UNL     1     -48.424  -9.777   3.406  1.00  0.00     0.293 HD
ENDBRANCH   6  24
BRANCH   8  26
ATOM     26  O   UNL     1     -45.158  -6.296   0.375  1.00  0.00    -0.508 OA
ATOM     27  H   UNL     1     -45.495  -5.461   0.841  1.00  0.00     0.293 HD
ENDBRANCH   8  26
TORSDOF 6
ENDMDL
MODEL 6
REMARK VINA RESULT:    -6.132      3.921      4.864
REMARK INTER + INTRA:          -7.672
REMARK INTER:                  -7.341
REMARK INTRA:                  -0.331
REMARK UNBOUND:                -0.286
REMARK SMILES O=c1c(O)c(-c2ccc(O)c(O)c2)oc2cc(O)cc(O)c12
REMARK SMILES IDX 5 1 3 2 2 3 1 4 22 5 20 6 19 7 17 8 16 9 15 10 14 11 6 12
REMARK SMILES IDX 7 13 8 14 9 15 13 16 11 17 10 18 12 20 4 22 21 24 18 26
REMARK H PARENT 10 19 12 21 4 23 21 25 18 27
REMARK Flexibility Score: inf
ROOT
ATOM      1  C   UNL     1     -42.180 -11.080  -1.530  1.00  0.00     0.180 A 
ATOM      2  C   UNL     1     -41.211 -11.937  -2.088  1.00  0.00     0.208 A 
ATOM      3  C   UNL     1     -41.607 -13.207  -2.535  1.00  0.00     0.238 A 
ATOM      4  O   UNL     1     -40.750 -13.979  -3.047  1.00  0.00    -0.285 OA
ATOM      5  C   UNL     1     -42.952 -13.606  -2.401  1.00  0.00     0.111 A 
ATOM      6  C   UNL     1     -43.431 -14.870  -2.823  1.00  0.00     0.134 A 
ATOM      7  C   UNL     1     -44.783 -15.196  -2.645  1.00  0.00     0.093 A 
ATOM      8  C   UNL     1     -45.665 -14.284  -2.054  1.00  0.00     0.123 A 
ATOM      9  C   UNL     1     -45.198 -13.036  -1.638  1.00  0.00     0.094 A 
ATOM     10  C   UNL     1     -43.853 -12.692  -1.807  1.00  0.00     0.146 A 
ATOM     11  O   UNL     1     -43.438 -11.496  -1.406  1.00  0.00    -0.452 OA
ENDROOT
BRANCH   1  12
ATOM     12  C   UNL     1     -41.846  -9.719  -1.053  1.00  0.00     0.025 A 
ATOM     13  C   UNL     1     -41.940  -8.602  -1.902  1.00  0.00     0.016 A 
ATOM     14  C   UNL     1     -41.643  -7.324  -1.423  1.00  0.00     0.051 A 
ATOM     15  C   UNL     1     -41.260  -7.140  -0.088  1.00  0.00     0.157 A 
ATOM     16  C   UNL     1     -41.481  -9.527   0.289  1.00  0.00     0.062 A 
ATOM     17  C   UNL     1     -41.183  -8.247   0.773  1.00  0.00     0.158 A 
BRANCH  15  18
ATOM     18  O   UNL     1     -40.961  -5.863   0.386  1.00  0.00    -0.504 OA
ATOM     19  H   UNL     1     -40.601  -5.715   1.321  1.00  0.00     0.293 HD
ENDBRANCH  15  18
BRANCH  17  20
ATOM     20  O   UNL     1     -40.811  -8.098   2.109  1.00  0.00    -0.504 OA
ATOM     21  H   UNL     1     -41.077  -8.770   2.819  1.00  0.00     0.293 HD
ENDBRANCH  17  20
ENDBRANCH   1  12
BRANCH   2  22
ATOM     22  O   UNL     1     -39.875 -11.535  -2.165  1.00  0.00    -0.502 OA
ATOM     23  H   UNL     1     -39.562 -10.814  -2.804  1.00  0.00     0.293 HD
ENDBRANCH   2  22
BRANCH   6  24
ATOM     24  O   UNL     1     -42.576 -15.801  -3.414  1.00  0.00    -0.507 OA
ATOM     25  H   UNL     1     -41.881 -16.304  -2.875  1.00  0.00     0.293 HD
ENDBRANCH   6  24
BRANCH   8  26
ATOM     26  O   UNL     1     -47.008 -14.607  -1.877  1.00  0.00    -0.508 OA
ATOM     27  H   UNL     1     -47.293 -15.381  -1.287  1.00  0.00     0.293 HD
ENDBRANCH   8  26
TORSDOF 6
ENDMDL
MODEL 7
REMARK VINA RESULT:    -6.109      3.343      6.628
REMARK INTER + INTRA:          -7.645
REMARK INTER:                  -7.732
REMARK INTRA:                   0.087
REMARK UNBOUND:                -0.286
REMARK SMILES O=c1c(O)c(-c2ccc(O)c(O)c2)oc2cc(O)cc(O)c12
REMARK SMILES IDX 5 1 3 2 2 3 1 4 22 5 20 6 19 7 17 8 16 9 15 10 14 11 6 12
REMARK SMILES IDX 7 13 8 14 9 15 13 16 11 17 10 18 12 20 4 22 21 24 18 26
REMARK H PARENT 10 19 12 21 4 23 21 25 18 27
REMARK Flexibility Score: inf
ROOT
ATOM      1  C   UNL     1     -43.299 -11.328  -1.266  1.00  0.00     0.180 A 
ATOM      2  C   UNL     1     -41.903 -11.318  -1.087  1.00  0.00     0.208 A 
ATOM      3  C   UNL     1     -41.314 -10.237  -0.411  1.00  0.00     0.238 A 
ATOM      4  O   UNL     1     -40.065 -10.223  -0.235  1.00  0.00    -0.285 OA
ATOM      5  C   UNL     1     -42.124  -9.182   0.055  1.00  0.00     0.111 A 
ATOM      6  C   UNL     1     -41.609  -8.056   0.742  1.00  0.00     0.134 A 
ATOM      7  C   UNL     1     -42.479  -7.042   1.167  1.00  0.00     0.093 A 
ATOM      8  C   UNL     1     -43.854  -7.131   0.917  1.00  0.00     0.123 A 
ATOM      9  C   UNL     1     -44.366  -8.240   0.241  1.00  0.00     0.094 A 
ATOM     10  C   UNL     1     -43.515  -9.263  -0.189  1.00  0.00     0.146 A 
ATOM     11  O   UNL     1     -44.031 -10.308  -0.825  1.00  0.00    -0.452 OA
ENDROOT
BRANCH   1  12
ATOM     12  C   UNL     1     -43.997 -12.440  -1.951  1.00  0.00     0.025 A 
ATOM     13  C   UNL     1     -43.498 -12.994  -3.143  1.00  0.00     0.016 A 
ATOM     14  C   UNL     1     -44.161 -14.059  -3.759  1.00  0.00     0.051 A 
ATOM     15  C   UNL     1     -45.324 -14.593  -3.189  1.00  0.00     0.157 A 
ATOM     16  C   UNL     1     -45.152 -12.992  -1.373  1.00  0.00     0.062 A 
ATOM     17  C   UNL     1     -45.819 -14.059  -1.987  1.00  0.00     0.158 A 
BRANCH  15  18
ATOM     18  O   UNL     1     -45.984 -15.653  -3.807  1.00  0.00    -0.504 OA
ATOM     19  H   UNL     1     -45.787 -16.617  -3.562  1.00  0.00     0.293 HD
ENDBRANCH  15  18
BRANCH  17  20
ATOM     20  O   UNL     1     -46.970 -14.572  -1.390  1.00  0.00    -0.504 OA
ATOM     21  H   UNL     1     -47.652 -13.975  -0.937  1.00  0.00     0.293 HD
ENDBRANCH  17  20
ENDBRANCH   1  12
BRANCH   2  22
ATOM     22  O   UNL     1     -41.118 -12.352  -1.602  1.00  0.00    -0.502 OA
ATOM     23  H   UNL     1     -41.195 -12.665  -2.563  1.00  0.00     0.293 HD
ENDBRANCH   2  22
BRANCH   6  24
ATOM     24  O   UNL     1     -40.244  -7.938   1.005  1.00  0.00    -0.507 OA
ATOM     25  H   UNL     1     -39.711  -7.130   0.703  1.00  0.00     0.293 HD
ENDBRANCH   6  24
BRANCH   8  26
ATOM     26  O   UNL     1     -44.719  -6.124   1.337  1.00  0.00    -0.508 OA
ATOM     27  H   UNL     1     -45.566  -5.906   0.824  1.00  0.00     0.293 HD
ENDBRANCH   8  26
TORSDOF 6
ENDMDL
MODEL 8
REMARK VINA RESULT:    -6.078      3.772      5.154
REMARK INTER + INTRA:          -7.608
REMARK INTER:                  -7.315
REMARK INTRA:                  -0.292
REMARK UNBOUND:                -0.286
REMARK SMILES O=c1c(O)c(-c2ccc(O)c(O)c2)oc2cc(O)cc(O)c12
REMARK SMILES IDX 5 1 3 2 2 3 1 4 22 5 20 6 19 7 17 8 16 9 15 10 14 11 6 12
REMARK SMILES IDX 7 13 8 14 9 15 13 16 11 17 10 18 12 20 4 22 21 24 18 26
REMARK H PARENT 10 19 12 21 4 23 21 25 18 27
REMARK Flexibility Score: inf
ROOT
ATOM      1  C   UNL     1     -45.606 -14.638   4.126  1.00  0.00     0.180 A 
ATOM      2  C   UNL     1     -46.403 -13.569   3.677  1.00  0.00     0.208 A 
ATOM      3  C   UNL     1     -46.308 -13.169   2.335  1.00  0.00     0.238 A 
ATOM      4  O   UNL     1     -47.026 -12.219   1.918  1.00  0.00    -0.285 OA
ATOM      5  C   UNL     1     -45.407 -13.827   1.473  1.00  0.00     0.111 A 
ATOM      6  C   UNL     1     -45.248 -13.482   0.109  1.00  0.00     0.134 A 
ATOM      7  C   UNL     1     -44.323 -14.180  -0.681  1.00  0.00     0.093 A 
ATOM      8  C   UNL     1     -43.554 -15.214  -0.134  1.00  0.00     0.123 A 
ATOM      9  C   UNL     1     -43.708 -15.558   1.210  1.00  0.00     0.094 A 
ATOM     10  C   UNL     1     -44.627 -14.875   2.014  1.00  0.00     0.146 A 
ATOM     11  O   UNL     1     -44.756 -15.227   3.288  1.00  0.00    -0.452 OA
ENDROOT
BRANCH   1  12
ATOM     12  C   UNL     1     -45.663 -15.132   5.521  1.00  0.00     0.025 A 
ATOM     13  C   UNL     1     -46.361 -16.306   5.854  1.00  0.00     0.016 A 
ATOM     14  C   UNL     1     -46.381 -16.765   7.173  1.00  0.00     0.051 A 
ATOM     15  C   UNL     1     -45.696 -16.067   8.176  1.00  0.00     0.157 A 
ATOM     16  C   UNL     1     -44.960 -14.447   6.526  1.00  0.00     0.062 A 
ATOM     17  C   UNL     1     -44.978 -14.904   7.849  1.00  0.00     0.158 A 
BRANCH  15  18
ATOM     18  O   UNL     1     -45.720 -16.527   9.492  1.00  0.00    -0.504 OA
ATOM     19  H   UNL     1     -46.543 -16.428  10.074  1.00  0.00     0.293 HD
ENDBRANCH  15  18
BRANCH  17  20
ATOM     20  O   UNL     1     -44.279 -14.190   8.822  1.00  0.00    -0.504 OA
ATOM     21  H   UNL     1     -44.472 -13.214   9.014  1.00  0.00     0.293 HD
ENDBRANCH  17  20
ENDBRANCH   1  12
BRANCH   2  22
ATOM     22  O   UNL     1     -47.253 -12.901   4.563  1.00  0.00    -0.502 OA
ATOM     23  H   UNL     1     -47.150 -11.915   4.774  1.00  0.00     0.293 HD
ENDBRANCH   2  22
BRANCH   6  24
ATOM     24  O   UNL     1     -45.999 -12.456  -0.464  1.00  0.00    -0.507 OA
ATOM     25  H   UNL     1     -46.917 -12.208  -0.114  1.00  0.00     0.293 HD
ENDBRANCH   6  24
BRANCH   8  26
ATOM     26  O   UNL     1     -42.634 -15.907  -0.918  1.00  0.00    -0.508 OA
ATOM     27  H   UNL     1     -42.320 -15.544  -1.811  1.00  0.00     0.293 HD
ENDBRANCH   8  26
TORSDOF 6
ENDMDL
MODEL 9
REMARK VINA RESULT:    -6.006      1.919      6.891
REMARK INTER + INTRA:          -7.521
REMARK INTER:                  -7.193
REMARK INTRA:                  -0.328
REMARK UNBOUND:                -0.286
REMARK SMILES O=c1c(O)c(-c2ccc(O)c(O)c2)oc2cc(O)cc(O)c12
REMARK SMILES IDX 5 1 3 2 2 3 1 4 22 5 20 6 19 7 17 8 16 9 15 10 14 11 6 12
REMARK SMILES IDX 7 13 8 14 9 15 13 16 11 17 10 18 12 20 4 22 21 24 18 26
REMARK H PARENT 10 19 12 21 4 23 21 25 18 27
REMARK Flexibility Score: inf
ROOT
ATOM      1  C   UNL     1     -45.623 -12.837   0.459  1.00  0.00     0.180 A 
ATOM      2  C   UNL     1     -45.680 -11.436   0.334  1.00  0.00     0.208 A 
ATOM      3  C   UNL     1     -46.290 -10.689   1.354  1.00  0.00     0.238 A 
ATOM      4  O   UNL     1     -46.337  -9.432   1.258  1.00  0.00    -0.285 OA
ATOM      5  C   UNL     1     -46.846 -11.352   2.467  1.00  0.00     0.111 A 
ATOM      6  C   UNL     1     -47.481 -10.673   3.535  1.00  0.00     0.134 A 
ATOM      7  C   UNL     1     -48.019 -11.406   4.603  1.00  0.00     0.093 A 
ATOM      8  C   UNL     1     -47.935 -12.803   4.623  1.00  0.00     0.123 A 
ATOM      9  C   UNL     1     -47.309 -13.476   3.572  1.00  0.00     0.094 A 
ATOM     10  C   UNL     1     -46.765 -12.764   2.499  1.00  0.00     0.146 A 
ATOM     11  O   UNL     1     -46.171 -13.430   1.516  1.00  0.00    -0.452 OA
ENDROOT
BRANCH   1  12
ATOM     12  C   UNL     1     -44.980 -13.694  -0.564  1.00  0.00     0.025 A 
ATOM     13  C   UNL     1     -43.631 -14.074  -0.458  1.00  0.00     0.016 A 
ATOM     14  C   UNL     1     -43.052 -14.902  -1.423  1.00  0.00     0.051 A 
ATOM     15  C   UNL     1     -43.814 -15.372  -2.500  1.00  0.00     0.157 A 
ATOM     16  C   UNL     1     -45.745 -14.184  -1.635  1.00  0.00     0.062 A 
ATOM     17  C   UNL     1     -45.169 -15.014  -2.604  1.00  0.00     0.158 A 
BRANCH  15  18
ATOM     18  O   UNL     1     -43.233 -16.196  -3.463  1.00  0.00    -0.504 OA
ATOM     19  H   UNL     1     -43.545 -16.188  -4.427  1.00  0.00     0.293 HD
ENDBRANCH  15  18
BRANCH  17  20
ATOM     20  O   UNL     1     -45.957 -15.470  -3.660  1.00  0.00    -0.504 OA
ATOM     21  H   UNL     1     -46.286 -16.427  -3.710  1.00  0.00     0.293 HD
ENDBRANCH  17  20
ENDBRANCH   1  12
BRANCH   2  22
ATOM     22  O   UNL     1     -45.164 -10.808  -0.802  1.00  0.00    -0.502 OA
ATOM     23  H   UNL     1     -45.555 -10.951  -1.726  1.00  0.00     0.293 HD
ENDBRANCH   2  22
BRANCH   6  24
ATOM     24  O   UNL     1     -47.582  -9.282   3.543  1.00  0.00    -0.507 OA
ATOM     25  H   UNL     1     -47.218  -8.726   4.308  1.00  0.00     0.293 HD
ENDBRANCH   6  24
BRANCH   8  26
ATOM     26  O   UNL     1     -48.470 -13.532   5.683  1.00  0.00    -0.508 OA
ATOM     27  H   UNL     1     -47.877 -13.938   6.398  1.00  0.00     0.293 HD
ENDBRANCH   8  26
TORSDOF 6
ENDMDL
