MODEL 1
REMARK VINA RESULT:    -1.849      0.000      0.000
REMARK INTER + INTRA:          -2.936
REMARK INTER:                  -2.931
REMARK INTRA:                  -0.005
REMARK UNBOUND:                -0.005
REMARK SMILES CCCCCCCCCCCC(=O)[O-]
REMARK SMILES IDX 7 1 8 2 9 3 10 4 11 5 12 6 13 7 14 8 6 9 5 10 4 11 3 12 2 13
REMARK SMILES IDX 1 14
REMARK H PARENT
REMARK Flexibility Score: inf
ROOT
ATOM      1  C   UNL     1      89.882  17.766 120.664  1.00  0.00     0.000 C 
ENDROOT
BRANCH   1   2
ATOM      2  C   UNL     1      91.288  18.198 121.125  1.00  0.00     0.000 C 
BRANCH   2   3
ATOM      3  C   UNL     1      92.422  17.229 120.746  1.00  0.00     0.000 C 
BRANCH   3   4
ATOM      4  C   UNL     1      92.308  16.712 119.302  1.00  0.00     0.006 C 
BRANCH   4   5
ATOM      5  C   UNL     1      93.634  16.136 118.787  1.00  0.00     0.053 C 
BRANCH   5   6
ATOM      6  C   UNL     1      94.495  15.643 119.909  1.00  0.00     0.041 C 
ATOM      7  O   UNL     1      94.069  14.754 120.692  1.00  0.00    -0.550 OA
ATOM      8  O   UNL     1      95.755  16.193 120.111  1.00  0.00    -0.550 OA
ENDBRANCH   5   6
ENDBRANCH   4   5
ENDBRANCH   3   4
ENDBRANCH   2   3
ENDBRANCH   1   2
BRANCH   1   9
ATOM      9  C   UNL     1      88.843  18.902 120.581  1.00  0.00     0.000 C 
BRANCH   9  10
ATOM     10  C   UNL     1      87.444  18.541 121.117  1.00  0.00    -0.000 C 
BRANCH  10  11
ATOM     11  C   UNL     1      86.535  17.794 120.120  1.00  0.00    -0.000 C 
BRANCH  11  12
ATOM     12  C   UNL     1      85.396  16.981 120.763  1.00  0.00    -0.000 C 
BRANCH  12  13
ATOM     13  C   UNL     1      84.165  17.838 121.093  1.00  0.00    -0.003 C 
ATOM     14  C   UNL     1      82.952  17.392 120.283  1.00  0.00     0.004 C 
ENDBRANCH  12  13
ENDBRANCH  11  12
ENDBRANCH  10  11
ENDBRANCH   9  10
ENDBRANCH   1   9
TORSDOF 10
ENDMDL
MODEL 2
REMARK VINA RESULT:    -0.303      3.821      8.215
REMARK INTER + INTRA:          -0.486
REMARK INTER:                   0.072
REMARK INTRA:                  -0.558
REMARK UNBOUND:                -0.005
REMARK SMILES CCCCCCCCCCCC(=O)[O-]
REMARK SMILES IDX 7 1 8 2 9 3 10 4 11 5 12 6 13 7 14 8 6 9 5 10 4 11 3 12 2 13
REMARK SMILES IDX 1 14
REMARK H PARENT
REMARK Flexibility Score: inf
ROOT
ATOM      1  C   UNL     1      92.282  17.090 118.863  1.00  0.00     0.000 C 
ENDROOT
BRANCH   1   2
ATOM      2  C   UNL     1      92.212  17.946 120.143  1.00  0.00     0.000 C 
BRANCH   2   3
ATOM      3  C   UNL     1      91.075  17.574 121.112  1.00  0.00     0.000 C 
BRANCH   3   4
ATOM      4  C   UNL     1      89.938  18.610 121.124  1.00  0.00     0.006 C 
BRANCH   4   5
ATOM      5  C   UNL     1      88.565  17.965 120.897  1.00  0.00     0.053 C 
BRANCH   5   6
ATOM      6  C   UNL     1      87.455  18.963 121.034  1.00  0.00     0.041 C 
ATOM      7  O   UNL     1      86.261  18.575 121.125  1.00  0.00    -0.550 OA
ATOM      8  O   UNL     1      87.740  20.323 121.025  1.00  0.00    -0.550 OA
ENDBRANCH   5   6
ENDBRANCH   4   5
ENDBRANCH   3   4
ENDBRANCH   2   3
ENDBRANCH   1   2
BRANCH   1   9
ATOM      9  C   UNL     1      93.188  15.846 118.958  1.00  0.00     0.000 C 
BRANCH   9  10
ATOM     10  C   UNL     1      94.131  15.822 120.177  1.00  0.00    -0.000 C 
BRANCH  10  11
ATOM     11  C   UNL     1      95.627  15.650 119.843  1.00  0.00    -0.000 C 
BRANCH  11  12
ATOM     12  C   UNL     1      96.577  16.570 120.630  1.00  0.00    -0.000 C 
BRANCH  12  13
ATOM     13  C   UNL     1      97.369  17.525 119.725  1.00  0.00    -0.003 C 
ATOM     14  C   UNL     1      96.704  17.665 118.359  1.00  0.00     0.004 C 
ENDBRANCH  12  13
ENDBRANCH  11  12
ENDBRANCH  10  11
ENDBRANCH   9  10
ENDBRANCH   1   9
TORSDOF 10
ENDMDL
