MODEL 1
REMARK VINA RESULT:    -3.505      0.000      0.000
REMARK INTER + INTRA:          -9.429
REMARK INTER:                  -6.783
REMARK INTRA:                  -2.645
REMARK UNBOUND:                -2.645
REMARK SMILES CCCCCCCCCCCCCCCCCC(=O)[O-]
REMARK SMILES IDX 10 1 11 2 12 3 13 4 14 5 15 6 16 7 17 8 18 9 19 10 20 11
REMARK SMILES IDX 9 12 8 13 7 14 6 15 5 16 4 17 3 18 2 19 1 20
REMARK H PARENT
REMARK Flexibility Score: inf
ROOT
ATOM      1  C   UNL     1      -7.251  -6.082   0.527  1.00  0.00     0.000 C 
ENDROOT
BRANCH   1   2
ATOM      2  C   UNL     1      -8.573  -5.416   0.935  1.00  0.00     0.000 C 
BRANCH   2   3
ATOM      3  C   UNL     1      -9.249  -6.194   2.075  1.00  0.00     0.000 C 
BRANCH   3   4
ATOM      4  C   UNL     1      -8.843  -5.685   3.471  1.00  0.00     0.000 C 
BRANCH   4   5
ATOM      5  C   UNL     1      -9.093  -4.185   3.717  1.00  0.00     0.000 C 
BRANCH   5   6
ATOM      6  C   UNL     1      -7.890  -3.478   4.366  1.00  0.00     0.000 C 
BRANCH   6   7
ATOM      7  C   UNL     1      -6.663  -3.427   3.441  1.00  0.00     0.006 C 
BRANCH   7   8
ATOM      8  C   UNL     1      -6.483  -2.061   2.765  1.00  0.00     0.053 C 
BRANCH   8   9
ATOM      9  C   UNL     1      -6.705  -2.175   1.289  1.00  0.00     0.041 C 
ATOM     10  O   UNL     1      -7.872  -2.124   0.818  1.00  0.00    -0.550 OA
ATOM     11  O   UNL     1      -5.617  -2.274   0.427  1.00  0.00    -0.550 OA
ENDBRANCH   8   9
ENDBRANCH   7   8
ENDBRANCH   6   7
ENDBRANCH   5   6
ENDBRANCH   4   5
ENDBRANCH   3   4
ENDBRANCH   2   3
ENDBRANCH   1   2
BRANCH   1  12
ATOM     12  C   UNL     1      -7.321  -6.752  -0.857  1.00  0.00     0.000 C 
BRANCH  12  13
ATOM     13  C   UNL     1      -7.724  -8.240  -0.846  1.00  0.00    -0.000 C 
BRANCH  13  14
ATOM     14  C   UNL     1      -6.994  -9.113   0.192  1.00  0.00    -0.000 C 
BRANCH  14  15
ATOM     15  C   UNL     1      -7.869  -9.452   1.410  1.00  0.00    -0.000 C 
BRANCH  15  16
ATOM     16  C   UNL     1      -7.119  -9.310   2.747  1.00  0.00    -0.000 C 
BRANCH  16  17
ATOM     17  C   UNL     1      -5.699  -8.723   2.639  1.00  0.00    -0.000 C 
BRANCH  17  18
ATOM     18  C   UNL     1      -5.097  -8.359   4.008  1.00  0.00    -0.000 C 
BRANCH  18  19
ATOM     19  C   UNL     1      -5.534  -6.968   4.491  1.00  0.00    -0.003 C 
ATOM     20  C   UNL     1      -6.347  -7.022   5.783  1.00  0.00     0.004 C 
ENDBRANCH  18  19
ENDBRANCH  17  18
ENDBRANCH  16  17
ENDBRANCH  15  16
ENDBRANCH  14  15
ENDBRANCH  13  14
ENDBRANCH  12  13
ENDBRANCH   1  12
TORSDOF 16
ENDMDL
MODEL 2
REMARK VINA RESULT:    -3.474      0.970      3.450
REMARK INTER + INTRA:          -9.368
REMARK INTER:                  -6.861
REMARK INTRA:                  -2.507
REMARK UNBOUND:                -2.645
REMARK SMILES CCCCCCCCCCCCCCCCCC(=O)[O-]
REMARK SMILES IDX 10 1 11 2 12 3 13 4 14 5 15 6 16 7 17 8 18 9 19 10 20 11
REMARK SMILES IDX 9 12 8 13 7 14 6 15 5 16 4 17 3 18 2 19 1 20
REMARK H PARENT
REMARK Flexibility Score: inf
ROOT
ATOM      1  C   UNL     1      -5.242  -7.898   3.628  1.00  0.00     0.000 C 
ENDROOT
BRANCH   1   2
ATOM      2  C   UNL     1      -6.064  -8.081   4.912  1.00  0.00     0.000 C 
BRANCH   2   3
ATOM      3  C   UNL     1      -6.067  -6.793   5.749  1.00  0.00     0.000 C 
BRANCH   3   4
ATOM      4  C   UNL     1      -5.916  -5.521   4.894  1.00  0.00     0.000 C 
BRANCH   4   5
ATOM      5  C   UNL     1      -7.100  -4.538   4.972  1.00  0.00     0.000 C 
BRANCH   5   6
ATOM      6  C   UNL     1      -6.676  -3.074   4.759  1.00  0.00     0.000 C 
BRANCH   6   7
ATOM      7  C   UNL     1      -7.281  -2.462   3.484  1.00  0.00     0.006 C 
BRANCH   7   8
ATOM      8  C   UNL     1      -6.246  -1.713   2.633  1.00  0.00     0.053 C 
BRANCH   8   9
ATOM      9  C   UNL     1      -6.505  -1.940   1.177  1.00  0.00     0.041 C 
ATOM     10  O   UNL     1      -5.544  -2.131   0.384  1.00  0.00    -0.550 OA
ATOM     11  O   UNL     1      -7.812  -2.003   0.704  1.00  0.00    -0.550 OA
ENDBRANCH   8   9
ENDBRANCH   7   8
ENDBRANCH   6   7
ENDBRANCH   5   6
ENDBRANCH   4   5
ENDBRANCH   3   4
ENDBRANCH   2   3
ENDBRANCH   1   2
BRANCH   1  12
ATOM     12  C   UNL     1      -5.784  -8.725   2.448  1.00  0.00     0.000 C 
BRANCH  12  13
ATOM     13  C   UNL     1      -7.160  -9.379   2.683  1.00  0.00    -0.000 C 
BRANCH  13  14
ATOM     14  C   UNL     1      -8.090  -9.419   1.456  1.00  0.00    -0.000 C 
BRANCH  14  15
ATOM     15  C   UNL     1      -7.331  -9.285   0.126  1.00  0.00    -0.000 C 
BRANCH  15  16
ATOM     16  C   UNL     1      -8.146  -8.559  -0.960  1.00  0.00    -0.000 C 
BRANCH  16  17
ATOM     17  C   UNL     1      -8.151  -7.023  -0.854  1.00  0.00    -0.000 C 
BRANCH  17  18
ATOM     18  C   UNL     1      -6.815  -6.454  -0.345  1.00  0.00    -0.000 C 
BRANCH  18  19
ATOM     19  C   UNL     1      -7.000  -5.480   0.830  1.00  0.00    -0.003 C 
ATOM     20  C   UNL     1      -8.223  -5.814   1.682  1.00  0.00     0.004 C 
ENDBRANCH  18  19
ENDBRANCH  17  18
ENDBRANCH  16  17
ENDBRANCH  15  16
ENDBRANCH  14  15
ENDBRANCH  13  14
ENDBRANCH  12  13
ENDBRANCH   1  12
TORSDOF 16
ENDMDL
MODEL 3
REMARK VINA RESULT:    -3.446     11.524     13.275
REMARK INTER + INTRA:          -9.314
REMARK INTER:                  -7.649
REMARK INTRA:                  -1.665
REMARK UNBOUND:                -2.645
REMARK SMILES CCCCCCCCCCCCCCCCCC(=O)[O-]
REMARK SMILES IDX 10 1 11 2 12 3 13 4 14 5 15 6 16 7 17 8 18 9 19 10 20 11
REMARK SMILES IDX 9 12 8 13 7 14 6 15 5 16 4 17 3 18 2 19 1 20
REMARK H PARENT
REMARK Flexibility Score: inf
ROOT
ATOM      1  C   UNL     1       0.796  -0.843  -7.217  1.00  0.00     0.000 C 
ENDROOT
BRANCH   1   2
ATOM      2  C   UNL     1       1.383  -1.243  -8.578  1.00  0.00     0.000 C 
BRANCH   2   3
ATOM      3  C   UNL     1       0.268  -1.507  -9.601  1.00  0.00     0.000 C 
BRANCH   3   4
ATOM      4  C   UNL     1      -1.141  -1.447  -8.981  1.00  0.00     0.000 C 
BRANCH   4   5
ATOM      5  C   UNL     1      -2.299  -1.693  -9.967  1.00  0.00     0.000 C 
BRANCH   5   6
ATOM      6  C   UNL     1      -3.647  -1.160  -9.451  1.00  0.00     0.000 C 
BRANCH   6   7
ATOM      7  C   UNL     1      -4.747  -2.234  -9.452  1.00  0.00     0.006 C 
BRANCH   7   8
ATOM      8  C   UNL     1      -5.734  -2.078  -8.286  1.00  0.00     0.053 C 
BRANCH   8   9
ATOM      9  C   UNL     1      -6.842  -1.145  -8.661  1.00  0.00     0.041 C 
ATOM     10  O   UNL     1      -7.582  -1.403  -9.648  1.00  0.00    -0.550 OA
ATOM     11  O   UNL     1      -7.099  -0.022  -7.882  1.00  0.00    -0.550 OA
ENDBRANCH   8   9
ENDBRANCH   7   8
ENDBRANCH   6   7
ENDBRANCH   5   6
ENDBRANCH   4   5
ENDBRANCH   3   4
ENDBRANCH   2   3
ENDBRANCH   1   2
BRANCH   1  12
ATOM     12  C   UNL     1       1.542  -1.481  -6.032  1.00  0.00     0.000 C 
BRANCH  12  13
ATOM     13  C   UNL     1       2.548  -2.587  -6.409  1.00  0.00    -0.000 C 
BRANCH  13  14
ATOM     14  C   UNL     1       2.163  -4.009  -5.962  1.00  0.00    -0.000 C 
BRANCH  14  15
ATOM     15  C   UNL     1       0.899  -4.535  -6.663  1.00  0.00    -0.000 C 
BRANCH  15  16
ATOM     16  C   UNL     1       1.158  -4.978  -8.115  1.00  0.00    -0.000 C 
BRANCH  16  17
ATOM     17  C   UNL     1      -0.100  -5.377  -8.910  1.00  0.00    -0.000 C 
BRANCH  17  18
ATOM     18  C   UNL     1      -0.149  -6.880  -9.237  1.00  0.00    -0.000 C 
BRANCH  18  19
ATOM     19  C   UNL     1      -1.557  -7.472  -9.069  1.00  0.00    -0.003 C 
ATOM     20  C   UNL     1      -2.650  -6.556  -9.615  1.00  0.00     0.004 C 
ENDBRANCH  18  19
ENDBRANCH  17  18
ENDBRANCH  16  17
ENDBRANCH  15  16
ENDBRANCH  14  15
ENDBRANCH  13  14
ENDBRANCH  12  13
ENDBRANCH   1  12
TORSDOF 16
ENDMDL
MODEL 4
REMARK VINA RESULT:    -3.437     10.107     12.565
REMARK INTER + INTRA:          -9.297
REMARK INTER:                  -8.070
REMARK INTRA:                  -1.227
REMARK UNBOUND:                -2.645
REMARK SMILES CCCCCCCCCCCCCCCCCC(=O)[O-]
REMARK SMILES IDX 10 1 11 2 12 3 13 4 14 5 15 6 16 7 17 8 18 9 19 10 20 11
REMARK SMILES IDX 9 12 8 13 7 14 6 15 5 16 4 17 3 18 2 19 1 20
REMARK H PARENT
REMARK Flexibility Score: inf
ROOT
ATOM      1  C   UNL     1      -1.464  -0.422  -8.799  1.00  0.00     0.000 C 
ENDROOT
BRANCH   1   2
ATOM      2  C   UNL     1      -2.651  -0.370  -9.772  1.00  0.00     0.000 C 
BRANCH   2   3
ATOM      3  C   UNL     1      -3.438  -1.689  -9.747  1.00  0.00     0.000 C 
BRANCH   3   4
ATOM      4  C   UNL     1      -4.798  -1.563  -9.036  1.00  0.00     0.000 C 
BRANCH   4   5
ATOM      5  C   UNL     1      -5.625  -2.861  -8.974  1.00  0.00     0.000 C 
BRANCH   5   6
ATOM      6  C   UNL     1      -6.440  -2.989  -7.675  1.00  0.00     0.000 C 
BRANCH   6   7
ATOM      7  C   UNL     1      -7.343  -4.234  -7.663  1.00  0.00     0.006 C 
BRANCH   7   8
ATOM      8  C   UNL     1      -7.114  -5.126  -6.435  1.00  0.00     0.053 C 
BRANCH   8   9
ATOM      9  C   UNL     1      -8.223  -4.950  -5.447  1.00  0.00     0.041 C 
ATOM     10  O   UNL     1      -9.135  -4.106  -5.661  1.00  0.00    -0.550 OA
ATOM     11  O   UNL     1      -8.287  -5.762  -4.319  1.00  0.00    -0.550 OA
ENDBRANCH   8   9
ENDBRANCH   7   8
ENDBRANCH   6   7
ENDBRANCH   5   6
ENDBRANCH   4   5
ENDBRANCH   3   4
ENDBRANCH   2   3
ENDBRANCH   1   2
BRANCH   1  12
ATOM     12  C   UNL     1      -0.126  -0.712  -9.503  1.00  0.00     0.000 C 
BRANCH  12  13
ATOM     13  C   UNL     1       1.044  -1.069  -8.564  1.00  0.00    -0.000 C 
BRANCH  13  14
ATOM     14  C   UNL     1       0.707  -1.074  -7.061  1.00  0.00    -0.000 C 
BRANCH  14  15
ATOM     15  C   UNL     1       1.694  -1.910  -6.230  1.00  0.00    -0.000 C 
BRANCH  15  16
ATOM     16  C   UNL     1       1.172  -3.326  -5.923  1.00  0.00    -0.000 C 
BRANCH  16  17
ATOM     17  C   UNL     1       2.133  -4.471  -6.296  1.00  0.00    -0.000 C 
BRANCH  17  18
ATOM     18  C   UNL     1       2.163  -4.757  -7.808  1.00  0.00    -0.000 C 
BRANCH  18  19
ATOM     19  C   UNL     1       0.849  -5.371  -8.316  1.00  0.00    -0.003 C 
ATOM     20  C   UNL     1       0.099  -4.448  -9.273  1.00  0.00     0.004 C 
ENDBRANCH  18  19
ENDBRANCH  17  18
ENDBRANCH  16  17
ENDBRANCH  15  16
ENDBRANCH  14  15
ENDBRANCH  13  14
ENDBRANCH  12  13
ENDBRANCH   1  12
TORSDOF 16
ENDMDL
MODEL 5
REMARK VINA RESULT:    -3.431     10.392     13.063
REMARK INTER + INTRA:          -9.286
REMARK INTER:                  -7.779
REMARK INTRA:                  -1.507
REMARK UNBOUND:                -2.645
REMARK SMILES CCCCCCCCCCCCCCCCCC(=O)[O-]
REMARK SMILES IDX 10 1 11 2 12 3 13 4 14 5 15 6 16 7 17 8 18 9 19 10 20 11
REMARK SMILES IDX 9 12 8 13 7 14 6 15 5 16 4 17 3 18 2 19 1 20
REMARK H PARENT
REMARK Flexibility Score: inf
ROOT
ATOM      1  C   UNL     1      -0.841  -0.967  -8.707  1.00  0.00     0.000 C 
ENDROOT
BRANCH   1   2
ATOM      2  C   UNL     1       0.333  -0.832  -9.687  1.00  0.00     0.000 C 
BRANCH   2   3
ATOM      3  C   UNL     1       0.953  -2.204  -9.993  1.00  0.00     0.000 C 
BRANCH   3   4
ATOM      4  C   UNL     1       0.051  -3.378  -9.570  1.00  0.00     0.000 C 
BRANCH   4   5
ATOM      5  C   UNL     1       0.800  -4.643  -9.110  1.00  0.00     0.000 C 
BRANCH   5   6
ATOM      6  C   UNL     1       0.503  -5.014  -7.646  1.00  0.00     0.000 C 
BRANCH   6   7
ATOM      7  C   UNL     1       1.560  -4.467  -6.672  1.00  0.00     0.006 C 
BRANCH   7   8
ATOM      8  C   UNL     1       1.097  -3.202  -5.937  1.00  0.00     0.053 C 
BRANCH   8   9
ATOM      9  C   UNL     1       1.908  -2.021  -6.370  1.00  0.00     0.041 C 
ATOM     10  O   UNL     1       2.920  -2.181  -7.104  1.00  0.00    -0.550 OA
ATOM     11  O   UNL     1       1.511  -0.736  -6.015  1.00  0.00    -0.550 OA
ENDBRANCH   8   9
ENDBRANCH   7   8
ENDBRANCH   6   7
ENDBRANCH   5   6
ENDBRANCH   4   5
ENDBRANCH   3   4
ENDBRANCH   2   3
ENDBRANCH   1   2
BRANCH   1  12
ATOM     12  C   UNL     1      -2.094  -0.199  -9.165  1.00  0.00     0.000 C 
BRANCH  12  13
ATOM     13  C   UNL     1      -3.194  -1.064  -9.812  1.00  0.00    -0.000 C 
BRANCH  13  14
ATOM     14  C   UNL     1      -4.620  -0.822  -9.282  1.00  0.00    -0.000 C 
BRANCH  14  15
ATOM     15  C   UNL     1      -5.261  -2.090  -8.692  1.00  0.00    -0.000 C 
BRANCH  15  16
ATOM     16  C   UNL     1      -6.579  -1.806  -7.949  1.00  0.00    -0.000 C 
BRANCH  16  17
ATOM     17  C   UNL     1      -7.120  -2.979  -7.109  1.00  0.00    -0.000 C 
BRANCH  17  18
ATOM     18  C   UNL     1      -6.551  -4.340  -7.546  1.00  0.00    -0.000 C 
BRANCH  18  19
ATOM     19  C   UNL     1      -6.909  -5.468  -6.566  1.00  0.00    -0.003 C 
ATOM     20  C   UNL     1      -8.060  -5.095  -5.635  1.00  0.00     0.004 C 
ENDBRANCH  18  19
ENDBRANCH  17  18
ENDBRANCH  16  17
ENDBRANCH  15  16
ENDBRANCH  14  15
ENDBRANCH  13  14
ENDBRANCH  12  13
ENDBRANCH   1  12
TORSDOF 16
ENDMDL
MODEL 6
REMARK VINA RESULT:    -3.416     10.532     13.351
REMARK INTER + INTRA:          -9.257
REMARK INTER:                  -7.448
REMARK INTRA:                  -1.809
REMARK UNBOUND:                -2.645
REMARK SMILES CCCCCCCCCCCCCCCCCC(=O)[O-]
REMARK SMILES IDX 10 1 11 2 12 3 13 4 14 5 15 6 16 7 17 8 18 9 19 10 20 11
REMARK SMILES IDX 9 12 8 13 7 14 6 15 5 16 4 17 3 18 2 19 1 20
REMARK H PARENT
REMARK Flexibility Score: inf
ROOT
ATOM      1  C   UNL     1       1.153  -5.719  -8.975  1.00  0.00     0.000 C 
ENDROOT
BRANCH   1   2
ATOM      2  C   UNL     1       0.141  -6.611  -9.708  1.00  0.00     0.000 C 
BRANCH   2   3
ATOM      3  C   UNL     1      -1.215  -6.609  -8.986  1.00  0.00     0.000 C 
BRANCH   3   4
ATOM      4  C   UNL     1      -1.859  -8.007  -8.915  1.00  0.00     0.000 C 
BRANCH   4   5
ATOM      5  C   UNL     1      -3.375  -8.014  -8.640  1.00  0.00     0.000 C 
BRANCH   5   6
ATOM      6  C   UNL     1      -4.097  -6.796  -9.242  1.00  0.00     0.000 C 
BRANCH   6   7
ATOM      7  C   UNL     1      -5.379  -6.430  -8.477  1.00  0.00     0.006 C 
BRANCH   7   8
ATOM      8  C   UNL     1      -5.968  -5.081  -8.910  1.00  0.00     0.053 C 
BRANCH   8   9
ATOM      9  C   UNL     1      -6.401  -4.292  -7.715  1.00  0.00     0.041 C 
ATOM     10  O   UNL     1      -6.297  -3.036  -7.712  1.00  0.00    -0.550 OA
ATOM     11  O   UNL     1      -6.979  -4.938  -6.627  1.00  0.00    -0.550 OA
ENDBRANCH   8   9
ENDBRANCH   7   8
ENDBRANCH   6   7
ENDBRANCH   5   6
ENDBRANCH   4   5
ENDBRANCH   3   4
ENDBRANCH   2   3
ENDBRANCH   1   2
BRANCH   1  12
ATOM     12  C   UNL     1       0.618  -5.183  -7.635  1.00  0.00     0.000 C 
BRANCH  12  13
ATOM     13  C   UNL     1       1.676  -4.538  -6.717  1.00  0.00    -0.000 C 
BRANCH  13  14
ATOM     14  C   UNL     1       1.200  -3.307  -5.924  1.00  0.00    -0.000 C 
BRANCH  14  15
ATOM     15  C   UNL     1       1.984  -2.031  -6.272  1.00  0.00    -0.000 C 
BRANCH  15  16
ATOM     16  C   UNL     1       2.737  -2.135  -7.611  1.00  0.00    -0.000 C 
BRANCH  16  17
ATOM     17  C   UNL     1       2.152  -1.288  -8.756  1.00  0.00    -0.000 C 
BRANCH  17  18
ATOM     18  C   UNL     1       1.238  -2.098  -9.693  1.00  0.00    -0.000 C 
BRANCH  18  19
ATOM     19  C   UNL     1      -0.237  -2.048  -9.261  1.00  0.00    -0.003 C 
ATOM     20  C   UNL     1      -0.622  -0.709  -8.637  1.00  0.00     0.004 C 
ENDBRANCH  18  19
ENDBRANCH  17  18
ENDBRANCH  16  17
ENDBRANCH  15  16
ENDBRANCH  14  15
ENDBRANCH  13  14
ENDBRANCH  12  13
ENDBRANCH   1  12
TORSDOF 16
ENDMDL
MODEL 7
REMARK VINA RESULT:    -3.405      1.856      5.593
REMARK INTER + INTRA:          -9.236
REMARK INTER:                  -6.746
REMARK INTRA:                  -2.490
REMARK UNBOUND:                -2.645
REMARK SMILES CCCCCCCCCCCCCCCCCC(=O)[O-]
REMARK SMILES IDX 10 1 11 2 12 3 13 4 14 5 15 6 16 7 17 8 18 9 19 10 20 11
REMARK SMILES IDX 9 12 8 13 7 14 6 15 5 16 4 17 3 18 2 19 1 20
REMARK H PARENT
REMARK Flexibility Score: inf
ROOT
ATOM      1  C   UNL     1      -6.943  -6.394   4.895  1.00  0.00     0.000 C 
ENDROOT
BRANCH   1   2
ATOM      2  C   UNL     1      -5.504  -6.686   4.449  1.00  0.00     0.000 C 
BRANCH   2   3
ATOM      3  C   UNL     1      -5.267  -8.199   4.315  1.00  0.00     0.000 C 
BRANCH   3   4
ATOM      4  C   UNL     1      -5.725  -8.760   2.957  1.00  0.00     0.000 C 
BRANCH   4   5
ATOM      5  C   UNL     1      -7.123  -9.408   2.956  1.00  0.00     0.000 C 
BRANCH   5   6
ATOM      6  C   UNL     1      -7.859  -9.239   1.615  1.00  0.00     0.000 C 
BRANCH   6   7
ATOM      7  C   UNL     1      -6.917  -8.827   0.471  1.00  0.00     0.006 C 
BRANCH   7   8
ATOM      8  C   UNL     1      -7.661  -8.546  -0.842  1.00  0.00     0.053 C 
BRANCH   8   9
ATOM      9  C   UNL     1      -7.801  -7.072  -1.057  1.00  0.00     0.041 C 
ATOM     10  O   UNL     1      -8.911  -6.505  -0.864  1.00  0.00    -0.550 OA
ATOM     11  O   UNL     1      -6.691  -6.312  -1.411  1.00  0.00    -0.550 OA
ENDBRANCH   8   9
ENDBRANCH   7   8
ENDBRANCH   6   7
ENDBRANCH   5   6
ENDBRANCH   4   5
ENDBRANCH   3   4
ENDBRANCH   2   3
ENDBRANCH   1   2
BRANCH   1  12
ATOM     12  C   UNL     1      -7.650  -5.364   3.997  1.00  0.00     0.000 C 
BRANCH  12  13
ATOM     13  C   UNL     1      -7.693  -5.721   2.497  1.00  0.00    -0.000 C 
BRANCH  13  14
ATOM     14  C   UNL     1      -7.134  -4.646   1.547  1.00  0.00    -0.000 C 
BRANCH  14  15
ATOM     15  C   UNL     1      -7.932  -3.333   1.593  1.00  0.00    -0.000 C 
BRANCH  15  16
ATOM     16  C   UNL     1      -7.040  -2.083   1.479  1.00  0.00    -0.000 C 
BRANCH  16  17
ATOM     17  C   UNL     1      -6.080  -1.856   2.662  1.00  0.00    -0.000 C 
BRANCH  17  18
ATOM     18  C   UNL     1      -6.813  -1.481   3.962  1.00  0.00    -0.000 C 
BRANCH  18  19
ATOM     19  C   UNL     1      -6.181  -2.134   5.202  1.00  0.00    -0.003 C 
ATOM     20  C   UNL     1      -4.981  -3.012   4.856  1.00  0.00     0.004 C 
ENDBRANCH  18  19
ENDBRANCH  17  18
ENDBRANCH  16  17
ENDBRANCH  15  16
ENDBRANCH  14  15
ENDBRANCH  13  14
ENDBRANCH  12  13
ENDBRANCH   1  12
TORSDOF 16
ENDMDL
MODEL 8
REMARK VINA RESULT:    -3.394     12.066     14.800
REMARK INTER + INTRA:          -9.215
REMARK INTER:                  -7.566
REMARK INTRA:                  -1.649
REMARK UNBOUND:                -2.645
REMARK SMILES CCCCCCCCCCCCCCCCCC(=O)[O-]
REMARK SMILES IDX 10 1 11 2 12 3 13 4 14 5 15 6 16 7 17 8 18 9 19 10 20 11
REMARK SMILES IDX 9 12 8 13 7 14 6 15 5 16 4 17 3 18 2 19 1 20
REMARK H PARENT
REMARK Flexibility Score: inf
ROOT
ATOM      1  C   UNL     1       2.341  -3.503  -6.086  1.00  0.00     0.000 C 
ENDROOT
BRANCH   1   2
ATOM      2  C   UNL     1       2.015  -4.914  -6.596  1.00  0.00     0.000 C 
BRANCH   2   3
ATOM      3  C   UNL     1       1.681  -4.892  -8.096  1.00  0.00     0.000 C 
BRANCH   3   4
ATOM      4  C   UNL     1       0.361  -5.612  -8.427  1.00  0.00     0.000 C 
BRANCH   4   5
ATOM      5  C   UNL     1       0.478  -6.746  -9.464  1.00  0.00     0.000 C 
BRANCH   5   6
ATOM      6  C   UNL     1      -0.742  -7.684  -9.463  1.00  0.00     0.000 C 
BRANCH   6   7
ATOM      7  C   UNL     1      -1.939  -7.099  -8.695  1.00  0.00     0.006 C 
BRANCH   7   8
ATOM      8  C   UNL     1      -3.291  -7.505  -9.297  1.00  0.00     0.053 C 
BRANCH   8   9
ATOM      9  C   UNL     1      -4.305  -7.704  -8.216  1.00  0.00     0.041 C 
ATOM     10  O   UNL     1      -5.236  -6.868  -8.057  1.00  0.00    -0.550 OA
ATOM     11  O   UNL     1      -4.262  -8.845  -7.422  1.00  0.00    -0.550 OA
ENDBRANCH   8   9
ENDBRANCH   7   8
ENDBRANCH   6   7
ENDBRANCH   5   6
ENDBRANCH   4   5
ENDBRANCH   3   4
ENDBRANCH   2   3
ENDBRANCH   1   2
BRANCH   1  12
ATOM     12  C   UNL     1       1.101  -2.593  -6.012  1.00  0.00     0.000 C 
BRANCH  12  13
ATOM     13  C   UNL     1       1.267  -1.206  -6.663  1.00  0.00    -0.000 C 
BRANCH  13  14
ATOM     14  C   UNL     1       0.244  -0.867  -7.764  1.00  0.00    -0.000 C 
BRANCH  14  15
ATOM     15  C   UNL     1       0.594  -1.503  -9.120  1.00  0.00    -0.000 C 
BRANCH  15  16
ATOM     16  C   UNL     1       1.984  -1.090  -9.636  1.00  0.00    -0.000 C 
BRANCH  16  17
ATOM     17  C   UNL     1       3.014  -2.233  -9.723  1.00  0.00    -0.000 C 
BRANCH  17  18
ATOM     18  C   UNL     1       4.405  -1.824  -9.208  1.00  0.00    -0.000 C 
BRANCH  18  19
ATOM     19  C   UNL     1       4.832  -0.435  -9.709  1.00  0.00    -0.003 C 
ATOM     20  C   UNL     1       6.251  -0.066  -9.283  1.00  0.00     0.004 C 
ENDBRANCH  18  19
ENDBRANCH  17  18
ENDBRANCH  16  17
ENDBRANCH  15  16
ENDBRANCH  14  15
ENDBRANCH  13  14
ENDBRANCH  12  13
ENDBRANCH   1  12
TORSDOF 16
ENDMDL
MODEL 9
REMARK VINA RESULT:    -3.382     12.442     14.428
REMARK INTER + INTRA:          -9.190
REMARK INTER:                  -7.289
REMARK INTRA:                  -1.901
REMARK UNBOUND:                -2.645
REMARK SMILES CCCCCCCCCCCCCCCCCC(=O)[O-]
REMARK SMILES IDX 10 1 11 2 12 3 13 4 14 5 15 6 16 7 17 8 18 9 19 10 20 11
REMARK SMILES IDX 9 12 8 13 7 14 6 15 5 16 4 17 3 18 2 19 1 20
REMARK H PARENT
REMARK Flexibility Score: inf
ROOT
ATOM      1  C   UNL     1       1.855  -1.996  -6.432  1.00  0.00     0.000 C 
ENDROOT
BRANCH   1   2
ATOM      2  C   UNL     1       0.744  -1.093  -6.988  1.00  0.00     0.000 C 
BRANCH   2   3
ATOM      3  C   UNL     1       0.772  -1.071  -8.524  1.00  0.00     0.000 C 
BRANCH   3   4
ATOM      4  C   UNL     1      -0.553  -1.537  -9.154  1.00  0.00     0.000 C 
BRANCH   4   5
ATOM      5  C   UNL     1      -1.468  -0.406  -9.662  1.00  0.00     0.000 C 
BRANCH   5   6
ATOM      6  C   UNL     1      -2.657  -0.133  -8.724  1.00  0.00     0.000 C 
BRANCH   6   7
ATOM      7  C   UNL     1      -3.595   0.961  -9.261  1.00  0.00     0.006 C 
BRANCH   7   8
ATOM      8  C   UNL     1      -2.838   2.158  -9.852  1.00  0.00     0.053 C 
BRANCH   8   9
ATOM      9  C   UNL     1      -3.462   3.442  -9.405  1.00  0.00     0.041 C 
ATOM     10  O   UNL     1      -2.781   4.503  -9.377  1.00  0.00    -0.550 OA
ATOM     11  O   UNL     1      -4.814   3.483  -9.079  1.00  0.00    -0.550 OA
ENDBRANCH   8   9
ENDBRANCH   7   8
ENDBRANCH   6   7
ENDBRANCH   5   6
ENDBRANCH   4   5
ENDBRANCH   3   4
ENDBRANCH   2   3
ENDBRANCH   1   2
BRANCH   1  12
ATOM     12  C   UNL     1       1.311  -3.279  -5.778  1.00  0.00     0.000 C 
BRANCH  12  13
ATOM     13  C   UNL     1       1.519  -4.570  -6.595  1.00  0.00    -0.000 C 
BRANCH  13  14
ATOM     14  C   UNL     1       0.419  -4.883  -7.626  1.00  0.00    -0.000 C 
BRANCH  14  15
ATOM     15  C   UNL     1       0.927  -4.830  -9.077  1.00  0.00    -0.000 C 
BRANCH  15  16
ATOM     16  C   UNL     1       2.202  -5.663  -9.297  1.00  0.00    -0.000 C 
BRANCH  16  17
ATOM     17  C   UNL     1       3.495  -4.844  -9.472  1.00  0.00    -0.000 C 
BRANCH  17  18
ATOM     18  C   UNL     1       3.226  -3.353  -9.747  1.00  0.00    -0.000 C 
BRANCH  18  19
ATOM     19  C   UNL     1       4.517  -2.561 -10.005  1.00  0.00    -0.003 C 
ATOM     20  C   UNL     1       4.625  -1.312  -9.133  1.00  0.00     0.004 C 
ENDBRANCH  18  19
ENDBRANCH  17  18
ENDBRANCH  16  17
ENDBRANCH  15  16
ENDBRANCH  14  15
ENDBRANCH  13  14
ENDBRANCH  12  13
ENDBRANCH   1  12
TORSDOF 16
ENDMDL
