MODEL 1
REMARK VINA RESULT:     3.005      0.000      0.000
REMARK INTER + INTRA:           7.011
REMARK INTER:                   7.925
REMARK INTRA:                  -0.914
REMARK UNBOUND:                -0.914
REMARK SMILES CCCCCCCCCCCCCCCCCCCCCCCCCCCCCC(=O)[O-]
REMARK SMILES IDX 16 1 17 2 18 3 19 4 20 5 21 6 22 7 23 8 24 9 25 10 26 11
REMARK SMILES IDX 27 12 28 13 29 14 30 15 31 16 32 17 15 18 14 19 13 20 12 21
REMARK SMILES IDX 11 22 10 23 9 24 8 25 7 26 6 27 5 28 4 29 3 30 2 31 1 32
REMARK H PARENT
REMARK Flexibility Score: inf
ROOT
ATOM      1  C   UNL     1      21.341  13.105  16.875  1.00  0.00     0.000 C 
ENDROOT
BRANCH   1   2
ATOM      2  C   UNL     1      21.045  14.486  17.487  1.00  0.00     0.000 C 
BRANCH   2   3
ATOM      3  C   UNL     1      19.610  14.602  18.028  1.00  0.00     0.000 C 
BRANCH   3   4
ATOM      4  C   UNL     1      18.641  15.379  17.120  1.00  0.00     0.000 C 
BRANCH   4   5
ATOM      5  C   UNL     1      18.845  16.903  17.192  1.00  0.00     0.000 C 
BRANCH   5   6
ATOM      6  C   UNL     1      18.222  17.515  18.451  1.00  0.00     0.000 C 
BRANCH   6   7
ATOM      7  C   UNL     1      18.026  19.039  18.331  1.00  0.00     0.000 C 
BRANCH   7   8
ATOM      8  C   UNL     1      19.221  19.837  18.876  1.00  0.00     0.000 C 
BRANCH   8   9
ATOM      9  C   UNL     1      19.049  21.361  18.712  1.00  0.00     0.000 C 
BRANCH   9  10
ATOM     10  C   UNL     1      20.169  22.001  17.865  1.00  0.00     0.000 C 
BRANCH  10  11
ATOM     11  C   UNL     1      21.562  21.927  18.533  1.00  0.00     0.000 C 
BRANCH  11  12
ATOM     12  C   UNL     1      22.432  20.759  18.030  1.00  0.00     0.000 C 
BRANCH  12  13
ATOM     13  C   UNL     1      23.172  20.043  19.173  1.00  0.00     0.006 C 
BRANCH  13  14
ATOM     14  C   UNL     1      23.658  21.039  20.236  1.00  0.00     0.053 C 
BRANCH  14  15
ATOM     15  C   UNL     1      25.131  20.891  20.465  1.00  0.00     0.041 C 
ATOM     16  O   UNL     1      25.948  21.163  19.542  1.00  0.00    -0.550 OA
ATOM     17  O   UNL     1      25.606  20.420  21.679  1.00  0.00    -0.550 OA
ENDBRANCH  14  15
ENDBRANCH  13  14
ENDBRANCH  12  13
ENDBRANCH  11  12
ENDBRANCH  10  11
ENDBRANCH   9  10
ENDBRANCH   8   9
ENDBRANCH   7   8
ENDBRANCH   6   7
ENDBRANCH   5   6
ENDBRANCH   4   5
ENDBRANCH   3   4
ENDBRANCH   2   3
ENDBRANCH   1   2
BRANCH   1  18
ATOM     18  C   UNL     1      22.302  12.308  17.759  1.00  0.00     0.000 C 
BRANCH  18  19
ATOM     19  C   UNL     1      23.026  11.218  16.947  1.00  0.00     0.000 C 
BRANCH  19  20
ATOM     20  C   UNL     1      22.282   9.868  16.981  1.00  0.00     0.000 C 
BRANCH  20  21
ATOM     21  C   UNL     1      23.057   8.714  17.652  1.00  0.00     0.000 C 
BRANCH  21  22
ATOM     22  C   UNL     1      23.057   7.379  16.876  1.00  0.00     0.000 C 
BRANCH  22  23
ATOM     23  C   UNL     1      21.691   6.669  16.892  1.00  0.00     0.000 C 
BRANCH  23  24
ATOM     24  C   UNL     1      21.357   6.100  18.282  1.00  0.00    -0.000 C 
BRANCH  24  25
ATOM     25  C   UNL     1      22.579   5.415  18.924  1.00  0.00    -0.000 C 
BRANCH  25  26
ATOM     26  C   UNL     1      22.397   5.146  20.428  1.00  0.00    -0.000 C 
BRANCH  26  27
ATOM     27  C   UNL     1      21.375   4.044  20.773  1.00  0.00    -0.000 C 
BRANCH  27  28
ATOM     28  C   UNL     1      21.386   2.821  19.835  1.00  0.00    -0.000 C 
BRANCH  28  29
ATOM     29  C   UNL     1      22.734   2.540  19.136  1.00  0.00    -0.000 C 
BRANCH  29  30
ATOM     30  C   UNL     1      23.876   2.116  20.076  1.00  0.00    -0.000 C 
BRANCH  30  31
ATOM     31  C   UNL     1      25.189   2.863  19.801  1.00  0.00    -0.003 C 
ATOM     32  C   UNL     1      26.009   3.010  21.082  1.00  0.00     0.004 C 
ENDBRANCH  30  31
ENDBRANCH  29  30
ENDBRANCH  28  29
ENDBRANCH  27  28
ENDBRANCH  26  27
ENDBRANCH  25  26
ENDBRANCH  24  25
ENDBRANCH  23  24
ENDBRANCH  22  23
ENDBRANCH  21  22
ENDBRANCH  20  21
ENDBRANCH  19  20
ENDBRANCH  18  19
ENDBRANCH   1  18
TORSDOF 28
ENDMDL
MODEL 2
REMARK VINA RESULT:     3.384      1.320      2.343
REMARK INTER + INTRA:           8.009
REMARK INTER:                   9.739
REMARK INTRA:                  -1.730
REMARK UNBOUND:                -0.914
REMARK SMILES CCCCCCCCCCCCCCCCCCCCCCCCCCCCCC(=O)[O-]
REMARK SMILES IDX 16 1 17 2 18 3 19 4 20 5 21 6 22 7 23 8 24 9 25 10 26 11
REMARK SMILES IDX 27 12 28 13 29 14 30 15 31 16 32 17 15 18 14 19 13 20 12 21
REMARK SMILES IDX 11 22 10 23 9 24 8 25 7 26 6 27 5 28 4 29 3 30 2 31 1 32
REMARK H PARENT
REMARK Flexibility Score: inf
ROOT
ATOM      1  C   UNL     1      21.419  13.133  16.875  1.00  0.00     0.000 C 
ENDROOT
BRANCH   1   2
ATOM      2  C   UNL     1      21.150  14.480  17.569  1.00  0.00     0.000 C 
BRANCH   2   3
ATOM      3  C   UNL     1      19.687  14.639  18.014  1.00  0.00     0.000 C 
BRANCH   3   4
ATOM      4  C   UNL     1      18.882  15.681  17.218  1.00  0.00     0.000 C 
BRANCH   4   5
ATOM      5  C   UNL     1      19.072  17.114  17.745  1.00  0.00     0.000 C 
BRANCH   5   6
ATOM      6  C   UNL     1      17.945  17.540  18.693  1.00  0.00     0.000 C 
BRANCH   6   7
ATOM      7  C   UNL     1      17.391  18.939  18.358  1.00  0.00     0.000 C 
BRANCH   7   8
ATOM      8  C   UNL     1      18.208  20.071  19.000  1.00  0.00     0.000 C 
BRANCH   8   9
ATOM      9  C   UNL     1      18.694  21.115  17.975  1.00  0.00     0.000 C 
BRANCH   9  10
ATOM     10  C   UNL     1      19.945  21.883  18.453  1.00  0.00     0.000 C 
BRANCH  10  11
ATOM     11  C   UNL     1      20.273  21.655  19.946  1.00  0.00     0.000 C 
BRANCH  11  12
ATOM     12  C   UNL     1      21.765  21.826  20.289  1.00  0.00     0.000 C 
BRANCH  12  13
ATOM     13  C   UNL     1      22.672  21.684  19.054  1.00  0.00     0.006 C 
BRANCH  13  14
ATOM     14  C   UNL     1      23.179  20.243  18.894  1.00  0.00     0.053 C 
BRANCH  14  15
ATOM     15  C   UNL     1      24.413  20.023  19.715  1.00  0.00     0.041 C 
ATOM     16  O   UNL     1      24.543  18.968  20.395  1.00  0.00    -0.550 OA
ATOM     17  O   UNL     1      25.403  20.991  19.762  1.00  0.00    -0.550 OA
ENDBRANCH  14  15
ENDBRANCH  13  14
ENDBRANCH  12  13
ENDBRANCH  11  12
ENDBRANCH  10  11
ENDBRANCH   9  10
ENDBRANCH   8   9
ENDBRANCH   7   8
ENDBRANCH   6   7
ENDBRANCH   5   6
ENDBRANCH   4   5
ENDBRANCH   3   4
ENDBRANCH   2   3
ENDBRANCH   1   2
BRANCH   1  18
ATOM     18  C   UNL     1      22.305  12.236  17.743  1.00  0.00     0.000 C 
BRANCH  18  19
ATOM     19  C   UNL     1      23.103  11.243  16.879  1.00  0.00     0.000 C 
BRANCH  19  20
ATOM     20  C   UNL     1      22.620   9.789  17.055  1.00  0.00     0.000 C 
BRANCH  20  21
ATOM     21  C   UNL     1      23.607   8.861  17.793  1.00  0.00     0.000 C 
BRANCH  21  22
ATOM     22  C   UNL     1      24.450   7.937  16.887  1.00  0.00     0.000 C 
BRANCH  22  23
ATOM     23  C   UNL     1      23.956   6.479  16.879  1.00  0.00     0.000 C 
BRANCH  23  24
ATOM     24  C   UNL     1      25.101   5.486  17.146  1.00  0.00    -0.000 C 
BRANCH  24  25
ATOM     25  C   UNL     1      25.817   5.787  18.477  1.00  0.00    -0.000 C 
BRANCH  25  26
ATOM     26  C   UNL     1      25.871   4.572  19.419  1.00  0.00    -0.000 C 
BRANCH  26  27
ATOM     27  C   UNL     1      24.574   3.740  19.484  1.00  0.00    -0.000 C 
BRANCH  27  28
ATOM     28  C   UNL     1      23.518   4.248  20.485  1.00  0.00    -0.000 C 
BRANCH  28  29
ATOM     29  C   UNL     1      22.179   3.478  20.476  1.00  0.00    -0.000 C 
BRANCH  29  30
ATOM     30  C   UNL     1      21.842   2.779  19.147  1.00  0.00    -0.000 C 
BRANCH  30  31
ATOM     31  C   UNL     1      20.340   2.789  18.828  1.00  0.00    -0.003 C 
ATOM     32  C   UNL     1      19.552   3.472  19.944  1.00  0.00     0.004 C 
ENDBRANCH  30  31
ENDBRANCH  29  30
ENDBRANCH  28  29
ENDBRANCH  27  28
ENDBRANCH  26  27
ENDBRANCH  25  26
ENDBRANCH  24  25
ENDBRANCH  23  24
ENDBRANCH  22  23
ENDBRANCH  21  22
ENDBRANCH  20  21
ENDBRANCH  19  20
ENDBRANCH  18  19
ENDBRANCH   1  18
TORSDOF 28
ENDMDL
MODEL 3
REMARK VINA RESULT:     4.319      4.510     14.537
REMARK INTER + INTRA:          10.474
REMARK INTER:                  11.624
REMARK INTRA:                  -1.150
REMARK UNBOUND:                -0.914
REMARK SMILES CCCCCCCCCCCCCCCCCCCCCCCCCCCCCC(=O)[O-]
REMARK SMILES IDX 16 1 17 2 18 3 19 4 20 5 21 6 22 7 23 8 24 9 25 10 26 11
REMARK SMILES IDX 27 12 28 13 29 14 30 15 31 16 32 17 15 18 14 19 13 20 12 21
REMARK SMILES IDX 11 22 10 23 9 24 8 25 7 26 6 27 5 28 4 29 3 30 2 31 1 32
REMARK H PARENT
REMARK Flexibility Score: inf
ROOT
ATOM      1  C   UNL     1      21.595  12.250  18.097  1.00  0.00     0.000 C 
ENDROOT
BRANCH   1   2
ATOM      2  C   UNL     1      22.563  11.063  17.938  1.00  0.00     0.000 C 
BRANCH   2   3
ATOM      3  C   UNL     1      22.080  10.038  16.898  1.00  0.00     0.000 C 
BRANCH   3   4
ATOM      4  C   UNL     1      22.877   8.722  16.875  1.00  0.00     0.000 C 
BRANCH   4   5
ATOM      5  C   UNL     1      22.244   7.624  17.748  1.00  0.00     0.000 C 
BRANCH   5   6
ATOM      6  C   UNL     1      22.076   6.302  16.990  1.00  0.00     0.000 C 
BRANCH   6   7
ATOM      7  C   UNL     1      23.384   5.490  16.923  1.00  0.00     0.000 C 
BRANCH   7   8
ATOM      8  C   UNL     1      24.470   6.033  17.865  1.00  0.00     0.000 C 
BRANCH   8   9
ATOM      9  C   UNL     1      24.818   5.055  19.006  1.00  0.00     0.000 C 
BRANCH   9  10
ATOM     10  C   UNL     1      25.597   3.817  18.514  1.00  0.00     0.000 C 
BRANCH  10  11
ATOM     11  C   UNL     1      24.774   2.510  18.575  1.00  0.00     0.000 C 
BRANCH  11  12
ATOM     12  C   UNL     1      24.466   2.034  20.008  1.00  0.00     0.000 C 
BRANCH  12  13
ATOM     13  C   UNL     1      22.957   1.875  20.263  1.00  0.00     0.006 C 
BRANCH  13  14
ATOM     14  C   UNL     1      22.351   3.156  20.855  1.00  0.00     0.053 C 
BRANCH  14  15
ATOM     15  C   UNL     1      21.298   3.712  19.947  1.00  0.00     0.041 C 
ATOM     16  O   UNL     1      21.552   3.911  18.727  1.00  0.00    -0.550 OA
ATOM     17  O   UNL     1      20.048   4.044  20.446  1.00  0.00    -0.550 OA
ENDBRANCH  14  15
ENDBRANCH  13  14
ENDBRANCH  12  13
ENDBRANCH  11  12
ENDBRANCH  10  11
ENDBRANCH   9  10
ENDBRANCH   8   9
ENDBRANCH   7   8
ENDBRANCH   6   7
ENDBRANCH   5   6
ENDBRANCH   4   5
ENDBRANCH   3   4
ENDBRANCH   2   3
ENDBRANCH   1   2
BRANCH   1  18
ATOM     18  C   UNL     1      21.649  13.170  16.875  1.00  0.00     0.000 C 
BRANCH  18  19
ATOM     19  C   UNL     1      21.313  14.622  17.261  1.00  0.00     0.000 C 
BRANCH  19  20
ATOM     20  C   UNL     1      19.953  14.740  17.979  1.00  0.00     0.000 C 
BRANCH  20  21
ATOM     21  C   UNL     1      18.810  15.314  17.117  1.00  0.00     0.000 C 
BRANCH  21  22
ATOM     22  C   UNL     1      18.740  16.856  17.052  1.00  0.00     0.000 C 
BRANCH  22  23
ATOM     23  C   UNL     1      17.981  17.479  18.237  1.00  0.00     0.000 C 
BRANCH  23  24
ATOM     24  C   UNL     1      18.670  18.756  18.749  1.00  0.00    -0.000 C 
BRANCH  24  25
ATOM     25  C   UNL     1      19.360  19.527  17.608  1.00  0.00    -0.000 C 
BRANCH  25  26
ATOM     26  C   UNL     1      20.025  20.833  18.078  1.00  0.00    -0.000 C 
BRANCH  26  27
ATOM     27  C   UNL     1      21.008  21.462  17.071  1.00  0.00    -0.000 C 
BRANCH  27  28
ATOM     28  C   UNL     1      22.499  21.329  17.437  1.00  0.00    -0.000 C 
BRANCH  28  29
ATOM     29  C   UNL     1      22.799  21.234  18.949  1.00  0.00    -0.000 C 
BRANCH  29  30
ATOM     30  C   UNL     1      24.092  20.480  19.307  1.00  0.00    -0.000 C 
BRANCH  30  31
ATOM     31  C   UNL     1      25.072  21.327  20.132  1.00  0.00    -0.003 C 
ATOM     32  C   UNL     1      25.317  20.695  21.501  1.00  0.00     0.004 C 
ENDBRANCH  30  31
ENDBRANCH  29  30
ENDBRANCH  28  29
ENDBRANCH  27  28
ENDBRANCH  26  27
ENDBRANCH  25  26
ENDBRANCH  24  25
ENDBRANCH  23  24
ENDBRANCH  22  23
ENDBRANCH  21  22
ENDBRANCH  20  21
ENDBRANCH  19  20
ENDBRANCH  18  19
ENDBRANCH   1  18
TORSDOF 28
ENDMDL
MODEL 4
REMARK VINA RESULT:     4.714      4.559     13.855
REMARK INTER + INTRA:          11.515
REMARK INTER:                  12.469
REMARK INTRA:                  -0.954
REMARK UNBOUND:                -0.914
REMARK SMILES CCCCCCCCCCCCCCCCCCCCCCCCCCCCCC(=O)[O-]
REMARK SMILES IDX 16 1 17 2 18 3 19 4 20 5 21 6 22 7 23 8 24 9 25 10 26 11
REMARK SMILES IDX 27 12 28 13 29 14 30 15 31 16 32 17 15 18 14 19 13 20 12 21
REMARK SMILES IDX 11 22 10 23 9 24 8 25 7 26 6 27 5 28 4 29 3 30 2 31 1 32
REMARK H PARENT
REMARK Flexibility Score: inf
ROOT
ATOM      1  C   UNL     1      21.360  12.797  18.289  1.00  0.00     0.000 C 
ENDROOT
BRANCH   1   2
ATOM      2  C   UNL     1      21.923  11.664  17.412  1.00  0.00     0.000 C 
BRANCH   2   3
ATOM      3  C   UNL     1      23.120  10.949  18.060  1.00  0.00     0.000 C 
BRANCH   3   4
ATOM      4  C   UNL     1      24.497  11.502  17.655  1.00  0.00     0.000 C 
BRANCH   4   5
ATOM      5  C   UNL     1      25.658  10.584  18.075  1.00  0.00     0.000 C 
BRANCH   5   6
ATOM      6  C   UNL     1      26.125   9.676  16.932  1.00  0.00     0.000 C 
BRANCH   6   7
ATOM      7  C   UNL     1      25.341   8.350  16.875  1.00  0.00     0.000 C 
BRANCH   7   8
ATOM      8  C   UNL     1      25.876   7.300  17.861  1.00  0.00     0.000 C 
BRANCH   8   9
ATOM      9  C   UNL     1      26.044   5.907  17.221  1.00  0.00     0.000 C 
BRANCH   9  10
ATOM     10  C   UNL     1      24.695   5.240  16.878  1.00  0.00     0.000 C 
BRANCH  10  11
ATOM     11  C   UNL     1      23.473   6.140  17.174  1.00  0.00     0.000 C 
BRANCH  11  12
ATOM     12  C   UNL     1      22.148   5.366  17.312  1.00  0.00     0.000 C 
BRANCH  12  13
ATOM     13  C   UNL     1      21.745   5.148  18.781  1.00  0.00     0.006 C 
BRANCH  13  14
ATOM     14  C   UNL     1      22.970   5.169  19.707  1.00  0.00     0.053 C 
BRANCH  14  15
ATOM     15  C   UNL     1      22.836   4.136  20.784  1.00  0.00     0.041 C 
ATOM     16  O   UNL     1      21.728   3.568  20.985  1.00  0.00    -0.550 OA
ATOM     17  O   UNL     1      23.919   3.823  21.590  1.00  0.00    -0.550 OA
ENDBRANCH  14  15
ENDBRANCH  13  14
ENDBRANCH  12  13
ENDBRANCH  11  12
ENDBRANCH  10  11
ENDBRANCH   9  10
ENDBRANCH   8   9
ENDBRANCH   7   8
ENDBRANCH   6   7
ENDBRANCH   5   6
ENDBRANCH   4   5
ENDBRANCH   3   4
ENDBRANCH   2   3
ENDBRANCH   1   2
BRANCH   1  18
ATOM     18  C   UNL     1      21.069  14.045  17.453  1.00  0.00     0.000 C 
BRANCH  18  19
ATOM     19  C   UNL     1      20.081  14.978  18.177  1.00  0.00     0.000 C 
BRANCH  19  20
ATOM     20  C   UNL     1      18.807  15.244  17.348  1.00  0.00     0.000 C 
BRANCH  20  21
ATOM     21  C   UNL     1      17.878  16.336  17.916  1.00  0.00     0.000 C 
BRANCH  21  22
ATOM     22  C   UNL     1      17.963  17.708  17.211  1.00  0.00     0.000 C 
BRANCH  22  23
ATOM     23  C   UNL     1      16.934  18.725  17.738  1.00  0.00     0.000 C 
BRANCH  23  24
ATOM     24  C   UNL     1      17.414  19.407  19.031  1.00  0.00    -0.000 C 
BRANCH  24  25
ATOM     25  C   UNL     1      17.515  20.936  18.864  1.00  0.00    -0.000 C 
BRANCH  25  26
ATOM     26  C   UNL     1      18.948  21.418  18.585  1.00  0.00    -0.000 C 
BRANCH  26  27
ATOM     27  C   UNL     1      19.585  20.855  17.298  1.00  0.00    -0.000 C 
BRANCH  27  28
ATOM     28  C   UNL     1      20.988  20.242  17.474  1.00  0.00    -0.000 C 
BRANCH  28  29
ATOM     29  C   UNL     1      21.699  20.595  18.799  1.00  0.00    -0.000 C 
BRANCH  29  30
ATOM     30  C   UNL     1      23.237  20.577  18.733  1.00  0.00    -0.000 C 
BRANCH  30  31
ATOM     31  C   UNL     1      23.871  19.651  19.780  1.00  0.00    -0.003 C 
ATOM     32  C   UNL     1      25.104  18.950  19.210  1.00  0.00     0.004 C 
ENDBRANCH  30  31
ENDBRANCH  29  30
ENDBRANCH  28  29
ENDBRANCH  27  28
ENDBRANCH  26  27
ENDBRANCH  25  26
ENDBRANCH  24  25
ENDBRANCH  23  24
ENDBRANCH  22  23
ENDBRANCH  21  22
ENDBRANCH  20  21
ENDBRANCH  19  20
ENDBRANCH  18  19
ENDBRANCH   1  18
TORSDOF 28
ENDMDL
