MODEL 1
REMARK VINA RESULT:    -5.877      0.000      0.000
REMARK INTER + INTRA:          -7.204
REMARK INTER:                  -6.908
REMARK INTRA:                  -0.297
REMARK UNBOUND:                -0.297
REMARK SMILES O=c1c(O)c(-c2ccc(O)cc2)oc2cc(O)cc(O)c12
REMARK SMILES IDX 5 1 3 2 2 3 1 4 21 5 19 6 18 7 16 8 15 9 14 10 13 11 6 12
REMARK SMILES IDX 7 13 8 14 9 15 12 16 11 17 10 18 4 20 20 22 17 24
REMARK H PARENT 10 19 4 21 20 23 17 25
REMARK Flexibility Score: inf
ROOT
ATOM      1  C   UNL     1       1.078  -3.128  22.664  1.00  0.00     0.180 A 
ATOM      2  C   UNL     1       1.906  -2.302  23.443  1.00  0.00     0.208 A 
ATOM      3  C   UNL     1       1.471  -1.912  24.721  1.00  0.00     0.238 A 
ATOM      4  O   UNL     1       2.193  -1.128  25.391  1.00  0.00    -0.285 OA
ATOM      5  C   UNL     1       0.223  -2.366  25.209  1.00  0.00     0.111 A 
ATOM      6  C   UNL     1      -0.299  -2.067  26.504  1.00  0.00     0.134 A 
ATOM      7  C   UNL     1      -1.601  -2.461  26.831  1.00  0.00     0.093 A 
ATOM      8  C   UNL     1      -2.377  -3.201  25.935  1.00  0.00     0.123 A 
ATOM      9  C   UNL     1      -1.855  -3.549  24.692  1.00  0.00     0.094 A 
ATOM     10  C   UNL     1      -0.572  -3.139  24.322  1.00  0.00     0.146 A 
ATOM     11  O   UNL     1      -0.116  -3.484  23.124  1.00  0.00    -0.452 OA
ENDROOT
BRANCH   1  12
ATOM     12  C   UNL     1       1.477  -3.601  21.319  1.00  0.00     0.021 A 
ATOM     13  C   UNL     1       1.095  -2.865  20.185  1.00  0.00     0.016 A 
ATOM     14  C   UNL     1       1.442  -3.306  18.904  1.00  0.00     0.047 A 
ATOM     15  C   UNL     1       2.161  -4.494  18.739  1.00  0.00     0.115 A 
ATOM     16  C   UNL     1       2.182  -4.807  21.145  1.00  0.00     0.016 A 
ATOM     17  C   UNL     1       2.528  -5.245  19.864  1.00  0.00     0.047 A 
BRANCH  15  18
ATOM     18  O   UNL     1       2.501  -4.920  17.457  1.00  0.00    -0.508 OA
ATOM     19  H   UNL     1       1.890  -5.527  16.923  1.00  0.00     0.293 HD
ENDBRANCH  15  18
ENDBRANCH   1  12
BRANCH   2  20
ATOM     20  O   UNL     1       3.125  -1.847  22.933  1.00  0.00    -0.502 OA
ATOM     21  H   UNL     1       3.680  -2.389  22.284  1.00  0.00     0.293 HD
ENDBRANCH   2  20
BRANCH   6  22
ATOM     22  O   UNL     1       0.426  -1.413  27.504  1.00  0.00    -0.507 OA
ATOM     23  H   UNL     1       1.009  -1.875  28.186  1.00  0.00     0.293 HD
ENDBRANCH   6  22
BRANCH   8  24
ATOM     24  O   UNL     1      -3.667  -3.602  26.275  1.00  0.00    -0.508 OA
ATOM     25  H   UNL     1      -4.212  -4.205  25.669  1.00  0.00     0.293 HD
ENDBRANCH   8  24
TORSDOF 5
ENDMDL
MODEL 2
REMARK VINA RESULT:    -5.696      2.598      4.114
REMARK INTER + INTRA:          -6.992
REMARK INTER:                  -6.811
REMARK INTRA:                  -0.180
REMARK UNBOUND:                -0.297
REMARK SMILES O=c1c(O)c(-c2ccc(O)cc2)oc2cc(O)cc(O)c12
REMARK SMILES IDX 5 1 3 2 2 3 1 4 21 5 19 6 18 7 16 8 15 9 14 10 13 11 6 12
REMARK SMILES IDX 7 13 8 14 9 15 12 16 11 17 10 18 4 20 20 22 17 24
REMARK H PARENT 10 19 4 21 20 23 17 25
REMARK Flexibility Score: inf
ROOT
ATOM      1  C   UNL     1       0.842  -3.645  25.317  1.00  0.00     0.180 A 
ATOM      2  C   UNL     1      -0.458  -3.188  25.598  1.00  0.00     0.208 A 
ATOM      3  C   UNL     1      -0.808  -2.905  26.928  1.00  0.00     0.238 A 
ATOM      4  O   UNL     1      -1.988  -2.549  27.180  1.00  0.00    -0.285 OA
ATOM      5  C   UNL     1       0.150  -3.065  27.958  1.00  0.00     0.111 A 
ATOM      6  C   UNL     1      -0.082  -2.769  29.335  1.00  0.00     0.134 A 
ATOM      7  C   UNL     1       0.894  -3.089  30.284  1.00  0.00     0.093 A 
ATOM      8  C   UNL     1       2.122  -3.634  29.900  1.00  0.00     0.123 A 
ATOM      9  C   UNL     1       2.381  -3.872  28.552  1.00  0.00     0.094 A 
ATOM     10  C   UNL     1       1.412  -3.597  27.584  1.00  0.00     0.146 A 
ATOM     11  O   UNL     1       1.697  -3.848  26.312  1.00  0.00    -0.452 OA
ENDROOT
BRANCH   1  12
ATOM     12  C   UNL     1       1.292  -3.941  23.938  1.00  0.00     0.021 A 
ATOM     13  C   UNL     1       1.652  -5.254  23.595  1.00  0.00     0.016 A 
ATOM     14  C   UNL     1       2.103  -5.552  22.305  1.00  0.00     0.047 A 
ATOM     15  C   UNL     1       2.212  -4.540  21.347  1.00  0.00     0.115 A 
ATOM     16  C   UNL     1       1.425  -2.923  22.976  1.00  0.00     0.016 A 
ATOM     17  C   UNL     1       1.875  -3.222  21.687  1.00  0.00     0.047 A 
BRANCH  15  18
ATOM     18  O   UNL     1       2.661  -4.850  20.065  1.00  0.00    -0.508 OA
ATOM     19  H   UNL     1       3.646  -4.820  19.828  1.00  0.00     0.293 HD
ENDBRANCH  15  18
ENDBRANCH   1  12
BRANCH   2  20
ATOM     20  O   UNL     1      -1.395  -3.058  24.569  1.00  0.00    -0.502 OA
ATOM     21  H   UNL     1      -1.221  -3.391  23.629  1.00  0.00     0.293 HD
ENDBRANCH   2  20
BRANCH   6  22
ATOM     22  O   UNL     1      -1.236  -2.141  29.813  1.00  0.00    -0.507 OA
ATOM     23  H   UNL     1      -1.632  -1.296  29.429  1.00  0.00     0.293 HD
ENDBRANCH   6  22
BRANCH   8  24
ATOM     24  O   UNL     1       3.095  -3.936  30.850  1.00  0.00    -0.508 OA
ATOM     25  H   UNL     1       3.708  -4.737  30.745  1.00  0.00     0.293 HD
ENDBRANCH   8  24
TORSDOF 5
ENDMDL
MODEL 3
REMARK VINA RESULT:    -5.692      3.792      6.490
REMARK INTER + INTRA:          -6.987
REMARK INTER:                  -6.698
REMARK INTRA:                  -0.289
REMARK UNBOUND:                -0.297
REMARK SMILES O=c1c(O)c(-c2ccc(O)cc2)oc2cc(O)cc(O)c12
REMARK SMILES IDX 5 1 3 2 2 3 1 4 21 5 19 6 18 7 16 8 15 9 14 10 13 11 6 12
REMARK SMILES IDX 7 13 8 14 9 15 12 16 11 17 10 18 4 20 20 22 17 24
REMARK H PARENT 10 19 4 21 20 23 17 25
REMARK Flexibility Score: inf
ROOT
ATOM      1  C   UNL     1      -3.001  -1.403  23.356  1.00  0.00     0.180 A 
ATOM      2  C   UNL     1      -3.129  -2.118  24.560  1.00  0.00     0.208 A 
ATOM      3  C   UNL     1      -1.999  -2.760  25.094  1.00  0.00     0.238 A 
ATOM      4  O   UNL     1      -2.133  -3.443  26.142  1.00  0.00    -0.285 OA
ATOM      5  C   UNL     1      -0.754  -2.664  24.428  1.00  0.00     0.111 A 
ATOM      6  C   UNL     1       0.464  -3.240  24.900  1.00  0.00     0.134 A 
ATOM      7  C   UNL     1       1.607  -3.193  24.094  1.00  0.00     0.093 A 
ATOM      8  C   UNL     1       1.594  -2.534  22.862  1.00  0.00     0.123 A 
ATOM      9  C   UNL     1       0.426  -1.918  22.420  1.00  0.00     0.094 A 
ATOM     10  C   UNL     1      -0.741  -1.978  23.185  1.00  0.00     0.146 A 
ATOM     11  O   UNL     1      -1.835  -1.386  22.722  1.00  0.00    -0.452 OA
ENDROOT
BRANCH   1  12
ATOM     12  C   UNL     1      -4.139  -0.680  22.744  1.00  0.00     0.021 A 
ATOM     13  C   UNL     1      -4.412   0.640  23.136  1.00  0.00     0.016 A 
ATOM     14  C   UNL     1      -5.496   1.334  22.588  1.00  0.00     0.047 A 
ATOM     15  C   UNL     1      -6.328   0.712  21.653  1.00  0.00     0.115 A 
ATOM     16  C   UNL     1      -4.994  -1.308  21.818  1.00  0.00     0.016 A 
ATOM     17  C   UNL     1      -6.076  -0.613  21.271  1.00  0.00     0.047 A 
BRANCH  15  18
ATOM     18  O   UNL     1      -7.404   1.414  21.114  1.00  0.00    -0.508 OA
ATOM     19  H   UNL     1      -7.717   1.255  20.164  1.00  0.00     0.293 HD
ENDBRANCH  15  18
ENDBRANCH   1  12
BRANCH   2  20
ATOM     20  O   UNL     1      -4.373  -2.218  25.189  1.00  0.00    -0.502 OA
ATOM     21  H   UNL     1      -5.078  -1.496  25.120  1.00  0.00     0.293 HD
ENDBRANCH   2  20
BRANCH   6  22
ATOM     22  O   UNL     1       0.607  -3.840  26.154  1.00  0.00    -0.507 OA
ATOM     23  H   UNL     1      -0.083  -4.431  26.591  1.00  0.00     0.293 HD
ENDBRANCH   6  22
BRANCH   8  24
ATOM     24  O   UNL     1       2.741  -2.480  22.072  1.00  0.00    -0.508 OA
ATOM     25  H   UNL     1       3.425  -3.227  22.079  1.00  0.00     0.293 HD
ENDBRANCH   8  24
TORSDOF 5
ENDMDL
MODEL 4
REMARK VINA RESULT:    -5.658      3.777      6.511
REMARK INTER + INTRA:          -6.947
REMARK INTER:                  -6.647
REMARK INTRA:                  -0.300
REMARK UNBOUND:                -0.297
REMARK SMILES O=c1c(O)c(-c2ccc(O)cc2)oc2cc(O)cc(O)c12
REMARK SMILES IDX 5 1 3 2 2 3 1 4 21 5 19 6 18 7 16 8 15 9 14 10 13 11 6 12
REMARK SMILES IDX 7 13 8 14 9 15 12 16 11 17 10 18 4 20 20 22 17 24
REMARK H PARENT 10 19 4 21 20 23 17 25
REMARK Flexibility Score: inf
ROOT
ATOM      1  C   UNL     1      -3.010  -1.418  23.428  1.00  0.00     0.180 A 
ATOM      2  C   UNL     1      -3.121  -2.143  24.628  1.00  0.00     0.208 A 
ATOM      3  C   UNL     1      -1.987  -2.798  25.135  1.00  0.00     0.238 A 
ATOM      4  O   UNL     1      -2.107  -3.490  26.180  1.00  0.00    -0.285 OA
ATOM      5  C   UNL     1      -0.754  -2.707  24.447  1.00  0.00     0.111 A 
ATOM      6  C   UNL     1       0.468  -3.297  24.891  1.00  0.00     0.134 A 
ATOM      7  C   UNL     1       1.596  -3.253  24.065  1.00  0.00     0.093 A 
ATOM      8  C   UNL     1       1.566  -2.583  22.839  1.00  0.00     0.123 A 
ATOM      9  C   UNL     1       0.395  -1.953  22.424  1.00  0.00     0.094 A 
ATOM     10  C   UNL     1      -0.758  -2.011  23.210  1.00  0.00     0.146 A 
ATOM     11  O   UNL     1      -1.856  -1.406  22.772  1.00  0.00    -0.452 OA
ENDROOT
BRANCH   1  12
ATOM     12  C   UNL     1      -4.153  -0.681  22.844  1.00  0.00     0.021 A 
ATOM     13  C   UNL     1      -4.959  -1.306  21.879  1.00  0.00     0.016 A 
ATOM     14  C   UNL     1      -6.030  -0.621  21.297  1.00  0.00     0.047 A 
ATOM     15  C   UNL     1      -6.299   0.702  21.661  1.00  0.00     0.115 A 
ATOM     16  C   UNL     1      -4.416   0.658  23.190  1.00  0.00     0.016 A 
ATOM     17  C   UNL     1      -5.487   1.341  22.607  1.00  0.00     0.047 A 
BRANCH  15  18
ATOM     18  O   UNL     1      -7.370   1.373  21.074  1.00  0.00    -0.508 OA
ATOM     19  H   UNL     1      -8.041   0.889  20.489  1.00  0.00     0.293 HD
ENDBRANCH  15  18
ENDBRANCH   1  12
BRANCH   2  20
ATOM     20  O   UNL     1      -4.354  -2.238  25.280  1.00  0.00    -0.502 OA
ATOM     21  H   UNL     1      -5.020  -1.477  25.298  1.00  0.00     0.293 HD
ENDBRANCH   2  20
BRANCH   6  22
ATOM     22  O   UNL     1       0.630  -3.909  26.137  1.00  0.00    -0.507 OA
ATOM     23  H   UNL     1       0.632  -4.906  26.292  1.00  0.00     0.293 HD
ENDBRANCH   6  22
BRANCH   8  24
ATOM     24  O   UNL     1       2.699  -2.530  22.029  1.00  0.00    -0.508 OA
ATOM     25  H   UNL     1       3.554  -2.086  22.342  1.00  0.00     0.293 HD
ENDBRANCH   8  24
TORSDOF 5
ENDMDL
MODEL 5
REMARK VINA RESULT:    -5.589      4.720      6.237
REMARK INTER + INTRA:          -6.866
REMARK INTER:                  -6.594
REMARK INTRA:                  -0.272
REMARK UNBOUND:                -0.297
REMARK SMILES O=c1c(O)c(-c2ccc(O)cc2)oc2cc(O)cc(O)c12
REMARK SMILES IDX 5 1 3 2 2 3 1 4 21 5 19 6 18 7 16 8 15 9 14 10 13 11 6 12
REMARK SMILES IDX 7 13 8 14 9 15 12 16 11 17 10 18 4 20 20 22 17 24
REMARK H PARENT 10 19 4 21 20 23 17 25
REMARK Flexibility Score: inf
ROOT
ATOM      1  C   UNL     1      -2.779  -0.575  21.423  1.00  0.00     0.180 A 
ATOM      2  C   UNL     1      -3.323  -0.860  22.688  1.00  0.00     0.208 A 
ATOM      3  C   UNL     1      -2.508  -1.467  23.658  1.00  0.00     0.238 A 
ATOM      4  O   UNL     1      -3.015  -1.769  24.770  1.00  0.00    -0.285 OA
ATOM      5  C   UNL     1      -1.157  -1.764  23.358  1.00  0.00     0.111 A 
ATOM      6  C   UNL     1      -0.230  -2.340  24.278  1.00  0.00     0.134 A 
ATOM      7  C   UNL     1       1.044  -2.711  23.833  1.00  0.00     0.093 A 
ATOM      8  C   UNL     1       1.448  -2.467  22.517  1.00  0.00     0.123 A 
ATOM      9  C   UNL     1       0.570  -1.851  21.628  1.00  0.00     0.094 A 
ATOM     10  C   UNL     1      -0.720  -1.501  22.033  1.00  0.00     0.146 A 
ATOM     11  O   UNL     1      -1.528  -0.925  21.151  1.00  0.00    -0.452 OA
ENDROOT
BRANCH   1  12
ATOM     12  C   UNL     1      -3.567   0.085  20.358  1.00  0.00     0.021 A 
ATOM     13  C   UNL     1      -3.495   1.479  20.205  1.00  0.00     0.016 A 
ATOM     14  C   UNL     1      -4.249   2.125  19.220  1.00  0.00     0.047 A 
ATOM     15  C   UNL     1      -5.094   1.388  18.385  1.00  0.00     0.115 A 
ATOM     16  C   UNL     1      -4.437  -0.649  19.528  1.00  0.00     0.016 A 
ATOM     17  C   UNL     1      -5.189  -0.001  18.544  1.00  0.00     0.047 A 
BRANCH  15  18
ATOM     18  O   UNL     1      -5.838   2.045  17.407  1.00  0.00    -0.508 OA
ATOM     19  H   UNL     1      -5.542   2.061  16.439  1.00  0.00     0.293 HD
ENDBRANCH  15  18
ENDBRANCH   1  12
BRANCH   2  20
ATOM     20  O   UNL     1      -4.665  -0.579  22.957  1.00  0.00    -0.502 OA
ATOM     21  H   UNL     1      -5.026  -0.500  23.898  1.00  0.00     0.293 HD
ENDBRANCH   2  20
BRANCH   6  22
ATOM     22  O   UNL     1      -0.501  -2.542  25.634  1.00  0.00    -0.507 OA
ATOM     23  H   UNL     1      -1.363  -2.289  26.092  1.00  0.00     0.293 HD
ENDBRANCH   6  22
BRANCH   8  24
ATOM     24  O   UNL     1       2.723  -2.826  22.086  1.00  0.00    -0.508 OA
ATOM     25  H   UNL     1       3.556  -2.444  22.520  1.00  0.00     0.293 HD
ENDBRANCH   8  24
TORSDOF 5
ENDMDL
MODEL 6
REMARK VINA RESULT:    -5.387      1.851      2.526
REMARK INTER + INTRA:          -6.628
REMARK INTER:                  -6.378
REMARK INTRA:                  -0.250
REMARK UNBOUND:                -0.297
REMARK SMILES O=c1c(O)c(-c2ccc(O)cc2)oc2cc(O)cc(O)c12
REMARK SMILES IDX 5 1 3 2 2 3 1 4 21 5 19 6 18 7 16 8 15 9 14 10 13 11 6 12
REMARK SMILES IDX 7 13 8 14 9 15 12 16 11 17 10 18 4 20 20 22 17 24
REMARK H PARENT 10 19 4 21 20 23 17 25
REMARK Flexibility Score: inf
ROOT
ATOM      1  C   UNL     1       0.743  -3.199  25.001  1.00  0.00     0.180 A 
ATOM      2  C   UNL     1       1.511  -2.887  26.136  1.00  0.00     0.208 A 
ATOM      3  C   UNL     1       0.874  -2.333  27.259  1.00  0.00     0.238 A 
ATOM      4  O   UNL     1       1.576  -2.005  28.251  1.00  0.00    -0.285 OA
ATOM      5  C   UNL     1      -0.524  -2.113  27.239  1.00  0.00     0.111 A 
ATOM      6  C   UNL     1      -1.279  -1.595  28.334  1.00  0.00     0.134 A 
ATOM      7  C   UNL     1      -2.635  -1.297  28.157  1.00  0.00     0.093 A 
ATOM      8  C   UNL     1      -3.279  -1.560  26.946  1.00  0.00     0.123 A 
ATOM      9  C   UNL     1      -2.564  -2.121  25.890  1.00  0.00     0.094 A 
ATOM     10  C   UNL     1      -1.201  -2.396  26.024  1.00  0.00     0.146 A 
ATOM     11  O   UNL     1      -0.555  -2.921  24.989  1.00  0.00    -0.452 OA
ENDROOT
BRANCH   1  12
ATOM     12  C   UNL     1       1.337  -3.808  23.790  1.00  0.00     0.021 A 
ATOM     13  C   UNL     1       1.497  -3.031  22.632  1.00  0.00     0.016 A 
ATOM     14  C   UNL     1       2.035  -3.592  21.469  1.00  0.00     0.047 A 
ATOM     15  C   UNL     1       2.406  -4.940  21.445  1.00  0.00     0.115 A 
ATOM     16  C   UNL     1       1.693  -5.170  23.753  1.00  0.00     0.016 A 
ATOM     17  C   UNL     1       2.231  -5.729  22.590  1.00  0.00     0.047 A 
BRANCH  15  18
ATOM     18  O   UNL     1       2.942  -5.486  20.281  1.00  0.00    -0.508 OA
ATOM     19  H   UNL     1       3.887  -5.275  19.984  1.00  0.00     0.293 HD
ENDBRANCH  15  18
ENDBRANCH   1  12
BRANCH   2  20
ATOM     20  O   UNL     1       2.894  -3.091  26.127  1.00  0.00    -0.502 OA
ATOM     21  H   UNL     1       3.465  -2.911  25.311  1.00  0.00     0.293 HD
ENDBRANCH   2  20
BRANCH   6  22
ATOM     22  O   UNL     1      -0.753  -1.382  29.611  1.00  0.00    -0.507 OA
ATOM     23  H   UNL     1      -0.774  -2.057  30.361  1.00  0.00     0.293 HD
ENDBRANCH   6  22
BRANCH   8  24
ATOM     24  O   UNL     1      -4.633  -1.274  26.783  1.00  0.00    -0.508 OA
ATOM     25  H   UNL     1      -5.268  -1.253  27.573  1.00  0.00     0.293 HD
ENDBRANCH   8  24
TORSDOF 5
ENDMDL
MODEL 7
REMARK VINA RESULT:    -5.321      2.347      6.500
REMARK INTER + INTRA:          -6.551
REMARK INTER:                  -6.546
REMARK INTRA:                  -0.004
REMARK UNBOUND:                -0.297
REMARK SMILES O=c1c(O)c(-c2ccc(O)cc2)oc2cc(O)cc(O)c12
REMARK SMILES IDX 5 1 3 2 2 3 1 4 21 5 19 6 18 7 16 8 15 9 14 10 13 11 6 12
REMARK SMILES IDX 7 13 8 14 9 15 12 16 11 17 10 18 4 20 20 22 17 24
REMARK H PARENT 10 19 4 21 20 23 17 25
REMARK Flexibility Score: inf
ROOT
ATOM      1  C   UNL     1       1.645  -3.425  23.804  1.00  0.00     0.180 A 
ATOM      2  C   UNL     1       2.243  -4.452  23.053  1.00  0.00     0.208 A 
ATOM      3  C   UNL     1       2.161  -4.406  21.651  1.00  0.00     0.238 A 
ATOM      4  O   UNL     1       2.651  -5.356  20.986  1.00  0.00    -0.285 OA
ATOM      5  C   UNL     1       1.499  -3.326  21.019  1.00  0.00     0.111 A 
ATOM      6  C   UNL     1       1.391  -3.157  19.605  1.00  0.00     0.134 A 
ATOM      7  C   UNL     1       0.602  -2.122  19.093  1.00  0.00     0.093 A 
ATOM      8  C   UNL     1      -0.031  -1.210  19.941  1.00  0.00     0.123 A 
ATOM      9  C   UNL     1       0.116  -1.332  21.320  1.00  0.00     0.094 A 
ATOM     10  C   UNL     1       0.868  -2.376  21.864  1.00  0.00     0.146 A 
ATOM     11  O   UNL     1       0.975  -2.461  23.184  1.00  0.00    -0.452 OA
ENDROOT
BRANCH   1  12
ATOM     12  C   UNL     1       1.710  -3.391  25.283  1.00  0.00     0.021 A 
ATOM     13  C   UNL     1       0.537  -3.165  26.022  1.00  0.00     0.016 A 
ATOM     14  C   UNL     1       0.579  -3.106  27.418  1.00  0.00     0.047 A 
ATOM     15  C   UNL     1       1.794  -3.257  28.093  1.00  0.00     0.115 A 
ATOM     16  C   UNL     1       2.933  -3.520  25.967  1.00  0.00     0.016 A 
ATOM     17  C   UNL     1       2.973  -3.461  27.363  1.00  0.00     0.047 A 
BRANCH  15  18
ATOM     18  O   UNL     1       1.821  -3.197  29.484  1.00  0.00    -0.508 OA
ATOM     19  H   UNL     1       2.507  -3.713  30.023  1.00  0.00     0.293 HD
ENDBRANCH  15  18
ENDBRANCH   1  12
BRANCH   2  20
ATOM     20  O   UNL     1       2.873  -5.520  23.697  1.00  0.00    -0.502 OA
ATOM     21  H   UNL     1       2.817  -5.661  24.698  1.00  0.00     0.293 HD
ENDBRANCH   2  20
BRANCH   6  22
ATOM     22  O   UNL     1       2.057  -3.957  18.672  1.00  0.00    -0.507 OA
ATOM     23  H   UNL     1       2.295  -4.927  18.812  1.00  0.00     0.293 HD
ENDBRANCH   6  22
BRANCH   8  24
ATOM     24  O   UNL     1      -0.804  -0.173  19.421  1.00  0.00    -0.508 OA
ATOM     25  H   UNL     1      -1.661   0.125  19.871  1.00  0.00     0.293 HD
ENDBRANCH   8  24
TORSDOF 5
ENDMDL
MODEL 8
REMARK VINA RESULT:    -5.285      4.655      5.633
REMARK INTER + INTRA:          -6.509
REMARK INTER:                  -6.254
REMARK INTRA:                  -0.255
REMARK UNBOUND:                -0.297
REMARK SMILES O=c1c(O)c(-c2ccc(O)cc2)oc2cc(O)cc(O)c12
REMARK SMILES IDX 5 1 3 2 2 3 1 4 21 5 19 6 18 7 16 8 15 9 14 10 13 11 6 12
REMARK SMILES IDX 7 13 8 14 9 15 12 16 11 17 10 18 4 20 20 22 17 24
REMARK H PARENT 10 19 4 21 20 23 17 25
REMARK Flexibility Score: inf
ROOT
ATOM      1  C   UNL     1      -2.406  -0.613  21.144  1.00  0.00     0.180 A 
ATOM      2  C   UNL     1      -1.077  -0.876  20.769  1.00  0.00     0.208 A 
ATOM      3  C   UNL     1      -0.242  -1.566  21.663  1.00  0.00     0.238 A 
ATOM      4  O   UNL     1       0.962  -1.752  21.343  1.00  0.00    -0.285 OA
ATOM      5  C   UNL     1      -0.749  -1.999  22.911  1.00  0.00     0.111 A 
ATOM      6  C   UNL     1      -0.003  -2.741  23.876  1.00  0.00     0.134 A 
ATOM      7  C   UNL     1      -0.566  -3.001  25.131  1.00  0.00     0.093 A 
ATOM      8  C   UNL     1      -1.871  -2.604  25.433  1.00  0.00     0.123 A 
ATOM      9  C   UNL     1      -2.627  -1.931  24.476  1.00  0.00     0.094 A 
ATOM     10  C   UNL     1      -2.081  -1.625  23.228  1.00  0.00     0.146 A 
ATOM     11  O   UNL     1      -2.833  -0.973  22.349  1.00  0.00    -0.452 OA
ENDROOT
BRANCH   1  12
ATOM     12  C   UNL     1      -3.354   0.087  20.248  1.00  0.00     0.021 A 
ATOM     13  C   UNL     1      -4.266  -0.660  19.486  1.00  0.00     0.016 A 
ATOM     14  C   UNL     1      -5.155  -0.021  18.615  1.00  0.00     0.047 A 
ATOM     15  C   UNL     1      -5.133   1.371  18.486  1.00  0.00     0.115 A 
ATOM     16  C   UNL     1      -3.323   1.486  20.097  1.00  0.00     0.016 A 
ATOM     17  C   UNL     1      -4.212   2.123  19.227  1.00  0.00     0.047 A 
BRANCH  15  18
ATOM     18  O   UNL     1      -6.025   1.995  17.616  1.00  0.00    -0.508 OA
ATOM     19  H   UNL     1      -5.839   2.917  17.240  1.00  0.00     0.293 HD
ENDBRANCH  15  18
ENDBRANCH   1  12
BRANCH   2  20
ATOM     20  O   UNL     1      -0.590  -0.422  19.541  1.00  0.00    -0.502 OA
ATOM     21  H   UNL     1      -1.189  -0.279  18.737  1.00  0.00     0.293 HD
ENDBRANCH   2  20
BRANCH   6  22
ATOM     22  O   UNL     1       1.272  -3.263  23.643  1.00  0.00    -0.507 OA
ATOM     23  H   UNL     1       1.795  -3.820  24.301  1.00  0.00     0.293 HD
ENDBRANCH   6  22
BRANCH   8  24
ATOM     24  O   UNL     1      -2.428  -2.881  26.679  1.00  0.00    -0.508 OA
ATOM     25  H   UNL     1      -2.202  -2.325  27.496  1.00  0.00     0.293 HD
ENDBRANCH   8  24
TORSDOF 5
ENDMDL
MODEL 9
REMARK VINA RESULT:    -5.266      4.692      6.149
REMARK INTER + INTRA:          -6.487
REMARK INTER:                  -6.188
REMARK INTRA:                  -0.298
REMARK UNBOUND:                -0.297
REMARK SMILES O=c1c(O)c(-c2ccc(O)cc2)oc2cc(O)cc(O)c12
REMARK SMILES IDX 5 1 3 2 2 3 1 4 21 5 19 6 18 7 16 8 15 9 14 10 13 11 6 12
REMARK SMILES IDX 7 13 8 14 9 15 12 16 11 17 10 18 4 20 20 22 17 24
REMARK H PARENT 10 19 4 21 20 23 17 25
REMARK Flexibility Score: inf
ROOT
ATOM      1  C   UNL     1      -3.958  -0.505  22.610  1.00  0.00     0.180 A 
ATOM      2  C   UNL     1      -4.712  -0.063  23.710  1.00  0.00     0.208 A 
ATOM      3  C   UNL     1      -4.342  -0.477  25.000  1.00  0.00     0.238 A 
ATOM      4  O   UNL     1      -5.054  -0.122  25.976  1.00  0.00    -0.285 OA
ATOM      5  C   UNL     1      -3.213  -1.313  25.175  1.00  0.00     0.111 A 
ATOM      6  C   UNL     1      -2.724  -1.760  26.440  1.00  0.00     0.134 A 
ATOM      7  C   UNL     1      -1.679  -2.689  26.485  1.00  0.00     0.093 A 
ATOM      8  C   UNL     1      -1.061  -3.138  25.315  1.00  0.00     0.123 A 
ATOM      9  C   UNL     1      -1.493  -2.662  24.079  1.00  0.00     0.094 A 
ATOM     10  C   UNL     1      -2.558  -1.762  23.999  1.00  0.00     0.146 A 
ATOM     11  O   UNL     1      -2.944  -1.341  22.800  1.00  0.00    -0.452 OA
ENDROOT
BRANCH   1  12
ATOM     12  C   UNL     1      -4.270  -0.092  21.223  1.00  0.00     0.021 A 
ATOM     13  C   UNL     1      -5.101  -0.901  20.431  1.00  0.00     0.016 A 
ATOM     14  C   UNL     1      -5.391  -0.542  19.110  1.00  0.00     0.047 A 
ATOM     15  C   UNL     1      -4.843   0.621  18.561  1.00  0.00     0.115 A 
ATOM     16  C   UNL     1      -3.704   1.066  20.657  1.00  0.00     0.016 A 
ATOM     17  C   UNL     1      -3.995   1.423  19.337  1.00  0.00     0.047 A 
BRANCH  15  18
ATOM     18  O   UNL     1      -5.141   0.967  17.245  1.00  0.00    -0.508 OA
ATOM     19  H   UNL     1      -4.476   0.817  16.495  1.00  0.00     0.293 HD
ENDBRANCH  15  18
ENDBRANCH   1  12
BRANCH   2  20
ATOM     20  O   UNL     1      -5.836   0.744  23.513  1.00  0.00    -0.502 OA
ATOM     21  H   UNL     1      -6.776   0.369  23.475  1.00  0.00     0.293 HD
ENDBRANCH   2  20
BRANCH   6  22
ATOM     22  O   UNL     1      -3.209  -1.304  27.668  1.00  0.00    -0.507 OA
ATOM     23  H   UNL     1      -4.165  -1.034  27.845  1.00  0.00     0.293 HD
ENDBRANCH   6  22
BRANCH   8  24
ATOM     24  O   UNL     1      -0.011  -4.052  25.371  1.00  0.00    -0.508 OA
ATOM     25  H   UNL     1       0.852  -3.900  24.861  1.00  0.00     0.293 HD
ENDBRANCH   8  24
TORSDOF 5
ENDMDL
