MODEL 1
REMARK VINA RESULT:    -4.882      0.000      0.000
REMARK INTER + INTRA:         -13.575
REMARK INTER:                 -10.590
REMARK INTRA:                  -2.985
REMARK UNBOUND:                -2.985
REMARK SMILES CCCCCCCCCCCCCCCCCCCCCC(=O)[O-]
REMARK SMILES IDX 12 1 11 2 10 3 9 4 8 5 7 6 6 7 5 8 4 9 3 10 2 11 1 12 13 13
REMARK SMILES IDX 14 14 15 15 16 16 17 17 18 18 19 19 20 20 21 21 22 22 23 23
REMARK SMILES IDX 24 24
REMARK H PARENT
REMARK Flexibility Score: inf
ROOT
ATOM      1  C   UNL     1      18.486  19.838  34.441  1.00  0.00     0.000 C 
ENDROOT
BRANCH   1   2
ATOM      2  C   UNL     1      17.261  19.247  33.728  1.00  0.00     0.000 C 
BRANCH   2   3
ATOM      3  C   UNL     1      17.665  18.589  32.402  1.00  0.00     0.000 C 
BRANCH   3   4
ATOM      4  C   UNL     1      16.440  18.363  31.502  1.00  0.00    -0.000 C 
BRANCH   4   5
ATOM      5  C   UNL     1      15.112  18.602  32.240  1.00  0.00    -0.000 C 
BRANCH   5   6
ATOM      6  C   UNL     1      13.914  18.709  31.282  1.00  0.00    -0.000 C 
BRANCH   6   7
ATOM      7  C   UNL     1      12.857  17.615  31.525  1.00  0.00    -0.000 C 
BRANCH   7   8
ATOM      8  C   UNL     1      13.363  16.168  31.357  1.00  0.00    -0.000 C 
BRANCH   8   9
ATOM      9  C   UNL     1      13.697  15.759  29.909  1.00  0.00    -0.000 C 
BRANCH   9  10
ATOM     10  C   UNL     1      12.497  15.749  28.941  1.00  0.00    -0.000 C 
BRANCH  10  11
ATOM     11  C   UNL     1      12.535  16.835  27.852  1.00  0.00    -0.003 C 
ATOM     12  C   UNL     1      13.888  17.540  27.760  1.00  0.00     0.004 C 
ENDBRANCH  10  11
ENDBRANCH   9  10
ENDBRANCH   8   9
ENDBRANCH   7   8
ENDBRANCH   6   7
ENDBRANCH   5   6
ENDBRANCH   4   5
ENDBRANCH   3   4
ENDBRANCH   2   3
ENDBRANCH   1   2
BRANCH   1  13
ATOM     13  C   UNL     1      19.792  19.652  33.647  1.00  0.00     0.000 C 
BRANCH  13  14
ATOM     14  C   UNL     1      20.978  19.086  34.456  1.00  0.00     0.000 C 
BRANCH  14  15
ATOM     15  C   UNL     1      20.759  19.016  35.978  1.00  0.00     0.000 C 
BRANCH  15  16
ATOM     16  C   UNL     1      20.880  17.605  36.584  1.00  0.00     0.000 C 
BRANCH  16  17
ATOM     17  C   UNL     1      20.412  16.482  35.634  1.00  0.00     0.000 C 
BRANCH  17  18
ATOM     18  C   UNL     1      19.002  15.971  35.980  1.00  0.00     0.000 C 
BRANCH  18  19
ATOM     19  C   UNL     1      18.127  15.763  34.734  1.00  0.00     0.000 C 
BRANCH  19  20
ATOM     20  C   UNL     1      16.622  15.839  35.044  1.00  0.00     0.006 C 
BRANCH  20  21
ATOM     21  C   UNL     1      16.327  16.716  36.268  1.00  0.00     0.053 C 
BRANCH  21  22
ATOM     22  C   UNL     1      15.422  16.023  37.241  1.00  0.00     0.041 C 
ATOM     23  O   UNL     1      14.466  16.647  37.773  1.00  0.00    -0.550 OA
ATOM     24  O   UNL     1      15.648  14.693  37.574  1.00  0.00    -0.550 OA
ENDBRANCH  21  22
ENDBRANCH  20  21
ENDBRANCH  19  20
ENDBRANCH  18  19
ENDBRANCH  17  18
ENDBRANCH  16  17
ENDBRANCH  15  16
ENDBRANCH  14  15
ENDBRANCH  13  14
ENDBRANCH   1  13
TORSDOF 20
ENDMDL
MODEL 2
REMARK VINA RESULT:    -4.782      1.714      3.220
REMARK INTER + INTRA:         -13.358
REMARK INTER:                  -9.748
REMARK INTRA:                  -3.610
REMARK UNBOUND:                -2.985
REMARK SMILES CCCCCCCCCCCCCCCCCCCCCC(=O)[O-]
REMARK SMILES IDX 12 1 11 2 10 3 9 4 8 5 7 6 6 7 5 8 4 9 3 10 2 11 1 12 13 13
REMARK SMILES IDX 14 14 15 15 16 16 17 17 18 18 19 19 20 20 21 21 22 22 23 23
REMARK SMILES IDX 24 24
REMARK H PARENT
REMARK Flexibility Score: inf
ROOT
ATOM      1  C   UNL     1      18.172  18.770  32.574  1.00  0.00     0.000 C 
ENDROOT
BRANCH   1   2
ATOM      2  C   UNL     1      16.817  18.917  33.282  1.00  0.00     0.000 C 
BRANCH   2   3
ATOM      3  C   UNL     1      15.762  18.007  32.640  1.00  0.00     0.000 C 
BRANCH   3   4
ATOM      4  C   UNL     1      14.591  18.829  32.080  1.00  0.00    -0.000 C 
BRANCH   4   5
ATOM      5  C   UNL     1      14.259  18.469  30.622  1.00  0.00    -0.000 C 
BRANCH   5   6
ATOM      6  C   UNL     1      15.331  17.576  29.975  1.00  0.00    -0.000 C 
BRANCH   6   7
ATOM      7  C   UNL     1      16.480  18.386  29.346  1.00  0.00    -0.000 C 
BRANCH   7   8
ATOM      8  C   UNL     1      17.634  17.542  28.767  1.00  0.00    -0.000 C 
BRANCH   8   9
ATOM      9  C   UNL     1      17.893  16.207  29.493  1.00  0.00    -0.000 C 
BRANCH   9  10
ATOM     10  C   UNL     1      19.265  16.098  30.187  1.00  0.00    -0.000 C 
BRANCH  10  11
ATOM     11  C   UNL     1      19.216  15.594  31.640  1.00  0.00    -0.003 C 
ATOM     12  C   UNL     1      17.882  14.943  32.001  1.00  0.00     0.004 C 
ENDBRANCH  10  11
ENDBRANCH   9  10
ENDBRANCH   8   9
ENDBRANCH   7   8
ENDBRANCH   6   7
ENDBRANCH   5   6
ENDBRANCH   4   5
ENDBRANCH   3   4
ENDBRANCH   2   3
ENDBRANCH   1   2
BRANCH   1  13
ATOM     13  C   UNL     1      19.264  19.678  33.170  1.00  0.00     0.000 C 
BRANCH  13  14
ATOM     14  C   UNL     1      18.959  20.237  34.576  1.00  0.00     0.000 C 
BRANCH  14  15
ATOM     15  C   UNL     1      20.039  19.965  35.638  1.00  0.00     0.000 C 
BRANCH  15  16
ATOM     16  C   UNL     1      19.742  18.775  36.570  1.00  0.00     0.000 C 
BRANCH  16  17
ATOM     17  C   UNL     1      20.487  17.481  36.177  1.00  0.00     0.000 C 
BRANCH  17  18
ATOM     18  C   UNL     1      19.680  16.615  35.194  1.00  0.00     0.000 C 
BRANCH  18  19
ATOM     19  C   UNL     1      18.647  15.723  35.902  1.00  0.00     0.000 C 
BRANCH  19  20
ATOM     20  C   UNL     1      17.199  16.065  35.511  1.00  0.00     0.006 C 
BRANCH  20  21
ATOM     21  C   UNL     1      16.487  16.888  36.592  1.00  0.00     0.053 C 
BRANCH  21  22
ATOM     22  C   UNL     1      15.436  16.085  37.296  1.00  0.00     0.041 C 
ATOM     23  O   UNL     1      14.369  16.634  37.680  1.00  0.00    -0.550 OA
ATOM     24  O   UNL     1      15.644  14.734  37.547  1.00  0.00    -0.550 OA
ENDBRANCH  21  22
ENDBRANCH  20  21
ENDBRANCH  19  20
ENDBRANCH  18  19
ENDBRANCH  17  18
ENDBRANCH  16  17
ENDBRANCH  15  16
ENDBRANCH  14  15
ENDBRANCH  13  14
ENDBRANCH   1  13
TORSDOF 20
ENDMDL
MODEL 3
REMARK VINA RESULT:    -4.765      1.455      2.553
REMARK INTER + INTRA:         -13.321
REMARK INTER:                  -9.870
REMARK INTRA:                  -3.452
REMARK UNBOUND:                -2.985
REMARK SMILES CCCCCCCCCCCCCCCCCCCCCC(=O)[O-]
REMARK SMILES IDX 12 1 11 2 10 3 9 4 8 5 7 6 6 7 5 8 4 9 3 10 2 11 1 12 13 13
REMARK SMILES IDX 14 14 15 15 16 16 17 17 18 18 19 19 20 20 21 21 22 22 23 23
REMARK SMILES IDX 24 24
REMARK H PARENT
REMARK Flexibility Score: inf
ROOT
ATOM      1  C   UNL     1      17.497  19.820  34.417  1.00  0.00     0.000 C 
ENDROOT
BRANCH   1   2
ATOM      2  C   UNL     1      16.967  19.006  33.228  1.00  0.00     0.000 C 
BRANCH   2   3
ATOM      3  C   UNL     1      18.102  18.232  32.545  1.00  0.00     0.000 C 
BRANCH   3   4
ATOM      4  C   UNL     1      17.669  16.797  32.211  1.00  0.00    -0.000 C 
BRANCH   4   5
ATOM      5  C   UNL     1      18.440  16.208  31.017  1.00  0.00    -0.000 C 
BRANCH   5   6
ATOM      6  C   UNL     1      18.245  17.023  29.728  1.00  0.00    -0.000 C 
BRANCH   6   7
ATOM      7  C   UNL     1      16.806  16.946  29.186  1.00  0.00    -0.000 C 
BRANCH   7   8
ATOM      8  C   UNL     1      16.144  18.308  28.894  1.00  0.00    -0.000 C 
BRANCH   8   9
ATOM      9  C   UNL     1      14.666  18.418  29.318  1.00  0.00    -0.000 C 
BRANCH   9  10
ATOM     10  C   UNL     1      14.433  18.563  30.835  1.00  0.00    -0.000 C 
BRANCH  10  11
ATOM     11  C   UNL     1      13.395  17.593  31.425  1.00  0.00    -0.003 C 
ATOM     12  C   UNL     1      13.868  16.140  31.425  1.00  0.00     0.004 C 
ENDBRANCH  10  11
ENDBRANCH   9  10
ENDBRANCH   8   9
ENDBRANCH   7   8
ENDBRANCH   6   7
ENDBRANCH   5   6
ENDBRANCH   4   5
ENDBRANCH   3   4
ENDBRANCH   2   3
ENDBRANCH   1   2
BRANCH   1  13
ATOM     13  C   UNL     1      18.965  20.251  34.243  1.00  0.00     0.000 C 
BRANCH  13  14
ATOM     14  C   UNL     1      19.835  20.151  35.515  1.00  0.00     0.000 C 
BRANCH  14  15
ATOM     15  C   UNL     1      20.922  19.062  35.481  1.00  0.00     0.000 C 
BRANCH  15  16
ATOM     16  C   UNL     1      20.516  17.725  36.130  1.00  0.00     0.000 C 
BRANCH  16  17
ATOM     17  C   UNL     1      20.029  16.667  35.116  1.00  0.00     0.000 C 
BRANCH  17  18
ATOM     18  C   UNL     1      18.911  15.778  35.687  1.00  0.00     0.000 C 
BRANCH  18  19
ATOM     19  C   UNL     1      17.772  16.595  36.318  1.00  0.00     0.000 C 
BRANCH  19  20
ATOM     20  C   UNL     1      16.416  16.356  35.630  1.00  0.00     0.006 C 
BRANCH  20  21
ATOM     21  C   UNL     1      15.669  15.155  36.225  1.00  0.00     0.053 C 
BRANCH  21  22
ATOM     22  C   UNL     1      14.999  15.505  37.518  1.00  0.00     0.041 C 
ATOM     23  O   UNL     1      14.379  16.595  37.637  1.00  0.00    -0.550 OA
ATOM     24  O   UNL     1      15.078  14.636  38.600  1.00  0.00    -0.550 OA
ENDBRANCH  21  22
ENDBRANCH  20  21
ENDBRANCH  19  20
ENDBRANCH  18  19
ENDBRANCH  17  18
ENDBRANCH  16  17
ENDBRANCH  15  16
ENDBRANCH  14  15
ENDBRANCH  13  14
ENDBRANCH   1  13
TORSDOF 20
ENDMDL
MODEL 4
REMARK VINA RESULT:    -4.697      1.841      2.820
REMARK INTER + INTRA:         -13.173
REMARK INTER:                  -9.444
REMARK INTRA:                  -3.728
REMARK UNBOUND:                -2.985
REMARK SMILES CCCCCCCCCCCCCCCCCCCCCC(=O)[O-]
REMARK SMILES IDX 12 1 11 2 10 3 9 4 8 5 7 6 6 7 5 8 4 9 3 10 2 11 1 12 13 13
REMARK SMILES IDX 14 14 15 15 16 16 17 17 18 18 19 19 20 20 21 21 22 22 23 23
REMARK SMILES IDX 24 24
REMARK H PARENT
REMARK Flexibility Score: inf
ROOT
ATOM      1  C   UNL     1      19.066  19.553  33.462  1.00  0.00     0.000 C 
ENDROOT
BRANCH   1   2
ATOM      2  C   UNL     1      18.129  18.512  32.834  1.00  0.00     0.000 C 
BRANCH   2   3
ATOM      3  C   UNL     1      18.746  17.918  31.561  1.00  0.00     0.000 C 
BRANCH   3   4
ATOM      4  C   UNL     1      18.974  16.406  31.711  1.00  0.00    -0.000 C 
BRANCH   4   5
ATOM      5  C   UNL     1      18.196  15.805  32.894  1.00  0.00    -0.000 C 
BRANCH   5   6
ATOM      6  C   UNL     1      16.972  14.990  32.444  1.00  0.00    -0.000 C 
BRANCH   6   7
ATOM      7  C   UNL     1      15.646  15.748  32.644  1.00  0.00    -0.000 C 
BRANCH   7   8
ATOM      8  C   UNL     1      14.734  15.806  31.402  1.00  0.00    -0.000 C 
BRANCH   8   9
ATOM      9  C   UNL     1      15.309  16.591  30.207  1.00  0.00    -0.000 C 
BRANCH   9  10
ATOM     10  C   UNL     1      15.290  18.125  30.364  1.00  0.00    -0.000 C 
BRANCH  10  11
ATOM     11  C   UNL     1      14.092  18.680  31.154  1.00  0.00    -0.003 C 
ATOM     12  C   UNL     1      14.503  19.370  32.454  1.00  0.00     0.004 C 
ENDBRANCH  10  11
ENDBRANCH   9  10
ENDBRANCH   8   9
ENDBRANCH   7   8
ENDBRANCH   6   7
ENDBRANCH   5   6
ENDBRANCH   4   5
ENDBRANCH   3   4
ENDBRANCH   2   3
ENDBRANCH   1   2
BRANCH   1  13
ATOM     13  C   UNL     1      20.408  18.956  33.921  1.00  0.00     0.000 C 
BRANCH  13  14
ATOM     14  C   UNL     1      20.999  19.575  35.206  1.00  0.00     0.000 C 
BRANCH  14  15
ATOM     15  C   UNL     1      19.987  20.306  36.106  1.00  0.00     0.000 C 
BRANCH  15  16
ATOM     16  C   UNL     1      19.276  19.411  37.138  1.00  0.00     0.000 C 
BRANCH  16  17
ATOM     17  C   UNL     1      17.735  19.486  37.065  1.00  0.00     0.000 C 
BRANCH  17  18
ATOM     18  C   UNL     1      17.118  18.244  36.398  1.00  0.00     0.000 C 
BRANCH  18  19
ATOM     19  C   UNL     1      18.077  17.042  36.387  1.00  0.00     0.000 C 
BRANCH  19  20
ATOM     20  C   UNL     1      17.339  15.693  36.439  1.00  0.00     0.006 C 
BRANCH  20  21
ATOM     21  C   UNL     1      15.835  15.844  36.178  1.00  0.00     0.053 C 
BRANCH  21  22
ATOM     22  C   UNL     1      15.069  14.644  36.644  1.00  0.00     0.041 C 
ATOM     23  O   UNL     1      13.977  14.337  36.097  1.00  0.00    -0.550 OA
ATOM     24  O   UNL     1      15.551  13.877  37.698  1.00  0.00    -0.550 OA
ENDBRANCH  21  22
ENDBRANCH  20  21
ENDBRANCH  19  20
ENDBRANCH  18  19
ENDBRANCH  17  18
ENDBRANCH  16  17
ENDBRANCH  15  16
ENDBRANCH  14  15
ENDBRANCH  13  14
ENDBRANCH   1  13
TORSDOF 20
ENDMDL
MODEL 5
REMARK VINA RESULT:    -4.691      1.385      3.529
REMARK INTER + INTRA:         -13.160
REMARK INTER:                 -10.139
REMARK INTRA:                  -3.021
REMARK UNBOUND:                -2.985
REMARK SMILES CCCCCCCCCCCCCCCCCCCCCC(=O)[O-]
REMARK SMILES IDX 12 1 11 2 10 3 9 4 8 5 7 6 6 7 5 8 4 9 3 10 2 11 1 12 13 13
REMARK SMILES IDX 14 14 15 15 16 16 17 17 18 18 19 19 20 20 21 21 22 22 23 23
REMARK SMILES IDX 24 24
REMARK H PARENT
REMARK Flexibility Score: inf
ROOT
ATOM      1  C   UNL     1      20.606  17.684  35.762  1.00  0.00     0.000 C 
ENDROOT
BRANCH   1   2
ATOM      2  C   UNL     1      19.906  18.804  36.544  1.00  0.00     0.000 C 
BRANCH   2   3
ATOM      3  C   UNL     1      19.570  19.986  35.625  1.00  0.00     0.000 C 
BRANCH   3   4
ATOM      4  C   UNL     1      19.985  19.692  34.175  1.00  0.00    -0.000 C 
BRANCH   4   5
ATOM      5  C   UNL     1      18.791  19.690  33.206  1.00  0.00    -0.000 C 
BRANCH   5   6
ATOM      6  C   UNL     1      17.607  18.859  33.729  1.00  0.00    -0.000 C 
BRANCH   6   7
ATOM      7  C   UNL     1      16.316  19.089  32.922  1.00  0.00    -0.000 C 
BRANCH   7   8
ATOM      8  C   UNL     1      16.174  18.223  31.654  1.00  0.00    -0.000 C 
BRANCH   8   9
ATOM      9  C   UNL     1      14.928  18.520  30.797  1.00  0.00    -0.000 C 
BRANCH   9  10
ATOM     10  C   UNL     1      13.579  18.286  31.504  1.00  0.00    -0.000 C 
BRANCH  10  11
ATOM     11  C   UNL     1      12.995  16.873  31.331  1.00  0.00    -0.003 C 
ATOM     12  C   UNL     1      13.853  15.979  30.436  1.00  0.00     0.004 C 
ENDBRANCH  10  11
ENDBRANCH   9  10
ENDBRANCH   8   9
ENDBRANCH   7   8
ENDBRANCH   6   7
ENDBRANCH   5   6
ENDBRANCH   4   5
ENDBRANCH   3   4
ENDBRANCH   2   3
ENDBRANCH   1   2
BRANCH   1  13
ATOM     13  C   UNL     1      19.806  16.368  35.750  1.00  0.00     0.000 C 
BRANCH  13  14
ATOM     14  C   UNL     1      20.531  15.164  35.112  1.00  0.00     0.000 C 
BRANCH  14  15
ATOM     15  C   UNL     1      19.889  14.619  33.823  1.00  0.00     0.000 C 
BRANCH  15  16
ATOM     16  C   UNL     1      19.350  15.698  32.866  1.00  0.00     0.000 C 
BRANCH  16  17
ATOM     17  C   UNL     1      17.988  15.339  32.233  1.00  0.00     0.000 C 
BRANCH  17  18
ATOM     18  C   UNL     1      17.069  14.583  33.208  1.00  0.00     0.000 C 
BRANCH  18  19
ATOM     19  C   UNL     1      16.321  15.526  34.165  1.00  0.00     0.000 C 
BRANCH  19  20
ATOM     20  C   UNL     1      15.587  14.772  35.288  1.00  0.00     0.006 C 
BRANCH  20  21
ATOM     21  C   UNL     1      16.158  15.097  36.674  1.00  0.00     0.053 C 
BRANCH  21  22
ATOM     22  C   UNL     1      15.667  16.419  37.179  1.00  0.00     0.041 C 
ATOM     23  O   UNL     1      14.496  16.530  37.632  1.00  0.00    -0.550 OA
ATOM     24  O   UNL     1      16.495  17.534  37.131  1.00  0.00    -0.550 OA
ENDBRANCH  21  22
ENDBRANCH  20  21
ENDBRANCH  19  20
ENDBRANCH  18  19
ENDBRANCH  17  18
ENDBRANCH  16  17
ENDBRANCH  15  16
ENDBRANCH  14  15
ENDBRANCH  13  14
ENDBRANCH   1  13
TORSDOF 20
ENDMDL
MODEL 6
REMARK VINA RESULT:    -4.682      1.971      5.589
REMARK INTER + INTRA:         -13.141
REMARK INTER:                  -9.391
REMARK INTRA:                  -3.750
REMARK UNBOUND:                -2.985
REMARK SMILES CCCCCCCCCCCCCCCCCCCCCC(=O)[O-]
REMARK SMILES IDX 12 1 11 2 10 3 9 4 8 5 7 6 6 7 5 8 4 9 3 10 2 11 1 12 13 13
REMARK SMILES IDX 14 14 15 15 16 16 17 17 18 18 19 19 20 20 21 21 22 22 23 23
REMARK SMILES IDX 24 24
REMARK H PARENT
REMARK Flexibility Score: inf
ROOT
ATOM      1  C   UNL     1      17.400  19.097  33.587  1.00  0.00     0.000 C 
ENDROOT
BRANCH   1   2
ATOM      2  C   UNL     1      18.050  19.808  34.782  1.00  0.00     0.000 C 
BRANCH   2   3
ATOM      3  C   UNL     1      19.374  20.467  34.374  1.00  0.00     0.000 C 
BRANCH   3   4
ATOM      4  C   UNL     1      20.523  20.009  35.286  1.00  0.00    -0.000 C 
BRANCH   4   5
ATOM      5  C   UNL     1      20.023  19.321  36.567  1.00  0.00    -0.000 C 
BRANCH   5   6
ATOM      6  C   UNL     1      20.705  17.965  36.815  1.00  0.00    -0.000 C 
BRANCH   6   7
ATOM      7  C   UNL     1      20.897  17.149  35.524  1.00  0.00    -0.000 C 
BRANCH   7   8
ATOM      8  C   UNL     1      19.744  16.183  35.185  1.00  0.00    -0.000 C 
BRANCH   8   9
ATOM      9  C   UNL     1      19.474  15.993  33.679  1.00  0.00    -0.000 C 
BRANCH   9  10
ATOM     10  C   UNL     1      19.532  14.534  33.185  1.00  0.00    -0.000 C 
BRANCH  10  11
ATOM     11  C   UNL     1      19.348  14.357  31.668  1.00  0.00    -0.003 C 
ATOM     12  C   UNL     1      20.247  15.281  30.847  1.00  0.00     0.004 C 
ENDBRANCH  10  11
ENDBRANCH   9  10
ENDBRANCH   8   9
ENDBRANCH   7   8
ENDBRANCH   6   7
ENDBRANCH   5   6
ENDBRANCH   4   5
ENDBRANCH   3   4
ENDBRANCH   2   3
ENDBRANCH   1   2
BRANCH   1  13
ATOM     13  C   UNL     1      18.311  19.052  32.346  1.00  0.00     0.000 C 
BRANCH  13  14
ATOM     14  C   UNL     1      17.737  18.284  31.136  1.00  0.00     0.000 C 
BRANCH  14  15
ATOM     15  C   UNL     1      16.220  18.436  30.924  1.00  0.00     0.000 C 
BRANCH  15  16
ATOM     16  C   UNL     1      15.401  17.156  31.177  1.00  0.00     0.000 C 
BRANCH  16  17
ATOM     17  C   UNL     1      16.222  16.011  31.809  1.00  0.00     0.000 C 
BRANCH  17  18
ATOM     18  C   UNL     1      15.505  15.368  33.010  1.00  0.00     0.000 C 
BRANCH  18  19
ATOM     19  C   UNL     1      16.011  15.906  34.358  1.00  0.00     0.000 C 
BRANCH  19  20
ATOM     20  C   UNL     1      15.950  14.854  35.479  1.00  0.00     0.006 C 
BRANCH  20  21
ATOM     21  C   UNL     1      16.503  15.389  36.806  1.00  0.00     0.053 C 
BRANCH  21  22
ATOM     22  C   UNL     1      15.813  16.652  37.224  1.00  0.00     0.041 C 
ATOM     23  O   UNL     1      16.443  17.743  37.241  1.00  0.00    -0.550 OA
ATOM     24  O   UNL     1      14.479  16.620  37.614  1.00  0.00    -0.550 OA
ENDBRANCH  21  22
ENDBRANCH  20  21
ENDBRANCH  19  20
ENDBRANCH  18  19
ENDBRANCH  17  18
ENDBRANCH  16  17
ENDBRANCH  15  16
ENDBRANCH  14  15
ENDBRANCH  13  14
ENDBRANCH   1  13
TORSDOF 20
ENDMDL
MODEL 7
REMARK VINA RESULT:    -4.649      1.671      2.724
REMARK INTER + INTRA:         -13.069
REMARK INTER:                  -8.987
REMARK INTRA:                  -4.082
REMARK UNBOUND:                -2.985
REMARK SMILES CCCCCCCCCCCCCCCCCCCCCC(=O)[O-]
REMARK SMILES IDX 12 1 11 2 10 3 9 4 8 5 7 6 6 7 5 8 4 9 3 10 2 11 1 12 13 13
REMARK SMILES IDX 14 14 15 15 16 16 17 17 18 18 19 19 20 20 21 21 22 22 23 23
REMARK SMILES IDX 24 24
REMARK H PARENT
REMARK Flexibility Score: inf
ROOT
ATOM      1  C   UNL     1      18.274  18.871  31.964  1.00  0.00     0.000 C 
ENDROOT
BRANCH   1   2
ATOM      2  C   UNL     1      19.044  17.551  31.812  1.00  0.00     0.000 C 
BRANCH   2   3
ATOM      3  C   UNL     1      18.119  16.349  32.046  1.00  0.00     0.000 C 
BRANCH   3   4
ATOM      4  C   UNL     1      17.779  15.648  30.721  1.00  0.00    -0.000 C 
BRANCH   4   5
ATOM      5  C   UNL     1      16.305  15.216  30.642  1.00  0.00    -0.000 C 
BRANCH   5   6
ATOM      6  C   UNL     1      15.449  15.826  31.763  1.00  0.00    -0.000 C 
BRANCH   6   7
ATOM      7  C   UNL     1      14.147  16.462  31.241  1.00  0.00    -0.000 C 
BRANCH   7   8
ATOM      8  C   UNL     1      14.004  17.974  31.510  1.00  0.00    -0.000 C 
BRANCH   8   9
ATOM      9  C   UNL     1      14.597  18.889  30.421  1.00  0.00    -0.000 C 
BRANCH   9  10
ATOM     10  C   UNL     1      14.740  18.240  29.030  1.00  0.00    -0.000 C 
BRANCH  10  11
ATOM     11  C   UNL     1      16.181  18.171  28.494  1.00  0.00    -0.003 C 
ATOM     12  C   UNL     1      16.919  19.505  28.596  1.00  0.00     0.004 C 
ENDBRANCH  10  11
ENDBRANCH   9  10
ENDBRANCH   8   9
ENDBRANCH   7   8
ENDBRANCH   6   7
ENDBRANCH   5   6
ENDBRANCH   4   5
ENDBRANCH   3   4
ENDBRANCH   2   3
ENDBRANCH   1   2
BRANCH   1  13
ATOM     13  C   UNL     1      17.256  18.844  33.119  1.00  0.00     0.000 C 
BRANCH  13  14
ATOM     14  C   UNL     1      17.640  19.686  34.354  1.00  0.00     0.000 C 
BRANCH  14  15
ATOM     15  C   UNL     1      19.044  20.316  34.307  1.00  0.00     0.000 C 
BRANCH  15  16
ATOM     16  C   UNL     1      19.950  19.963  35.501  1.00  0.00     0.000 C 
BRANCH  16  17
ATOM     17  C   UNL     1      20.759  18.663  35.302  1.00  0.00     0.000 C 
BRANCH  17  18
ATOM     18  C   UNL     1      20.219  17.500  36.153  1.00  0.00     0.000 C 
BRANCH  18  19
ATOM     19  C   UNL     1      19.456  16.461  35.316  1.00  0.00     0.000 C 
BRANCH  19  20
ATOM     20  C   UNL     1      18.312  15.792  36.098  1.00  0.00     0.006 C 
BRANCH  20  21
ATOM     21  C   UNL     1      16.932  16.242  35.602  1.00  0.00     0.053 C 
BRANCH  21  22
ATOM     22  C   UNL     1      16.133  16.884  36.694  1.00  0.00     0.041 C 
ATOM     23  O   UNL     1      16.580  17.897  37.296  1.00  0.00    -0.550 OA
ATOM     24  O   UNL     1      14.903  16.351  37.062  1.00  0.00    -0.550 OA
ENDBRANCH  21  22
ENDBRANCH  20  21
ENDBRANCH  19  20
ENDBRANCH  18  19
ENDBRANCH  17  18
ENDBRANCH  16  17
ENDBRANCH  15  16
ENDBRANCH  14  15
ENDBRANCH  13  14
ENDBRANCH   1  13
TORSDOF 20
ENDMDL
MODEL 8
REMARK VINA RESULT:    -4.565      3.298      8.087
REMARK INTER + INTRA:         -12.888
REMARK INTER:                  -9.297
REMARK INTRA:                  -3.592
REMARK UNBOUND:                -2.985
REMARK SMILES CCCCCCCCCCCCCCCCCCCCCC(=O)[O-]
REMARK SMILES IDX 12 1 11 2 10 3 9 4 8 5 7 6 6 7 5 8 4 9 3 10 2 11 1 12 13 13
REMARK SMILES IDX 14 14 15 15 16 16 17 17 18 18 19 19 20 20 21 21 22 22 23 23
REMARK SMILES IDX 24 24
REMARK H PARENT
REMARK Flexibility Score: inf
ROOT
ATOM      1  C   UNL     1      16.545  18.232  31.407  1.00  0.00     0.000 C 
ENDROOT
BRANCH   1   2
ATOM      2  C   UNL     1      17.253  17.077  32.129  1.00  0.00     0.000 C 
BRANCH   2   3
ATOM      3  C   UNL     1      16.509  16.699  33.417  1.00  0.00     0.000 C 
BRANCH   3   4
ATOM      4  C   UNL     1      17.469  16.091  34.451  1.00  0.00    -0.000 C 
BRANCH   4   5
ATOM      5  C   UNL     1      18.947  16.283  34.071  1.00  0.00    -0.000 C 
BRANCH   5   6
ATOM      6  C   UNL     1      19.902  15.971  35.235  1.00  0.00    -0.000 C 
BRANCH   6   7
ATOM      7  C   UNL     1      20.487  17.239  35.883  1.00  0.00    -0.000 C 
BRANCH   7   8
ATOM      8  C   UNL     1      21.070  18.269  34.894  1.00  0.00    -0.000 C 
BRANCH   8   9
ATOM      9  C   UNL     1      20.411  19.662  34.940  1.00  0.00    -0.000 C 
BRANCH   9  10
ATOM     10  C   UNL     1      19.327  19.906  33.873  1.00  0.00    -0.000 C 
BRANCH  10  11
ATOM     11  C   UNL     1      17.891  19.999  34.418  1.00  0.00    -0.003 C 
ATOM     12  C   UNL     1      17.791  19.631  35.899  1.00  0.00     0.004 C 
ENDBRANCH  10  11
ENDBRANCH   9  10
ENDBRANCH   8   9
ENDBRANCH   7   8
ENDBRANCH   6   7
ENDBRANCH   5   6
ENDBRANCH   4   5
ENDBRANCH   3   4
ENDBRANCH   2   3
ENDBRANCH   1   2
BRANCH   1  13
ATOM     13  C   UNL     1      15.268  18.701  32.129  1.00  0.00     0.000 C 
BRANCH  13  14
ATOM     14  C   UNL     1      14.000  18.760  31.251  1.00  0.00     0.000 C 
BRANCH  14  15
ATOM     15  C   UNL     1      12.898  17.751  31.622  1.00  0.00     0.000 C 
BRANCH  15  16
ATOM     16  C   UNL     1      13.259  16.277  31.361  1.00  0.00     0.000 C 
BRANCH  16  17
ATOM     17  C   UNL     1      13.828  16.019  29.949  1.00  0.00     0.000 C 
BRANCH  17  18
ATOM     18  C   UNL     1      12.869  16.480  28.837  1.00  0.00     0.000 C 
BRANCH  18  19
ATOM     19  C   UNL     1      13.605  17.136  27.657  1.00  0.00     0.000 C 
BRANCH  19  20
ATOM     20  C   UNL     1      15.100  17.365  27.941  1.00  0.00     0.006 C 
BRANCH  20  21
ATOM     21  C   UNL     1      15.492  18.843  27.818  1.00  0.00     0.053 C 
BRANCH  21  22
ATOM     22  C   UNL     1      16.978  19.027  27.875  1.00  0.00     0.041 C 
ATOM     23  O   UNL     1      17.482  20.171  27.716  1.00  0.00    -0.550 OA
ATOM     24  O   UNL     1      17.808  17.931  28.085  1.00  0.00    -0.550 OA
ENDBRANCH  21  22
ENDBRANCH  20  21
ENDBRANCH  19  20
ENDBRANCH  18  19
ENDBRANCH  17  18
ENDBRANCH  16  17
ENDBRANCH  15  16
ENDBRANCH  14  15
ENDBRANCH  13  14
ENDBRANCH   1  13
TORSDOF 20
ENDMDL
