MODEL 1
REMARK VINA RESULT:    -4.254      0.000      0.000
REMARK INTER + INTRA:          -5.130
REMARK INTER:                  -5.000
REMARK INTRA:                  -0.130
REMARK UNBOUND:                -0.130
REMARK SMILES O=C([O-])C=Cc1ccc(O)c(O)c1
REMARK SMILES IDX 6 1 13 2 7 3 11 4 8 5 9 6 5 7 4 8 2 9 1 10 3 11 12 12 10 14
REMARK H PARENT 12 13 10 15
REMARK Flexibility Score: inf
ROOT
ATOM      1  C   UNL     1       1.089  13.924  31.005  1.00  0.00    -0.022 A 
ATOM      2  C   UNL     1       0.341  15.081  30.705  1.00  0.00     0.058 A 
ATOM      3  C   UNL     1       2.487  13.969  30.877  1.00  0.00     0.012 A 
ATOM      4  C   UNL     1       0.982  16.248  30.262  1.00  0.00     0.157 A 
ATOM      5  C   UNL     1       3.124  15.131  30.433  1.00  0.00     0.051 A 
ATOM      6  C   UNL     1       2.374  16.272  30.122  1.00  0.00     0.157 A 
ENDROOT
BRANCH   1   7
ATOM      7  C   UNL     1       0.461  12.670  31.488  1.00  0.00     0.010 C 
ATOM      8  C   UNL     1       0.441  12.294  32.773  1.00  0.00     0.025 C 
BRANCH   8   9
ATOM      9  C   UNL     1      -0.205  11.046  33.209  1.00  0.00     0.064 C 
ATOM     10  O   UNL     1      -1.373  10.784  32.825  1.00  0.00    -0.545 OA
ATOM     11  O   UNL     1       0.457  10.150  34.043  1.00  0.00    -0.545 OA
ENDBRANCH   8   9
ENDBRANCH   1   7
BRANCH   4  12
ATOM     12  O   UNL     1       0.239  17.389  29.962  1.00  0.00    -0.504 OA
ATOM     13  H   UNL     1      -0.274  17.477  29.093  1.00  0.00     0.293 HD
ENDBRANCH   4  12
BRANCH   6  14
ATOM     14  O   UNL     1       3.005  17.433  29.678  1.00  0.00    -0.504 OA
ATOM     15  H   UNL     1       3.609  17.429  28.864  1.00  0.00     0.293 HD
ENDBRANCH   6  14
TORSDOF 4
ENDMDL
MODEL 2
REMARK VINA RESULT:    -4.226      2.308      6.511
REMARK INTER + INTRA:          -5.098
REMARK INTER:                  -4.969
REMARK INTRA:                  -0.129
REMARK UNBOUND:                -0.130
REMARK SMILES O=C([O-])C=Cc1ccc(O)c(O)c1
REMARK SMILES IDX 6 1 13 2 7 3 11 4 8 5 9 6 5 7 4 8 2 9 1 10 3 11 12 12 10 14
REMARK H PARENT 12 13 10 15
REMARK Flexibility Score: inf
ROOT
ATOM      1  C   UNL     1       2.708  16.250  30.050  1.00  0.00    -0.022 A 
ATOM      2  C   UNL     1       1.307  16.388  30.128  1.00  0.00     0.058 A 
ATOM      3  C   UNL     1       3.285  15.006  30.353  1.00  0.00     0.012 A 
ATOM      4  C   UNL     1       0.507  15.307  30.528  1.00  0.00     0.157 A 
ATOM      5  C   UNL     1       2.487  13.931  30.753  1.00  0.00     0.051 A 
ATOM      6  C   UNL     1       1.098  14.078  30.844  1.00  0.00     0.157 A 
ENDROOT
BRANCH   1   7
ATOM      7  C   UNL     1       3.597  17.359  29.622  1.00  0.00     0.010 C 
ATOM      8  C   UNL     1       3.993  17.549  28.356  1.00  0.00     0.025 C 
BRANCH   8   9
ATOM      9  C   UNL     1       4.866  18.669  27.975  1.00  0.00     0.064 C 
ATOM     10  O   UNL     1       4.826  19.741  28.632  1.00  0.00    -0.545 OA
ATOM     11  O   UNL     1       5.737  18.564  26.895  1.00  0.00    -0.545 OA
ENDBRANCH   8   9
ENDBRANCH   1   7
BRANCH   4  12
ATOM     12  O   UNL     1      -0.877  15.448  30.609  1.00  0.00    -0.504 OA
ATOM     13  H   UNL     1      -1.346  16.287  30.287  1.00  0.00     0.293 HD
ENDBRANCH   4  12
BRANCH   6  14
ATOM     14  O   UNL     1       0.298  13.009  31.244  1.00  0.00    -0.504 OA
ATOM     15  H   UNL     1       0.460  12.069  30.900  1.00  0.00     0.293 HD
ENDBRANCH   6  14
TORSDOF 4
ENDMDL
MODEL 3
REMARK VINA RESULT:    -4.081      1.447      5.750
REMARK INTER + INTRA:          -4.927
REMARK INTER:                  -4.779
REMARK INTRA:                  -0.148
REMARK UNBOUND:                -0.130
REMARK SMILES O=C([O-])C=Cc1ccc(O)c(O)c1
REMARK SMILES IDX 6 1 13 2 7 3 11 4 8 5 9 6 5 7 4 8 2 9 1 10 3 11 12 12 10 14
REMARK H PARENT 12 13 10 15
REMARK Flexibility Score: inf
ROOT
ATOM      1  C   UNL     1       0.595  14.683  31.112  1.00  0.00    -0.022 A 
ATOM      2  C   UNL     1      -0.651  14.834  31.755  1.00  0.00     0.058 A 
ATOM      3  C   UNL     1       1.118  13.391  30.945  1.00  0.00     0.012 A 
ATOM      4  C   UNL     1      -1.342  13.714  32.242  1.00  0.00     0.157 A 
ATOM      5  C   UNL     1       0.431  12.276  31.432  1.00  0.00     0.051 A 
ATOM      6  C   UNL     1      -0.798  12.434  32.083  1.00  0.00     0.157 A 
ENDROOT
BRANCH   1   7
ATOM      7  C   UNL     1       1.358  15.834  30.570  1.00  0.00     0.010 C 
ATOM      8  C   UNL     1       2.685  15.829  30.391  1.00  0.00     0.025 C 
BRANCH   8   9
ATOM      9  C   UNL     1       3.401  16.990  29.839  1.00  0.00     0.064 C 
ATOM     10  O   UNL     1       4.546  17.278  30.272  1.00  0.00    -0.545 OA
ATOM     11  O   UNL     1       2.830  17.778  28.845  1.00  0.00    -0.545 OA
ENDBRANCH   8   9
ENDBRANCH   1   7
BRANCH   4  12
ATOM     12  O   UNL     1      -2.571  13.866  32.880  1.00  0.00    -0.504 OA
ATOM     13  H   UNL     1      -2.826  13.303  33.683  1.00  0.00     0.293 HD
ENDBRANCH   4  12
BRANCH   6  14
ATOM     14  O   UNL     1      -1.487  11.325  32.571  1.00  0.00    -0.504 OA
ATOM     15  H   UNL     1      -1.011  10.452  32.772  1.00  0.00     0.293 HD
ENDBRANCH   6  14
TORSDOF 4
ENDMDL
MODEL 4
REMARK VINA RESULT:    -4.034      1.073      1.608
REMARK INTER + INTRA:          -4.871
REMARK INTER:                  -4.743
REMARK INTRA:                  -0.129
REMARK UNBOUND:                -0.130
REMARK SMILES O=C([O-])C=Cc1ccc(O)c(O)c1
REMARK SMILES IDX 6 1 13 2 7 3 11 4 8 5 9 6 5 7 4 8 2 9 1 10 3 11 12 12 10 14
REMARK H PARENT 12 13 10 15
REMARK Flexibility Score: inf
ROOT
ATOM      1  C   UNL     1       0.208  13.320  31.508  1.00  0.00    -0.022 A 
ATOM      2  C   UNL     1      -0.709  14.391  31.508  1.00  0.00     0.058 A 
ATOM      3  C   UNL     1       1.502  13.535  31.006  1.00  0.00     0.012 A 
ATOM      4  C   UNL     1      -0.342  15.642  30.991  1.00  0.00     0.157 A 
ATOM      5  C   UNL     1       1.866  14.781  30.490  1.00  0.00     0.051 A 
ATOM      6  C   UNL     1       0.946  15.837  30.478  1.00  0.00     0.157 A 
ENDROOT
BRANCH   1   7
ATOM      7  C   UNL     1      -0.128  11.981  32.053  1.00  0.00     0.010 C 
ATOM      8  C   UNL     1       0.211  11.571  33.282  1.00  0.00     0.025 C 
BRANCH   8   9
ATOM      9  C   UNL     1      -0.153  10.238  33.786  1.00  0.00     0.064 C 
ATOM     10  O   UNL     1       0.637   9.624  34.549  1.00  0.00    -0.545 OA
ATOM     11  O   UNL     1      -1.359   9.642  33.432  1.00  0.00    -0.545 OA
ENDBRANCH   8   9
ENDBRANCH   1   7
BRANCH   4  12
ATOM     12  O   UNL     1      -1.251  16.698  30.988  1.00  0.00    -0.504 OA
ATOM     13  H   UNL     1      -2.226  16.561  31.230  1.00  0.00     0.293 HD
ENDBRANCH   4  12
BRANCH   6  14
ATOM     14  O   UNL     1       1.304  17.081  29.963  1.00  0.00    -0.504 OA
ATOM     15  H   UNL     1       2.274  17.372  29.908  1.00  0.00     0.293 HD
ENDBRANCH   6  14
TORSDOF 4
ENDMDL
MODEL 5
REMARK VINA RESULT:    -3.962      9.511     11.184
REMARK INTER + INTRA:          -4.786
REMARK INTER:                  -4.633
REMARK INTRA:                  -0.153
REMARK UNBOUND:                -0.130
REMARK SMILES O=C([O-])C=Cc1ccc(O)c(O)c1
REMARK SMILES IDX 6 1 13 2 7 3 11 4 8 5 9 6 5 7 4 8 2 9 1 10 3 11 12 12 10 14
REMARK H PARENT 12 13 10 15
REMARK Flexibility Score: inf
ROOT
ATOM      1  C   UNL     1       7.095   5.567  30.842  1.00  0.00    -0.022 A 
ATOM      2  C   UNL     1       8.128   5.821  29.917  1.00  0.00     0.058 A 
ATOM      3  C   UNL     1       6.253   4.463  30.632  1.00  0.00     0.012 A 
ATOM      4  C   UNL     1       8.293   5.000  28.791  1.00  0.00     0.157 A 
ATOM      5  C   UNL     1       6.418   3.646  29.510  1.00  0.00     0.051 A 
ATOM      6  C   UNL     1       7.435   3.913  28.586  1.00  0.00     0.157 A 
ENDROOT
BRANCH   1   7
ATOM      7  C   UNL     1       6.885   6.399  32.054  1.00  0.00     0.010 C 
ATOM      8  C   UNL     1       5.808   6.306  32.843  1.00  0.00     0.025 C 
BRANCH   8   9
ATOM      9  C   UNL     1       5.646   7.144  34.041  1.00  0.00     0.064 C 
ATOM     10  O   UNL     1       6.666   7.555  34.654  1.00  0.00    -0.545 OA
ATOM     11  O   UNL     1       4.383   7.488  34.511  1.00  0.00    -0.545 OA
ENDBRANCH   8   9
ENDBRANCH   1   7
BRANCH   4  12
ATOM     12  O   UNL     1       9.312   5.256  27.876  1.00  0.00    -0.504 OA
ATOM     13  H   UNL     1       9.228   5.985  27.176  1.00  0.00     0.293 HD
ENDBRANCH   4  12
BRANCH   6  14
ATOM     14  O   UNL     1       7.602   3.102  27.465  1.00  0.00    -0.504 OA
ATOM     15  H   UNL     1       7.572   3.484  26.526  1.00  0.00     0.293 HD
ENDBRANCH   6  14
TORSDOF 4
ENDMDL
MODEL 6
REMARK VINA RESULT:    -3.940      1.263      2.157
REMARK INTER + INTRA:          -4.761
REMARK INTER:                  -4.635
REMARK INTRA:                  -0.127
REMARK UNBOUND:                -0.130
REMARK SMILES O=C([O-])C=Cc1ccc(O)c(O)c1
REMARK SMILES IDX 6 1 13 2 7 3 11 4 8 5 9 6 5 7 4 8 2 9 1 10 3 11 12 12 10 14
REMARK H PARENT 12 13 10 15
REMARK Flexibility Score: inf
ROOT
ATOM      1  C   UNL     1       0.175  13.221  31.554  1.00  0.00    -0.022 A 
ATOM      2  C   UNL     1       1.512  13.272  31.109  1.00  0.00     0.058 A 
ATOM      3  C   UNL     1      -0.616  14.378  31.458  1.00  0.00     0.012 A 
ATOM      4  C   UNL     1       2.049  14.466  30.604  1.00  0.00     0.157 A 
ATOM      5  C   UNL     1      -0.079  15.566  30.956  1.00  0.00     0.051 A 
ATOM      6  C   UNL     1       1.253  15.615  30.530  1.00  0.00     0.157 A 
ENDROOT
BRANCH   1   7
ATOM      7  C   UNL     1      -0.444  11.981  32.086  1.00  0.00     0.010 C 
ATOM      8  C   UNL     1       0.027  11.309  33.144  1.00  0.00     0.025 C 
BRANCH   8   9
ATOM      9  C   UNL     1      -0.625  10.090  33.645  1.00  0.00     0.064 C 
ATOM     10  O   UNL     1      -1.795   9.813  33.274  1.00  0.00    -0.545 OA
ATOM     11  O   UNL     1       0.031   9.235  34.525  1.00  0.00    -0.545 OA
ENDBRANCH   8   9
ENDBRANCH   1   7
BRANCH   4  12
ATOM     12  O   UNL     1       3.372  14.514  30.169  1.00  0.00    -0.504 OA
ATOM     13  H   UNL     1       3.830  15.393  29.956  1.00  0.00     0.293 HD
ENDBRANCH   4  12
BRANCH   6  14
ATOM     14  O   UNL     1       1.793  16.798  30.031  1.00  0.00    -0.504 OA
ATOM     15  H   UNL     1       2.480  17.330  30.554  1.00  0.00     0.293 HD
ENDBRANCH   6  14
TORSDOF 4
ENDMDL
MODEL 7
REMARK VINA RESULT:    -3.891      1.914      5.978
REMARK INTER + INTRA:          -4.703
REMARK INTER:                  -4.556
REMARK INTRA:                  -0.148
REMARK UNBOUND:                -0.130
REMARK SMILES O=C([O-])C=Cc1ccc(O)c(O)c1
REMARK SMILES IDX 6 1 13 2 7 3 11 4 8 5 9 6 5 7 4 8 2 9 1 10 3 11 12 12 10 14
REMARK H PARENT 12 13 10 15
REMARK Flexibility Score: inf
ROOT
ATOM      1  C   UNL     1       1.497  14.951  30.772  1.00  0.00    -0.022 A 
ATOM      2  C   UNL     1       1.384  13.569  31.030  1.00  0.00     0.058 A 
ATOM      3  C   UNL     1       0.419  15.791  31.096  1.00  0.00     0.012 A 
ATOM      4  C   UNL     1       0.205  13.041  31.577  1.00  0.00     0.157 A 
ATOM      5  C   UNL     1      -0.755  15.264  31.639  1.00  0.00     0.051 A 
ATOM      6  C   UNL     1      -0.867  13.889  31.878  1.00  0.00     0.157 A 
ENDROOT
BRANCH   1   7
ATOM      7  C   UNL     1       2.727  15.559  30.206  1.00  0.00     0.010 C 
ATOM      8  C   UNL     1       2.846  16.861  29.912  1.00  0.00     0.025 C 
BRANCH   8   9
ATOM      9  C   UNL     1       4.089  17.424  29.363  1.00  0.00     0.064 C 
ATOM     10  O   UNL     1       4.175  17.652  28.128  1.00  0.00    -0.545 OA
ATOM     11  O   UNL     1       5.173  17.708  30.187  1.00  0.00    -0.545 OA
ENDBRANCH   8   9
ENDBRANCH   1   7
BRANCH   4  12
ATOM     12  O   UNL     1       0.095  11.674  31.827  1.00  0.00    -0.504 OA
ATOM     13  H   UNL     1       0.898  11.058  31.776  1.00  0.00     0.293 HD
ENDBRANCH   4  12
BRANCH   6  14
ATOM     14  O   UNL     1      -2.037  13.358  32.418  1.00  0.00    -0.504 OA
ATOM     15  H   UNL     1      -2.952  13.679  32.118  1.00  0.00     0.293 HD
ENDBRANCH   6  14
TORSDOF 4
ENDMDL
MODEL 8
REMARK VINA RESULT:    -3.820     10.094     11.401
REMARK INTER + INTRA:          -4.620
REMARK INTER:                  -4.495
REMARK INTRA:                  -0.125
REMARK UNBOUND:                -0.130
REMARK SMILES O=C([O-])C=Cc1ccc(O)c(O)c1
REMARK SMILES IDX 6 1 13 2 7 3 11 4 8 5 9 6 5 7 4 8 2 9 1 10 3 11 12 12 10 14
REMARK H PARENT 12 13 10 15
REMARK Flexibility Score: inf
ROOT
ATOM      1  C   UNL     1       8.225   5.897  30.873  1.00  0.00    -0.022 A 
ATOM      2  C   UNL     1       6.950   5.298  30.817  1.00  0.00     0.058 A 
ATOM      3  C   UNL     1       9.038   5.869  29.728  1.00  0.00     0.012 A 
ATOM      4  C   UNL     1       6.514   4.662  29.645  1.00  0.00     0.157 A 
ATOM      5  C   UNL     1       8.603   5.234  28.562  1.00  0.00     0.051 A 
ATOM      6  C   UNL     1       7.343   4.627  28.517  1.00  0.00     0.157 A 
ENDROOT
BRANCH   1   7
ATOM      7  C   UNL     1       8.728   6.592  32.084  1.00  0.00     0.010 C 
ATOM      8  C   UNL     1       8.111   7.634  32.655  1.00  0.00     0.025 C 
BRANCH   8   9
ATOM      9  C   UNL     1       8.639   8.285  33.863  1.00  0.00     0.064 C 
ATOM     10  O   UNL     1       9.770   8.836  33.829  1.00  0.00    -0.545 OA
ATOM     11  O   UNL     1       7.909   8.302  35.047  1.00  0.00    -0.545 OA
ENDBRANCH   8   9
ENDBRANCH   1   7
BRANCH   4  12
ATOM     12  O   UNL     1       5.255   4.066  29.594  1.00  0.00    -0.504 OA
ATOM     13  H   UNL     1       5.096   3.202  29.088  1.00  0.00     0.293 HD
ENDBRANCH   4  12
BRANCH   6  14
ATOM     14  O   UNL     1       6.905   3.991  27.357  1.00  0.00    -0.504 OA
ATOM     15  H   UNL     1       6.782   2.985  27.319  1.00  0.00     0.293 HD
ENDBRANCH   6  14
TORSDOF 4
ENDMDL
MODEL 9
REMARK VINA RESULT:    -3.782      8.744     10.257
REMARK INTER + INTRA:          -4.575
REMARK INTER:                  -4.451
REMARK INTRA:                  -0.125
REMARK UNBOUND:                -0.130
REMARK SMILES O=C([O-])C=Cc1ccc(O)c(O)c1
REMARK SMILES IDX 6 1 13 2 7 3 11 4 8 5 9 6 5 7 4 8 2 9 1 10 3 11 12 12 10 14
REMARK H PARENT 12 13 10 15
REMARK Flexibility Score: inf
ROOT
ATOM      1  C   UNL     1       6.529   6.205  32.561  1.00  0.00    -0.022 A 
ATOM      2  C   UNL     1       6.006   4.996  32.058  1.00  0.00     0.058 A 
ATOM      3  C   UNL     1       7.475   6.905  31.795  1.00  0.00     0.012 A 
ATOM      4  C   UNL     1       6.444   4.490  30.826  1.00  0.00     0.157 A 
ATOM      5  C   UNL     1       7.912   6.398  30.569  1.00  0.00     0.051 A 
ATOM      6  C   UNL     1       7.401   5.190  30.081  1.00  0.00     0.157 A 
ENDROOT
BRANCH   1   7
ATOM      7  C   UNL     1       6.090   6.789  33.854  1.00  0.00     0.010 C 
ATOM      8  C   UNL     1       4.819   7.102  34.136  1.00  0.00     0.025 C 
BRANCH   8   9
ATOM      9  C   UNL     1       4.427   7.668  35.435  1.00  0.00     0.064 C 
ATOM     10  O   UNL     1       3.334   7.327  35.958  1.00  0.00    -0.545 OA
ATOM     11  O   UNL     1       5.245   8.577  36.098  1.00  0.00    -0.545 OA
ENDBRANCH   8   9
ENDBRANCH   1   7
BRANCH   4  12
ATOM     12  O   UNL     1       5.928   3.292  30.332  1.00  0.00    -0.504 OA
ATOM     13  H   UNL     1       6.367   2.802  29.561  1.00  0.00     0.293 HD
ENDBRANCH   4  12
BRANCH   6  14
ATOM     14  O   UNL     1       7.835   4.680  28.859  1.00  0.00    -0.504 OA
ATOM     15  H   UNL     1       8.821   4.589  28.644  1.00  0.00     0.293 HD
ENDBRANCH   6  14
TORSDOF 4
ENDMDL
