MODEL 1
REMARK VINA RESULT:   102.950      0.000      0.000
REMARK INTER + INTRA:         113.271
REMARK INTER:                 111.978
REMARK INTRA:                   1.293
REMARK UNBOUND:                 1.293
REMARK SMILES CC1(C)CC[C@]2(C(=O)[O-])CC[C@]3(C)C(=CC[C@H]4[C@]5(C)CC[C@H](O)C(C)(C)[C@@H]5CC[C@@]43C)[C@@H]2C1
REMARK SMILES IDX 6 1 5 2 10 3 32 4 4 5 11 6 14 7 33 8 2 9 12 10 15 11 1 12
REMARK SMILES IDX 3 13 13 14 30 15 16 16 17 17 29 18 31 19 18 20 28 21 27 22
REMARK SMILES IDX 20 23 19 24 24 25 21 26 22 27 25 28 26 29 7 30 8 31 9 32
REMARK SMILES IDX 23 33
REMARK H PARENT 23 34
REMARK Flexibility Score: inf
ROOT
ATOM      1  C   UNL     1      14.535   2.753  25.523  1.00  0.00     0.017 C 
ATOM      2  C   UNL     1      13.074   3.203  25.233  1.00  0.00     0.014 C 
ATOM      3  C   UNL     1      15.334   3.892  26.308  1.00  0.00     0.014 C 
ATOM      4  C   UNL     1      15.338   2.312  24.225  1.00  0.00     0.028 C 
ATOM      5  C   UNL     1      12.596   2.745  23.826  1.00  0.00     0.007 C 
ATOM      6  C   UNL     1      16.735   4.301  25.719  1.00  0.00     0.013 C 
ATOM      7  C   UNL     1      16.752   2.001  24.525  1.00  0.00    -0.064 C 
ATOM      8  C   UNL     1      14.927   2.816  22.753  1.00  0.00     0.015 C 
ATOM      9  C   UNL     1      13.471   3.385  22.723  1.00  0.00    -0.035 C 
ATOM     10  C   UNL     1      17.683   3.155  25.046  1.00  0.00    -0.006 C 
ATOM     11  C   UNL     1      16.970   0.670  24.960  1.00  0.00    -0.027 C 
ATOM     12  C   UNL     1      13.491   4.934  22.897  1.00  0.00     0.011 C 
ATOM     13  C   UNL     1      12.837   3.066  21.362  1.00  0.00     0.011 C 
ATOM     14  C   UNL     1      18.303   3.896  23.812  1.00  0.00     0.017 C 
ATOM     15  C   UNL     1      18.842   2.497  25.902  1.00  0.00    -0.020 C 
ATOM     16  C   UNL     1      17.676   0.293  26.213  1.00  0.00     0.032 C 
ATOM     17  C   UNL     1      18.159   1.585  27.003  1.00  0.00     0.006 C 
ATOM     18  C   UNL     1      19.848   3.420  26.652  1.00  0.00     0.008 C 
ATOM     19  C   UNL     1      19.774   1.624  24.921  1.00  0.00     0.012 C 
ATOM     20  C   UNL     1      18.758   1.495  28.462  1.00  0.00    -0.025 C 
ATOM     21  C   UNL     1      20.916   2.510  27.311  1.00  0.00     0.005 C 
ATOM     22  C   UNL     1      20.345   1.792  28.578  1.00  0.00     0.003 C 
ATOM     23  C   UNL     1      17.872   2.411  29.462  1.00  0.00     0.010 C 
ATOM     24  C   UNL     1      18.525   0.026  28.949  1.00  0.00     0.012 C 
ATOM     25  C   UNL     1      20.949   2.309  29.976  1.00  0.00    -0.006 C 
ATOM     26  C   UNL     1      18.596   3.158  30.564  1.00  0.00     0.033 C 
ATOM     27  C   UNL     1      19.845   2.469  31.104  1.00  0.00     0.120 C 
ATOM     28  C   UNL     1      21.980   1.231  30.477  1.00  0.00     0.014 C 
ATOM     29  C   UNL     1      21.743   3.683  29.852  1.00  0.00     0.014 C 
ENDROOT
BRANCH   1  30
ATOM     30  C   UNL     1      14.379   1.481  26.410  1.00  0.00     0.048 C 
ATOM     31  O   UNL     1      13.968   1.693  27.616  1.00  0.00    -0.550 OA
ATOM     32  O   UNL     1      14.691   0.219  25.879  1.00  0.00    -0.550 OA
ENDBRANCH   1  30
BRANCH  27  33
ATOM     33  O   UNL     1      20.326   3.204  32.226  1.00  0.00    -0.393 OA
ATOM     34  H   UNL     1      19.682   3.065  32.995  1.00  0.00     0.210 HD
ENDBRANCH  27  33
TORSDOF 2
ENDMDL
MODEL 2
REMARK VINA RESULT:   105.632      2.376      4.122
REMARK INTER + INTRA:         116.188
REMARK INTER:                 115.574
REMARK INTRA:                   0.613
REMARK UNBOUND:                 1.293
REMARK SMILES CC1(C)CC[C@]2(C(=O)[O-])CC[C@]3(C)C(=CC[C@H]4[C@]5(C)CC[C@H](O)C(C)(C)[C@@H]5CC[C@@]43C)[C@@H]2C1
REMARK SMILES IDX 6 1 5 2 10 3 32 4 4 5 11 6 14 7 33 8 2 9 12 10 15 11 1 12
REMARK SMILES IDX 3 13 13 14 30 15 16 16 17 17 29 18 31 19 18 20 28 21 27 22
REMARK SMILES IDX 20 23 19 24 24 25 21 26 22 27 25 28 26 29 7 30 8 31 9 32
REMARK SMILES IDX 23 33
REMARK H PARENT 23 34
REMARK Flexibility Score: inf
ROOT
ATOM      1  C   UNL     1      15.211  -0.681  24.999  1.00  0.00     0.017 C 
ATOM      2  C   UNL     1      14.862  -2.125  24.536  1.00  0.00     0.014 C 
ATOM      3  C   UNL     1      15.195  -0.577  26.593  1.00  0.00     0.014 C 
ATOM      4  C   UNL     1      14.276   0.437  24.365  1.00  0.00     0.028 C 
ATOM      5  C   UNL     1      13.963  -2.125  23.268  1.00  0.00     0.007 C 
ATOM      6  C   UNL     1      14.352   0.599  27.212  1.00  0.00     0.013 C 
ATOM      7  C   UNL     1      14.563   1.779  24.914  1.00  0.00    -0.064 C 
ATOM      8  C   UNL     1      12.806   0.103  23.801  1.00  0.00     0.015 C 
ATOM      9  C   UNL     1      12.613  -1.430  23.562  1.00  0.00    -0.035 C 
ATOM     10  C   UNL     1      14.305   2.038  26.443  1.00  0.00    -0.006 C 
ATOM     11  C   UNL     1      15.615   2.460  24.253  1.00  0.00    -0.027 C 
ATOM     12  C   UNL     1      11.937  -2.091  24.801  1.00  0.00     0.011 C 
ATOM     13  C   UNL     1      11.694  -1.635  22.350  1.00  0.00     0.011 C 
ATOM     14  C   UNL     1      12.815   2.486  26.632  1.00  0.00     0.017 C 
ATOM     15  C   UNL     1      15.268   3.206  26.908  1.00  0.00    -0.020 C 
ATOM     16  C   UNL     1      16.806   3.040  24.928  1.00  0.00     0.032 C 
ATOM     17  C   UNL     1      16.743   2.797  26.498  1.00  0.00     0.006 C 
ATOM     18  C   UNL     1      15.318   3.592  28.417  1.00  0.00     0.008 C 
ATOM     19  C   UNL     1      14.818   4.568  26.175  1.00  0.00     0.012 C 
ATOM     20  C   UNL     1      17.966   3.126  27.443  1.00  0.00    -0.025 C 
ATOM     21  C   UNL     1      16.258   4.817  28.556  1.00  0.00     0.005 C 
ATOM     22  C   UNL     1      17.759   4.398  28.423  1.00  0.00     0.003 C 
ATOM     23  C   UNL     1      18.404   1.784  28.237  1.00  0.00     0.010 C 
ATOM     24  C   UNL     1      19.176   3.454  26.507  1.00  0.00     0.012 C 
ATOM     25  C   UNL     1      18.608   4.487  29.785  1.00  0.00    -0.006 C 
ATOM     26  C   UNL     1      18.871   1.933  29.671  1.00  0.00     0.033 C 
ATOM     27  C   UNL     1      19.575   3.247  29.993  1.00  0.00     0.120 C 
ATOM     28  C   UNL     1      19.506   5.776  29.703  1.00  0.00     0.014 C 
ATOM     29  C   UNL     1      17.702   4.640  31.086  1.00  0.00     0.014 C 
ENDROOT
BRANCH   1  30
ATOM     30  C   UNL     1      16.646  -0.434  24.447  1.00  0.00     0.048 C 
ATOM     31  O   UNL     1      17.451   0.180  25.250  1.00  0.00    -0.550 OA
ATOM     32  O   UNL     1      16.978  -0.863  23.152  1.00  0.00    -0.550 OA
ENDBRANCH   1  30
BRANCH  27  33
ATOM     33  O   UNL     1      20.088   3.181  31.321  1.00  0.00    -0.393 OA
ATOM     34  H   UNL     1      20.917   3.760  31.369  1.00  0.00     0.210 HD
ENDBRANCH  27  33
TORSDOF 2
ENDMDL
MODEL 3
REMARK VINA RESULT:   105.641      1.516      7.513
REMARK INTER + INTRA:         116.198
REMARK INTER:                 116.105
REMARK INTRA:                   0.093
REMARK UNBOUND:                 1.293
REMARK SMILES CC1(C)CC[C@]2(C(=O)[O-])CC[C@]3(C)C(=CC[C@H]4[C@]5(C)CC[C@H](O)C(C)(C)[C@@H]5CC[C@@]43C)[C@@H]2C1
REMARK SMILES IDX 6 1 5 2 10 3 32 4 4 5 11 6 14 7 33 8 2 9 12 10 15 11 1 12
REMARK SMILES IDX 3 13 13 14 30 15 16 16 17 17 29 18 31 19 18 20 28 21 27 22
REMARK SMILES IDX 20 23 19 24 24 25 21 26 22 27 25 28 26 29 7 30 8 31 9 32
REMARK SMILES IDX 23 33
REMARK H PARENT 23 34
REMARK Flexibility Score: inf
ROOT
ATOM      1  C   UNL     1      19.437   1.968  29.207  1.00  0.00     0.017 C 
ATOM      2  C   UNL     1      20.023   1.535  30.582  1.00  0.00     0.014 C 
ATOM      3  C   UNL     1      18.370   0.902  28.683  1.00  0.00     0.014 C 
ATOM      4  C   UNL     1      20.543   2.234  28.096  1.00  0.00     0.028 C 
ATOM      5  C   UNL     1      21.543   1.844  30.687  1.00  0.00     0.007 C 
ATOM      6  C   UNL     1      18.559   0.384  27.208  1.00  0.00     0.013 C 
ATOM      7  C   UNL     1      19.944   2.532  26.777  1.00  0.00    -0.064 C 
ATOM      8  C   UNL     1      22.010   1.579  28.177  1.00  0.00     0.015 C 
ATOM      9  C   UNL     1      22.331   1.055  29.615  1.00  0.00    -0.035 C 
ATOM     10  C   UNL     1      19.098   1.415  26.064  1.00  0.00    -0.006 C 
ATOM     11  C   UNL     1      19.609   3.896  26.592  1.00  0.00    -0.027 C 
ATOM     12  C   UNL     1      21.999  -0.464  29.726  1.00  0.00     0.011 C 
ATOM     13  C   UNL     1      23.830   1.238  29.890  1.00  0.00     0.011 C 
ATOM     14  C   UNL     1      20.063   0.520  25.214  1.00  0.00     0.017 C 
ATOM     15  C   UNL     1      18.061   2.131  25.104  1.00  0.00    -0.020 C 
ATOM     16  C   UNL     1      18.268   4.391  26.181  1.00  0.00     0.032 C 
ATOM     17  C   UNL     1      17.256   3.182  25.973  1.00  0.00     0.006 C 
ATOM     18  C   UNL     1      17.000   1.267  24.358  1.00  0.00     0.008 C 
ATOM     19  C   UNL     1      18.873   2.856  23.918  1.00  0.00     0.012 C 
ATOM     20  C   UNL     1      15.713   3.419  25.731  1.00  0.00    -0.025 C 
ATOM     21  C   UNL     1      16.200   2.212  23.425  1.00  0.00     0.005 C 
ATOM     22  C   UNL     1      15.189   3.087  24.236  1.00  0.00     0.003 C 
ATOM     23  C   UNL     1      14.868   2.651  26.880  1.00  0.00     0.010 C 
ATOM     24  C   UNL     1      15.451   4.940  25.987  1.00  0.00     0.012 C 
ATOM     25  C   UNL     1      13.641   2.714  24.011  1.00  0.00    -0.006 C 
ATOM     26  C   UNL     1      13.553   2.012  26.481  1.00  0.00     0.033 C 
ATOM     27  C   UNL     1      12.802   2.718  25.356  1.00  0.00     0.120 C 
ATOM     28  C   UNL     1      13.020   3.809  23.066  1.00  0.00     0.014 C 
ATOM     29  C   UNL     1      13.427   1.310  23.290  1.00  0.00     0.014 C 
ENDROOT
BRANCH   1  30
ATOM     30  C   UNL     1      18.750   3.337  29.494  1.00  0.00     0.048 C 
ATOM     31  O   UNL     1      19.479   4.203  30.117  1.00  0.00    -0.550 OA
ATOM     32  O   UNL     1      17.423   3.549  29.087  1.00  0.00    -0.550 OA
ENDBRANCH   1  30
BRANCH  27  33
ATOM     33  O   UNL     1      11.527   2.101  25.197  1.00  0.00    -0.393 OA
ATOM     34  H   UNL     1      10.887   2.519  25.861  1.00  0.00     0.210 HD
ENDBRANCH  27  33
TORSDOF 2
ENDMDL
