MODEL 1
REMARK VINA RESULT:    -4.010      0.000      0.000
REMARK INTER + INTRA:         -10.647
REMARK INTER:                  -7.761
REMARK INTRA:                  -2.886
REMARK UNBOUND:                -2.886
REMARK SMILES CCCCCCCCCCCCCCCCCC(=O)[O-]
REMARK SMILES IDX 10 1 11 2 12 3 13 4 14 5 15 6 16 7 17 8 18 9 19 10 20 11
REMARK SMILES IDX 9 12 8 13 7 14 6 15 5 16 4 17 3 18 2 19 1 20
REMARK H PARENT
REMARK Flexibility Score: inf
ROOT
ATOM      1  C   UNL     1     -17.075 115.361  -2.954  1.00  0.00     0.000 C 
ENDROOT
BRANCH   1   2
ATOM      2  C   UNL     1     -17.299 115.554  -1.445  1.00  0.00     0.000 C 
BRANCH   2   3
ATOM      3  C   UNL     1     -17.280 114.225  -0.668  1.00  0.00     0.000 C 
BRANCH   3   4
ATOM      4  C   UNL     1     -18.638 113.905  -0.021  1.00  0.00     0.000 C 
BRANCH   4   5
ATOM      5  C   UNL     1     -19.671 115.023  -0.232  1.00  0.00     0.000 C 
BRANCH   5   6
ATOM      6  C   UNL     1     -20.907 114.494  -0.974  1.00  0.00     0.000 C 
BRANCH   6   7
ATOM      7  C   UNL     1     -22.161 115.346  -0.719  1.00  0.00     0.006 C 
BRANCH   7   8
ATOM      8  C   UNL     1     -21.978 116.338   0.437  1.00  0.00     0.053 C 
BRANCH   8   9
ATOM      9  C   UNL     1     -23.036 117.394   0.392  1.00  0.00     0.041 C 
ATOM     10  O   UNL     1     -24.253 117.074   0.426  1.00  0.00    -0.550 OA
ATOM     11  O   UNL     1     -22.679 118.735   0.362  1.00  0.00    -0.550 OA
ENDBRANCH   8   9
ENDBRANCH   7   8
ENDBRANCH   6   7
ENDBRANCH   5   6
ENDBRANCH   4   5
ENDBRANCH   3   4
ENDBRANCH   2   3
ENDBRANCH   1   2
BRANCH   1  12
ATOM     12  C   UNL     1     -17.632 114.024  -3.472  1.00  0.00     0.000 C 
BRANCH  12  13
ATOM     13  C   UNL     1     -18.995 114.186  -4.166  1.00  0.00    -0.000 C 
BRANCH  13  14
ATOM     14  C   UNL     1     -19.272 115.636  -4.593  1.00  0.00    -0.000 C 
BRANCH  14  15
ATOM     15  C   UNL     1     -20.720 116.033  -4.282  1.00  0.00    -0.000 C 
BRANCH  15  16
ATOM     16  C   UNL     1     -20.883 117.561  -4.290  1.00  0.00    -0.000 C 
BRANCH  16  17
ATOM     17  C   UNL     1     -21.163 118.133  -2.891  1.00  0.00    -0.000 C 
BRANCH  17  18
ATOM     18  C   UNL     1     -19.911 118.144  -1.995  1.00  0.00    -0.000 C 
BRANCH  18  19
ATOM     19  C   UNL     1     -19.710 119.491  -1.283  1.00  0.00    -0.003 C 
ATOM     20  C   UNL     1     -20.111 120.684  -2.152  1.00  0.00     0.004 C 
ENDBRANCH  18  19
ENDBRANCH  17  18
ENDBRANCH  16  17
ENDBRANCH  15  16
ENDBRANCH  14  15
ENDBRANCH  13  14
ENDBRANCH  12  13
ENDBRANCH   1  12
TORSDOF 16
ENDMDL
MODEL 2
REMARK VINA RESULT:    -3.919      1.266      4.113
REMARK INTER + INTRA:         -10.470
REMARK INTER:                  -7.420
REMARK INTRA:                  -3.049
REMARK UNBOUND:                -2.886
REMARK SMILES CCCCCCCCCCCCCCCCCC(=O)[O-]
REMARK SMILES IDX 10 1 11 2 12 3 13 4 14 5 15 6 16 7 17 8 18 9 19 10 20 11
REMARK SMILES IDX 9 12 8 13 7 14 6 15 5 16 4 17 3 18 2 19 1 20
REMARK H PARENT
REMARK Flexibility Score: inf
ROOT
ATOM      1  C   UNL     1     -18.149 114.692  -3.756  1.00  0.00     0.000 C 
ENDROOT
BRANCH   1   2
ATOM      2  C   UNL     1     -19.278 115.447  -4.478  1.00  0.00     0.000 C 
BRANCH   2   3
ATOM      3  C   UNL     1     -20.678 115.019  -4.002  1.00  0.00     0.000 C 
BRANCH   3   4
ATOM      4  C   UNL     1     -21.644 116.210  -3.880  1.00  0.00     0.000 C 
BRANCH   4   5
ATOM      5  C   UNL     1     -20.917 117.564  -3.880  1.00  0.00     0.000 C 
BRANCH   5   6
ATOM      6  C   UNL     1     -21.210 118.343  -2.590  1.00  0.00     0.000 C 
BRANCH   6   7
ATOM      7  C   UNL     1     -19.932 118.723  -1.824  1.00  0.00     0.006 C 
BRANCH   7   8
ATOM      8  C   UNL     1     -19.934 120.184  -1.357  1.00  0.00     0.053 C 
BRANCH   8   9
ATOM      9  C   UNL     1     -21.123 120.453  -0.490  1.00  0.00     0.041 C 
ATOM     10  O   UNL     1     -21.222 119.902   0.638  1.00  0.00    -0.550 OA
ATOM     11  O   UNL     1     -22.099 121.349  -0.905  1.00  0.00    -0.550 OA
ENDBRANCH   8   9
ENDBRANCH   7   8
ENDBRANCH   6   7
ENDBRANCH   5   6
ENDBRANCH   4   5
ENDBRANCH   3   4
ENDBRANCH   2   3
ENDBRANCH   1   2
BRANCH   1  12
ATOM     12  C   UNL     1     -17.343 115.595  -2.807  1.00  0.00     0.000 C 
BRANCH  12  13
ATOM     13  C   UNL     1     -17.891 115.572  -1.370  1.00  0.00    -0.000 C 
BRANCH  13  14
ATOM     14  C   UNL     1     -18.238 114.152  -0.893  1.00  0.00    -0.000 C 
BRANCH  14  15
ATOM     15  C   UNL     1     -19.736 114.026  -0.589  1.00  0.00    -0.000 C 
BRANCH  15  16
ATOM     16  C   UNL     1     -20.364 115.406  -0.340  1.00  0.00    -0.000 C 
BRANCH  16  17
ATOM     17  C   UNL     1     -21.900 115.367  -0.357  1.00  0.00    -0.000 C 
BRANCH  17  18
ATOM     18  C   UNL     1     -22.529 116.554   0.395  1.00  0.00    -0.000 C 
BRANCH  18  19
ATOM     19  C   UNL     1     -23.974 116.831  -0.049  1.00  0.00    -0.003 C 
ATOM     20  C   UNL     1     -24.207 118.295  -0.421  1.00  0.00     0.004 C 
ENDBRANCH  18  19
ENDBRANCH  17  18
ENDBRANCH  16  17
ENDBRANCH  15  16
ENDBRANCH  14  15
ENDBRANCH  13  14
ENDBRANCH  12  13
ENDBRANCH   1  12
TORSDOF 16
ENDMDL
MODEL 3
REMARK VINA RESULT:    -3.899      1.740      4.905
REMARK INTER + INTRA:         -10.433
REMARK INTER:                  -8.034
REMARK INTRA:                  -2.398
REMARK UNBOUND:                -2.886
REMARK SMILES CCCCCCCCCCCCCCCCCC(=O)[O-]
REMARK SMILES IDX 10 1 11 2 12 3 13 4 14 5 15 6 16 7 17 8 18 9 19 10 20 11
REMARK SMILES IDX 9 12 8 13 7 14 6 15 5 16 4 17 3 18 2 19 1 20
REMARK H PARENT
REMARK Flexibility Score: inf
ROOT
ATOM      1  C   UNL     1     -21.579 116.825  -2.218  1.00  0.00     0.000 C 
ENDROOT
BRANCH   1   2
ATOM      2  C   UNL     1     -20.784 117.533  -1.108  1.00  0.00     0.000 C 
BRANCH   2   3
ATOM      3  C   UNL     1     -19.581 118.324  -1.651  1.00  0.00     0.000 C 
BRANCH   3   4
ATOM      4  C   UNL     1     -19.784 119.845  -1.546  1.00  0.00     0.000 C 
BRANCH   4   5
ATOM      5  C   UNL     1     -20.788 120.233  -0.449  1.00  0.00     0.000 C 
BRANCH   5   6
ATOM      6  C   UNL     1     -21.762 121.308  -0.953  1.00  0.00     0.000 C 
BRANCH   6   7
ATOM      7  C   UNL     1     -22.899 120.725  -1.808  1.00  0.00     0.006 C 
BRANCH   7   8
ATOM      8  C   UNL     1     -24.265 120.815  -1.115  1.00  0.00     0.053 C 
BRANCH   8   9
ATOM      9  C   UNL     1     -24.761 119.450  -0.759  1.00  0.00     0.041 C 
ATOM     10  O   UNL     1     -23.990 118.617  -0.214  1.00  0.00    -0.550 OA
ATOM     11  O   UNL     1     -26.089 119.111  -0.985  1.00  0.00    -0.550 OA
ENDBRANCH   8   9
ENDBRANCH   7   8
ENDBRANCH   6   7
ENDBRANCH   5   6
ENDBRANCH   4   5
ENDBRANCH   3   4
ENDBRANCH   2   3
ENDBRANCH   1   2
BRANCH   1  12
ATOM     12  C   UNL     1     -21.757 115.320  -1.953  1.00  0.00     0.000 C 
BRANCH  12  13
ATOM     13  C   UNL     1     -21.101 114.874  -0.635  1.00  0.00    -0.000 C 
BRANCH  13  14
ATOM     14  C   UNL     1     -19.836 114.032  -0.860  1.00  0.00    -0.000 C 
BRANCH  14  15
ATOM     15  C   UNL     1     -18.651 114.596  -0.067  1.00  0.00    -0.000 C 
BRANCH  15  16
ATOM     16  C   UNL     1     -17.371 114.593  -0.917  1.00  0.00    -0.000 C 
BRANCH  16  17
ATOM     17  C   UNL     1     -17.518 115.411  -2.210  1.00  0.00    -0.000 C 
BRANCH  17  18
ATOM     18  C   UNL     1     -17.336 114.555  -3.476  1.00  0.00    -0.000 C 
BRANCH  18  19
ATOM     19  C   UNL     1     -18.621 114.466  -4.315  1.00  0.00    -0.003 C 
ATOM     20  C   UNL     1     -19.181 115.840  -4.684  1.00  0.00     0.004 C 
ENDBRANCH  18  19
ENDBRANCH  17  18
ENDBRANCH  16  17
ENDBRANCH  15  16
ENDBRANCH  14  15
ENDBRANCH  13  14
ENDBRANCH  12  13
ENDBRANCH   1  12
TORSDOF 16
ENDMDL
MODEL 4
REMARK VINA RESULT:    -3.893      2.018      4.727
REMARK INTER + INTRA:         -10.420
REMARK INTER:                  -7.296
REMARK INTRA:                  -3.125
REMARK UNBOUND:                -2.886
REMARK SMILES CCCCCCCCCCCCCCCCCC(=O)[O-]
REMARK SMILES IDX 10 1 11 2 12 3 13 4 14 5 15 6 16 7 17 8 18 9 19 10 20 11
REMARK SMILES IDX 9 12 8 13 7 14 6 15 5 16 4 17 3 18 2 19 1 20
REMARK H PARENT
REMARK Flexibility Score: inf
ROOT
ATOM      1  C   UNL     1     -19.552 114.656  -2.861  1.00  0.00     0.000 C 
ENDROOT
BRANCH   1   2
ATOM      2  C   UNL     1     -19.266 116.119  -3.240  1.00  0.00     0.000 C 
BRANCH   2   3
ATOM      3  C   UNL     1     -20.520 116.859  -3.738  1.00  0.00     0.000 C 
BRANCH   3   4
ATOM      4  C   UNL     1     -20.815 118.128  -2.921  1.00  0.00     0.000 C 
BRANCH   4   5
ATOM      5  C   UNL     1     -19.869 118.291  -1.720  1.00  0.00     0.000 C 
BRANCH   5   6
ATOM      6  C   UNL     1     -19.622 119.775  -1.415  1.00  0.00     0.000 C 
BRANCH   6   7
ATOM      7  C   UNL     1     -20.695 120.693  -2.023  1.00  0.00     0.006 C 
BRANCH   7   8
ATOM      8  C   UNL     1     -21.751 121.127  -0.998  1.00  0.00     0.053 C 
BRANCH   8   9
ATOM      9  C   UNL     1     -23.125 120.987  -1.573  1.00  0.00     0.041 C 
ATOM     10  O   UNL     1     -24.130 120.955  -0.814  1.00  0.00    -0.550 OA
ATOM     11  O   UNL     1     -23.302 120.940  -2.949  1.00  0.00    -0.550 OA
ENDBRANCH   8   9
ENDBRANCH   7   8
ENDBRANCH   6   7
ENDBRANCH   5   6
ENDBRANCH   4   5
ENDBRANCH   3   4
ENDBRANCH   2   3
ENDBRANCH   1   2
BRANCH   1  12
ATOM     12  C   UNL     1     -20.920 114.475  -2.180  1.00  0.00     0.000 C 
BRANCH  12  13
ATOM     13  C   UNL     1     -20.880 114.820  -0.682  1.00  0.00    -0.000 C 
BRANCH  13  14
ATOM     14  C   UNL     1     -22.239 115.298  -0.149  1.00  0.00    -0.000 C 
BRANCH  14  15
ATOM     15  C   UNL     1     -22.115 116.673   0.519  1.00  0.00    -0.000 C 
BRANCH  15  16
ATOM     16  C   UNL     1     -23.258 117.601   0.079  1.00  0.00    -0.000 C 
BRANCH  16  17
ATOM     17  C   UNL     1     -24.235 116.917  -0.891  1.00  0.00    -0.000 C 
BRANCH  17  18
ATOM     18  C   UNL     1     -24.336 117.649  -2.241  1.00  0.00    -0.000 C 
BRANCH  18  19
ATOM     19  C   UNL     1     -24.237 116.691  -3.438  1.00  0.00    -0.003 C 
ATOM     20  C   UNL     1     -24.515 115.237  -3.056  1.00  0.00     0.004 C 
ENDBRANCH  18  19
ENDBRANCH  17  18
ENDBRANCH  16  17
ENDBRANCH  15  16
ENDBRANCH  14  15
ENDBRANCH  13  14
ENDBRANCH  12  13
ENDBRANCH   1  12
TORSDOF 16
ENDMDL
MODEL 5
REMARK VINA RESULT:    -3.887      2.628      5.209
REMARK INTER + INTRA:         -10.409
REMARK INTER:                  -8.006
REMARK INTRA:                  -2.403
REMARK UNBOUND:                -2.886
REMARK SMILES CCCCCCCCCCCCCCCCCC(=O)[O-]
REMARK SMILES IDX 10 1 11 2 12 3 13 4 14 5 15 6 16 7 17 8 18 9 19 10 20 11
REMARK SMILES IDX 9 12 8 13 7 14 6 15 5 16 4 17 3 18 2 19 1 20
REMARK H PARENT
REMARK Flexibility Score: inf
ROOT
ATOM      1  C   UNL     1     -21.531 116.314   0.373  1.00  0.00     0.000 C 
ENDROOT
BRANCH   1   2
ATOM      2  C   UNL     1     -22.166 115.597  -0.830  1.00  0.00     0.000 C 
BRANCH   2   3
ATOM      3  C   UNL     1     -21.256 115.601  -2.071  1.00  0.00     0.000 C 
BRANCH   3   4
ATOM      4  C   UNL     1     -21.127 114.206  -2.707  1.00  0.00     0.000 C 
BRANCH   4   5
ATOM      5  C   UNL     1     -20.234 114.206  -3.958  1.00  0.00     0.000 C 
BRANCH   5   6
ATOM      6  C   UNL     1     -19.225 115.363  -3.911  1.00  0.00     0.000 C 
BRANCH   6   7
ATOM      7  C   UNL     1     -17.853 114.931  -3.368  1.00  0.00     0.006 C 
BRANCH   7   8
ATOM      8  C   UNL     1     -17.427 115.734  -2.132  1.00  0.00     0.053 C 
BRANCH   8   9
ATOM      9  C   UNL     1     -17.278 114.831  -0.949  1.00  0.00     0.041 C 
ATOM     10  O   UNL     1     -16.144 114.386  -0.630  1.00  0.00    -0.550 OA
ATOM     11  O   UNL     1     -18.383 114.518  -0.168  1.00  0.00    -0.550 OA
ENDBRANCH   8   9
ENDBRANCH   7   8
ENDBRANCH   6   7
ENDBRANCH   5   6
ENDBRANCH   4   5
ENDBRANCH   3   4
ENDBRANCH   2   3
ENDBRANCH   1   2
BRANCH   1  12
ATOM     12  C   UNL     1     -22.349 117.532   0.839  1.00  0.00     0.000 C 
BRANCH  12  13
ATOM     13  C   UNL     1     -23.715 117.623   0.139  1.00  0.00    -0.000 C 
BRANCH  13  14
ATOM     14  C   UNL     1     -23.950 118.990  -0.523  1.00  0.00    -0.000 C 
BRANCH  14  15
ATOM     15  C   UNL     1     -23.354 119.026  -1.935  1.00  0.00    -0.000 C 
BRANCH  15  16
ATOM     16  C   UNL     1     -22.682 120.380  -2.213  1.00  0.00    -0.000 C 
BRANCH  16  17
ATOM     17  C   UNL     1     -22.235 121.091  -0.926  1.00  0.00    -0.000 C 
BRANCH  17  18
ATOM     18  C   UNL     1     -20.787 120.747  -0.533  1.00  0.00    -0.000 C 
BRANCH  18  19
ATOM     19  C   UNL     1     -19.961 120.234  -1.723  1.00  0.00    -0.003 C 
ATOM     20  C   UNL     1     -19.586 118.758  -1.589  1.00  0.00     0.004 C 
ENDBRANCH  18  19
ENDBRANCH  17  18
ENDBRANCH  16  17
ENDBRANCH  15  16
ENDBRANCH  14  15
ENDBRANCH  13  14
ENDBRANCH  12  13
ENDBRANCH   1  12
TORSDOF 16
ENDMDL
MODEL 6
REMARK VINA RESULT:    -3.876      2.995      5.492
REMARK INTER + INTRA:         -10.387
REMARK INTER:                  -7.633
REMARK INTRA:                  -2.754
REMARK UNBOUND:                -2.886
REMARK SMILES CCCCCCCCCCCCCCCCCC(=O)[O-]
REMARK SMILES IDX 10 1 11 2 12 3 13 4 14 5 15 6 16 7 17 8 18 9 19 10 20 11
REMARK SMILES IDX 9 12 8 13 7 14 6 15 5 16 4 17 3 18 2 19 1 20
REMARK H PARENT
REMARK Flexibility Score: inf
ROOT
ATOM      1  C   UNL     1     -19.662 118.672  -1.685  1.00  0.00     0.000 C 
ENDROOT
BRANCH   1   2
ATOM      2  C   UNL     1     -20.731 117.673  -1.212  1.00  0.00     0.000 C 
BRANCH   2   3
ATOM      3  C   UNL     1     -21.298 116.822  -2.363  1.00  0.00     0.000 C 
BRANCH   3   4
ATOM      4  C   UNL     1     -21.335 115.323  -2.020  1.00  0.00     0.000 C 
BRANCH   4   5
ATOM      5  C   UNL     1     -20.700 115.013  -0.655  1.00  0.00     0.000 C 
BRANCH   5   6
ATOM      6  C   UNL     1     -19.555 114.000  -0.800  1.00  0.00     0.000 C 
BRANCH   6   7
ATOM      7  C   UNL     1     -18.199 114.570  -0.353  1.00  0.00     0.006 C 
BRANCH   7   8
ATOM      8  C   UNL     1     -17.634 115.597  -1.343  1.00  0.00     0.053 C 
BRANCH   8   9
ATOM      9  C   UNL     1     -17.490 114.987  -2.701  1.00  0.00     0.041 C 
ATOM     10  O   UNL     1     -18.165 115.426  -3.669  1.00  0.00    -0.550 OA
ATOM     11  O   UNL     1     -16.574 113.964  -2.911  1.00  0.00    -0.550 OA
ENDBRANCH   8   9
ENDBRANCH   7   8
ENDBRANCH   6   7
ENDBRANCH   5   6
ENDBRANCH   4   5
ENDBRANCH   3   4
ENDBRANCH   2   3
ENDBRANCH   1   2
BRANCH   1  12
ATOM     12  C   UNL     1     -20.251 120.048  -2.042  1.00  0.00     0.000 C 
BRANCH  12  13
ATOM     13  C   UNL     1     -20.861 120.759  -0.822  1.00  0.00    -0.000 C 
BRANCH  13  14
ATOM     14  C   UNL     1     -22.358 121.055  -0.998  1.00  0.00    -0.000 C 
BRANCH  14  15
ATOM     15  C   UNL     1     -22.830 120.680  -2.408  1.00  0.00    -0.000 C 
BRANCH  15  16
ATOM     16  C   UNL     1     -24.304 120.247  -2.396  1.00  0.00    -0.000 C 
BRANCH  16  17
ATOM     17  C   UNL     1     -24.475 118.743  -2.130  1.00  0.00    -0.000 C 
BRANCH  17  18
ATOM     18  C   UNL     1     -25.097 118.454  -0.752  1.00  0.00    -0.000 C 
BRANCH  18  19
ATOM     19  C   UNL     1     -24.099 117.807   0.220  1.00  0.00    -0.003 C 
ATOM     20  C   UNL     1     -24.146 116.279   0.185  1.00  0.00     0.004 C 
ENDBRANCH  18  19
ENDBRANCH  17  18
ENDBRANCH  16  17
ENDBRANCH  15  16
ENDBRANCH  14  15
ENDBRANCH  13  14
ENDBRANCH  12  13
ENDBRANCH   1  12
TORSDOF 16
ENDMDL
MODEL 7
REMARK VINA RESULT:    -3.870      2.507      4.257
REMARK INTER + INTRA:         -10.376
REMARK INTER:                  -7.591
REMARK INTRA:                  -2.785
REMARK UNBOUND:                -2.886
REMARK SMILES CCCCCCCCCCCCCCCCCC(=O)[O-]
REMARK SMILES IDX 10 1 11 2 12 3 13 4 14 5 15 6 16 7 17 8 18 9 19 10 20 11
REMARK SMILES IDX 9 12 8 13 7 14 6 15 5 16 4 17 3 18 2 19 1 20
REMARK H PARENT
REMARK Flexibility Score: inf
ROOT
ATOM      1  C   UNL     1     -22.112 116.500  -2.708  1.00  0.00     0.000 C 
ENDROOT
BRANCH   1   2
ATOM      2  C   UNL     1     -21.660 115.098  -2.267  1.00  0.00     0.000 C 
BRANCH   2   3
ATOM      3  C   UNL     1     -21.445 114.995  -0.747  1.00  0.00     0.000 C 
BRANCH   3   4
ATOM      4  C   UNL     1     -22.592 115.637   0.052  1.00  0.00     0.000 C 
BRANCH   4   5
ATOM      5  C   UNL     1     -22.130 116.848   0.879  1.00  0.00     0.000 C 
BRANCH   5   6
ATOM      6  C   UNL     1     -23.172 117.975   0.829  1.00  0.00     0.000 C 
BRANCH   6   7
ATOM      7  C   UNL     1     -24.237 117.750  -0.257  1.00  0.00     0.006 C 
BRANCH   7   8
ATOM      8  C   UNL     1     -25.665 117.966   0.261  1.00  0.00     0.053 C 
BRANCH   8   9
ATOM      9  C   UNL     1     -26.014 116.926   1.277  1.00  0.00     0.041 C 
ATOM     10  O   UNL     1     -26.352 117.265   2.442  1.00  0.00    -0.550 OA
ATOM     11  O   UNL     1     -26.011 115.582   0.926  1.00  0.00    -0.550 OA
ENDBRANCH   8   9
ENDBRANCH   7   8
ENDBRANCH   6   7
ENDBRANCH   5   6
ENDBRANCH   4   5
ENDBRANCH   3   4
ENDBRANCH   2   3
ENDBRANCH   1   2
BRANCH   1  12
ATOM     12  C   UNL     1     -20.985 117.305  -3.378  1.00  0.00     0.000 C 
BRANCH  12  13
ATOM     13  C   UNL     1     -19.799 117.552  -2.431  1.00  0.00    -0.000 C 
BRANCH  13  14
ATOM     14  C   UNL     1     -20.097 118.633  -1.380  1.00  0.00    -0.000 C 
BRANCH  14  15
ATOM     15  C   UNL     1     -20.280 120.005  -2.040  1.00  0.00    -0.000 C 
BRANCH  15  16
ATOM     16  C   UNL     1     -20.946 120.995  -1.072  1.00  0.00    -0.000 C 
BRANCH  16  17
ATOM     17  C   UNL     1     -22.480 120.970  -1.164  1.00  0.00    -0.000 C 
BRANCH  17  18
ATOM     18  C   UNL     1     -22.982 120.574  -2.565  1.00  0.00    -0.000 C 
BRANCH  18  19
ATOM     19  C   UNL     1     -24.492 120.800  -2.734  1.00  0.00    -0.003 C 
ATOM     20  C   UNL     1     -25.177 121.215  -1.431  1.00  0.00     0.004 C 
ENDBRANCH  18  19
ENDBRANCH  17  18
ENDBRANCH  16  17
ENDBRANCH  15  16
ENDBRANCH  14  15
ENDBRANCH  13  14
ENDBRANCH  12  13
ENDBRANCH   1  12
TORSDOF 16
ENDMDL
MODEL 8
REMARK VINA RESULT:    -3.828      2.315      4.209
REMARK INTER + INTRA:         -10.294
REMARK INTER:                  -7.962
REMARK INTRA:                  -2.331
REMARK UNBOUND:                -2.886
REMARK SMILES CCCCCCCCCCCCCCCCCC(=O)[O-]
REMARK SMILES IDX 10 1 11 2 12 3 13 4 14 5 15 6 16 7 17 8 18 9 19 10 20 11
REMARK SMILES IDX 9 12 8 13 7 14 6 15 5 16 4 17 3 18 2 19 1 20
REMARK H PARENT
REMARK Flexibility Score: inf
ROOT
ATOM      1  C   UNL     1     -19.438 114.988  -0.258  1.00  0.00     0.000 C 
ENDROOT
BRANCH   1   2
ATOM      2  C   UNL     1     -18.116 114.211  -0.374  1.00  0.00     0.000 C 
BRANCH   2   3
ATOM      3  C   UNL     1     -16.997 115.038  -1.032  1.00  0.00     0.000 C 
BRANCH   3   4
ATOM      4  C   UNL     1     -17.349 115.462  -2.468  1.00  0.00     0.000 C 
BRANCH   4   5
ATOM      5  C   UNL     1     -17.651 114.263  -3.381  1.00  0.00     0.000 C 
BRANCH   5   6
ATOM      6  C   UNL     1     -18.558 114.679  -4.549  1.00  0.00     0.000 C 
BRANCH   6   7
ATOM      7  C   UNL     1     -19.539 115.799  -4.169  1.00  0.00     0.006 C 
BRANCH   7   8
ATOM      8  C   UNL     1     -19.963 116.649  -5.374  1.00  0.00     0.053 C 
BRANCH   8   9
ATOM      9  C   UNL     1     -21.413 116.442  -5.674  1.00  0.00     0.041 C 
ATOM     10  O   UNL     1     -21.829 116.494  -6.861  1.00  0.00    -0.550 OA
ATOM     11  O   UNL     1     -22.300 116.144  -4.647  1.00  0.00    -0.550 OA
ENDBRANCH   8   9
ENDBRANCH   7   8
ENDBRANCH   6   7
ENDBRANCH   5   6
ENDBRANCH   4   5
ENDBRANCH   3   4
ENDBRANCH   2   3
ENDBRANCH   1   2
BRANCH   1  12
ATOM     12  C   UNL     1     -20.603 114.291  -0.983  1.00  0.00     0.000 C 
BRANCH  12  13
ATOM     13  C   UNL     1     -21.819 115.215  -1.162  1.00  0.00    -0.000 C 
BRANCH  13  14
ATOM     14  C   UNL     1     -22.119 116.047   0.095  1.00  0.00    -0.000 C 
BRANCH  14  15
ATOM     15  C   UNL     1     -22.054 117.548  -0.212  1.00  0.00    -0.000 C 
BRANCH  15  16
ATOM     16  C   UNL     1     -21.425 117.800  -1.591  1.00  0.00    -0.000 C 
BRANCH  16  17
ATOM     17  C   UNL     1     -20.005 118.378  -1.496  1.00  0.00    -0.000 C 
BRANCH  17  18
ATOM     18  C   UNL     1     -19.950 119.873  -1.858  1.00  0.00    -0.000 C 
BRANCH  18  19
ATOM     19  C   UNL     1     -20.440 120.773  -0.713  1.00  0.00    -0.003 C 
ATOM     20  C   UNL     1     -21.849 121.317  -0.950  1.00  0.00     0.004 C 
ENDBRANCH  18  19
ENDBRANCH  17  18
ENDBRANCH  16  17
ENDBRANCH  15  16
ENDBRANCH  14  15
ENDBRANCH  13  14
ENDBRANCH  12  13
ENDBRANCH   1  12
TORSDOF 16
ENDMDL
MODEL 9
REMARK VINA RESULT:    -3.822      1.269      2.217
REMARK INTER + INTRA:         -10.283
REMARK INTER:                  -7.342
REMARK INTRA:                  -2.941
REMARK UNBOUND:                -2.886
REMARK SMILES CCCCCCCCCCCCCCCCCC(=O)[O-]
REMARK SMILES IDX 10 1 11 2 12 3 13 4 14 5 15 6 16 7 17 8 18 9 19 10 20 11
REMARK SMILES IDX 9 12 8 13 7 14 6 15 5 16 4 17 3 18 2 19 1 20
REMARK H PARENT
REMARK Flexibility Score: inf
ROOT
ATOM      1  C   UNL     1     -17.602 115.032  -1.411  1.00  0.00     0.000 C 
ENDROOT
BRANCH   1   2
ATOM      2  C   UNL     1     -18.780 114.333  -0.712  1.00  0.00     0.000 C 
BRANCH   2   3
ATOM      3  C   UNL     1     -19.889 115.314  -0.293  1.00  0.00     0.000 C 
BRANCH   3   4
ATOM      4  C   UNL     1     -21.286 114.841  -0.729  1.00  0.00     0.000 C 
BRANCH   4   5
ATOM      5  C   UNL     1     -22.413 115.703  -0.139  1.00  0.00     0.000 C 
BRANCH   5   6
ATOM      6  C   UNL     1     -21.843 116.819   0.749  1.00  0.00     0.000 C 
BRANCH   6   7
ATOM      7  C   UNL     1     -22.753 118.056   0.803  1.00  0.00     0.006 C 
BRANCH   7   8
ATOM      8  C   UNL     1     -23.770 118.094  -0.345  1.00  0.00     0.053 C 
BRANCH   8   9
ATOM      9  C   UNL     1     -23.808 119.454  -0.964  1.00  0.00     0.041 C 
ATOM     10  O   UNL     1     -23.373 120.452  -0.331  1.00  0.00    -0.550 OA
ATOM     11  O   UNL     1     -24.280 119.616  -2.261  1.00  0.00    -0.550 OA
ENDBRANCH   8   9
ENDBRANCH   7   8
ENDBRANCH   6   7
ENDBRANCH   5   6
ENDBRANCH   4   5
ENDBRANCH   3   4
ENDBRANCH   2   3
ENDBRANCH   1   2
BRANCH   1  12
ATOM     12  C   UNL     1     -18.000 115.666  -2.756  1.00  0.00     0.000 C 
BRANCH  12  13
ATOM     13  C   UNL     1     -18.611 114.642  -3.728  1.00  0.00    -0.000 C 
BRANCH  13  14
ATOM     14  C   UNL     1     -19.939 115.122  -4.334  1.00  0.00    -0.000 C 
BRANCH  14  15
ATOM     15  C   UNL     1     -19.815 116.557  -4.860  1.00  0.00    -0.000 C 
BRANCH  15  16
ATOM     16  C   UNL     1     -21.146 117.312  -4.712  1.00  0.00    -0.000 C 
BRANCH  16  17
ATOM     17  C   UNL     1     -21.550 117.512  -3.243  1.00  0.00    -0.000 C 
BRANCH  17  18
ATOM     18  C   UNL     1     -20.507 118.316  -2.447  1.00  0.00    -0.000 C 
BRANCH  18  19
ATOM     19  C   UNL     1     -20.621 119.829  -2.688  1.00  0.00    -0.003 C 
ATOM     20  C   UNL     1     -20.102 120.656  -1.511  1.00  0.00     0.004 C 
ENDBRANCH  18  19
ENDBRANCH  17  18
ENDBRANCH  16  17
ENDBRANCH  15  16
ENDBRANCH  14  15
ENDBRANCH  13  14
ENDBRANCH  12  13
ENDBRANCH   1  12
TORSDOF 16
ENDMDL
