MODEL 1
REMARK VINA RESULT:    -4.799      0.000      0.000
REMARK INTER + INTRA:          -6.299
REMARK INTER:                  -5.921
REMARK INTRA:                  -0.379
REMARK UNBOUND:                -0.379
REMARK SMILES Oc1cc(O)c2cc(O)c(-c3cc(O)c(O)c(O)c3)[o+]c2c1
REMARK SMILES IDX 10 1 20 2 21 3 22 4 2 5 3 6 4 7 6 8 7 9 8 10 11 11 12 12
REMARK SMILES IDX 13 13 19 14 15 15 17 16 14 17 16 19 18 21 9 23 1 25 5 27
REMARK H PARENT 14 18 16 20 18 22 9 24 1 26 5 28
REMARK Flexibility Score: inf
ROOT
ATOM      1  C   UNL     1     102.811 101.924  92.951  1.00  0.00     0.402 A 
ATOM      2  O   UNL     1     102.239 100.781  93.320  1.00  0.00    -0.202 OA
ATOM      3  C   UNL     1     102.860  99.607  93.282  1.00  0.00     0.368 A 
ATOM      4  C   UNL     1     102.176  98.461  93.695  1.00  0.00     0.162 A 
ATOM      5  C   UNL     1     102.807  97.213  93.666  1.00  0.00     0.128 A 
ATOM      6  C   UNL     1     104.129  97.113  93.224  1.00  0.00     0.093 A 
ATOM      7  C   UNL     1     104.835  98.246  92.806  1.00  0.00     0.136 A 
ATOM      8  C   UNL     1     104.198  99.514  92.829  1.00  0.00     0.125 A 
ATOM      9  C   UNL     1     104.825 100.702  92.416  1.00  0.00     0.078 A 
ATOM     10  C   UNL     1     104.131 101.913  92.464  1.00  0.00     0.223 A 
ENDROOT
BRANCH   1  11
ATOM     11  C   UNL     1     102.016 103.169  93.050  1.00  0.00     0.091 A 
ATOM     12  C   UNL     1     102.060 103.923  94.231  1.00  0.00     0.068 A 
ATOM     13  C   UNL     1     101.337 105.116  94.353  1.00  0.00     0.162 A 
ATOM     14  C   UNL     1     101.261 103.643  91.965  1.00  0.00     0.068 A 
ATOM     15  C   UNL     1     100.560 105.575  93.263  1.00  0.00     0.200 A 
ATOM     16  C   UNL     1     100.535 104.835  92.073  1.00  0.00     0.162 A 
BRANCH  13  17
ATOM     17  O   UNL     1     101.420 105.806  95.565  1.00  0.00    -0.504 OA
ATOM     18  H   UNL     1     102.028 105.540  96.325  1.00  0.00     0.293 HD
ENDBRANCH  13  17
BRANCH  15  19
ATOM     19  O   UNL     1      99.811 106.754  93.319  1.00  0.00    -0.502 OA
ATOM     20  H   UNL     1     100.008 107.521  93.946  1.00  0.00     0.293 HD
ENDBRANCH  15  19
BRANCH  16  21
ATOM     21  O   UNL     1      99.781 105.295  90.993  1.00  0.00    -0.504 OA
ATOM     22  H   UNL     1      98.876 104.896  90.770  1.00  0.00     0.293 HD
ENDBRANCH  16  21
ENDBRANCH   1  11
BRANCH  10  23
ATOM     23  O   UNL     1     104.736 103.085  92.007  1.00  0.00    -0.500 OA
ATOM     24  H   UNL     1     105.109 103.776  92.646  1.00  0.00     0.294 HD
ENDBRANCH  10  23
BRANCH   5  25
ATOM     25  O   UNL     1     102.131  96.067  94.077  1.00  0.00    -0.507 OA
ATOM     26  H   UNL     1     101.611  96.041  94.946  1.00  0.00     0.293 HD
ENDBRANCH   5  25
BRANCH   7  27
ATOM     27  O   UNL     1     106.155  98.061  92.380  1.00  0.00    -0.507 OA
ATOM     28  H   UNL     1     106.722  98.779  91.953  1.00  0.00     0.293 HD
ENDBRANCH   7  27
TORSDOF 7
ENDMDL
MODEL 2
REMARK VINA RESULT:    -4.724      0.305      1.820
REMARK INTER + INTRA:          -6.207
REMARK INTER:                  -5.856
REMARK INTRA:                  -0.350
REMARK UNBOUND:                -0.379
REMARK SMILES Oc1cc(O)c2cc(O)c(-c3cc(O)c(O)c(O)c3)[o+]c2c1
REMARK SMILES IDX 10 1 20 2 21 3 22 4 2 5 3 6 4 7 6 8 7 9 8 10 11 11 12 12
REMARK SMILES IDX 13 13 19 14 15 15 17 16 14 17 16 19 18 21 9 23 1 25 5 27
REMARK H PARENT 14 18 16 20 18 22 9 24 1 26 5 28
REMARK Flexibility Score: inf
ROOT
ATOM      1  C   UNL     1     103.115 101.967  92.883  1.00  0.00     0.402 A 
ATOM      2  O   UNL     1     102.521 100.847  93.286  1.00  0.00    -0.202 OA
ATOM      3  C   UNL     1     103.102  99.653  93.235  1.00  0.00     0.368 A 
ATOM      4  C   UNL     1     102.396  98.534  93.685  1.00  0.00     0.162 A 
ATOM      5  C   UNL     1     102.985  97.266  93.645  1.00  0.00     0.128 A 
ATOM      6  C   UNL     1     104.284  97.118  93.154  1.00  0.00     0.093 A 
ATOM      7  C   UNL     1     105.011  98.224  92.698  1.00  0.00     0.136 A 
ATOM      8  C   UNL     1     104.417  99.512  92.733  1.00  0.00     0.125 A 
ATOM      9  C   UNL     1     105.066 100.675  92.284  1.00  0.00     0.078 A 
ATOM     10  C   UNL     1     104.415 101.909  92.347  1.00  0.00     0.223 A 
ENDROOT
BRANCH   1  11
ATOM     11  C   UNL     1     102.366 103.239  93.001  1.00  0.00     0.091 A 
ATOM     12  C   UNL     1     101.692 103.749  91.881  1.00  0.00     0.068 A 
ATOM     13  C   UNL     1     100.958 104.938  91.962  1.00  0.00     0.162 A 
ATOM     14  C   UNL     1     102.267 103.919  94.225  1.00  0.00     0.068 A 
ATOM     15  C   UNL     1     100.883 105.630  93.194  1.00  0.00     0.200 A 
ATOM     16  C   UNL     1     101.535 105.108  94.320  1.00  0.00     0.162 A 
BRANCH  13  17
ATOM     17  O   UNL     1     100.325 105.391  90.802  1.00  0.00    -0.504 OA
ATOM     18  H   UNL     1      99.472 104.996  90.433  1.00  0.00     0.293 HD
ENDBRANCH  13  17
BRANCH  15  19
ATOM     19  O   UNL     1     100.172 106.824  93.342  1.00  0.00    -0.502 OA
ATOM     20  H   UNL     1     100.578 107.689  93.669  1.00  0.00     0.293 HD
ENDBRANCH  15  19
BRANCH  16  21
ATOM     21  O   UNL     1     101.448 105.782  95.538  1.00  0.00    -0.504 OA
ATOM     22  H   UNL     1     101.759 106.742  95.636  1.00  0.00     0.293 HD
ENDBRANCH  16  21
ENDBRANCH   1  11
BRANCH  10  23
ATOM     23  O   UNL     1     105.040 103.056  91.855  1.00  0.00    -0.500 OA
ATOM     24  H   UNL     1     105.114 103.901  92.408  1.00  0.00     0.294 HD
ENDBRANCH  10  23
BRANCH   5  25
ATOM     25  O   UNL     1     102.288  96.147  94.093  1.00  0.00    -0.507 OA
ATOM     26  H   UNL     1     101.380  96.229  94.536  1.00  0.00     0.293 HD
ENDBRANCH   5  25
BRANCH   7  27
ATOM     27  O   UNL     1     106.306  97.991  92.224  1.00  0.00    -0.507 OA
ATOM     28  H   UNL     1     107.023  97.501  92.739  1.00  0.00     0.293 HD
ENDBRANCH   7  27
TORSDOF 7
ENDMDL
MODEL 3
REMARK VINA RESULT:    -4.715      1.198      2.748
REMARK INTER + INTRA:          -6.196
REMARK INTER:                  -5.836
REMARK INTRA:                  -0.360
REMARK UNBOUND:                -0.379
REMARK SMILES Oc1cc(O)c2cc(O)c(-c3cc(O)c(O)c(O)c3)[o+]c2c1
REMARK SMILES IDX 10 1 20 2 21 3 22 4 2 5 3 6 4 7 6 8 7 9 8 10 11 11 12 12
REMARK SMILES IDX 13 13 19 14 15 15 17 16 14 17 16 19 18 21 9 23 1 25 5 27
REMARK H PARENT 14 18 16 20 18 22 9 24 1 26 5 28
REMARK Flexibility Score: inf
ROOT
ATOM      1  C   UNL     1     101.203 101.312  93.527  1.00  0.00     0.402 A 
ATOM      2  O   UNL     1     102.455 101.012  93.195  1.00  0.00    -0.202 OA
ATOM      3  C   UNL     1     102.947  99.779  93.236  1.00  0.00     0.368 A 
ATOM      4  C   UNL     1     104.277  99.563  92.864  1.00  0.00     0.162 A 
ATOM      5  C   UNL     1     104.819  98.275  92.896  1.00  0.00     0.128 A 
ATOM      6  C   UNL     1     104.026  97.197  93.301  1.00  0.00     0.093 A 
ATOM      7  C   UNL     1     102.692  97.387  93.679  1.00  0.00     0.136 A 
ATOM      8  C   UNL     1     102.138  98.693  93.651  1.00  0.00     0.125 A 
ATOM      9  C   UNL     1     100.814  98.980  94.025  1.00  0.00     0.078 A 
ATOM     10  C   UNL     1     100.341 100.294  93.975  1.00  0.00     0.223 A 
ENDROOT
BRANCH   1  11
ATOM     11  C   UNL     1     100.770 102.725  93.429  1.00  0.00     0.091 A 
ATOM     12  C   UNL     1     101.185 103.643  94.405  1.00  0.00     0.068 A 
ATOM     13  C   UNL     1     100.811 104.990  94.332  1.00  0.00     0.162 A 
ATOM     14  C   UNL     1      99.999 103.180  92.347  1.00  0.00     0.068 A 
ATOM     15  C   UNL     1     100.015 105.437  93.251  1.00  0.00     0.200 A 
ATOM     16  C   UNL     1      99.620 104.525  92.262  1.00  0.00     0.162 A 
BRANCH  13  17
ATOM     17  O   UNL     1     101.252 105.842  95.347  1.00  0.00    -0.504 OA
ATOM     18  H   UNL     1     101.434 105.545  96.294  1.00  0.00     0.293 HD
ENDBRANCH  13  17
BRANCH  15  19
ATOM     19  O   UNL     1      99.603 106.765  93.121  1.00  0.00    -0.502 OA
ATOM     20  H   UNL     1     100.202 107.516  92.809  1.00  0.00     0.293 HD
ENDBRANCH  15  19
BRANCH  16  21
ATOM     21  O   UNL     1      98.847 104.967  91.189  1.00  0.00    -0.504 OA
ATOM     22  H   UNL     1      99.239 105.071  90.260  1.00  0.00     0.293 HD
ENDBRANCH  16  21
ENDBRANCH   1  11
BRANCH  10  23
ATOM     23  O   UNL     1      99.042 100.585  94.393  1.00  0.00    -0.500 OA
ATOM     24  H   UNL     1      98.733 101.537  94.547  1.00  0.00     0.294 HD
ENDBRANCH  10  23
BRANCH   5  25
ATOM     25  O   UNL     1     106.142  98.053  92.526  1.00  0.00    -0.507 OA
ATOM     26  H   UNL     1     106.659  97.247  92.859  1.00  0.00     0.293 HD
ENDBRANCH   5  25
BRANCH   7  27
ATOM     27  O   UNL     1     101.966  96.257  94.069  1.00  0.00    -0.507 OA
ATOM     28  H   UNL     1     100.996  96.096  93.841  1.00  0.00     0.293 HD
ENDBRANCH   7  27
TORSDOF 7
ENDMDL
MODEL 4
REMARK VINA RESULT:    -4.475      3.347      8.287
REMARK INTER + INTRA:          -5.900
REMARK INTER:                  -5.726
REMARK INTRA:                  -0.173
REMARK UNBOUND:                -0.379
REMARK SMILES Oc1cc(O)c2cc(O)c(-c3cc(O)c(O)c(O)c3)[o+]c2c1
REMARK SMILES IDX 10 1 20 2 21 3 22 4 2 5 3 6 4 7 6 8 7 9 8 10 11 11 12 12
REMARK SMILES IDX 13 13 19 14 15 15 17 16 14 17 16 19 18 21 9 23 1 25 5 27
REMARK H PARENT 14 18 16 20 18 22 9 24 1 26 5 28
REMARK Flexibility Score: inf
ROOT
ATOM      1  C   UNL     1     103.223 105.233  92.987  1.00  0.00     0.402 A 
ATOM      2  O   UNL     1     103.102 106.389  92.340  1.00  0.00    -0.202 OA
ATOM      3  C   UNL     1     102.171 107.293  92.627  1.00  0.00     0.368 A 
ATOM      4  C   UNL     1     102.127 108.481  91.893  1.00  0.00     0.162 A 
ATOM      5  C   UNL     1     101.159 109.450  92.175  1.00  0.00     0.128 A 
ATOM      6  C   UNL     1     100.232 109.229  93.196  1.00  0.00     0.093 A 
ATOM      7  C   UNL     1     100.256 108.047  93.946  1.00  0.00     0.136 A 
ATOM      8  C   UNL     1     101.234 107.059  93.661  1.00  0.00     0.125 A 
ATOM      9  C   UNL     1     101.324 105.839  94.352  1.00  0.00     0.078 A 
ATOM     10  C   UNL     1     102.314 104.913  94.012  1.00  0.00     0.223 A 
ENDROOT
BRANCH   1  11
ATOM     11  C   UNL     1     104.310 104.313  92.581  1.00  0.00     0.091 A 
ATOM     12  C   UNL     1     103.988 103.050  92.064  1.00  0.00     0.068 A 
ATOM     13  C   UNL     1     104.989 102.162  91.652  1.00  0.00     0.162 A 
ATOM     14  C   UNL     1     105.658 104.700  92.648  1.00  0.00     0.068 A 
ATOM     15  C   UNL     1     106.347 102.550  91.745  1.00  0.00     0.200 A 
ATOM     16  C   UNL     1     106.669 103.823  92.238  1.00  0.00     0.162 A 
BRANCH  13  17
ATOM     17  O   UNL     1     104.592 100.917  91.160  1.00  0.00    -0.504 OA
ATOM     18  H   UNL     1     104.487 100.704  90.179  1.00  0.00     0.293 HD
ENDBRANCH  13  17
BRANCH  15  19
ATOM     19  O   UNL     1     107.395 101.712  91.356  1.00  0.00    -0.502 OA
ATOM     20  H   UNL     1     108.373 101.932  91.482  1.00  0.00     0.293 HD
ENDBRANCH  15  19
BRANCH  16  21
ATOM     21  O   UNL     1     108.006 104.211  92.315  1.00  0.00    -0.504 OA
ATOM     22  H   UNL     1     108.316 105.116  91.982  1.00  0.00     0.293 HD
ENDBRANCH  16  21
ENDBRANCH   1  11
BRANCH  10  23
ATOM     23  O   UNL     1     102.372 103.681  94.664  1.00  0.00    -0.500 OA
ATOM     24  H   UNL     1     103.001 102.947  94.361  1.00  0.00     0.294 HD
ENDBRANCH  10  23
BRANCH   5  25
ATOM     25  O   UNL     1     101.110 110.636  91.447  1.00  0.00    -0.507 OA
ATOM     26  H   UNL     1     101.948 111.169  91.245  1.00  0.00     0.293 HD
ENDBRANCH   5  25
BRANCH   7  27
ATOM     27  O   UNL     1      99.295 107.904  94.952  1.00  0.00    -0.507 OA
ATOM     28  H   UNL     1      98.812 107.042  95.162  1.00  0.00     0.293 HD
ENDBRANCH   7  27
TORSDOF 7
ENDMDL
MODEL 5
REMARK VINA RESULT:    -4.443      4.191      7.319
REMARK INTER + INTRA:          -5.861
REMARK INTER:                  -5.933
REMARK INTRA:                   0.073
REMARK UNBOUND:                -0.379
REMARK SMILES Oc1cc(O)c2cc(O)c(-c3cc(O)c(O)c(O)c3)[o+]c2c1
REMARK SMILES IDX 10 1 20 2 21 3 22 4 2 5 3 6 4 7 6 8 7 9 8 10 11 11 12 12
REMARK SMILES IDX 13 13 19 14 15 15 17 16 14 17 16 19 18 21 9 23 1 25 5 27
REMARK H PARENT 14 18 16 20 18 22 9 24 1 26 5 28
REMARK Flexibility Score: inf
ROOT
ATOM      1  C   UNL     1     100.325 108.325  93.125  1.00  0.00     0.402 A 
ATOM      2  O   UNL     1     101.285 107.471  93.468  1.00  0.00    -0.202 OA
ATOM      3  C   UNL     1     101.113 106.153  93.501  1.00  0.00     0.368 A 
ATOM      4  C   UNL     1     102.184 105.336  93.871  1.00  0.00     0.162 A 
ATOM      5  C   UNL     1     102.031 103.947  93.911  1.00  0.00     0.128 A 
ATOM      6  C   UNL     1     100.802 103.373  93.578  1.00  0.00     0.093 A 
ATOM      7  C   UNL     1      99.713 104.170  93.204  1.00  0.00     0.136 A 
ATOM      8  C   UNL     1      99.862 105.581  93.165  1.00  0.00     0.125 A 
ATOM      9  C   UNL     1      98.823 106.459  92.814  1.00  0.00     0.078 A 
ATOM     10  C   UNL     1      99.044 107.838  92.802  1.00  0.00     0.223 A 
ENDROOT
BRANCH   1  11
ATOM     11  C   UNL     1     100.644 109.771  93.118  1.00  0.00     0.091 A 
ATOM     12  C   UNL     1     101.542 110.285  94.064  1.00  0.00     0.068 A 
ATOM     13  C   UNL     1     101.882 111.643  94.073  1.00  0.00     0.162 A 
ATOM     14  C   UNL     1     100.110 110.633  92.146  1.00  0.00     0.068 A 
ATOM     15  C   UNL     1     101.321 112.509  93.105  1.00  0.00     0.200 A 
ATOM     16  C   UNL     1     100.442 111.992  92.143  1.00  0.00     0.162 A 
BRANCH  13  17
ATOM     17  O   UNL     1     102.773 112.083  95.054  1.00  0.00    -0.504 OA
ATOM     18  H   UNL     1     103.448 112.821  94.914  1.00  0.00     0.293 HD
ENDBRANCH  13  17
BRANCH  15  19
ATOM     19  O   UNL     1     101.613 113.875  93.061  1.00  0.00    -0.502 OA
ATOM     20  H   UNL     1     102.380 114.307  93.556  1.00  0.00     0.293 HD
ENDBRANCH  15  19
BRANCH  16  21
ATOM     21  O   UNL     1      99.900 112.843  91.179  1.00  0.00    -0.504 OA
ATOM     22  H   UNL     1      99.490 113.735  91.430  1.00  0.00     0.293 HD
ENDBRANCH  16  21
ENDBRANCH   1  11
BRANCH  10  23
ATOM     23  O   UNL     1      97.999 108.712  92.502  1.00  0.00    -0.500 OA
ATOM     24  H   UNL     1      97.068 108.376  92.290  1.00  0.00     0.294 HD
ENDBRANCH  10  23
BRANCH   5  25
ATOM     25  O   UNL     1     103.095 103.127  94.278  1.00  0.00    -0.507 OA
ATOM     26  H   UNL     1     103.756 103.405  94.994  1.00  0.00     0.293 HD
ENDBRANCH   5  25
BRANCH   7  27
ATOM     27  O   UNL     1      98.518 103.519  92.883  1.00  0.00    -0.507 OA
ATOM     28  H   UNL     1      98.463 102.635  92.398  1.00  0.00     0.293 HD
ENDBRANCH   7  27
TORSDOF 7
ENDMDL
MODEL 6
REMARK VINA RESULT:    -4.420      4.370      7.397
REMARK INTER + INTRA:          -5.833
REMARK INTER:                  -5.671
REMARK INTRA:                  -0.161
REMARK UNBOUND:                -0.379
REMARK SMILES Oc1cc(O)c2cc(O)c(-c3cc(O)c(O)c(O)c3)[o+]c2c1
REMARK SMILES IDX 10 1 20 2 21 3 22 4 2 5 3 6 4 7 6 8 7 9 8 10 11 11 12 12
REMARK SMILES IDX 13 13 19 14 15 15 17 16 14 17 16 19 18 21 9 23 1 25 5 27
REMARK H PARENT 14 18 16 20 18 22 9 24 1 26 5 28
REMARK Flexibility Score: inf
ROOT
ATOM      1  C   UNL     1     100.842 108.114  93.170  1.00  0.00     0.402 A 
ATOM      2  O   UNL     1     101.264 106.938  93.628  1.00  0.00    -0.202 OA
ATOM      3  C   UNL     1     100.584 105.807  93.474  1.00  0.00     0.368 A 
ATOM      4  C   UNL     1     101.112 104.620  93.987  1.00  0.00     0.162 A 
ATOM      5  C   UNL     1     100.418 103.416  93.837  1.00  0.00     0.128 A 
ATOM      6  C   UNL     1      99.191 103.399  93.169  1.00  0.00     0.093 A 
ATOM      7  C   UNL     1      98.641 104.575  92.645  1.00  0.00     0.136 A 
ATOM      8  C   UNL     1      99.340 105.800  92.798  1.00  0.00     0.125 A 
ATOM      9  C   UNL     1      98.859 107.030  92.317  1.00  0.00     0.078 A 
ATOM     10  C   UNL     1      99.602 108.197  92.510  1.00  0.00     0.223 A 
ENDROOT
BRANCH   1  11
ATOM     11  C   UNL     1     101.697 109.302  93.397  1.00  0.00     0.091 A 
ATOM     12  C   UNL     1     102.980 109.346  92.832  1.00  0.00     0.068 A 
ATOM     13  C   UNL     1     103.807 110.462  93.009  1.00  0.00     0.162 A 
ATOM     14  C   UNL     1     101.229 110.412  94.118  1.00  0.00     0.068 A 
ATOM     15  C   UNL     1     103.338 111.567  93.758  1.00  0.00     0.200 A 
ATOM     16  C   UNL     1     102.046 111.534  94.302  1.00  0.00     0.162 A 
BRANCH  13  17
ATOM     17  O   UNL     1     105.076 110.428  92.428  1.00  0.00    -0.504 OA
ATOM     18  H   UNL     1     105.467 109.618  91.970  1.00  0.00     0.293 HD
ENDBRANCH  13  17
BRANCH  15  19
ATOM     19  O   UNL     1     104.113 112.709  93.977  1.00  0.00    -0.502 OA
ATOM     20  H   UNL     1     105.117 112.700  94.083  1.00  0.00     0.293 HD
ENDBRANCH  15  19
BRANCH  16  21
ATOM     21  O   UNL     1     101.577 112.629  95.027  1.00  0.00    -0.504 OA
ATOM     22  H   UNL     1     101.464 112.590  96.033  1.00  0.00     0.293 HD
ENDBRANCH  16  21
ENDBRANCH   1  11
BRANCH  10  23
ATOM     23  O   UNL     1      99.102 109.425  92.076  1.00  0.00    -0.500 OA
ATOM     24  H   UNL     1      98.289 109.487  91.475  1.00  0.00     0.294 HD
ENDBRANCH  10  23
BRANCH   5  25
ATOM     25  O   UNL     1     100.939 102.229  94.346  1.00  0.00    -0.507 OA
ATOM     26  H   UNL     1     101.136 101.436  93.746  1.00  0.00     0.293 HD
ENDBRANCH   5  25
BRANCH   7  27
ATOM     27  O   UNL     1      97.410 104.473  91.988  1.00  0.00    -0.507 OA
ATOM     28  H   UNL     1      97.302 104.426  90.985  1.00  0.00     0.293 HD
ENDBRANCH   7  27
TORSDOF 7
ENDMDL
MODEL 7
REMARK VINA RESULT:    -4.415      2.162      7.451
REMARK INTER + INTRA:          -5.826
REMARK INTER:                  -5.481
REMARK INTRA:                  -0.344
REMARK UNBOUND:                -0.379
REMARK SMILES Oc1cc(O)c2cc(O)c(-c3cc(O)c(O)c(O)c3)[o+]c2c1
REMARK SMILES IDX 10 1 20 2 21 3 22 4 2 5 3 6 4 7 6 8 7 9 8 10 11 11 12 12
REMARK SMILES IDX 13 13 19 14 15 15 17 16 14 17 16 19 18 21 9 23 1 25 5 27
REMARK H PARENT 14 18 16 20 18 22 9 24 1 26 5 28
REMARK Flexibility Score: inf
ROOT
ATOM      1  C   UNL     1     101.039 102.972  93.251  1.00  0.00     0.402 A 
ATOM      2  O   UNL     1      99.887 103.498  92.840  1.00  0.00    -0.202 OA
ATOM      3  C   UNL     1      99.573 104.780  92.997  1.00  0.00     0.368 A 
ATOM      4  C   UNL     1      98.339 105.240  92.528  1.00  0.00     0.162 A 
ATOM      5  C   UNL     1      97.984 106.584  92.678  1.00  0.00     0.128 A 
ATOM      6  C   UNL     1      98.867 107.471  93.298  1.00  0.00     0.093 A 
ATOM      7  C   UNL     1     100.108 107.035  93.776  1.00  0.00     0.136 A 
ATOM      8  C   UNL     1     100.472 105.671  93.629  1.00  0.00     0.125 A 
ATOM      9  C   UNL     1     101.690 105.142  94.089  1.00  0.00     0.078 A 
ATOM     10  C   UNL     1     101.977 103.786  93.912  1.00  0.00     0.223 A 
ENDROOT
BRANCH   1  11
ATOM     11  C   UNL     1     101.276 101.531  93.008  1.00  0.00     0.091 A 
ATOM     12  C   UNL     1     102.128 101.138  91.966  1.00  0.00     0.068 A 
ATOM     13  C   UNL     1     102.391  99.785  91.721  1.00  0.00     0.162 A 
ATOM     14  C   UNL     1     100.712 100.548  93.836  1.00  0.00     0.068 A 
ATOM     15  C   UNL     1     101.799  98.798  92.545  1.00  0.00     0.200 A 
ATOM     16  C   UNL     1     100.967  99.191  93.603  1.00  0.00     0.162 A 
BRANCH  13  17
ATOM     17  O   UNL     1     103.240  99.470  90.657  1.00  0.00    -0.504 OA
ATOM     18  H   UNL     1     104.047 100.017  90.397  1.00  0.00     0.293 HD
ENDBRANCH  13  17
BRANCH  15  19
ATOM     19  O   UNL     1     102.015  97.431  92.353  1.00  0.00    -0.502 OA
ATOM     20  H   UNL     1     102.042  96.752  93.099  1.00  0.00     0.293 HD
ENDBRANCH  15  19
BRANCH  16  21
ATOM     21  O   UNL     1     100.396  98.220  94.425  1.00  0.00    -0.504 OA
ATOM     22  H   UNL     1      99.654  97.614  94.093  1.00  0.00     0.293 HD
ENDBRANCH  16  21
ENDBRANCH   1  11
BRANCH  10  23
ATOM     23  O   UNL     1     103.164 103.251  94.413  1.00  0.00    -0.500 OA
ATOM     24  H   UNL     1     104.050 103.729  94.307  1.00  0.00     0.294 HD
ENDBRANCH  10  23
BRANCH   5  25
ATOM     25  O   UNL     1      96.757 107.049  92.212  1.00  0.00    -0.507 OA
ATOM     26  H   UNL     1      96.052 106.416  91.852  1.00  0.00     0.293 HD
ENDBRANCH   5  25
BRANCH   7  27
ATOM     27  O   UNL     1     100.935 107.986  94.382  1.00  0.00    -0.507 OA
ATOM     28  H   UNL     1     101.914 108.111  94.167  1.00  0.00     0.293 HD
ENDBRANCH   7  27
TORSDOF 7
ENDMDL
MODEL 8
REMARK VINA RESULT:    -4.373      4.170      7.276
REMARK INTER + INTRA:          -5.774
REMARK INTER:                  -5.396
REMARK INTRA:                  -0.378
REMARK UNBOUND:                -0.379
REMARK SMILES Oc1cc(O)c2cc(O)c(-c3cc(O)c(O)c(O)c3)[o+]c2c1
REMARK SMILES IDX 10 1 20 2 21 3 22 4 2 5 3 6 4 7 6 8 7 9 8 10 11 11 12 12
REMARK SMILES IDX 13 13 19 14 15 15 17 16 14 17 16 19 18 21 9 23 1 25 5 27
REMARK H PARENT 14 18 16 20 18 22 9 24 1 26 5 28
REMARK Flexibility Score: inf
ROOT
ATOM      1  C   UNL     1     101.350 108.250  93.333  1.00  0.00     0.402 A 
ATOM      2  O   UNL     1     102.464 107.792  92.766  1.00  0.00    -0.202 OA
ATOM      3  C   UNL     1     102.877 106.534  92.880  1.00  0.00     0.368 A 
ATOM      4  C   UNL     1     104.060 106.147  92.245  1.00  0.00     0.162 A 
ATOM      5  C   UNL     1     104.516 104.829  92.347  1.00  0.00     0.128 A 
ATOM      6  C   UNL     1     103.786 103.896  93.086  1.00  0.00     0.093 A 
ATOM      7  C   UNL     1     102.598 104.259  93.732  1.00  0.00     0.136 A 
ATOM      8  C   UNL     1     102.133 105.596  93.635  1.00  0.00     0.125 A 
ATOM      9  C   UNL     1     100.960 106.053  94.259  1.00  0.00     0.078 A 
ATOM     10  C   UNL     1     100.567 107.387  94.121  1.00  0.00     0.223 A 
ENDROOT
BRANCH   1  11
ATOM     11  C   UNL     1     100.991 109.671  93.123  1.00  0.00     0.091 A 
ATOM     12  C   UNL     1     100.103 110.013  92.093  1.00  0.00     0.068 A 
ATOM     13  C   UNL     1      99.726 111.344  91.878  1.00  0.00     0.162 A 
ATOM     14  C   UNL     1     101.476 110.681  93.969  1.00  0.00     0.068 A 
ATOM     15  C   UNL     1     100.237 112.359  92.721  1.00  0.00     0.200 A 
ATOM     16  C   UNL     1     101.106 112.015  93.767  1.00  0.00     0.162 A 
BRANCH  13  17
ATOM     17  O   UNL     1      98.848 111.609  90.825  1.00  0.00    -0.504 OA
ATOM     18  H   UNL     1      98.359 110.896  90.304  1.00  0.00     0.293 HD
ENDBRANCH  13  17
BRANCH  15  19
ATOM     19  O   UNL     1      99.906 113.707  92.559  1.00  0.00    -0.502 OA
ATOM     20  H   UNL     1     100.378 114.334  91.924  1.00  0.00     0.293 HD
ENDBRANCH  15  19
BRANCH  16  21
ATOM     21  O   UNL     1     101.598 113.014  94.607  1.00  0.00    -0.504 OA
ATOM     22  H   UNL     1     101.744 112.850  95.597  1.00  0.00     0.293 HD
ENDBRANCH  16  21
ENDBRANCH   1  11
BRANCH  10  23
ATOM     23  O   UNL     1      99.430 107.853  94.781  1.00  0.00    -0.500 OA
ATOM     24  H   UNL     1      99.422 108.011  95.782  1.00  0.00     0.294 HD
ENDBRANCH  10  23
BRANCH   5  25
ATOM     25  O   UNL     1     105.694 104.436  91.715  1.00  0.00    -0.507 OA
ATOM     26  H   UNL     1     106.058 104.936  90.913  1.00  0.00     0.293 HD
ENDBRANCH   5  25
BRANCH   7  27
ATOM     27  O   UNL     1     101.926 103.265  94.450  1.00  0.00    -0.507 OA
ATOM     28  H   UNL     1     101.324 103.442  95.241  1.00  0.00     0.293 HD
ENDBRANCH   7  27
TORSDOF 7
ENDMDL
MODEL 9
REMARK VINA RESULT:    -4.313      1.812      7.453
REMARK INTER + INTRA:          -5.700
REMARK INTER:                  -5.595
REMARK INTRA:                  -0.105
REMARK UNBOUND:                -0.379
REMARK SMILES Oc1cc(O)c2cc(O)c(-c3cc(O)c(O)c(O)c3)[o+]c2c1
REMARK SMILES IDX 10 1 20 2 21 3 22 4 2 5 3 6 4 7 6 8 7 9 8 10 11 11 12 12
REMARK SMILES IDX 13 13 19 14 15 15 17 16 14 17 16 19 18 21 9 23 1 25 5 27
REMARK H PARENT 14 18 16 20 18 22 9 24 1 26 5 28
REMARK Flexibility Score: inf
ROOT
ATOM      1  C   UNL     1     100.979 102.008  93.047  1.00  0.00     0.402 A 
ATOM      2  O   UNL     1     101.425 103.160  93.544  1.00  0.00    -0.202 OA
ATOM      3  C   UNL     1     100.754 104.303  93.451  1.00  0.00     0.368 A 
ATOM      4  C   UNL     1     101.304 105.461  94.008  1.00  0.00     0.162 A 
ATOM      5  C   UNL     1     100.618 106.677  93.927  1.00  0.00     0.128 A 
ATOM      6  C   UNL     1      99.378 106.734  93.288  1.00  0.00     0.093 A 
ATOM      7  C   UNL     1      98.806 105.588  92.722  1.00  0.00     0.136 A 
ATOM      8  C   UNL     1      99.499 104.353  92.798  1.00  0.00     0.125 A 
ATOM      9  C   UNL     1      99.009 103.156  92.249  1.00  0.00     0.078 A 
ATOM     10  C   UNL     1      99.751 101.977  92.361  1.00  0.00     0.223 A 
ENDROOT
BRANCH   1  11
ATOM     11  C   UNL     1     101.815 100.799  93.224  1.00  0.00     0.091 A 
ATOM     12  C   UNL     1     103.184 100.856  92.922  1.00  0.00     0.068 A 
ATOM     13  C   UNL     1     104.007  99.737  93.097  1.00  0.00     0.162 A 
ATOM     14  C   UNL     1     101.279  99.609  93.742  1.00  0.00     0.068 A 
ATOM     15  C   UNL     1     103.455  98.534  93.597  1.00  0.00     0.200 A 
ATOM     16  C   UNL     1     102.092  98.484  93.922  1.00  0.00     0.162 A 
BRANCH  13  17
ATOM     17  O   UNL     1     105.358  99.866  92.762  1.00  0.00    -0.504 OA
ATOM     18  H   UNL     1     106.063 100.222  93.390  1.00  0.00     0.293 HD
ENDBRANCH  13  17
BRANCH  15  19
ATOM     19  O   UNL     1     104.219  97.381  93.790  1.00  0.00    -0.502 OA
ATOM     20  H   UNL     1     104.069  96.720  94.539  1.00  0.00     0.293 HD
ENDBRANCH  15  19
BRANCH  16  21
ATOM     21  O   UNL     1     101.550  97.303  94.430  1.00  0.00    -0.504 OA
ATOM     22  H   UNL     1     102.135  96.509  94.665  1.00  0.00     0.293 HD
ENDBRANCH  16  21
ENDBRANCH   1  11
BRANCH  10  23
ATOM     23  O   UNL     1      99.288 100.800  91.772  1.00  0.00    -0.500 OA
ATOM     24  H   UNL     1      98.547 100.806  91.082  1.00  0.00     0.294 HD
ENDBRANCH  10  23
BRANCH   5  25
ATOM     25  O   UNL     1     101.160 107.834  94.480  1.00  0.00    -0.507 OA
ATOM     26  H   UNL     1     101.508 107.855  95.432  1.00  0.00     0.293 HD
ENDBRANCH   5  25
BRANCH   7  27
ATOM     27  O   UNL     1      97.560 105.729  92.102  1.00  0.00    -0.507 OA
ATOM     28  H   UNL     1      96.930 106.502  92.259  1.00  0.00     0.293 HD
ENDBRANCH   7  27
TORSDOF 7
ENDMDL
