MODEL 1
REMARK VINA RESULT:    -7.612      0.000      0.000
REMARK INTER + INTRA:         -11.102
REMARK INTER:                 -10.949
REMARK INTRA:                  -0.153
REMARK UNBOUND:                -0.153
REMARK SMILES O=c1cc(-c2ccc(O)c(O)c2)oc2cc(O[C@@H]3O[C@@H](CO)[C@H](O)[C@H](O)[C@@H]3O)cc(O)c12
REMARK SMILES IDX 17 1 16 2 4 3 3 4 13 5 2 6 14 7 1 8 32 9 15 10 30 11 29 12
REMARK SMILES IDX 5 13 6 14 7 15 8 16 12 17 10 18 9 19 11 21 31 23 18 25 27 26
REMARK SMILES IDX 19 27 25 28 20 29 23 30 28 31 26 33 21 35 22 36 24 38
REMARK H PARENT 9 20 11 22 31 24 28 32 26 34 22 37 24 39
REMARK Flexibility Score: inf
ROOT
ATOM      1  O   UNL     1      14.346   0.838  -1.838  1.00  0.00    -0.462 OA
ENDROOT
BRANCH   1   2
ATOM      2  C   UNL     1      13.046   1.173  -1.496  1.00  0.00     0.130 A 
ATOM      3  C   UNL     1       9.549   4.378  -1.103  1.00  0.00     0.138 A 
ATOM      4  C   UNL     1       8.600   3.396  -0.787  1.00  0.00     0.100 A 
ATOM      5  O   UNL     1      10.817   4.025  -1.286  1.00  0.00    -0.456 OA
ATOM      6  C   UNL     1       8.982   2.056  -0.743  1.00  0.00     0.197 A 
ATOM      7  C   UNL     1      11.236   2.764  -1.256  1.00  0.00     0.146 A 
ATOM      8  O   UNL     1       8.135   1.196  -0.353  1.00  0.00    -0.289 OA
ATOM      9  C   UNL     1      10.313   1.698  -1.049  1.00  0.00     0.107 A 
ATOM     10  C   UNL     1      12.598   2.495  -1.445  1.00  0.00     0.094 A 
ATOM     11  C   UNL     1      10.778   0.349  -1.163  1.00  0.00     0.134 A 
ATOM     12  C   UNL     1      12.136   0.123  -1.385  1.00  0.00     0.093 A 
BRANCH   3  13
ATOM     13  C   UNL     1       9.177   5.802  -1.230  1.00  0.00     0.021 A 
ATOM     14  C   UNL     1       9.236   6.639  -0.104  1.00  0.00     0.016 A 
ATOM     15  C   UNL     1       8.938   7.998  -0.210  1.00  0.00     0.051 A 
ATOM     16  C   UNL     1       8.601   8.552  -1.454  1.00  0.00     0.157 A 
ATOM     17  C   UNL     1       8.809   6.361  -2.473  1.00  0.00     0.062 A 
ATOM     18  C   UNL     1       8.523   7.726  -2.587  1.00  0.00     0.158 A 
BRANCH  16  19
ATOM     19  O   UNL     1       8.337   9.915  -1.580  1.00  0.00    -0.504 OA
ATOM     20  H   UNL     1       7.792  10.423  -0.903  1.00  0.00     0.293 HD
ENDBRANCH  16  19
BRANCH  18  21
ATOM     21  O   UNL     1       8.188   8.276  -3.823  1.00  0.00    -0.504 OA
ATOM     22  H   UNL     1       8.901   8.590  -4.480  1.00  0.00     0.293 HD
ENDBRANCH  18  21
ENDBRANCH   3  13
BRANCH  11  23
ATOM     23  O   UNL     1       9.954  -0.782  -1.135  1.00  0.00    -0.507 OA
ATOM     24  H   UNL     1       9.097  -0.886  -1.670  1.00  0.00     0.293 HD
ENDBRANCH  11  23
ENDBRANCH   1   2
BRANCH   1  25
ATOM     25  C   UNL     1      15.439   0.413  -0.998  1.00  0.00     0.339 C 
ATOM     26  C   UNL     1      16.838   1.085  -1.187  1.00  0.00     0.214 C 
ATOM     27  O   UNL     1      15.059   0.636   0.353  1.00  0.00    -0.332 OA
ATOM     28  C   UNL     1      16.835   2.593  -0.880  1.00  0.00     0.180 C 
ATOM     29  C   UNL     1      14.802   2.031   0.572  1.00  0.00     0.179 C 
ATOM     30  C   UNL     1      16.115   2.848   0.478  1.00  0.00     0.177 C 
BRANCH  26  31
ATOM     31  O   UNL     1      17.513   0.758  -2.371  1.00  0.00    -0.384 OA
ATOM     32  H   UNL     1      18.397   0.382  -2.146  1.00  0.00     0.211 HD
ENDBRANCH  26  31
BRANCH  28  33
ATOM     33  O   UNL     1      16.271   3.307  -1.952  1.00  0.00    -0.387 OA
ATOM     34  H   UNL     1      16.958   3.942  -2.282  1.00  0.00     0.211 HD
ENDBRANCH  28  33
BRANCH  29  35
ATOM     35  C   UNL     1      14.127   2.202   1.936  1.00  0.00     0.191 C 
BRANCH  35  36
ATOM     36  O   UNL     1      13.341   3.356   1.965  1.00  0.00    -0.394 OA
ATOM     37  H   UNL     1      12.727   3.281   2.758  1.00  0.00     0.210 HD
ENDBRANCH  35  36
ENDBRANCH  29  35
BRANCH  30  38
ATOM     38  O   UNL     1      15.822   4.227   0.634  1.00  0.00    -0.387 OA
ATOM     39  H   UNL     1      15.483   4.361   1.558  1.00  0.00     0.211 HD
ENDBRANCH  30  38
ENDBRANCH   1  25
TORSDOF 11
ENDMDL
MODEL 2
REMARK VINA RESULT:    -7.097      2.480      8.322
REMARK INTER + INTRA:         -10.361
REMARK INTER:                  -9.275
REMARK INTRA:                  -1.087
REMARK UNBOUND:                -0.153
REMARK SMILES O=c1cc(-c2ccc(O)c(O)c2)oc2cc(O[C@@H]3O[C@@H](CO)[C@H](O)[C@H](O)[C@@H]3O)cc(O)c12
REMARK SMILES IDX 17 1 16 2 4 3 3 4 13 5 2 6 14 7 1 8 32 9 15 10 30 11 29 12
REMARK SMILES IDX 5 13 6 14 7 15 8 16 12 17 10 18 9 19 11 21 31 23 18 25 27 26
REMARK SMILES IDX 19 27 25 28 20 29 23 30 28 31 26 33 21 35 22 36 24 38
REMARK H PARENT 9 20 11 22 31 24 28 32 26 34 22 37 24 39
REMARK Flexibility Score: inf
ROOT
ATOM      1  O   UNL     1      10.056   4.679  -1.292  1.00  0.00    -0.462 OA
ENDROOT
BRANCH   1   2
ATOM      2  C   UNL     1      10.828   3.552  -1.057  1.00  0.00     0.130 A 
ATOM      3  C   UNL     1      14.123   1.229   1.472  1.00  0.00     0.138 A 
ATOM      4  C   UNL     1      13.888   0.027   0.791  1.00  0.00     0.100 A 
ATOM      5  O   UNL     1      13.457   2.322   1.115  1.00  0.00    -0.456 OA
ATOM      6  C   UNL     1      12.907  -0.026  -0.198  1.00  0.00     0.197 A 
ATOM      7  C   UNL     1      12.512   2.329   0.181  1.00  0.00     0.146 A 
ATOM      8  O   UNL     1      12.783  -1.092  -0.872  1.00  0.00    -0.289 OA
ATOM      9  C   UNL     1      12.138   1.123  -0.480  1.00  0.00     0.107 A 
ATOM     10  C   UNL     1      11.877   3.537  -0.135  1.00  0.00     0.094 A 
ATOM     11  C   UNL     1      11.023   1.145  -1.378  1.00  0.00     0.134 A 
ATOM     12  C   UNL     1      10.395   2.363  -1.641  1.00  0.00     0.093 A 
BRANCH   3  13
ATOM     13  C   UNL     1      15.104   1.315   2.575  1.00  0.00     0.021 A 
ATOM     14  C   UNL     1      15.689   2.551   2.890  1.00  0.00     0.016 A 
ATOM     15  C   UNL     1      16.579   2.668   3.959  1.00  0.00     0.051 A 
ATOM     16  C   UNL     1      16.878   1.550   4.752  1.00  0.00     0.157 A 
ATOM     17  C   UNL     1      15.431   0.190   3.361  1.00  0.00     0.062 A 
ATOM     18  C   UNL     1      16.311   0.303   4.443  1.00  0.00     0.158 A 
BRANCH  16  19
ATOM     19  O   UNL     1      17.736   1.661   5.845  1.00  0.00    -0.504 OA
ATOM     20  H   UNL     1      17.604   2.350   6.566  1.00  0.00     0.293 HD
ENDBRANCH  16  19
BRANCH  18  21
ATOM     21  O   UNL     1      16.608  -0.807   5.231  1.00  0.00    -0.504 OA
ATOM     22  H   UNL     1      16.759  -1.728   4.822  1.00  0.00     0.293 HD
ENDBRANCH  18  21
ENDBRANCH   3  13
BRANCH  11  23
ATOM     23  O   UNL     1      10.458   0.011  -1.973  1.00  0.00    -0.507 OA
ATOM     24  H   UNL     1      10.948  -0.614  -2.607  1.00  0.00     0.293 HD
ENDBRANCH  11  23
ENDBRANCH   1   2
BRANCH   1  25
ATOM     25  C   UNL     1       8.622   4.836  -1.257  1.00  0.00     0.339 C 
ATOM     26  C   UNL     1       7.929   5.098   0.119  1.00  0.00     0.214 C 
ATOM     27  O   UNL     1       8.285   5.929  -2.099  1.00  0.00    -0.332 OA
ATOM     28  C   UNL     1       8.358   6.422   0.774  1.00  0.00     0.180 C 
ATOM     29  C   UNL     1       8.908   7.131  -1.623  1.00  0.00     0.179 C 
ATOM     30  C   UNL     1       8.286   7.572  -0.275  1.00  0.00     0.177 C 
BRANCH  26  31
ATOM     31  O   UNL     1       7.915   4.014   1.008  1.00  0.00    -0.384 OA
ATOM     32  H   UNL     1       7.644   3.199   0.521  1.00  0.00     0.211 HD
ENDBRANCH  26  31
BRANCH  28  33
ATOM     33  O   UNL     1       9.627   6.285   1.364  1.00  0.00    -0.387 OA
ATOM     34  H   UNL     1       9.650   6.871   2.164  1.00  0.00     0.211 HD
ENDBRANCH  28  33
BRANCH  29  35
ATOM     35  C   UNL     1       8.766   8.218  -2.693  1.00  0.00     0.191 C 
BRANCH  35  36
ATOM     36  O   UNL     1       9.604   9.303  -2.419  1.00  0.00    -0.394 OA
ATOM     37  H   UNL     1       9.424   9.590  -1.473  1.00  0.00     0.210 HD
ENDBRANCH  35  36
ENDBRANCH  29  35
BRANCH  30  38
ATOM     38  O   UNL     1       8.964   8.723   0.202  1.00  0.00    -0.387 OA
ATOM     39  H   UNL     1       8.386   9.152   0.886  1.00  0.00     0.211 HD
ENDBRANCH  30  38
ENDBRANCH   1  25
TORSDOF 11
ENDMDL
MODEL 3
REMARK VINA RESULT:    -6.811      2.224      8.533
REMARK INTER + INTRA:          -9.950
REMARK INTER:                  -9.362
REMARK INTRA:                  -0.588
REMARK UNBOUND:                -0.153
REMARK SMILES O=c1cc(-c2ccc(O)c(O)c2)oc2cc(O[C@@H]3O[C@@H](CO)[C@H](O)[C@H](O)[C@@H]3O)cc(O)c12
REMARK SMILES IDX 17 1 16 2 4 3 3 4 13 5 2 6 14 7 1 8 32 9 15 10 30 11 29 12
REMARK SMILES IDX 5 13 6 14 7 15 8 16 12 17 10 18 9 19 11 21 31 23 18 25 27 26
REMARK SMILES IDX 19 27 25 28 20 29 23 30 28 31 26 33 21 35 22 36 24 38
REMARK H PARENT 9 20 11 22 31 24 28 32 26 34 22 37 24 39
REMARK Flexibility Score: inf
ROOT
ATOM      1  O   UNL     1       9.850   5.879  -0.464  1.00  0.00    -0.462 OA
ENDROOT
BRANCH   1   2
ATOM      2  C   UNL     1      10.502   4.737  -0.026  1.00  0.00     0.130 A 
ATOM      3  C   UNL     1      14.056   1.592  -0.378  1.00  0.00     0.138 A 
ATOM      4  C   UNL     1      13.700   0.961   0.822  1.00  0.00     0.100 A 
ATOM      5  O   UNL     1      13.315   2.596  -0.832  1.00  0.00    -0.456 OA
ATOM      6  C   UNL     1      12.620   1.443   1.561  1.00  0.00     0.197 A 
ATOM      7  C   UNL     1      12.277   3.095  -0.170  1.00  0.00     0.146 A 
ATOM      8  O   UNL     1      12.251   0.795   2.587  1.00  0.00    -0.289 OA
ATOM      9  C   UNL     1      11.918   2.581   1.110  1.00  0.00     0.107 A 
ATOM     10  C   UNL     1      11.547   4.147  -0.741  1.00  0.00     0.094 A 
ATOM     11  C   UNL     1      10.883   3.235   1.853  1.00  0.00     0.134 A 
ATOM     12  C   UNL     1      10.203   4.300   1.263  1.00  0.00     0.093 A 
BRANCH   3  13
ATOM     13  C   UNL     1      15.234   1.160  -1.159  1.00  0.00     0.021 A 
ATOM     14  C   UNL     1      15.092   0.166  -2.140  1.00  0.00     0.016 A 
ATOM     15  C   UNL     1      16.179  -0.222  -2.925  1.00  0.00     0.051 A 
ATOM     16  C   UNL     1      17.425   0.401  -2.761  1.00  0.00     0.157 A 
ATOM     17  C   UNL     1      16.498   1.762  -0.981  1.00  0.00     0.062 A 
ATOM     18  C   UNL     1      17.588   1.388  -1.775  1.00  0.00     0.158 A 
BRANCH  16  19
ATOM     19  O   UNL     1      18.509   0.048  -3.564  1.00  0.00    -0.504 OA
ATOM     20  H   UNL     1      18.402  -0.482  -4.411  1.00  0.00     0.293 HD
ENDBRANCH  16  19
BRANCH  18  21
ATOM     21  O   UNL     1      18.826   2.006  -1.612  1.00  0.00    -0.504 OA
ATOM     22  H   UNL     1      19.067   2.504  -0.756  1.00  0.00     0.293 HD
ENDBRANCH  18  21
ENDBRANCH   3  13
BRANCH  11  23
ATOM     23  O   UNL     1      10.538   2.930   3.174  1.00  0.00    -0.507 OA
ATOM     24  H   UNL     1      10.558   1.997   3.576  1.00  0.00     0.293 HD
ENDBRANCH  11  23
ENDBRANCH   1   2
BRANCH   1  25
ATOM     25  C   UNL     1       8.469   6.268  -0.305  1.00  0.00     0.339 C 
ATOM     26  C   UNL     1       8.149   7.643   0.366  1.00  0.00     0.214 C 
ATOM     27  O   UNL     1       7.875   6.296  -1.595  1.00  0.00    -0.332 OA
ATOM     28  C   UNL     1       8.675   8.847  -0.433  1.00  0.00     0.180 C 
ATOM     29  C   UNL     1       8.547   7.250  -2.430  1.00  0.00     0.179 C 
ATOM     30  C   UNL     1       8.280   8.693  -1.932  1.00  0.00     0.177 C 
BRANCH  26  31
ATOM     31  O   UNL     1       8.416   7.724   1.740  1.00  0.00    -0.384 OA
ATOM     32  H   UNL     1       9.388   7.630   1.887  1.00  0.00     0.211 HD
ENDBRANCH  26  31
BRANCH  28  33
ATOM     33  O   UNL     1      10.059   8.997  -0.234  1.00  0.00    -0.387 OA
ATOM     34  H   UNL     1      10.505   8.203  -0.628  1.00  0.00     0.211 HD
ENDBRANCH  28  33
BRANCH  29  35
ATOM     35  C   UNL     1       8.082   7.057  -3.876  1.00  0.00     0.191 C 
BRANCH  35  36
ATOM     36  O   UNL     1       7.968   8.284  -4.534  1.00  0.00    -0.394 OA
ATOM     37  H   UNL     1       8.673   8.307  -5.250  1.00  0.00     0.210 HD
ENDBRANCH  35  36
ENDBRANCH  29  35
BRANCH  30  38
ATOM     38  O   UNL     1       9.007   9.609  -2.735  1.00  0.00    -0.387 OA
ATOM     39  H   UNL     1       8.569  10.496  -2.652  1.00  0.00     0.211 HD
ENDBRANCH  30  38
ENDBRANCH   1  25
TORSDOF 11
ENDMDL
MODEL 4
REMARK VINA RESULT:    -6.489     16.506     20.487
REMARK INTER + INTRA:          -9.487
REMARK INTER:                  -8.524
REMARK INTRA:                  -0.963
REMARK UNBOUND:                -0.153
REMARK SMILES O=c1cc(-c2ccc(O)c(O)c2)oc2cc(O[C@@H]3O[C@@H](CO)[C@H](O)[C@H](O)[C@@H]3O)cc(O)c12
REMARK SMILES IDX 17 1 16 2 4 3 3 4 13 5 2 6 14 7 1 8 32 9 15 10 30 11 29 12
REMARK SMILES IDX 5 13 6 14 7 15 8 16 12 17 10 18 9 19 11 21 31 23 18 25 27 26
REMARK SMILES IDX 19 27 25 28 20 29 23 30 28 31 26 33 21 35 22 36 24 38
REMARK H PARENT 9 20 11 22 31 24 28 32 26 34 22 37 24 39
REMARK Flexibility Score: inf
ROOT
ATOM      1  O   UNL     1      25.256  15.940   5.584  1.00  0.00    -0.462 OA
ENDROOT
BRANCH   1   2
ATOM      2  C   UNL     1      25.766  15.102   6.562  1.00  0.00     0.130 A 
ATOM      3  C   UNL     1      26.915  10.755   8.120  1.00  0.00     0.138 A 
ATOM      4  C   UNL     1      27.560  11.264   9.256  1.00  0.00     0.100 A 
ATOM      5  O   UNL     1      26.317  11.591   7.280  1.00  0.00    -0.456 OA
ATOM      6  C   UNL     1      27.631  12.643   9.449  1.00  0.00     0.197 A 
ATOM      7  C   UNL     1      26.352  12.913   7.415  1.00  0.00     0.146 A 
ATOM      8  O   UNL     1      28.125  13.078  10.533  1.00  0.00    -0.289 OA
ATOM      9  C   UNL     1      27.081  13.513   8.483  1.00  0.00     0.107 A 
ATOM     10  C   UNL     1      25.675  13.710   6.483  1.00  0.00     0.094 A 
ATOM     11  C   UNL     1      27.212  14.938   8.515  1.00  0.00     0.134 A 
ATOM     12  C   UNL     1      26.551  15.696   7.550  1.00  0.00     0.093 A 
BRANCH   3  13
ATOM     13  C   UNL     1      26.876   9.304   7.838  1.00  0.00     0.021 A 
ATOM     14  C   UNL     1      27.468   8.404   8.737  1.00  0.00     0.016 A 
ATOM     15  C   UNL     1      27.399   7.028   8.518  1.00  0.00     0.051 A 
ATOM     16  C   UNL     1      26.710   6.525   7.405  1.00  0.00     0.157 A 
ATOM     17  C   UNL     1      26.208   8.792   6.705  1.00  0.00     0.062 A 
ATOM     18  C   UNL     1      26.124   7.412   6.488  1.00  0.00     0.158 A 
BRANCH  16  19
ATOM     19  O   UNL     1      26.603   5.151   7.194  1.00  0.00    -0.504 OA
ATOM     20  H   UNL     1      27.408   4.551   7.128  1.00  0.00     0.293 HD
ENDBRANCH  16  19
BRANCH  18  21
ATOM     21  O   UNL     1      25.438   6.911   5.382  1.00  0.00    -0.504 OA
ATOM     22  H   UNL     1      25.072   5.961   5.365  1.00  0.00     0.293 HD
ENDBRANCH  18  21
ENDBRANCH   3  13
BRANCH  11  23
ATOM     23  O   UNL     1      28.021  15.642   9.415  1.00  0.00    -0.507 OA
ATOM     24  H   UNL     1      28.787  15.236   9.944  1.00  0.00     0.293 HD
ENDBRANCH  11  23
ENDBRANCH   1   2
BRANCH   1  25
ATOM     25  C   UNL     1      25.599  17.307   5.273  1.00  0.00     0.339 C 
ATOM     26  C   UNL     1      25.521  17.783   3.786  1.00  0.00     0.214 C 
ATOM     27  O   UNL     1      24.731  18.152   6.018  1.00  0.00    -0.332 OA
ATOM     28  C   UNL     1      24.098  17.725   3.203  1.00  0.00     0.180 C 
ATOM     29  C   UNL     1      23.366  17.906   5.650  1.00  0.00     0.179 C 
ATOM     30  C   UNL     1      23.098  18.383   4.201  1.00  0.00     0.177 C 
BRANCH  26  31
ATOM     31  O   UNL     1      26.497  17.257   2.929  1.00  0.00    -0.384 OA
ATOM     32  H   UNL     1      26.675  16.318   3.178  1.00  0.00     0.211 HD
ENDBRANCH  26  31
BRANCH  28  33
ATOM     33  O   UNL     1      23.761  16.402   2.869  1.00  0.00    -0.387 OA
ATOM     34  H   UNL     1      24.596  15.942   2.592  1.00  0.00     0.211 HD
ENDBRANCH  28  33
BRANCH  29  35
ATOM     35  C   UNL     1      22.449  18.610   6.655  1.00  0.00     0.191 C 
BRANCH  35  36
ATOM     36  O   UNL     1      21.279  17.876   6.865  1.00  0.00    -0.394 OA
ATOM     37  H   UNL     1      21.207  17.206   6.119  1.00  0.00     0.210 HD
ENDBRANCH  35  36
ENDBRANCH  29  35
BRANCH  30  38
ATOM     38  O   UNL     1      21.761  18.070   3.843  1.00  0.00    -0.387 OA
ATOM     39  H   UNL     1      21.162  18.513   4.499  1.00  0.00     0.211 HD
ENDBRANCH  30  38
ENDBRANCH   1  25
TORSDOF 11
ENDMDL
MODEL 5
REMARK VINA RESULT:    -6.483      2.308      2.925
REMARK INTER + INTRA:          -9.478
REMARK INTER:                  -8.396
REMARK INTRA:                  -1.082
REMARK UNBOUND:                -0.153
REMARK SMILES O=c1cc(-c2ccc(O)c(O)c2)oc2cc(O[C@@H]3O[C@@H](CO)[C@H](O)[C@H](O)[C@@H]3O)cc(O)c12
REMARK SMILES IDX 17 1 16 2 4 3 3 4 13 5 2 6 14 7 1 8 32 9 15 10 30 11 29 12
REMARK SMILES IDX 5 13 6 14 7 15 8 16 12 17 10 18 9 19 11 21 31 23 18 25 27 26
REMARK SMILES IDX 19 27 25 28 20 29 23 30 28 31 26 33 21 35 22 36 24 38
REMARK H PARENT 9 20 11 22 31 24 28 32 26 34 22 37 24 39
REMARK Flexibility Score: inf
ROOT
ATOM      1  O   UNL     1      13.052   0.625   2.661  1.00  0.00    -0.462 OA
ENDROOT
BRANCH   1   2
ATOM      2  C   UNL     1      11.926   0.932   1.915  1.00  0.00     0.130 A 
ATOM      3  C   UNL     1       9.139   4.103  -0.281  1.00  0.00     0.138 A 
ATOM      4  C   UNL     1       8.352   3.101  -0.865  1.00  0.00     0.100 A 
ATOM      5  O   UNL     1      10.123   3.763   0.543  1.00  0.00    -0.456 OA
ATOM      6  C   UNL     1       8.660   1.761  -0.636  1.00  0.00     0.197 A 
ATOM      7  C   UNL     1      10.460   2.503   0.797  1.00  0.00     0.146 A 
ATOM      8  O   UNL     1       7.875   0.873  -1.086  1.00  0.00    -0.289 OA
ATOM      9  C   UNL     1       9.780   1.427   0.156  1.00  0.00     0.107 A 
ATOM     10  C   UNL     1      11.505   2.246   1.694  1.00  0.00     0.094 A 
ATOM     11  C   UNL     1      10.261   0.093   0.348  1.00  0.00     0.134 A 
ATOM     12  C   UNL     1      11.326  -0.118   1.223  1.00  0.00     0.093 A 
BRANCH   3  13
ATOM     13  C   UNL     1       8.893   5.535  -0.552  1.00  0.00     0.021 A 
ATOM     14  C   UNL     1       8.789   6.438   0.519  1.00  0.00     0.016 A 
ATOM     15  C   UNL     1       8.609   7.802   0.287  1.00  0.00     0.051 A 
ATOM     16  C   UNL     1       8.557   8.293  -1.026  1.00  0.00     0.157 A 
ATOM     17  C   UNL     1       8.813   6.034  -1.870  1.00  0.00     0.062 A 
ATOM     18  C   UNL     1       8.646   7.403  -2.109  1.00  0.00     0.158 A 
BRANCH  16  19
ATOM     19  O   UNL     1       8.414   9.658  -1.271  1.00  0.00    -0.504 OA
ATOM     20  H   UNL     1       7.987  10.013  -2.110  1.00  0.00     0.293 HD
ENDBRANCH  16  19
BRANCH  18  21
ATOM     21  O   UNL     1       8.595   7.891  -3.413  1.00  0.00    -0.504 OA
ATOM     22  H   UNL     1       7.938   7.520  -4.097  1.00  0.00     0.293 HD
ENDBRANCH  18  21
ENDBRANCH   3  13
BRANCH  11  23
ATOM     23  O   UNL     1       9.785  -1.031  -0.337  1.00  0.00    -0.507 OA
ATOM     24  H   UNL     1      10.134  -1.977  -0.210  1.00  0.00     0.293 HD
ENDBRANCH  11  23
ENDBRANCH   1   2
BRANCH   1  25
ATOM     25  C   UNL     1      14.266  -0.046   2.262  1.00  0.00     0.339 C 
ATOM     26  C   UNL     1      15.403   0.792   1.594  1.00  0.00     0.214 C 
ATOM     27  O   UNL     1      14.829  -0.649   3.419  1.00  0.00    -0.332 OA
ATOM     28  C   UNL     1      15.988   1.872   2.522  1.00  0.00     0.180 C 
ATOM     29  C   UNL     1      15.138   0.353   4.399  1.00  0.00     0.179 C 
ATOM     30  C   UNL     1      16.305   1.248   3.914  1.00  0.00     0.177 C 
BRANCH  26  31
ATOM     31  O   UNL     1      15.135   1.255   0.298  1.00  0.00    -0.384 OA
ATOM     32  H   UNL     1      15.603   2.113   0.158  1.00  0.00     0.211 HD
ENDBRANCH  26  31
BRANCH  28  33
ATOM     33  O   UNL     1      15.122   2.977   2.590  1.00  0.00    -0.387 OA
ATOM     34  H   UNL     1      15.538   3.716   2.077  1.00  0.00     0.211 HD
ENDBRANCH  28  33
BRANCH  29  35
ATOM     35  C   UNL     1      15.470  -0.338   5.725  1.00  0.00     0.191 C 
BRANCH  35  36
ATOM     36  O   UNL     1      16.830  -0.646   5.803  1.00  0.00    -0.394 OA
ATOM     37  H   UNL     1      17.108  -1.004   4.906  1.00  0.00     0.210 HD
ENDBRANCH  35  36
ENDBRANCH  29  35
BRANCH  30  38
ATOM     38  O   UNL     1      16.546   2.267   4.872  1.00  0.00    -0.387 OA
ATOM     39  H   UNL     1      17.043   2.996   4.418  1.00  0.00     0.211 HD
ENDBRANCH  30  38
ENDBRANCH   1  25
TORSDOF 11
ENDMDL
MODEL 6
REMARK VINA RESULT:    -6.475      1.828      8.199
REMARK INTER + INTRA:          -9.466
REMARK INTER:                  -8.553
REMARK INTRA:                  -0.913
REMARK UNBOUND:                -0.153
REMARK SMILES O=c1cc(-c2ccc(O)c(O)c2)oc2cc(O[C@@H]3O[C@@H](CO)[C@H](O)[C@H](O)[C@@H]3O)cc(O)c12
REMARK SMILES IDX 17 1 16 2 4 3 3 4 13 5 2 6 14 7 1 8 32 9 15 10 30 11 29 12
REMARK SMILES IDX 5 13 6 14 7 15 8 16 12 17 10 18 9 19 11 21 31 23 18 25 27 26
REMARK SMILES IDX 19 27 25 28 20 29 23 30 28 31 26 33 21 35 22 36 24 38
REMARK H PARENT 9 20 11 22 31 24 28 32 26 34 22 37 24 39
REMARK Flexibility Score: inf
ROOT
ATOM      1  O   UNL     1       9.641   4.922  -1.611  1.00  0.00    -0.462 OA
ENDROOT
BRANCH   1   2
ATOM      2  C   UNL     1      10.311   3.709  -1.618  1.00  0.00     0.130 A 
ATOM      3  C   UNL     1      14.353   1.198  -1.662  1.00  0.00     0.138 A 
ATOM      4  C   UNL     1      13.677  -0.012  -1.452  1.00  0.00     0.100 A 
ATOM      5  O   UNL     1      13.656   2.321  -1.791  1.00  0.00    -0.456 OA
ATOM      6  C   UNL     1      12.291  -0.012  -1.305  1.00  0.00     0.197 A 
ATOM      7  C   UNL     1      12.335   2.380  -1.659  1.00  0.00     0.146 A 
ATOM      8  O   UNL     1      11.690  -1.125  -1.221  1.00  0.00    -0.289 OA
ATOM      9  C   UNL     1      11.586   1.211  -1.336  1.00  0.00     0.107 A 
ATOM     10  C   UNL     1      11.688   3.611  -1.829  1.00  0.00     0.094 A 
ATOM     11  C   UNL     1      10.186   1.339  -1.066  1.00  0.00     0.134 A 
ATOM     12  C   UNL     1       9.586   2.590  -1.213  1.00  0.00     0.093 A 
BRANCH   3  13
ATOM     13  C   UNL     1      15.827   1.255  -1.755  1.00  0.00     0.021 A 
ATOM     14  C   UNL     1      16.551   2.050  -0.852  1.00  0.00     0.016 A 
ATOM     15  C   UNL     1      17.945   2.080  -0.887  1.00  0.00     0.051 A 
ATOM     16  C   UNL     1      18.645   1.291  -1.812  1.00  0.00     0.157 A 
ATOM     17  C   UNL     1      16.538   0.485  -2.701  1.00  0.00     0.062 A 
ATOM     18  C   UNL     1      17.937   0.500  -2.731  1.00  0.00     0.158 A 
BRANCH  16  19
ATOM     19  O   UNL     1      20.039   1.284  -1.832  1.00  0.00    -0.504 OA
ATOM     20  H   UNL     1      20.569   0.508  -2.192  1.00  0.00     0.293 HD
ENDBRANCH  16  19
BRANCH  18  21
ATOM     21  O   UNL     1      18.632  -0.284  -3.650  1.00  0.00    -0.504 OA
ATOM     22  H   UNL     1      18.993  -1.204  -3.402  1.00  0.00     0.293 HD
ENDBRANCH  18  21
ENDBRANCH   3  13
BRANCH  11  23
ATOM     23  O   UNL     1       9.369   0.307  -0.592  1.00  0.00    -0.507 OA
ATOM     24  H   UNL     1       9.247  -0.591  -1.051  1.00  0.00     0.293 HD
ENDBRANCH  11  23
ENDBRANCH   1   2
BRANCH   1  25
ATOM     25  C   UNL     1       8.265   5.211  -1.285  1.00  0.00     0.339 C 
ATOM     26  C   UNL     1       7.883   5.461   0.210  1.00  0.00     0.214 C 
ATOM     27  O   UNL     1       7.885   6.376  -2.004  1.00  0.00    -0.332 OA
ATOM     28  C   UNL     1       8.566   6.701   0.812  1.00  0.00     0.180 C 
ATOM     29  C   UNL     1       8.710   7.486  -1.620  1.00  0.00     0.179 C 
ATOM     30  C   UNL     1       8.411   7.908  -0.160  1.00  0.00     0.177 C 
BRANCH  26  31
ATOM     31  O   UNL     1       7.931   4.336   1.044  1.00  0.00    -0.384 OA
ATOM     32  H   UNL     1       7.171   3.743   0.831  1.00  0.00     0.211 HD
ENDBRANCH  26  31
BRANCH  28  33
ATOM     33  O   UNL     1       9.905   6.413   1.133  1.00  0.00    -0.387 OA
ATOM     34  H   UNL     1       9.914   5.995   2.032  1.00  0.00     0.211 HD
ENDBRANCH  28  33
BRANCH  29  35
ATOM     35  C   UNL     1       8.476   8.639  -2.601  1.00  0.00     0.191 C 
BRANCH  35  36
ATOM     36  O   UNL     1       9.470   9.613  -2.476  1.00  0.00    -0.394 OA
ATOM     37  H   UNL     1       9.626   9.759  -1.494  1.00  0.00     0.210 HD
ENDBRANCH  35  36
ENDBRANCH  29  35
BRANCH  30  38
ATOM     38  O   UNL     1       9.284   8.963   0.213  1.00  0.00    -0.387 OA
ATOM     39  H   UNL     1      10.205   8.596   0.240  1.00  0.00     0.211 HD
ENDBRANCH  30  38
ENDBRANCH   1  25
TORSDOF 11
ENDMDL
MODEL 7
REMARK VINA RESULT:    -5.877      1.923      2.976
REMARK INTER + INTRA:          -8.606
REMARK INTER:                  -9.043
REMARK INTRA:                   0.436
REMARK UNBOUND:                -0.153
REMARK SMILES O=c1cc(-c2ccc(O)c(O)c2)oc2cc(O[C@@H]3O[C@@H](CO)[C@H](O)[C@H](O)[C@@H]3O)cc(O)c12
REMARK SMILES IDX 17 1 16 2 4 3 3 4 13 5 2 6 14 7 1 8 32 9 15 10 30 11 29 12
REMARK SMILES IDX 5 13 6 14 7 15 8 16 12 17 10 18 9 19 11 21 31 23 18 25 27 26
REMARK SMILES IDX 19 27 25 28 20 29 23 30 28 31 26 33 21 35 22 36 24 38
REMARK H PARENT 9 20 11 22 31 24 28 32 26 34 22 37 24 39
REMARK Flexibility Score: inf
ROOT
ATOM      1  O   UNL     1      16.063   2.242   0.164  1.00  0.00    -0.462 OA
ENDROOT
BRANCH   1   2
ATOM      2  C   UNL     1      14.764   2.386   0.623  1.00  0.00     0.130 A 
ATOM      3  C   UNL     1      10.595   4.681   0.641  1.00  0.00     0.138 A 
ATOM      4  C   UNL     1       9.982   3.692   1.424  1.00  0.00     0.100 A 
ATOM      5  O   UNL     1      11.884   4.571   0.343  1.00  0.00    -0.456 OA
ATOM      6  C   UNL     1      10.713   2.570   1.814  1.00  0.00     0.197 A 
ATOM      7  C   UNL     1      12.628   3.525   0.688  1.00  0.00     0.146 A 
ATOM      8  O   UNL     1      10.173   1.741   2.607  1.00  0.00    -0.289 OA
ATOM      9  C   UNL     1      12.052   2.426   1.390  1.00  0.00     0.107 A 
ATOM     10  C   UNL     1      13.985   3.510   0.339  1.00  0.00     0.094 A 
ATOM     11  C   UNL     1      12.848   1.260   1.621  1.00  0.00     0.134 A 
ATOM     12  C   UNL     1      14.186   1.271   1.228  1.00  0.00     0.093 A 
BRANCH   3  13
ATOM     13  C   UNL     1       9.842   5.852   0.146  1.00  0.00     0.021 A 
ATOM     14  C   UNL     1       9.288   6.761   1.061  1.00  0.00     0.016 A 
ATOM     15  C   UNL     1       8.617   7.901   0.617  1.00  0.00     0.051 A 
ATOM     16  C   UNL     1       8.511   8.167  -0.756  1.00  0.00     0.157 A 
ATOM     17  C   UNL     1       9.707   6.112  -1.235  1.00  0.00     0.062 A 
ATOM     18  C   UNL     1       9.047   7.261  -1.686  1.00  0.00     0.158 A 
BRANCH  16  19
ATOM     19  O   UNL     1       7.875   9.321  -1.212  1.00  0.00    -0.504 OA
ATOM     20  H   UNL     1       6.892   9.484  -1.074  1.00  0.00     0.293 HD
ENDBRANCH  16  19
BRANCH  18  21
ATOM     21  O   UNL     1       8.943   7.526  -3.050  1.00  0.00    -0.504 OA
ATOM     22  H   UNL     1       9.636   8.088  -3.541  1.00  0.00     0.293 HD
ENDBRANCH  18  21
ENDBRANCH   3  13
BRANCH  11  23
ATOM     23  O   UNL     1      12.366   0.061   2.159  1.00  0.00    -0.507 OA
ATOM     24  H   UNL     1      11.745  -0.005   2.960  1.00  0.00     0.293 HD
ENDBRANCH  11  23
ENDBRANCH   1   2
BRANCH   1  25
ATOM     25  C   UNL     1      16.580   2.337  -1.180  1.00  0.00     0.339 C 
ATOM     26  C   UNL     1      17.341   1.111  -1.781  1.00  0.00     0.214 C 
ATOM     27  O   UNL     1      15.487   2.605  -2.047  1.00  0.00    -0.332 OA
ATOM     28  C   UNL     1      16.459  -0.141  -1.923  1.00  0.00     0.180 C 
ATOM     29  C   UNL     1      14.529   1.539  -1.979  1.00  0.00     0.179 C 
ATOM     30  C   UNL     1      15.109   0.243  -2.599  1.00  0.00     0.177 C 
BRANCH  26  31
ATOM     31  O   UNL     1      18.601   0.847  -1.226  1.00  0.00    -0.384 OA
ATOM     32  H   UNL     1      19.191   0.477  -1.926  1.00  0.00     0.211 HD
ENDBRANCH  26  31
BRANCH  28  33
ATOM     33  O   UNL     1      16.298  -0.768  -0.674  1.00  0.00    -0.387 OA
ATOM     34  H   UNL     1      16.472  -0.088   0.026  1.00  0.00     0.211 HD
ENDBRANCH  28  33
BRANCH  29  35
ATOM     35  C   UNL     1      13.247   1.981  -2.691  1.00  0.00     0.191 C 
BRANCH  35  36
ATOM     36  O   UNL     1      12.130   1.324  -2.167  1.00  0.00    -0.394 OA
ATOM     37  H   UNL     1      12.047   1.598  -1.203  1.00  0.00     0.210 HD
ENDBRANCH  35  36
ENDBRANCH  29  35
BRANCH  30  38
ATOM     38  O   UNL     1      14.166  -0.807  -2.460  1.00  0.00    -0.387 OA
ATOM     39  H   UNL     1      13.675  -0.887  -3.319  1.00  0.00     0.211 HD
ENDBRANCH  30  38
ENDBRANCH   1  25
TORSDOF 11
ENDMDL
MODEL 8
REMARK VINA RESULT:    -5.822     15.586     18.212
REMARK INTER + INTRA:          -8.527
REMARK INTER:                  -7.527
REMARK INTRA:                  -1.000
REMARK UNBOUND:                -0.153
REMARK SMILES O=c1cc(-c2ccc(O)c(O)c2)oc2cc(O[C@@H]3O[C@@H](CO)[C@H](O)[C@H](O)[C@@H]3O)cc(O)c12
REMARK SMILES IDX 17 1 16 2 4 3 3 4 13 5 2 6 14 7 1 8 32 9 15 10 30 11 29 12
REMARK SMILES IDX 5 13 6 14 7 15 8 16 12 17 10 18 9 19 11 21 31 23 18 25 27 26
REMARK SMILES IDX 19 27 25 28 20 29 23 30 28 31 26 33 21 35 22 36 24 38
REMARK H PARENT 9 20 11 22 31 24 28 32 26 34 22 37 24 39
REMARK Flexibility Score: inf
ROOT
ATOM      1  O   UNL     1      26.664   9.683   7.230  1.00  0.00    -0.462 OA
ENDROOT
BRANCH   1   2
ATOM      2  C   UNL     1      26.678  11.067   7.294  1.00  0.00     0.130 A 
ATOM      3  C   UNL     1      24.882  15.300   6.065  1.00  0.00     0.138 A 
ATOM      4  C   UNL     1      25.698  15.981   6.979  1.00  0.00     0.100 A 
ATOM      5  O   UNL     1      25.004  13.983   5.937  1.00  0.00    -0.456 OA
ATOM      6  C   UNL     1      26.570  15.262   7.795  1.00  0.00     0.197 A 
ATOM      7  C   UNL     1      25.819  13.249   6.688  1.00  0.00     0.146 A 
ATOM      8  O   UNL     1      27.373  15.904   8.538  1.00  0.00    -0.289 OA
ATOM      9  C   UNL     1      26.601  13.853   7.715  1.00  0.00     0.107 A 
ATOM     10  C   UNL     1      25.888  11.867   6.465  1.00  0.00     0.094 A 
ATOM     11  C   UNL     1      27.358  13.013   8.591  1.00  0.00     0.134 A 
ATOM     12  C   UNL     1      27.375  11.639   8.357  1.00  0.00     0.093 A 
BRANCH   3  13
ATOM     13  C   UNL     1      23.892  16.012   5.230  1.00  0.00     0.021 A 
ATOM     14  C   UNL     1      24.327  16.778   4.137  1.00  0.00     0.016 A 
ATOM     15  C   UNL     1      23.409  17.418   3.304  1.00  0.00     0.051 A 
ATOM     16  C   UNL     1      22.032  17.280   3.534  1.00  0.00     0.157 A 
ATOM     17  C   UNL     1      22.506  15.900   5.472  1.00  0.00     0.062 A 
ATOM     18  C   UNL     1      21.580  16.529   4.631  1.00  0.00     0.158 A 
BRANCH  16  19
ATOM     19  O   UNL     1      21.104  17.884   2.688  1.00  0.00    -0.504 OA
ATOM     20  H   UNL     1      21.368  18.313   1.817  1.00  0.00     0.293 HD
ENDBRANCH  16  19
BRANCH  18  21
ATOM     21  O   UNL     1      20.212  16.391   4.860  1.00  0.00    -0.504 OA
ATOM     22  H   UNL     1      19.833  15.598   5.374  1.00  0.00     0.293 HD
ENDBRANCH  18  21
ENDBRANCH   3  13
BRANCH  11  23
ATOM     23  O   UNL     1      28.043  13.461   9.727  1.00  0.00    -0.507 OA
ATOM     24  H   UNL     1      28.150  12.928  10.585  1.00  0.00     0.293 HD
ENDBRANCH  11  23
ENDBRANCH   1   2
BRANCH   1  25
ATOM     25  C   UNL     1      25.552   8.768   7.319  1.00  0.00     0.339 C 
ATOM     26  C   UNL     1      24.887   8.262   5.998  1.00  0.00     0.214 C 
ATOM     27  O   UNL     1      25.994   7.615   8.022  1.00  0.00    -0.332 OA
ATOM     28  C   UNL     1      25.840   7.437   5.116  1.00  0.00     0.180 C 
ATOM     29  C   UNL     1      27.072   6.987   7.314  1.00  0.00     0.179 C 
ATOM     30  C   UNL     1      26.566   6.369   5.987  1.00  0.00     0.177 C 
BRANCH  26  31
ATOM     31  O   UNL     1      24.151   9.218   5.284  1.00  0.00    -0.384 OA
ATOM     32  H   UNL     1      23.596   9.735   5.915  1.00  0.00     0.211 HD
ENDBRANCH  26  31
BRANCH  28  33
ATOM     33  O   UNL     1      26.723   8.287   4.425  1.00  0.00    -0.387 OA
ATOM     34  H   UNL     1      26.225   8.677   3.661  1.00  0.00     0.211 HD
ENDBRANCH  28  33
BRANCH  29  35
ATOM     35  C   UNL     1      27.711   5.931   8.221  1.00  0.00     0.191 C 
BRANCH  35  36
ATOM     36  O   UNL     1      27.360   4.642   7.814  1.00  0.00    -0.394 OA
ATOM     37  H   UNL     1      28.195   4.082   7.838  1.00  0.00     0.210 HD
ENDBRANCH  35  36
ENDBRANCH  29  35
BRANCH  30  38
ATOM     38  O   UNL     1      27.663   5.812   5.280  1.00  0.00    -0.387 OA
ATOM     39  H   UNL     1      27.729   4.854   5.531  1.00  0.00     0.211 HD
ENDBRANCH  30  38
ENDBRANCH   1  25
TORSDOF 11
ENDMDL
