MODEL 1
REMARK VINA RESULT:    -7.777      0.000      0.000
REMARK INTER + INTRA:          -9.076
REMARK INTER:                  -9.141
REMARK INTRA:                   0.065
REMARK UNBOUND:                 0.065
REMARK SMILES O=c1c(O)c(-c2ccc(O)cc2)oc2cc(O)cc(O)c12
REMARK SMILES IDX 5 1 3 2 2 3 1 4 21 5 19 6 18 7 16 8 15 9 14 10 13 11 6 12
REMARK SMILES IDX 7 13 8 14 9 15 12 16 11 17 10 18 4 20 20 22 17 24
REMARK H PARENT 10 19 4 21 20 23 17 25
REMARK Flexibility Score: inf
ROOT
ATOM      1  C   UNL     1      33.779  27.961  20.275  1.00  0.00     0.180 A 
ATOM      2  C   UNL     1      33.221  28.789  19.284  1.00  0.00     0.208 A 
ATOM      3  C   UNL     1      32.960  28.250  18.014  1.00  0.00     0.238 A 
ATOM      4  O   UNL     1      32.410  28.981  17.150  1.00  0.00    -0.285 OA
ATOM      5  C   UNL     1      33.275  26.897  17.745  1.00  0.00     0.111 A 
ATOM      6  C   UNL     1      33.089  26.257  16.482  1.00  0.00     0.134 A 
ATOM      7  C   UNL     1      33.313  24.879  16.367  1.00  0.00     0.093 A 
ATOM      8  C   UNL     1      33.778  24.131  17.451  1.00  0.00     0.123 A 
ATOM      9  C   UNL     1      34.018  24.757  18.671  1.00  0.00     0.094 A 
ATOM     10  C   UNL     1      33.770  26.123  18.828  1.00  0.00     0.146 A 
ATOM     11  O   UNL     1      34.003  26.679  20.011  1.00  0.00    -0.452 OA
ENDROOT
BRANCH   1  12
ATOM     12  C   UNL     1      34.107  28.463  21.629  1.00  0.00     0.021 A 
ATOM     13  C   UNL     1      33.789  27.681  22.752  1.00  0.00     0.016 A 
ATOM     14  C   UNL     1      34.109  28.126  24.038  1.00  0.00     0.047 A 
ATOM     15  C   UNL     1      34.763  29.348  24.217  1.00  0.00     0.115 A 
ATOM     16  C   UNL     1      34.782  29.684  21.815  1.00  0.00     0.016 A 
ATOM     17  C   UNL     1      35.102  30.125  23.102  1.00  0.00     0.047 A 
BRANCH  15  18
ATOM     18  O   UNL     1      35.076  29.779  25.506  1.00  0.00    -0.508 OA
ATOM     19  H   UNL     1      35.197  29.123  26.268  1.00  0.00     0.293 HD
ENDBRANCH  15  18
ENDBRANCH   1  12
BRANCH   2  20
ATOM     20  O   UNL     1      32.898  30.116  19.578  1.00  0.00    -0.502 OA
ATOM     21  H   UNL     1      33.586  30.859  19.567  1.00  0.00     0.293 HD
ENDBRANCH   2  20
BRANCH   6  22
ATOM     22  O   UNL     1      32.717  26.929  15.315  1.00  0.00    -0.507 OA
ATOM     23  H   UNL     1      33.325  27.533  14.781  1.00  0.00     0.293 HD
ENDBRANCH   6  22
BRANCH   8  24
ATOM     24  O   UNL     1      34.012  22.764  17.322  1.00  0.00    -0.508 OA
ATOM     25  H   UNL     1      33.310  22.138  16.947  1.00  0.00     0.293 HD
ENDBRANCH   8  24
TORSDOF 5
ENDMDL
MODEL 2
REMARK VINA RESULT:    -7.752      1.184      2.984
REMARK INTER + INTRA:          -9.047
REMARK INTER:                  -9.185
REMARK INTRA:                   0.138
REMARK UNBOUND:                 0.065
REMARK SMILES O=c1c(O)c(-c2ccc(O)cc2)oc2cc(O)cc(O)c12
REMARK SMILES IDX 5 1 3 2 2 3 1 4 21 5 19 6 18 7 16 8 15 9 14 10 13 11 6 12
REMARK SMILES IDX 7 13 8 14 9 15 12 16 11 17 10 18 4 20 20 22 17 24
REMARK H PARENT 10 19 4 21 20 23 17 25
REMARK Flexibility Score: inf
ROOT
ATOM      1  C   UNL     1      34.280  26.886  20.680  1.00  0.00     0.180 A 
ATOM      2  C   UNL     1      34.601  25.517  20.708  1.00  0.00     0.208 A 
ATOM      3  C   UNL     1      34.414  24.750  19.546  1.00  0.00     0.238 A 
ATOM      4  O   UNL     1      34.755  23.538  19.562  1.00  0.00    -0.285 OA
ATOM      5  C   UNL     1      33.896  25.357  18.378  1.00  0.00     0.111 A 
ATOM      6  C   UNL     1      33.629  24.666  17.157  1.00  0.00     0.134 A 
ATOM      7  C   UNL     1      33.240  25.393  16.024  1.00  0.00     0.093 A 
ATOM      8  C   UNL     1      33.044  26.774  16.086  1.00  0.00     0.123 A 
ATOM      9  C   UNL     1      33.244  27.448  17.288  1.00  0.00     0.094 A 
ATOM     10  C   UNL     1      33.668  26.757  18.426  1.00  0.00     0.146 A 
ATOM     11  O   UNL     1      33.857  27.440  19.550  1.00  0.00    -0.452 OA
ENDROOT
BRANCH   1  12
ATOM     12  C   UNL     1      34.425  27.754  21.871  1.00  0.00     0.021 A 
ATOM     13  C   UNL     1      33.998  27.285  23.125  1.00  0.00     0.016 A 
ATOM     14  C   UNL     1      34.145  28.079  24.266  1.00  0.00     0.047 A 
ATOM     15  C   UNL     1      34.733  29.344  24.171  1.00  0.00     0.115 A 
ATOM     16  C   UNL     1      35.034  29.020  21.786  1.00  0.00     0.016 A 
ATOM     17  C   UNL     1      35.179  29.811  22.929  1.00  0.00     0.047 A 
BRANCH  15  18
ATOM     18  O   UNL     1      34.873  30.125  25.317  1.00  0.00    -0.508 OA
ATOM     19  H   UNL     1      34.550  29.801  26.221  1.00  0.00     0.293 HD
ENDBRANCH  15  18
ENDBRANCH   1  12
BRANCH   2  20
ATOM     20  O   UNL     1      35.133  24.943  21.866  1.00  0.00    -0.502 OA
ATOM     21  H   UNL     1      35.924  25.341  22.356  1.00  0.00     0.293 HD
ENDBRANCH   2  20
BRANCH   6  22
ATOM     22  O   UNL     1      33.704  23.279  17.012  1.00  0.00    -0.507 OA
ATOM     23  H   UNL     1      33.495  22.613  17.741  1.00  0.00     0.293 HD
ENDBRANCH   6  22
BRANCH   8  24
ATOM     24  O   UNL     1      32.641  27.486  14.959  1.00  0.00    -0.508 OA
ATOM     25  H   UNL     1      33.252  27.604  14.159  1.00  0.00     0.293 HD
ENDBRANCH   8  24
TORSDOF 5
ENDMDL
MODEL 3
REMARK VINA RESULT:    -7.300      1.957      6.244
REMARK INTER + INTRA:          -8.515
REMARK INTER:                  -8.972
REMARK INTRA:                   0.457
REMARK UNBOUND:                 0.065
REMARK SMILES O=c1c(O)c(-c2ccc(O)cc2)oc2cc(O)cc(O)c12
REMARK SMILES IDX 5 1 3 2 2 3 1 4 21 5 19 6 18 7 16 8 15 9 14 10 13 11 6 12
REMARK SMILES IDX 7 13 8 14 9 15 12 16 11 17 10 18 4 20 20 22 17 24
REMARK H PARENT 10 19 4 21 20 23 17 25
REMARK Flexibility Score: inf
ROOT
ATOM      1  C   UNL     1      33.831  25.077  18.928  1.00  0.00     0.180 A 
ATOM      2  C   UNL     1      33.397  25.796  17.801  1.00  0.00     0.208 A 
ATOM      3  C   UNL     1      33.256  27.190  17.895  1.00  0.00     0.238 A 
ATOM      4  O   UNL     1      32.921  27.834  16.866  1.00  0.00    -0.285 OA
ATOM      5  C   UNL     1      33.535  27.845  19.118  1.00  0.00     0.111 A 
ATOM      6  C   UNL     1      33.388  29.248  19.338  1.00  0.00     0.134 A 
ATOM      7  C   UNL     1      33.817  29.805  20.549  1.00  0.00     0.093 A 
ATOM      8  C   UNL     1      34.327  29.003  21.571  1.00  0.00     0.123 A 
ATOM      9  C   UNL     1      34.419  27.625  21.389  1.00  0.00     0.094 A 
ATOM     10  C   UNL     1      34.033  27.043  20.179  1.00  0.00     0.146 A 
ATOM     11  O   UNL     1      34.147  25.727  20.042  1.00  0.00    -0.452 OA
ENDROOT
BRANCH   1  12
ATOM     12  C   UNL     1      33.979  23.603  18.915  1.00  0.00     0.021 A 
ATOM     13  C   UNL     1      34.596  22.960  20.001  1.00  0.00     0.016 A 
ATOM     14  C   UNL     1      34.726  21.568  20.019  1.00  0.00     0.047 A 
ATOM     15  C   UNL     1      34.230  20.801  18.961  1.00  0.00     0.115 A 
ATOM     16  C   UNL     1      33.464  22.824  17.862  1.00  0.00     0.016 A 
ATOM     17  C   UNL     1      33.596  21.433  17.884  1.00  0.00     0.047 A 
BRANCH  15  18
ATOM     18  O   UNL     1      34.367  19.415  18.992  1.00  0.00    -0.508 OA
ATOM     19  H   UNL     1      34.137  18.879  19.821  1.00  0.00     0.293 HD
ENDBRANCH  15  18
ENDBRANCH   1  12
BRANCH   2  20
ATOM     20  O   UNL     1      33.149  25.132  16.596  1.00  0.00    -0.502 OA
ATOM     21  H   UNL     1      33.823  24.507  16.171  1.00  0.00     0.293 HD
ENDBRANCH   2  20
BRANCH   6  22
ATOM     22  O   UNL     1      32.806  30.125  18.418  1.00  0.00    -0.507 OA
ATOM     23  H   UNL     1      33.253  30.952  18.052  1.00  0.00     0.293 HD
ENDBRANCH   6  22
BRANCH   8  24
ATOM     24  O   UNL     1      34.737  29.564  22.778  1.00  0.00    -0.508 OA
ATOM     25  H   UNL     1      35.167  29.005  23.505  1.00  0.00     0.293 HD
ENDBRANCH   8  24
TORSDOF 5
ENDMDL
MODEL 4
REMARK VINA RESULT:    -7.109      1.964      6.255
REMARK INTER + INTRA:          -8.291
REMARK INTER:                  -8.844
REMARK INTRA:                   0.554
REMARK UNBOUND:                 0.065
REMARK SMILES O=c1c(O)c(-c2ccc(O)cc2)oc2cc(O)cc(O)c12
REMARK SMILES IDX 5 1 3 2 2 3 1 4 21 5 19 6 18 7 16 8 15 9 14 10 13 11 6 12
REMARK SMILES IDX 7 13 8 14 9 15 12 16 11 17 10 18 4 20 20 22 17 24
REMARK H PARENT 10 19 4 21 20 23 17 25
REMARK Flexibility Score: inf
ROOT
ATOM      1  C   UNL     1      33.818  25.080  18.967  1.00  0.00     0.180 A 
ATOM      2  C   UNL     1      33.384  25.780  17.827  1.00  0.00     0.208 A 
ATOM      3  C   UNL     1      33.253  27.177  17.894  1.00  0.00     0.238 A 
ATOM      4  O   UNL     1      32.918  27.802  16.855  1.00  0.00    -0.285 OA
ATOM      5  C   UNL     1      33.542  27.854  19.103  1.00  0.00     0.111 A 
ATOM      6  C   UNL     1      33.406  29.262  19.295  1.00  0.00     0.134 A 
ATOM      7  C   UNL     1      33.845  29.841  20.493  1.00  0.00     0.093 A 
ATOM      8  C   UNL     1      34.353  29.055  21.529  1.00  0.00     0.123 A 
ATOM      9  C   UNL     1      34.435  27.673  21.374  1.00  0.00     0.094 A 
ATOM     10  C   UNL     1      34.039  27.070  20.177  1.00  0.00     0.146 A 
ATOM     11  O   UNL     1      34.143  25.751  20.066  1.00  0.00    -0.452 OA
ENDROOT
BRANCH   1  12
ATOM     12  C   UNL     1      33.955  23.606  18.982  1.00  0.00     0.021 A 
ATOM     13  C   UNL     1      33.476  22.855  17.896  1.00  0.00     0.016 A 
ATOM     14  C   UNL     1      33.615  21.464  17.880  1.00  0.00     0.047 A 
ATOM     15  C   UNL     1      34.246  20.808  18.941  1.00  0.00     0.115 A 
ATOM     16  C   UNL     1      34.607  22.942  20.038  1.00  0.00     0.016 A 
ATOM     17  C   UNL     1      34.745  21.551  20.019  1.00  0.00     0.047 A 
BRANCH  15  18
ATOM     18  O   UNL     1      34.378  19.421  18.911  1.00  0.00    -0.508 OA
ATOM     19  H   UNL     1      33.882  18.829  19.567  1.00  0.00     0.293 HD
ENDBRANCH  15  18
ENDBRANCH   1  12
BRANCH   2  20
ATOM     20  O   UNL     1      33.126  25.094  16.637  1.00  0.00    -0.502 OA
ATOM     21  H   UNL     1      32.986  25.570  15.754  1.00  0.00     0.293 HD
ENDBRANCH   2  20
BRANCH   6  22
ATOM     22  O   UNL     1      32.826  30.125  18.361  1.00  0.00    -0.507 OA
ATOM     23  H   UNL     1      32.605  29.875  17.408  1.00  0.00     0.293 HD
ENDBRANCH   6  22
BRANCH   8  24
ATOM     24  O   UNL     1      34.773  29.638  22.723  1.00  0.00    -0.508 OA
ATOM     25  H   UNL     1      35.713  29.997  22.836  1.00  0.00     0.293 HD
ENDBRANCH   8  24
TORSDOF 5
ENDMDL
MODEL 5
REMARK VINA RESULT:    -7.008      1.552      3.544
REMARK INTER + INTRA:          -8.172
REMARK INTER:                  -8.620
REMARK INTRA:                   0.448
REMARK UNBOUND:                 0.065
REMARK SMILES O=c1c(O)c(-c2ccc(O)cc2)oc2cc(O)cc(O)c12
REMARK SMILES IDX 5 1 3 2 2 3 1 4 21 5 19 6 18 7 16 8 15 9 14 10 13 11 6 12
REMARK SMILES IDX 7 13 8 14 9 15 12 16 11 17 10 18 4 20 20 22 17 24
REMARK H PARENT 10 19 4 21 20 23 17 25
REMARK Flexibility Score: inf
ROOT
ATOM      1  C   UNL     1      33.934  26.604  20.282  1.00  0.00     0.180 A 
ATOM      2  C   UNL     1      34.270  25.441  19.566  1.00  0.00     0.208 A 
ATOM      3  C   UNL     1      34.054  25.409  18.179  1.00  0.00     0.238 A 
ATOM      4  O   UNL     1      34.408  24.386  17.536  1.00  0.00    -0.285 OA
ATOM      5  C   UNL     1      33.490  26.532  17.528  1.00  0.00     0.111 A 
ATOM      6  C   UNL     1      33.191  26.595  16.133  1.00  0.00     0.134 A 
ATOM      7  C   UNL     1      32.756  27.803  15.574  1.00  0.00     0.093 A 
ATOM      8  C   UNL     1      32.548  28.932  16.370  1.00  0.00     0.123 A 
ATOM      9  C   UNL     1      32.780  28.864  17.741  1.00  0.00     0.094 A 
ATOM     10  C   UNL     1      33.249  27.684  18.323  1.00  0.00     0.146 A 
ATOM     11  O   UNL     1      33.468  27.665  19.633  1.00  0.00    -0.452 OA
ENDROOT
BRANCH   1  12
ATOM     12  C   UNL     1      34.109  26.705  21.749  1.00  0.00     0.021 A 
ATOM     13  C   UNL     1      33.954  27.950  22.380  1.00  0.00     0.016 A 
ATOM     14  C   UNL     1      34.093  28.064  23.766  1.00  0.00     0.047 A 
ATOM     15  C   UNL     1      34.372  26.934  24.541  1.00  0.00     0.115 A 
ATOM     16  C   UNL     1      34.371  25.568  22.536  1.00  0.00     0.016 A 
ATOM     17  C   UNL     1      34.508  25.685  23.922  1.00  0.00     0.047 A 
BRANCH  15  18
ATOM     18  O   UNL     1      34.508  27.063  25.922  1.00  0.00    -0.508 OA
ATOM     19  H   UNL     1      35.322  26.707  26.408  1.00  0.00     0.293 HD
ENDBRANCH  15  18
ENDBRANCH   1  12
BRANCH   2  20
ATOM     20  O   UNL     1      34.846  24.352  20.226  1.00  0.00    -0.502 OA
ATOM     21  H   UNL     1      34.807  23.410  19.856  1.00  0.00     0.293 HD
ENDBRANCH   2  20
BRANCH   6  22
ATOM     22  O   UNL     1      33.276  25.501  15.267  1.00  0.00    -0.507 OA
ATOM     23  H   UNL     1      32.559  25.233  14.609  1.00  0.00     0.293 HD
ENDBRANCH   6  22
BRANCH   8  24
ATOM     24  O   UNL     1      32.101  30.125  15.807  1.00  0.00    -0.508 OA
ATOM     25  H   UNL     1      31.218  30.180  15.314  1.00  0.00     0.293 HD
ENDBRANCH   8  24
TORSDOF 5
ENDMDL
MODEL 6
REMARK VINA RESULT:    -6.887      1.826      6.992
REMARK INTER + INTRA:          -8.030
REMARK INTER:                  -8.496
REMARK INTRA:                   0.466
REMARK UNBOUND:                 0.065
REMARK SMILES O=c1c(O)c(-c2ccc(O)cc2)oc2cc(O)cc(O)c12
REMARK SMILES IDX 5 1 3 2 2 3 1 4 21 5 19 6 18 7 16 8 15 9 14 10 13 11 6 12
REMARK SMILES IDX 7 13 8 14 9 15 12 16 11 17 10 18 4 20 20 22 17 24
REMARK H PARENT 10 19 4 21 20 23 17 25
REMARK Flexibility Score: inf
ROOT
ATOM      1  C   UNL     1      33.952  26.525  19.381  1.00  0.00     0.180 A 
ATOM      2  C   UNL     1      34.306  25.290  19.954  1.00  0.00     0.208 A 
ATOM      3  C   UNL     1      34.694  25.252  21.303  1.00  0.00     0.238 A 
ATOM      4  O   UNL     1      34.956  24.136  21.825  1.00  0.00    -0.285 OA
ATOM      5  C   UNL     1      34.741  26.449  22.057  1.00  0.00     0.111 A 
ATOM      6  C   UNL     1      35.158  26.532  23.420  1.00  0.00     0.134 A 
ATOM      7  C   UNL     1      35.039  27.748  24.105  1.00  0.00     0.093 A 
ATOM      8  C   UNL     1      34.580  28.898  23.458  1.00  0.00     0.123 A 
ATOM      9  C   UNL     1      34.227  28.840  22.112  1.00  0.00     0.094 A 
ATOM     10  C   UNL     1      34.300  27.634  21.411  1.00  0.00     0.146 A 
ATOM     11  O   UNL     1      33.943  27.620  20.132  1.00  0.00    -0.452 OA
ENDROOT
BRANCH   1  12
ATOM     12  C   UNL     1      33.557  26.650  17.959  1.00  0.00     0.021 A 
ATOM     13  C   UNL     1      33.061  27.875  17.485  1.00  0.00     0.016 A 
ATOM     14  C   UNL     1      32.702  28.022  16.142  1.00  0.00     0.047 A 
ATOM     15  C   UNL     1      32.849  26.952  15.254  1.00  0.00     0.115 A 
ATOM     16  C   UNL     1      33.721  25.583  17.057  1.00  0.00     0.016 A 
ATOM     17  C   UNL     1      33.362  25.733  15.714  1.00  0.00     0.047 A 
BRANCH  15  18
ATOM     18  O   UNL     1      32.488  27.113  13.917  1.00  0.00    -0.508 OA
ATOM     19  H   UNL     1      31.697  26.619  13.521  1.00  0.00     0.293 HD
ENDBRANCH  15  18
ENDBRANCH   1  12
BRANCH   2  20
ATOM     20  O   UNL     1      34.232  24.117  19.198  1.00  0.00    -0.502 OA
ATOM     21  H   UNL     1      34.119  23.204  19.620  1.00  0.00     0.293 HD
ENDBRANCH   2  20
BRANCH   6  22
ATOM     22  O   UNL     1      35.717  25.467  24.132  1.00  0.00    -0.507 OA
ATOM     23  H   UNL     1      35.331  25.077  24.979  1.00  0.00     0.293 HD
ENDBRANCH   6  22
BRANCH   8  24
ATOM     24  O   UNL     1      34.480  30.106  24.143  1.00  0.00    -0.508 OA
ATOM     25  H   UNL     1      35.219  30.799  24.108  1.00  0.00     0.293 HD
ENDBRANCH   8  24
TORSDOF 5
ENDMDL
MODEL 7
REMARK VINA RESULT:    -6.631      2.372      6.317
REMARK INTER + INTRA:          -7.729
REMARK INTER:                  -8.302
REMARK INTRA:                   0.573
REMARK UNBOUND:                 0.065
REMARK SMILES O=c1c(O)c(-c2ccc(O)cc2)oc2cc(O)cc(O)c12
REMARK SMILES IDX 5 1 3 2 2 3 1 4 21 5 19 6 18 7 16 8 15 9 14 10 13 11 6 12
REMARK SMILES IDX 7 13 8 14 9 15 12 16 11 17 10 18 4 20 20 22 17 24
REMARK H PARENT 10 19 4 21 20 23 17 25
REMARK Flexibility Score: inf
ROOT
ATOM      1  C   UNL     1      33.999  25.139  19.549  1.00  0.00     0.180 A 
ATOM      2  C   UNL     1      34.501  25.721  20.726  1.00  0.00     0.208 A 
ATOM      3  C   UNL     1      34.401  27.111  20.895  1.00  0.00     0.238 A 
ATOM      4  O   UNL     1      34.802  27.619  21.975  1.00  0.00    -0.285 OA
ATOM      5  C   UNL     1      33.817  27.904  19.879  1.00  0.00     0.111 A 
ATOM      6  C   UNL     1      33.700  29.326  19.927  1.00  0.00     0.134 A 
ATOM      7  C   UNL     1      32.986  29.994  18.923  1.00  0.00     0.093 A 
ATOM      8  C   UNL     1      32.442  29.299  17.841  1.00  0.00     0.123 A 
ATOM      9  C   UNL     1      32.602  27.918  17.754  1.00  0.00     0.094 A 
ATOM     10  C   UNL     1      33.277  27.219  18.758  1.00  0.00     0.146 A 
ATOM     11  O   UNL     1      33.398  25.901  18.642  1.00  0.00    -0.452 OA
ENDROOT
BRANCH   1  12
ATOM     12  C   UNL     1      34.091  23.684  19.287  1.00  0.00     0.021 A 
ATOM     13  C   UNL     1      34.612  22.835  20.277  1.00  0.00     0.016 A 
ATOM     14  C   UNL     1      34.688  21.456  20.059  1.00  0.00     0.047 A 
ATOM     15  C   UNL     1      34.231  20.908  18.857  1.00  0.00     0.115 A 
ATOM     16  C   UNL     1      33.615  23.124  18.087  1.00  0.00     0.016 A 
ATOM     17  C   UNL     1      33.692  21.745  17.872  1.00  0.00     0.047 A 
BRANCH  15  18
ATOM     18  O   UNL     1      34.312  19.531  18.653  1.00  0.00    -0.508 OA
ATOM     19  H   UNL     1      35.038  19.124  18.076  1.00  0.00     0.293 HD
ENDBRANCH  15  18
ENDBRANCH   1  12
BRANCH   2  20
ATOM     20  O   UNL     1      35.054  24.917  21.727  1.00  0.00    -0.502 OA
ATOM     21  H   UNL     1      35.924  24.414  21.602  1.00  0.00     0.293 HD
ENDBRANCH   2  20
BRANCH   6  22
ATOM     22  O   UNL     1      34.284  30.124  20.913  1.00  0.00    -0.507 OA
ATOM     23  H   UNL     1      33.787  30.533  21.690  1.00  0.00     0.293 HD
ENDBRANCH   6  22
BRANCH   8  24
ATOM     24  O   UNL     1      31.748  29.974  16.840  1.00  0.00    -0.508 OA
ATOM     25  H   UNL     1      31.496  30.951  16.935  1.00  0.00     0.293 HD
ENDBRANCH   8  24
TORSDOF 5
ENDMDL
MODEL 8
REMARK VINA RESULT:    -6.522      1.772      6.344
REMARK INTER + INTRA:          -7.601
REMARK INTER:                  -8.155
REMARK INTRA:                   0.554
REMARK UNBOUND:                 0.065
REMARK SMILES O=c1c(O)c(-c2ccc(O)cc2)oc2cc(O)cc(O)c12
REMARK SMILES IDX 5 1 3 2 2 3 1 4 21 5 19 6 18 7 16 8 15 9 14 10 13 11 6 12
REMARK SMILES IDX 7 13 8 14 9 15 12 16 11 17 10 18 4 20 20 22 17 24
REMARK H PARENT 10 19 4 21 20 23 17 25
REMARK Flexibility Score: inf
ROOT
ATOM      1  C   UNL     1      33.627  27.537  19.454  1.00  0.00     0.180 A 
ATOM      2  C   UNL     1      33.652  28.826  20.017  1.00  0.00     0.208 A 
ATOM      3  C   UNL     1      33.929  28.966  21.386  1.00  0.00     0.238 A 
ATOM      4  O   UNL     1      34.004  30.125  21.871  1.00  0.00    -0.285 OA
ATOM      5  C   UNL     1      34.163  27.817  22.179  1.00  0.00     0.111 A 
ATOM      6  C   UNL     1      34.415  27.839  23.584  1.00  0.00     0.134 A 
ATOM      7  C   UNL     1      34.762  26.652  24.242  1.00  0.00     0.093 A 
ATOM      8  C   UNL     1      34.802  25.435  23.559  1.00  0.00     0.123 A 
ATOM      9  C   UNL     1      34.500  25.394  22.200  1.00  0.00     0.094 A 
ATOM     10  C   UNL     1      34.186  26.566  21.508  1.00  0.00     0.146 A 
ATOM     11  O   UNL     1      33.915  26.484  20.210  1.00  0.00    -0.452 OA
ENDROOT
BRANCH   1  12
ATOM     12  C   UNL     1      33.317  27.307  18.025  1.00  0.00     0.021 A 
ATOM     13  C   UNL     1      32.874  28.378  17.232  1.00  0.00     0.016 A 
ATOM     14  C   UNL     1      32.595  28.187  15.875  1.00  0.00     0.047 A 
ATOM     15  C   UNL     1      32.771  26.929  15.291  1.00  0.00     0.115 A 
ATOM     16  C   UNL     1      33.510  26.047  17.427  1.00  0.00     0.016 A 
ATOM     17  C   UNL     1      33.231  25.860  16.070  1.00  0.00     0.047 A 
BRANCH  15  18
ATOM     18  O   UNL     1      32.489  26.754  13.937  1.00  0.00    -0.508 OA
ATOM     19  H   UNL     1      32.708  25.887  13.460  1.00  0.00     0.293 HD
ENDBRANCH  15  18
ENDBRANCH   1  12
BRANCH   2  20
ATOM     20  O   UNL     1      33.440  29.948  19.211  1.00  0.00    -0.502 OA
ATOM     21  H   UNL     1      34.200  30.457  18.776  1.00  0.00     0.293 HD
ENDBRANCH   2  20
BRANCH   6  22
ATOM     22  O   UNL     1      34.311  28.985  24.377  1.00  0.00    -0.507 OA
ATOM     23  H   UNL     1      33.504  29.227  24.934  1.00  0.00     0.293 HD
ENDBRANCH   6  22
BRANCH   8  24
ATOM     24  O   UNL     1      35.133  24.257  24.225  1.00  0.00    -0.508 OA
ATOM     25  H   UNL     1      34.554  23.429  24.156  1.00  0.00     0.293 HD
ENDBRANCH   8  24
TORSDOF 5
ENDMDL
