MODEL 1
REMARK VINA RESULT:    -7.291      0.000      0.000
REMARK INTER + INTRA:          -8.691
REMARK INTER:                  -8.569
REMARK INTRA:                  -0.122
REMARK UNBOUND:                -0.122
REMARK SMILES O=c1c(O)c(-c2ccc(O)cc2)oc2cc(O)cc(O)c12
REMARK SMILES IDX 5 1 3 2 2 3 1 4 21 5 19 6 18 7 16 8 15 9 14 10 13 11 6 12
REMARK SMILES IDX 7 13 8 14 9 15 12 16 11 17 10 18 4 20 20 22 17 24
REMARK H PARENT 10 19 4 21 20 23 17 25
REMARK Flexibility Score: inf
ROOT
ATOM      1  C   UNL     1     -20.641 -11.673 -41.675  1.00  0.00     0.180 A 
ATOM      2  C   UNL     1     -20.152 -10.749 -42.617  1.00  0.00     0.208 A 
ATOM      3  C   UNL     1     -20.761 -10.678 -43.880  1.00  0.00     0.238 A 
ATOM      4  O   UNL     1     -20.286  -9.887 -44.736  1.00  0.00    -0.285 OA
ATOM      5  C   UNL     1     -21.860 -11.517 -44.181  1.00  0.00     0.111 A 
ATOM      6  C   UNL     1     -22.578 -11.502 -45.415  1.00  0.00     0.134 A 
ATOM      7  C   UNL     1     -23.565 -12.467 -45.652  1.00  0.00     0.093 A 
ATOM      8  C   UNL     1     -23.903 -13.406 -44.675  1.00  0.00     0.123 A 
ATOM      9  C   UNL     1     -23.249 -13.392 -43.445  1.00  0.00     0.094 A 
ATOM     10  C   UNL     1     -22.236 -12.464 -43.193  1.00  0.00     0.146 A 
ATOM     11  O   UNL     1     -21.631 -12.492 -42.012  1.00  0.00    -0.452 OA
ENDROOT
BRANCH   1  12
ATOM     12  C   UNL     1     -20.068 -11.789 -40.316  1.00  0.00     0.021 A 
ATOM     13  C   UNL     1     -19.546 -13.021 -39.888  1.00  0.00     0.016 A 
ATOM     14  C   UNL     1     -19.020 -13.159 -38.600  1.00  0.00     0.047 A 
ATOM     15  C   UNL     1     -19.024 -12.075 -37.718  1.00  0.00     0.115 A 
ATOM     16  C   UNL     1     -20.086 -10.706 -39.417  1.00  0.00     0.016 A 
ATOM     17  C   UNL     1     -19.562 -10.848 -38.128  1.00  0.00     0.047 A 
BRANCH  15  18
ATOM     18  O   UNL     1     -18.497 -12.227 -36.438  1.00  0.00    -0.508 OA
ATOM     19  H   UNL     1     -18.836 -12.943 -35.806  1.00  0.00     0.293 HD
ENDBRANCH  15  18
ENDBRANCH   1  12
BRANCH   2  20
ATOM     20  O   UNL     1     -19.053  -9.944 -42.306  1.00  0.00    -0.502 OA
ATOM     21  H   UNL     1     -18.984  -8.979 -42.605  1.00  0.00     0.293 HD
ENDBRANCH   2  20
BRANCH   6  22
ATOM     22  O   UNL     1     -22.382 -10.549 -46.420  1.00  0.00    -0.507 OA
ATOM     23  H   UNL     1     -21.606 -10.546 -47.064  1.00  0.00     0.293 HD
ENDBRANCH   6  22
BRANCH   8  24
ATOM     24  O   UNL     1     -24.897 -14.353 -44.914  1.00  0.00    -0.508 OA
ATOM     25  H   UNL     1     -24.870 -15.270 -44.482  1.00  0.00     0.293 HD
ENDBRANCH   8  24
TORSDOF 5
ENDMDL
MODEL 2
REMARK VINA RESULT:    -7.230      2.366      2.659
REMARK INTER + INTRA:          -8.620
REMARK INTER:                  -8.363
REMARK INTRA:                  -0.257
REMARK UNBOUND:                -0.122
REMARK SMILES O=c1c(O)c(-c2ccc(O)cc2)oc2cc(O)cc(O)c12
REMARK SMILES IDX 5 1 3 2 2 3 1 4 21 5 19 6 18 7 16 8 15 9 14 10 13 11 6 12
REMARK SMILES IDX 7 13 8 14 9 15 12 16 11 17 10 18 4 20 20 22 17 24
REMARK H PARENT 10 19 4 21 20 23 17 25
REMARK Flexibility Score: inf
ROOT
ATOM      1  C   UNL     1     -20.212 -12.379 -40.788  1.00  0.00     0.180 A 
ATOM      2  C   UNL     1     -20.855 -11.392 -41.557  1.00  0.00     0.208 A 
ATOM      3  C   UNL     1     -21.155 -11.665 -42.901  1.00  0.00     0.238 A 
ATOM      4  O   UNL     1     -21.682 -10.759 -43.598  1.00  0.00    -0.285 OA
ATOM      5  C   UNL     1     -20.823 -12.924 -43.456  1.00  0.00     0.111 A 
ATOM      6  C   UNL     1     -21.114 -13.322 -44.796  1.00  0.00     0.134 A 
ATOM      7  C   UNL     1     -20.623 -14.543 -45.276  1.00  0.00     0.093 A 
ATOM      8  C   UNL     1     -19.905 -15.407 -44.446  1.00  0.00     0.123 A 
ATOM      9  C   UNL     1     -19.667 -15.053 -43.120  1.00  0.00     0.094 A 
ATOM     10  C   UNL     1     -20.113 -13.827 -42.623  1.00  0.00     0.146 A 
ATOM     11  O   UNL     1     -19.855 -13.525 -41.356  1.00  0.00    -0.452 OA
ENDROOT
BRANCH   1  12
ATOM     12  C   UNL     1     -19.887 -12.175 -39.359  1.00  0.00     0.021 A 
ATOM     13  C   UNL     1     -18.736 -11.449 -39.007  1.00  0.00     0.016 A 
ATOM     14  C   UNL     1     -18.398 -11.264 -37.664  1.00  0.00     0.047 A 
ATOM     15  C   UNL     1     -19.194 -11.813 -36.655  1.00  0.00     0.115 A 
ATOM     16  C   UNL     1     -20.674 -12.741 -38.339  1.00  0.00     0.016 A 
ATOM     17  C   UNL     1     -20.332 -12.556 -36.996  1.00  0.00     0.047 A 
BRANCH  15  18
ATOM     18  O   UNL     1     -18.846 -11.620 -35.320  1.00  0.00    -0.508 OA
ATOM     19  H   UNL     1     -19.414 -11.056 -34.700  1.00  0.00     0.293 HD
ENDBRANCH  15  18
ENDBRANCH   1  12
BRANCH   2  20
ATOM     20  O   UNL     1     -21.155 -10.149 -40.996  1.00  0.00    -0.502 OA
ATOM     21  H   UNL     1     -21.098  -9.286 -41.523  1.00  0.00     0.293 HD
ENDBRANCH   2  20
BRANCH   6  22
ATOM     22  O   UNL     1     -21.901 -12.575 -45.678  1.00  0.00    -0.507 OA
ATOM     23  H   UNL     1     -22.655 -12.949 -46.232  1.00  0.00     0.293 HD
ENDBRANCH   6  22
BRANCH   8  24
ATOM     24  O   UNL     1     -19.434 -16.626 -44.927  1.00  0.00    -0.508 OA
ATOM     25  H   UNL     1     -19.204 -17.390 -44.302  1.00  0.00     0.293 HD
ENDBRANCH   8  24
TORSDOF 5
ENDMDL
MODEL 3
REMARK VINA RESULT:    -6.733      4.881      6.358
REMARK INTER + INTRA:          -8.035
REMARK INTER:                  -7.773
REMARK INTRA:                  -0.263
REMARK UNBOUND:                -0.122
REMARK SMILES O=c1c(O)c(-c2ccc(O)cc2)oc2cc(O)cc(O)c12
REMARK SMILES IDX 5 1 3 2 2 3 1 4 21 5 19 6 18 7 16 8 15 9 14 10 13 11 6 12
REMARK SMILES IDX 7 13 8 14 9 15 12 16 11 17 10 18 4 20 20 22 17 24
REMARK H PARENT 10 19 4 21 20 23 17 25
REMARK Flexibility Score: inf
ROOT
ATOM      1  C   UNL     1     -19.826 -15.116 -43.262  1.00  0.00     0.180 A 
ATOM      2  C   UNL     1     -20.091 -15.559 -44.571  1.00  0.00     0.208 A 
ATOM      3  C   UNL     1     -20.105 -16.938 -44.833  1.00  0.00     0.238 A 
ATOM      4  O   UNL     1     -20.290 -17.326 -46.016  1.00  0.00    -0.285 OA
ATOM      5  C   UNL     1     -19.871 -17.858 -43.783  1.00  0.00     0.111 A 
ATOM      6  C   UNL     1     -19.900 -19.278 -43.928  1.00  0.00     0.134 A 
ATOM      7  C   UNL     1     -19.525 -20.089 -42.850  1.00  0.00     0.093 A 
ATOM      8  C   UNL     1     -19.182 -19.534 -41.615  1.00  0.00     0.123 A 
ATOM      9  C   UNL     1     -19.208 -18.151 -41.447  1.00  0.00     0.094 A 
ATOM     10  C   UNL     1     -19.544 -17.315 -42.514  1.00  0.00     0.146 A 
ATOM     11  O   UNL     1     -19.545 -16.002 -42.314  1.00  0.00    -0.452 OA
ENDROOT
BRANCH   1  12
ATOM     12  C   UNL     1     -19.819 -13.681 -42.902  1.00  0.00     0.021 A 
ATOM     13  C   UNL     1     -18.673 -12.909 -43.158  1.00  0.00     0.016 A 
ATOM     14  C   UNL     1     -18.637 -11.557 -42.806  1.00  0.00     0.047 A 
ATOM     15  C   UNL     1     -19.737 -10.962 -42.182  1.00  0.00     0.115 A 
ATOM     16  C   UNL     1     -20.916 -13.081 -42.256  1.00  0.00     0.016 A 
ATOM     17  C   UNL     1     -20.876 -11.728 -41.904  1.00  0.00     0.047 A 
BRANCH  15  18
ATOM     18  O   UNL     1     -19.687  -9.613 -41.837  1.00  0.00    -0.508 OA
ATOM     19  H   UNL     1     -20.530  -9.080 -41.660  1.00  0.00     0.293 HD
ENDBRANCH  15  18
ENDBRANCH   1  12
BRANCH   2  20
ATOM     20  O   UNL     1     -20.299 -14.633 -45.597  1.00  0.00    -0.502 OA
ATOM     21  H   UNL     1     -20.836 -13.786 -45.464  1.00  0.00     0.293 HD
ENDBRANCH   2  20
BRANCH   6  22
ATOM     22  O   UNL     1     -20.316 -19.935 -45.090  1.00  0.00    -0.507 OA
ATOM     23  H   UNL     1     -19.806 -19.941 -45.960  1.00  0.00     0.293 HD
ENDBRANCH   6  22
BRANCH   8  24
ATOM     24  O   UNL     1     -18.825 -20.350 -40.544  1.00  0.00    -0.508 OA
ATOM     25  H   UNL     1     -18.832 -21.360 -40.621  1.00  0.00     0.293 HD
ENDBRANCH   8  24
TORSDOF 5
ENDMDL
MODEL 4
REMARK VINA RESULT:    -6.711      3.963      6.189
REMARK INTER + INTRA:          -8.009
REMARK INTER:                  -7.716
REMARK INTRA:                  -0.294
REMARK UNBOUND:                -0.122
REMARK SMILES O=c1c(O)c(-c2ccc(O)cc2)oc2cc(O)cc(O)c12
REMARK SMILES IDX 5 1 3 2 2 3 1 4 21 5 19 6 18 7 16 8 15 9 14 10 13 11 6 12
REMARK SMILES IDX 7 13 8 14 9 15 12 16 11 17 10 18 4 20 20 22 17 24
REMARK H PARENT 10 19 4 21 20 23 17 25
REMARK Flexibility Score: inf
ROOT
ATOM      1  C   UNL     1     -19.856 -14.803 -43.427  1.00  0.00     0.180 A 
ATOM      2  C   UNL     1     -20.011 -13.799 -44.400  1.00  0.00     0.208 A 
ATOM      3  C   UNL     1     -20.109 -12.461 -43.989  1.00  0.00     0.238 A 
ATOM      4  O   UNL     1     -20.301 -11.573 -44.860  1.00  0.00    -0.285 OA
ATOM      5  C   UNL     1     -20.033 -12.139 -42.612  1.00  0.00     0.111 A 
ATOM      6  C   UNL     1     -20.081 -10.813 -42.085  1.00  0.00     0.134 A 
ATOM      7  C   UNL     1     -20.129 -10.622 -40.699  1.00  0.00     0.093 A 
ATOM      8  C   UNL     1     -20.067 -11.706 -39.820  1.00  0.00     0.123 A 
ATOM      9  C   UNL     1     -19.961 -13.000 -40.324  1.00  0.00     0.094 A 
ATOM     10  C   UNL     1     -19.947 -13.225 -41.702  1.00  0.00     0.146 A 
ATOM     11  O   UNL     1     -19.855 -14.475 -42.140  1.00  0.00    -0.452 OA
ENDROOT
BRANCH   1  12
ATOM     12  C   UNL     1     -19.721 -16.233 -43.784  1.00  0.00     0.021 A 
ATOM     13  C   UNL     1     -20.872 -17.034 -43.878  1.00  0.00     0.016 A 
ATOM     14  C   UNL     1     -20.766 -18.391 -44.192  1.00  0.00     0.047 A 
ATOM     15  C   UNL     1     -19.510 -18.970 -44.402  1.00  0.00     0.115 A 
ATOM     16  C   UNL     1     -18.459 -16.825 -43.978  1.00  0.00     0.016 A 
ATOM     17  C   UNL     1     -18.356 -18.184 -44.290  1.00  0.00     0.047 A 
BRANCH  15  18
ATOM     18  O   UNL     1     -19.420 -20.325 -44.715  1.00  0.00    -0.508 OA
ATOM     19  H   UNL     1     -20.126 -20.986 -44.415  1.00  0.00     0.293 HD
ENDBRANCH  15  18
ENDBRANCH   1  12
BRANCH   2  20
ATOM     20  O   UNL     1     -20.104 -14.140 -45.752  1.00  0.00    -0.502 OA
ATOM     21  H   UNL     1     -20.830 -13.775 -46.356  1.00  0.00     0.293 HD
ENDBRANCH   2  20
BRANCH   6  22
ATOM     22  O   UNL     1     -20.053  -9.659 -42.874  1.00  0.00    -0.507 OA
ATOM     23  H   UNL     1     -20.723  -9.440 -43.595  1.00  0.00     0.293 HD
ENDBRANCH   6  22
BRANCH   8  24
ATOM     24  O   UNL     1     -20.100 -11.506 -38.442  1.00  0.00    -0.508 OA
ATOM     25  H   UNL     1     -19.567 -10.766 -38.001  1.00  0.00     0.293 HD
ENDBRANCH   8  24
TORSDOF 5
ENDMDL
MODEL 5
REMARK VINA RESULT:    -6.646      3.981      6.184
REMARK INTER + INTRA:          -7.933
REMARK INTER:                  -7.647
REMARK INTRA:                  -0.285
REMARK UNBOUND:                -0.122
REMARK SMILES O=c1c(O)c(-c2ccc(O)cc2)oc2cc(O)cc(O)c12
REMARK SMILES IDX 5 1 3 2 2 3 1 4 21 5 19 6 18 7 16 8 15 9 14 10 13 11 6 12
REMARK SMILES IDX 7 13 8 14 9 15 12 16 11 17 10 18 4 20 20 22 17 24
REMARK H PARENT 10 19 4 21 20 23 17 25
REMARK Flexibility Score: inf
ROOT
ATOM      1  C   UNL     1     -19.867 -14.851 -43.416  1.00  0.00     0.180 A 
ATOM      2  C   UNL     1     -19.939 -13.873 -44.424  1.00  0.00     0.208 A 
ATOM      3  C   UNL     1     -19.989 -12.519 -44.056  1.00  0.00     0.238 A 
ATOM      4  O   UNL     1     -20.107 -11.651 -44.960  1.00  0.00    -0.285 OA
ATOM      5  C   UNL     1     -19.949 -12.158 -42.688  1.00  0.00     0.111 A 
ATOM      6  C   UNL     1     -19.954 -10.815 -42.203  1.00  0.00     0.134 A 
ATOM      7  C   UNL     1     -20.044 -10.579 -40.826  1.00  0.00     0.093 A 
ATOM      8  C   UNL     1     -20.065 -11.636 -39.913  1.00  0.00     0.123 A 
ATOM      9  C   UNL     1     -20.001 -12.949 -40.374  1.00  0.00     0.094 A 
ATOM     10  C   UNL     1     -19.947 -13.217 -41.744  1.00  0.00     0.146 A 
ATOM     11  O   UNL     1     -19.897 -14.483 -42.140  1.00  0.00    -0.452 OA
ENDROOT
BRANCH   1  12
ATOM     12  C   UNL     1     -19.786 -16.296 -43.725  1.00  0.00     0.021 A 
ATOM     13  C   UNL     1     -18.527 -16.903 -43.869  1.00  0.00     0.016 A 
ATOM     14  C   UNL     1     -18.426 -18.261 -44.183  1.00  0.00     0.047 A 
ATOM     15  C   UNL     1     -19.581 -19.027 -44.373  1.00  0.00     0.115 A 
ATOM     16  C   UNL     1     -20.944 -17.068 -43.936  1.00  0.00     0.016 A 
ATOM     17  C   UNL     1     -20.840 -18.426 -44.252  1.00  0.00     0.047 A 
BRANCH  15  18
ATOM     18  O   UNL     1     -19.466 -20.380 -44.685  1.00  0.00    -0.508 OA
ATOM     19  H   UNL     1     -19.706 -20.734 -45.603  1.00  0.00     0.293 HD
ENDBRANCH  15  18
ENDBRANCH   1  12
BRANCH   2  20
ATOM     20  O   UNL     1     -19.999 -14.252 -45.767  1.00  0.00    -0.502 OA
ATOM     21  H   UNL     1     -20.822 -14.676 -46.177  1.00  0.00     0.293 HD
ENDBRANCH   2  20
BRANCH   6  22
ATOM     22  O   UNL     1     -19.843  -9.689 -43.024  1.00  0.00    -0.507 OA
ATOM     23  H   UNL     1     -20.337  -9.562 -43.894  1.00  0.00     0.293 HD
ENDBRANCH   6  22
BRANCH   8  24
ATOM     24  O   UNL     1     -20.139 -11.391 -38.544  1.00  0.00    -0.508 OA
ATOM     25  H   UNL     1     -19.540 -10.709 -38.094  1.00  0.00     0.293 HD
ENDBRANCH   8  24
TORSDOF 5
ENDMDL
MODEL 6
REMARK VINA RESULT:    -6.622      6.391      9.940
REMARK INTER + INTRA:          -7.905
REMARK INTER:                  -7.619
REMARK INTRA:                  -0.287
REMARK UNBOUND:                -0.122
REMARK SMILES O=c1c(O)c(-c2ccc(O)cc2)oc2cc(O)cc(O)c12
REMARK SMILES IDX 5 1 3 2 2 3 1 4 21 5 19 6 18 7 16 8 15 9 14 10 13 11 6 12
REMARK SMILES IDX 7 13 8 14 9 15 12 16 11 17 10 18 4 20 20 22 17 24
REMARK H PARENT 10 19 4 21 20 23 17 25
REMARK Flexibility Score: inf
ROOT
ATOM      1  C   UNL     1     -19.417 -19.043 -40.941  1.00  0.00     0.180 A 
ATOM      2  C   UNL     1     -18.708 -19.993 -40.182  1.00  0.00     0.208 A 
ATOM      3  C   UNL     1     -18.263 -19.642 -38.898  1.00  0.00     0.238 A 
ATOM      4  O   UNL     1     -17.584 -20.477 -38.245  1.00  0.00    -0.285 OA
ATOM      5  C   UNL     1     -18.546 -18.355 -38.381  1.00  0.00     0.111 A 
ATOM      6  C   UNL     1     -18.177 -17.906 -37.076  1.00  0.00     0.134 A 
ATOM      7  C   UNL     1     -18.393 -16.570 -36.719  1.00  0.00     0.093 A 
ATOM      8  C   UNL     1     -19.022 -15.682 -37.596  1.00  0.00     0.123 A 
ATOM      9  C   UNL     1     -19.438 -16.126 -38.849  1.00  0.00     0.094 A 
ATOM     10  C   UNL     1     -19.204 -17.444 -39.247  1.00  0.00     0.146 A 
ATOM     11  O   UNL     1     -19.608 -17.823 -40.454  1.00  0.00    -0.452 OA
ENDROOT
BRANCH   1  12
ATOM     12  C   UNL     1     -19.939 -19.347 -42.292  1.00  0.00     0.021 A 
ATOM     13  C   UNL     1     -19.119 -19.141 -43.414  1.00  0.00     0.016 A 
ATOM     14  C   UNL     1     -19.599 -19.400 -44.700  1.00  0.00     0.047 A 
ATOM     15  C   UNL     1     -20.909 -19.853 -44.885  1.00  0.00     0.115 A 
ATOM     16  C   UNL     1     -21.263 -19.785 -42.486  1.00  0.00     0.016 A 
ATOM     17  C   UNL     1     -21.741 -20.042 -43.774  1.00  0.00     0.047 A 
BRANCH  15  18
ATOM     18  O   UNL     1     -21.375 -20.107 -46.173  1.00  0.00    -0.508 OA
ATOM     19  H   UNL     1     -21.427 -21.049 -46.541  1.00  0.00     0.293 HD
ENDBRANCH  15  18
ENDBRANCH   1  12
BRANCH   2  20
ATOM     20  O   UNL     1     -18.422 -21.250 -40.719  1.00  0.00    -0.502 OA
ATOM     21  H   UNL     1     -17.481 -21.620 -40.765  1.00  0.00     0.293 HD
ENDBRANCH   2  20
BRANCH   6  22
ATOM     22  O   UNL     1     -17.628 -18.734 -36.092  1.00  0.00    -0.507 OA
ATOM     23  H   UNL     1     -18.137 -19.108 -35.306  1.00  0.00     0.293 HD
ENDBRANCH   6  22
BRANCH   8  24
ATOM     24  O   UNL     1     -19.247 -14.358 -37.227  1.00  0.00    -0.508 OA
ATOM     25  H   UNL     1     -18.620 -13.614 -37.511  1.00  0.00     0.293 HD
ENDBRANCH   8  24
TORSDOF 5
ENDMDL
MODEL 7
REMARK VINA RESULT:    -6.497      2.010      3.087
REMARK INTER + INTRA:          -7.758
REMARK INTER:                  -7.636
REMARK INTRA:                  -0.122
REMARK UNBOUND:                -0.122
REMARK SMILES O=c1c(O)c(-c2ccc(O)cc2)oc2cc(O)cc(O)c12
REMARK SMILES IDX 5 1 3 2 2 3 1 4 21 5 19 6 18 7 16 8 15 9 14 10 13 11 6 12
REMARK SMILES IDX 7 13 8 14 9 15 12 16 11 17 10 18 4 20 20 22 17 24
REMARK H PARENT 10 19 4 21 20 23 17 25
REMARK Flexibility Score: inf
ROOT
ATOM      1  C   UNL     1     -20.121 -12.017 -40.709  1.00  0.00     0.180 A 
ATOM      2  C   UNL     1     -20.073 -13.247 -41.389  1.00  0.00     0.208 A 
ATOM      3  C   UNL     1     -20.376 -13.280 -42.759  1.00  0.00     0.238 A 
ATOM      4  O   UNL     1     -20.384 -14.391 -43.350  1.00  0.00    -0.285 OA
ATOM      5  C   UNL     1     -20.706 -12.082 -43.437  1.00  0.00     0.111 A 
ATOM      6  C   UNL     1     -20.992 -11.992 -44.833  1.00  0.00     0.134 A 
ATOM      7  C   UNL     1     -21.433 -10.777 -45.371  1.00  0.00     0.093 A 
ATOM      8  C   UNL     1     -21.539  -9.633 -44.576  1.00  0.00     0.123 A 
ATOM      9  C   UNL     1     -21.205  -9.697 -43.225  1.00  0.00     0.094 A 
ATOM     10  C   UNL     1     -20.796 -10.903 -42.652  1.00  0.00     0.146 A 
ATOM     11  O   UNL     1     -20.498 -10.922 -41.359  1.00  0.00    -0.452 OA
ENDROOT
BRANCH   1  12
ATOM     12  C   UNL     1     -19.791 -11.898 -39.271  1.00  0.00     0.021 A 
ATOM     13  C   UNL     1     -18.648 -11.180 -38.881  1.00  0.00     0.016 A 
ATOM     14  C   UNL     1     -18.304 -11.075 -37.530  1.00  0.00     0.047 A 
ATOM     15  C   UNL     1     -19.088 -11.697 -36.554  1.00  0.00     0.115 A 
ATOM     16  C   UNL     1     -20.565 -12.538 -38.285  1.00  0.00     0.016 A 
ATOM     17  C   UNL     1     -20.218 -12.432 -36.935  1.00  0.00     0.047 A 
BRANCH  15  18
ATOM     18  O   UNL     1     -18.734 -11.583 -35.211  1.00  0.00    -0.508 OA
ATOM     19  H   UNL     1     -17.934 -12.074 -34.831  1.00  0.00     0.293 HD
ENDBRANCH  15  18
ENDBRANCH   1  12
BRANCH   2  20
ATOM     20  O   UNL     1     -19.766 -14.421 -40.697  1.00  0.00    -0.502 OA
ATOM     21  H   UNL     1     -18.813 -14.724 -40.536  1.00  0.00     0.293 HD
ENDBRANCH   2  20
BRANCH   6  22
ATOM     22  O   UNL     1     -20.830 -13.051 -45.732  1.00  0.00    -0.507 OA
ATOM     23  H   UNL     1     -21.217 -13.973 -45.608  1.00  0.00     0.293 HD
ENDBRANCH   6  22
BRANCH   8  24
ATOM     24  O   UNL     1     -21.964  -8.425 -45.122  1.00  0.00    -0.508 OA
ATOM     25  H   UNL     1     -21.309  -7.766 -45.528  1.00  0.00     0.293 HD
ENDBRANCH   8  24
TORSDOF 5
ENDMDL
MODEL 8
REMARK VINA RESULT:    -6.451      6.629      7.088
REMARK INTER + INTRA:          -7.704
REMARK INTER:                  -7.431
REMARK INTRA:                  -0.274
REMARK UNBOUND:                -0.122
REMARK SMILES O=c1c(O)c(-c2ccc(O)cc2)oc2cc(O)cc(O)c12
REMARK SMILES IDX 5 1 3 2 2 3 1 4 21 5 19 6 18 7 16 8 15 9 14 10 13 11 6 12
REMARK SMILES IDX 7 13 8 14 9 15 12 16 11 17 10 18 4 20 20 22 17 24
REMARK H PARENT 10 19 4 21 20 23 17 25
REMARK Flexibility Score: inf
ROOT
ATOM      1  C   UNL     1     -19.609 -18.564 -41.501  1.00  0.00     0.180 A 
ATOM      2  C   UNL     1     -18.702 -18.264 -42.535  1.00  0.00     0.208 A 
ATOM      3  C   UNL     1     -19.109 -18.436 -43.867  1.00  0.00     0.238 A 
ATOM      4  O   UNL     1     -18.277 -18.217 -44.786  1.00  0.00    -0.285 OA
ATOM      5  C   UNL     1     -20.419 -18.889 -44.152  1.00  0.00     0.111 A 
ATOM      6  C   UNL     1     -20.951 -19.061 -45.466  1.00  0.00     0.134 A 
ATOM      7  C   UNL     1     -22.215 -19.639 -45.630  1.00  0.00     0.093 A 
ATOM      8  C   UNL     1     -22.994 -19.992 -44.525  1.00  0.00     0.123 A 
ATOM      9  C   UNL     1     -22.509 -19.773 -43.238  1.00  0.00     0.094 A 
ATOM     10  C   UNL     1     -21.236 -19.232 -43.044  1.00  0.00     0.146 A 
ATOM     11  O   UNL     1     -20.808 -19.050 -41.800  1.00  0.00    -0.452 OA
ENDROOT
BRANCH   1  12
ATOM     12  C   UNL     1     -19.262 -18.385 -40.074  1.00  0.00     0.021 A 
ATOM     13  C   UNL     1     -19.354 -17.108 -39.495  1.00  0.00     0.016 A 
ATOM     14  C   UNL     1     -19.010 -16.911 -38.155  1.00  0.00     0.047 A 
ATOM     15  C   UNL     1     -18.557 -17.982 -37.380  1.00  0.00     0.115 A 
ATOM     16  C   UNL     1     -18.787 -19.455 -39.293  1.00  0.00     0.016 A 
ATOM     17  C   UNL     1     -18.442 -19.255 -37.953  1.00  0.00     0.047 A 
BRANCH  15  18
ATOM     18  O   UNL     1     -18.218 -17.772 -36.045  1.00  0.00    -0.508 OA
ATOM     19  H   UNL     1     -18.861 -17.330 -35.398  1.00  0.00     0.293 HD
ENDBRANCH  15  18
ENDBRANCH   1  12
BRANCH   2  20
ATOM     20  O   UNL     1     -17.407 -17.839 -42.231  1.00  0.00    -0.502 OA
ATOM     21  H   UNL     1     -16.640 -18.486 -42.096  1.00  0.00     0.293 HD
ENDBRANCH   2  20
BRANCH   6  22
ATOM     22  O   UNL     1     -20.293 -18.656 -46.632  1.00  0.00    -0.507 OA
ATOM     23  H   UNL     1     -20.488 -17.804 -47.135  1.00  0.00     0.293 HD
ENDBRANCH   6  22
BRANCH   8  24
ATOM     24  O   UNL     1     -24.258 -20.552 -44.697  1.00  0.00    -0.508 OA
ATOM     25  H   UNL     1     -25.057 -19.987 -44.960  1.00  0.00     0.293 HD
ENDBRANCH   8  24
TORSDOF 5
ENDMDL
MODEL 9
REMARK VINA RESULT:    -6.426      1.466      3.471
REMARK INTER + INTRA:          -7.675
REMARK INTER:                  -7.483
REMARK INTRA:                  -0.192
REMARK UNBOUND:                -0.122
REMARK SMILES O=c1c(O)c(-c2ccc(O)cc2)oc2cc(O)cc(O)c12
REMARK SMILES IDX 5 1 3 2 2 3 1 4 21 5 19 6 18 7 16 8 15 9 14 10 13 11 6 12
REMARK SMILES IDX 7 13 8 14 9 15 12 16 11 17 10 18 4 20 20 22 17 24
REMARK H PARENT 10 19 4 21 20 23 17 25
REMARK Flexibility Score: inf
ROOT
ATOM      1  C   UNL     1     -20.516 -11.520 -41.992  1.00  0.00     0.180 A 
ATOM      2  C   UNL     1     -21.606 -12.209 -42.554  1.00  0.00     0.208 A 
ATOM      3  C   UNL     1     -21.959 -11.953 -43.888  1.00  0.00     0.238 A 
ATOM      4  O   UNL     1     -22.968 -12.532 -44.368  1.00  0.00    -0.285 OA
ATOM      5  C   UNL     1     -21.209 -11.025 -44.650  1.00  0.00     0.111 A 
ATOM      6  C   UNL     1     -21.454 -10.717 -46.023  1.00  0.00     0.134 A 
ATOM      7  C   UNL     1     -20.732  -9.687 -46.638  1.00  0.00     0.093 A 
ATOM      8  C   UNL     1     -19.731  -8.997 -45.950  1.00  0.00     0.123 A 
ATOM      9  C   UNL     1     -19.445  -9.330 -44.628  1.00  0.00     0.094 A 
ATOM     10  C   UNL     1     -20.172 -10.329 -43.976  1.00  0.00     0.146 A 
ATOM     11  O   UNL     1     -19.874 -10.607 -42.713  1.00  0.00    -0.452 OA
ENDROOT
BRANCH   1  12
ATOM     12  C   UNL     1     -20.068 -11.754 -40.601  1.00  0.00     0.021 A 
ATOM     13  C   UNL     1     -20.171 -10.719 -39.657  1.00  0.00     0.016 A 
ATOM     14  C   UNL     1     -19.733 -10.911 -38.344  1.00  0.00     0.047 A 
ATOM     15  C   UNL     1     -19.174 -12.133 -37.960  1.00  0.00     0.115 A 
ATOM     16  C   UNL     1     -19.486 -12.976 -40.213  1.00  0.00     0.016 A 
ATOM     17  C   UNL     1     -19.048 -13.165 -38.899  1.00  0.00     0.047 A 
BRANCH  15  18
ATOM     18  O   UNL     1     -18.742 -12.311 -36.647  1.00  0.00    -0.508 OA
ATOM     19  H   UNL     1     -19.364 -12.659 -35.928  1.00  0.00     0.293 HD
ENDBRANCH  15  18
ENDBRANCH   1  12
BRANCH   2  20
ATOM     20  O   UNL     1     -22.345 -13.105 -41.778  1.00  0.00    -0.502 OA
ATOM     21  H   UNL     1     -21.982 -14.007 -41.495  1.00  0.00     0.293 HD
ENDBRANCH   2  20
BRANCH   6  22
ATOM     22  O   UNL     1     -22.366 -11.408 -46.826  1.00  0.00    -0.507 OA
ATOM     23  H   UNL     1     -22.707 -11.082 -47.717  1.00  0.00     0.293 HD
ENDBRANCH   6  22
BRANCH   8  24
ATOM     24  O   UNL     1     -19.008  -7.984 -46.575  1.00  0.00    -0.508 OA
ATOM     25  H   UNL     1     -18.476  -7.305 -46.043  1.00  0.00     0.293 HD
ENDBRANCH   8  24
TORSDOF 5
ENDMDL
