MODEL 1
REMARK VINA RESULT:    -6.009      0.000      0.000
REMARK INTER + INTRA:          -6.848
REMARK INTER:                  -6.536
REMARK INTRA:                  -0.312
REMARK UNBOUND:                -0.312
REMARK SMILES C[C@H]1[C@H](C)CC[C@@]2(C(=O)[O-])CC[C@@]3(C)C(=CC[C@H]4[C@@]5(C)CC[C@H](O)C(C)(C)[C@H]5CC[C@@]43C)[C@@H]12
REMARK SMILES IDX 7 1 6 2 11 3 33 4 5 5 12 6 15 7 2 8 3 9 13 10 16 11 1 12
REMARK SMILES IDX 4 13 14 14 31 15 17 16 18 17 30 18 32 19 19 20 29 21 28 22
REMARK SMILES IDX 21 23 20 24 25 25 22 26 23 27 26 28 27 29 8 30 9 31 10 32
REMARK SMILES IDX 24 33
REMARK H PARENT 24 34
REMARK Flexibility Score: inf
ROOT
ATOM      1  C   UNL     1      -4.502 -58.185 -25.989  1.00  0.00     0.017 C 
ATOM      2  C   UNL     1      -5.829 -58.911 -26.361  1.00  0.00     0.014 C 
ATOM      3  C   UNL     1      -4.260 -57.072 -27.039  1.00  0.00     0.014 C 
ATOM      4  C   UNL     1      -4.574 -57.562 -24.537  1.00  0.00     0.030 C 
ATOM      5  C   UNL     1      -6.473 -59.587 -25.149  1.00  0.00     0.004 C 
ATOM      6  C   UNL     1      -2.965 -56.297 -26.783  1.00  0.00     0.013 C 
ATOM      7  C   UNL     1      -3.616 -56.383 -24.281  1.00  0.00    -0.063 C 
ATOM      8  C   UNL     1      -6.027 -57.287 -24.014  1.00  0.00    -0.003 C 
ATOM      9  C   UNL     1      -6.953 -58.549 -24.114  1.00  0.00    -0.011 C 
ATOM     10  C   UNL     1      -2.915 -55.582 -25.394  1.00  0.00    -0.006 C 
ATOM     11  C   UNL     1      -3.333 -56.077 -22.988  1.00  0.00    -0.027 C 
ATOM     12  C   UNL     1      -6.701 -56.056 -24.642  1.00  0.00     0.008 C 
ATOM     13  C   UNL     1      -7.122 -59.227 -22.745  1.00  0.00     0.008 C 
ATOM     14  C   UNL     1      -3.728 -54.251 -25.555  1.00  0.00     0.017 C 
ATOM     15  C   UNL     1      -1.389 -55.351 -24.929  1.00  0.00    -0.020 C 
ATOM     16  C   UNL     1      -2.335 -55.024 -22.542  1.00  0.00     0.032 C 
ATOM     17  C   UNL     1      -1.404 -54.432 -23.656  1.00  0.00     0.006 C 
ATOM     18  C   UNL     1      -0.568 -54.638 -26.036  1.00  0.00     0.008 C 
ATOM     19  C   UNL     1      -0.729 -56.743 -24.603  1.00  0.00     0.012 C 
ATOM     20  C   UNL     1      -0.013 -53.825 -23.144  1.00  0.00    -0.025 C 
ATOM     21  C   UNL     1       0.813 -54.165 -25.578  1.00  0.00     0.005 C 
ATOM     22  C   UNL     1       0.782 -53.186 -24.365  1.00  0.00     0.003 C 
ATOM     23  C   UNL     1       0.894 -54.873 -22.427  1.00  0.00     0.010 C 
ATOM     24  C   UNL     1      -0.402 -52.713 -22.115  1.00  0.00     0.012 C 
ATOM     25  C   UNL     1       2.255 -52.661 -24.009  1.00  0.00    -0.006 C 
ATOM     26  C   UNL     1       2.276 -54.334 -22.026  1.00  0.00     0.033 C 
ATOM     27  C   UNL     1       3.043 -53.768 -23.236  1.00  0.00     0.120 C 
ATOM     28  C   UNL     1       3.061 -52.329 -25.301  1.00  0.00     0.014 C 
ATOM     29  C   UNL     1       2.205 -51.325 -23.202  1.00  0.00     0.014 C 
ENDROOT
BRANCH   1  30
ATOM     30  C   UNL     1      -3.385 -59.233 -26.071  1.00  0.00     0.048 C 
ATOM     31  O   UNL     1      -3.163 -59.852 -27.146  1.00  0.00    -0.550 OA
ATOM     32  O   UNL     1      -2.678 -59.617 -24.937  1.00  0.00    -0.550 OA
ENDBRANCH   1  30
BRANCH  27  33
ATOM     33  O   UNL     1       4.328 -53.329 -22.860  1.00  0.00    -0.393 OA
ATOM     34  H   UNL     1       4.737 -52.857 -23.633  1.00  0.00     0.210 HD
ENDBRANCH  27  33
TORSDOF 2
ENDMDL
MODEL 2
REMARK VINA RESULT:    -5.765      1.798      2.963
REMARK INTER + INTRA:          -6.583
REMARK INTER:                  -6.261
REMARK INTRA:                  -0.321
REMARK UNBOUND:                -0.312
REMARK SMILES C[C@H]1[C@H](C)CC[C@@]2(C(=O)[O-])CC[C@@]3(C)C(=CC[C@H]4[C@@]5(C)CC[C@H](O)C(C)(C)[C@H]5CC[C@@]43C)[C@@H]12
REMARK SMILES IDX 7 1 6 2 11 3 33 4 5 5 12 6 15 7 2 8 3 9 13 10 16 11 1 12
REMARK SMILES IDX 4 13 14 14 31 15 17 16 18 17 30 18 32 19 19 20 29 21 28 22
REMARK SMILES IDX 21 23 20 24 25 25 22 26 23 27 26 28 27 29 8 30 9 31 10 32
REMARK SMILES IDX 24 33
REMARK H PARENT 24 34
REMARK Flexibility Score: inf
ROOT
ATOM      1  C   UNL     1      -5.750 -56.860 -26.061  1.00  0.00     0.017 C 
ATOM      2  C   UNL     1      -7.124 -57.576 -26.226  1.00  0.00     0.014 C 
ATOM      3  C   UNL     1      -5.851 -55.917 -24.836  1.00  0.00     0.014 C 
ATOM      4  C   UNL     1      -4.579 -57.902 -25.854  1.00  0.00     0.030 C 
ATOM      5  C   UNL     1      -6.994 -58.904 -26.972  1.00  0.00     0.004 C 
ATOM      6  C   UNL     1      -4.555 -55.141 -24.586  1.00  0.00     0.013 C 
ATOM      7  C   UNL     1      -3.333 -57.355 -25.133  1.00  0.00    -0.063 C 
ATOM      8  C   UNL     1      -5.035 -59.298 -25.302  1.00  0.00    -0.003 C 
ATOM      9  C   UNL     1      -6.189 -59.934 -26.151  1.00  0.00    -0.011 C 
ATOM     10  C   UNL     1      -3.312 -56.049 -24.315  1.00  0.00    -0.006 C 
ATOM     11  C   UNL     1      -2.172 -58.042 -25.282  1.00  0.00    -0.027 C 
ATOM     12  C   UNL     1      -5.383 -59.301 -23.805  1.00  0.00     0.008 C 
ATOM     13  C   UNL     1      -5.657 -61.033 -27.085  1.00  0.00     0.008 C 
ATOM     14  C   UNL     1      -3.397 -56.474 -22.809  1.00  0.00     0.017 C 
ATOM     15  C   UNL     1      -1.950 -55.273 -24.689  1.00  0.00    -0.020 C 
ATOM     16  C   UNL     1      -0.824 -57.603 -24.739  1.00  0.00     0.032 C 
ATOM     17  C   UNL     1      -0.743 -56.139 -24.181  1.00  0.00     0.006 C 
ATOM     18  C   UNL     1      -1.885 -53.889 -23.990  1.00  0.00     0.008 C 
ATOM     19  C   UNL     1      -1.876 -55.075 -26.249  1.00  0.00     0.012 C 
ATOM     20  C   UNL     1       0.717 -55.480 -24.182  1.00  0.00    -0.025 C 
ATOM     21  C   UNL     1      -0.521 -53.203 -24.097  1.00  0.00     0.005 C 
ATOM     22  C   UNL     1       0.661 -54.037 -23.513  1.00  0.00     0.003 C 
ATOM     23  C   UNL     1       1.344 -55.366 -25.607  1.00  0.00     0.010 C 
ATOM     24  C   UNL     1       1.603 -56.438 -23.321  1.00  0.00     0.012 C 
ATOM     25  C   UNL     1       2.034 -53.213 -23.573  1.00  0.00    -0.006 C 
ATOM     26  C   UNL     1       2.697 -54.637 -25.638  1.00  0.00     0.033 C 
ATOM     27  C   UNL     1       2.601 -53.225 -25.030  1.00  0.00     0.120 C 
ATOM     28  C   UNL     1       1.814 -51.724 -23.169  1.00  0.00     0.014 C 
ATOM     29  C   UNL     1       3.076 -53.766 -22.549  1.00  0.00     0.014 C 
ENDROOT
BRANCH   1  30
ATOM     30  C   UNL     1      -5.523 -56.038 -27.336  1.00  0.00     0.048 C 
ATOM     31  O   UNL     1      -6.293 -55.086 -27.632  1.00  0.00    -0.550 OA
ATOM     32  O   UNL     1      -4.545 -56.399 -28.256  1.00  0.00    -0.550 OA
ENDBRANCH   1  30
BRANCH  27  33
ATOM     33  O   UNL     1       3.836 -52.552 -25.116  1.00  0.00    -0.393 OA
ATOM     34  H   UNL     1       3.803 -51.935 -25.894  1.00  0.00     0.210 HD
ENDBRANCH  27  33
TORSDOF 2
ENDMDL
MODEL 3
REMARK VINA RESULT:    -5.501      1.872      7.979
REMARK INTER + INTRA:          -6.295
REMARK INTER:                  -6.046
REMARK INTRA:                  -0.249
REMARK UNBOUND:                -0.312
REMARK SMILES C[C@H]1[C@H](C)CC[C@@]2(C(=O)[O-])CC[C@@]3(C)C(=CC[C@H]4[C@@]5(C)CC[C@H](O)C(C)(C)[C@H]5CC[C@@]43C)[C@@H]12
REMARK SMILES IDX 7 1 6 2 11 3 33 4 5 5 12 6 15 7 2 8 3 9 13 10 16 11 1 12
REMARK SMILES IDX 4 13 14 14 31 15 17 16 18 17 30 18 32 19 19 20 29 21 28 22
REMARK SMILES IDX 21 23 20 24 25 25 22 26 23 27 26 28 27 29 8 30 9 31 10 32
REMARK SMILES IDX 24 33
REMARK H PARENT 24 34
REMARK Flexibility Score: inf
ROOT
ATOM      1  C   UNL     1       1.330 -53.539 -23.651  1.00  0.00     0.017 C 
ATOM      2  C   UNL     1       2.458 -52.774 -22.895  1.00  0.00     0.014 C 
ATOM      3  C   UNL     1       1.253 -54.970 -23.062  1.00  0.00     0.014 C 
ATOM      4  C   UNL     1      -0.063 -52.808 -23.498  1.00  0.00     0.030 C 
ATOM      5  C   UNL     1       2.256 -51.258 -22.942  1.00  0.00     0.004 C 
ATOM      6  C   UNL     1       0.183 -55.826 -23.744  1.00  0.00     0.013 C 
ATOM      7  C   UNL     1      -1.300 -53.707 -23.682  1.00  0.00    -0.063 C 
ATOM      8  C   UNL     1      -0.177 -51.871 -22.244  1.00  0.00    -0.003 C 
ATOM      9  C   UNL     1       0.996 -50.834 -22.158  1.00  0.00    -0.011 C 
ATOM     10  C   UNL     1      -1.264 -55.246 -23.630  1.00  0.00    -0.006 C 
ATOM     11  C   UNL     1      -2.480 -53.098 -23.967  1.00  0.00    -0.027 C 
ATOM     12  C   UNL     1      -0.354 -52.617 -20.912  1.00  0.00     0.008 C 
ATOM     13  C   UNL     1       0.546 -49.440 -22.622  1.00  0.00     0.008 C 
ATOM     14  C   UNL     1      -1.789 -55.649 -22.209  1.00  0.00     0.017 C 
ATOM     15  C   UNL     1      -2.189 -55.787 -24.834  1.00  0.00    -0.020 C 
ATOM     16  C   UNL     1      -3.777 -53.818 -24.286  1.00  0.00     0.032 C 
ATOM     17  C   UNL     1      -3.671 -55.363 -24.537  1.00  0.00     0.006 C 
ATOM     18  C   UNL     1      -2.135 -57.335 -24.930  1.00  0.00     0.008 C 
ATOM     19  C   UNL     1      -1.693 -55.162 -26.192  1.00  0.00     0.012 C 
ATOM     20  C   UNL     1      -4.836 -55.999 -25.433  1.00  0.00    -0.025 C 
ATOM     21  C   UNL     1      -3.171 -57.935 -25.883  1.00  0.00     0.005 C 
ATOM     22  C   UNL     1      -4.647 -57.576 -25.528  1.00  0.00     0.003 C 
ATOM     23  C   UNL     1      -4.909 -55.398 -26.871  1.00  0.00     0.010 C 
ATOM     24  C   UNL     1      -6.166 -55.661 -24.682  1.00  0.00     0.012 C 
ATOM     25  C   UNL     1      -5.673 -58.319 -26.510  1.00  0.00    -0.006 C 
ATOM     26  C   UNL     1      -5.950 -56.073 -27.778  1.00  0.00     0.033 C 
ATOM     27  C   UNL     1      -5.713 -57.591 -27.893  1.00  0.00     0.120 C 
ATOM     28  C   UNL     1      -5.236 -59.792 -26.770  1.00  0.00     0.014 C 
ATOM     29  C   UNL     1      -7.098 -58.420 -25.876  1.00  0.00     0.014 C 
ENDROOT
BRANCH   1  30
ATOM     30  C   UNL     1       1.748 -53.602 -25.125  1.00  0.00     0.048 C 
ATOM     31  O   UNL     1       1.003 -53.127 -26.024  1.00  0.00    -0.550 OA
ATOM     32  O   UNL     1       2.889 -54.291 -25.517  1.00  0.00    -0.550 OA
ENDBRANCH   1  30
BRANCH  27  33
ATOM     33  O   UNL     1      -6.642 -58.184 -28.770  1.00  0.00    -0.393 OA
ATOM     34  H   UNL     1      -6.200 -58.950 -29.223  1.00  0.00     0.210 HD
ENDBRANCH  27  33
TORSDOF 2
ENDMDL
MODEL 4
REMARK VINA RESULT:    -5.258      3.942      8.912
REMARK INTER + INTRA:          -6.031
REMARK INTER:                  -5.745
REMARK INTRA:                  -0.285
REMARK UNBOUND:                -0.312
REMARK SMILES C[C@H]1[C@H](C)CC[C@@]2(C(=O)[O-])CC[C@@]3(C)C(=CC[C@H]4[C@@]5(C)CC[C@H](O)C(C)(C)[C@H]5CC[C@@]43C)[C@@H]12
REMARK SMILES IDX 7 1 6 2 11 3 33 4 5 5 12 6 15 7 2 8 3 9 13 10 16 11 1 12
REMARK SMILES IDX 4 13 14 14 31 15 17 16 18 17 30 18 32 19 19 20 29 21 28 22
REMARK SMILES IDX 21 23 20 24 25 25 22 26 23 27 26 28 27 29 8 30 9 31 10 32
REMARK SMILES IDX 24 33
REMARK H PARENT 24 34
REMARK Flexibility Score: inf
ROOT
ATOM      1  C   UNL     1      -3.926 -57.121 -24.917  1.00  0.00     0.017 C 
ATOM      2  C   UNL     1      -3.754 -56.310 -23.597  1.00  0.00     0.014 C 
ATOM      3  C   UNL     1      -5.443 -57.342 -25.142  1.00  0.00     0.014 C 
ATOM      4  C   UNL     1      -3.296 -56.355 -26.148  1.00  0.00     0.030 C 
ATOM      5  C   UNL     1      -2.434 -55.538 -23.565  1.00  0.00     0.004 C 
ATOM      6  C   UNL     1      -5.734 -58.148 -26.411  1.00  0.00     0.013 C 
ATOM      7  C   UNL     1      -3.876 -56.735 -27.524  1.00  0.00    -0.063 C 
ATOM      8  C   UNL     1      -3.159 -54.804 -25.955  1.00  0.00    -0.003 C 
ATOM      9  C   UNL     1      -2.406 -54.425 -24.633  1.00  0.00    -0.011 C 
ATOM     10  C   UNL     1      -5.207 -57.483 -27.723  1.00  0.00    -0.006 C 
ATOM     11  C   UNL     1      -3.131 -56.439 -28.620  1.00  0.00    -0.027 C 
ATOM     12  C   UNL     1      -4.484 -54.034 -26.078  1.00  0.00     0.008 C 
ATOM     13  C   UNL     1      -0.952 -54.018 -24.914  1.00  0.00     0.008 C 
ATOM     14  C   UNL     1      -6.265 -56.397 -28.121  1.00  0.00     0.017 C 
ATOM     15  C   UNL     1      -4.966 -58.594 -28.865  1.00  0.00    -0.020 C 
ATOM     16  C   UNL     1      -3.484 -56.829 -30.044  1.00  0.00     0.032 C 
ATOM     17  C   UNL     1      -4.665 -57.847 -30.213  1.00  0.00     0.006 C 
ATOM     18  C   UNL     1      -6.228 -59.475 -29.066  1.00  0.00     0.008 C 
ATOM     19  C   UNL     1      -3.752 -59.508 -28.452  1.00  0.00     0.012 C 
ATOM     20  C   UNL     1      -4.651 -58.703 -31.567  1.00  0.00    -0.025 C 
ATOM     21  C   UNL     1      -6.162 -60.384 -30.296  1.00  0.00     0.005 C 
ATOM     22  C   UNL     1      -5.947 -59.624 -31.640  1.00  0.00     0.003 C 
ATOM     23  C   UNL     1      -3.377 -59.590 -31.726  1.00  0.00     0.010 C 
ATOM     24  C   UNL     1      -4.674 -57.649 -32.722  1.00  0.00     0.012 C 
ATOM     25  C   UNL     1      -5.987 -60.632 -32.886  1.00  0.00    -0.006 C 
ATOM     26  C   UNL     1      -3.398 -60.498 -32.965  1.00  0.00     0.033 C 
ATOM     27  C   UNL     1      -4.637 -61.413 -32.985  1.00  0.00     0.120 C 
ATOM     28  C   UNL     1      -7.125 -61.684 -32.720  1.00  0.00     0.014 C 
ATOM     29  C   UNL     1      -6.312 -59.882 -34.217  1.00  0.00     0.014 C 
ENDROOT
BRANCH   1  30
ATOM     30  C   UNL     1      -3.227 -58.469 -24.703  1.00  0.00     0.048 C 
ATOM     31  O   UNL     1      -2.230 -58.793 -25.403  1.00  0.00    -0.550 OA
ATOM     32  O   UNL     1      -3.747 -59.415 -23.827  1.00  0.00    -0.550 OA
ENDBRANCH   1  30
BRANCH  27  33
ATOM     33  O   UNL     1      -4.612 -62.276 -34.098  1.00  0.00    -0.393 OA
ATOM     34  H   UNL     1      -4.795 -61.740 -34.914  1.00  0.00     0.210 HD
ENDBRANCH  27  33
TORSDOF 2
ENDMDL
MODEL 5
REMARK VINA RESULT:    -4.961      2.687      7.567
REMARK INTER + INTRA:          -5.707
REMARK INTER:                  -5.389
REMARK INTRA:                  -0.318
REMARK UNBOUND:                -0.312
REMARK SMILES C[C@H]1[C@H](C)CC[C@@]2(C(=O)[O-])CC[C@@]3(C)C(=CC[C@H]4[C@@]5(C)CC[C@H](O)C(C)(C)[C@H]5CC[C@@]43C)[C@@H]12
REMARK SMILES IDX 7 1 6 2 11 3 33 4 5 5 12 6 15 7 2 8 3 9 13 10 16 11 1 12
REMARK SMILES IDX 4 13 14 14 31 15 17 16 18 17 30 18 32 19 19 20 29 21 28 22
REMARK SMILES IDX 21 23 20 24 25 25 22 26 23 27 26 28 27 29 8 30 9 31 10 32
REMARK SMILES IDX 24 33
REMARK H PARENT 24 34
REMARK Flexibility Score: inf
ROOT
ATOM      1  C   UNL     1      -1.280 -53.207 -21.556  1.00  0.00     0.017 C 
ATOM      2  C   UNL     1      -0.992 -52.446 -20.228  1.00  0.00     0.014 C 
ATOM      3  C   UNL     1      -1.790 -54.623 -21.189  1.00  0.00     0.014 C 
ATOM      4  C   UNL     1      -2.354 -52.448 -22.433  1.00  0.00     0.030 C 
ATOM      5  C   UNL     1      -1.059 -50.929 -20.409  1.00  0.00     0.004 C 
ATOM      6  C   UNL     1      -2.092 -55.475 -22.425  1.00  0.00     0.013 C 
ATOM      7  C   UNL     1      -3.126 -53.330 -23.434  1.00  0.00    -0.063 C 
ATOM      8  C   UNL     1      -3.292 -51.482 -21.628  1.00  0.00    -0.003 C 
ATOM      9  C   UNL     1      -2.492 -50.465 -20.743  1.00  0.00    -0.011 C 
ATOM     10  C   UNL     1      -3.181 -54.867 -23.367  1.00  0.00    -0.006 C 
ATOM     11  C   UNL     1      -3.743 -52.705 -24.470  1.00  0.00    -0.027 C 
ATOM     12  C   UNL     1      -4.378 -52.195 -20.807  1.00  0.00     0.008 C 
ATOM     13  C   UNL     1      -2.444 -49.074 -21.393  1.00  0.00     0.008 C 
ATOM     14  C   UNL     1      -4.566 -55.229 -22.729  1.00  0.00     0.017 C 
ATOM     15  C   UNL     1      -3.002 -55.418 -24.871  1.00  0.00    -0.020 C 
ATOM     16  C   UNL     1      -4.457 -53.409 -25.609  1.00  0.00     0.032 C 
ATOM     17  C   UNL     1      -4.250 -54.961 -25.707  1.00  0.00     0.006 C 
ATOM     18  C   UNL     1      -2.940 -56.969 -24.896  1.00  0.00     0.008 C 
ATOM     19  C   UNL     1      -1.676 -54.833 -25.485  1.00  0.00     0.012 C 
ATOM     20  C   UNL     1      -4.462 -55.596 -27.162  1.00  0.00    -0.025 C 
ATOM     21  C   UNL     1      -3.020 -57.571 -26.300  1.00  0.00     0.005 C 
ATOM     22  C   UNL     1      -4.305 -57.178 -27.092  1.00  0.00     0.003 C 
ATOM     23  C   UNL     1      -3.482 -55.026 -28.235  1.00  0.00     0.010 C 
ATOM     24  C   UNL     1      -5.924 -55.218 -27.569  1.00  0.00     0.012 C 
ATOM     25  C   UNL     1      -4.361 -57.924 -28.509  1.00  0.00    -0.006 C 
ATOM     26  C   UNL     1      -3.599 -55.702 -29.610  1.00  0.00     0.033 C 
ATOM     27  C   UNL     1      -3.393 -57.226 -29.519  1.00  0.00     0.120 C 
ATOM     28  C   UNL     1      -3.910 -59.410 -28.380  1.00  0.00     0.014 C 
ATOM     29  C   UNL     1      -5.820 -57.985 -29.065  1.00  0.00     0.014 C 
ENDROOT
BRANCH   1  30
ATOM     30  C   UNL     1       0.054 -53.311 -22.306  1.00  0.00     0.048 C 
ATOM     31  O   UNL     1       1.039 -53.899 -21.786  1.00  0.00    -0.550 OA
ATOM     32  O   UNL     1       0.248 -52.654 -23.516  1.00  0.00    -0.550 OA
ENDBRANCH   1  30
BRANCH  27  33
ATOM     33  O   UNL     1      -3.449 -57.822 -30.794  1.00  0.00    -0.393 OA
ATOM     34  H   UNL     1      -2.537 -57.809 -31.186  1.00  0.00     0.210 HD
ENDBRANCH  27  33
TORSDOF 2
ENDMDL
MODEL 6
REMARK VINA RESULT:    -4.940      4.051      6.727
REMARK INTER + INTRA:          -5.685
REMARK INTER:                  -5.378
REMARK INTRA:                  -0.306
REMARK UNBOUND:                -0.312
REMARK SMILES C[C@H]1[C@H](C)CC[C@@]2(C(=O)[O-])CC[C@@]3(C)C(=CC[C@H]4[C@@]5(C)CC[C@H](O)C(C)(C)[C@H]5CC[C@@]43C)[C@@H]12
REMARK SMILES IDX 7 1 6 2 11 3 33 4 5 5 12 6 15 7 2 8 3 9 13 10 16 11 1 12
REMARK SMILES IDX 4 13 14 14 31 15 17 16 18 17 30 18 32 19 19 20 29 21 28 22
REMARK SMILES IDX 21 23 20 24 25 25 22 26 23 27 26 28 27 29 8 30 9 31 10 32
REMARK SMILES IDX 24 33
REMARK H PARENT 24 34
REMARK Flexibility Score: inf
ROOT
ATOM      1  C   UNL     1      -5.852 -59.473 -31.670  1.00  0.00     0.017 C 
ATOM      2  C   UNL     1      -6.292 -60.483 -32.772  1.00  0.00     0.014 C 
ATOM      3  C   UNL     1      -7.125 -59.005 -30.921  1.00  0.00     0.014 C 
ATOM      4  C   UNL     1      -4.833 -60.133 -30.658  1.00  0.00     0.030 C 
ATOM      5  C   UNL     1      -5.160 -61.433 -33.166  1.00  0.00     0.004 C 
ATOM      6  C   UNL     1      -6.815 -57.989 -29.819  1.00  0.00     0.013 C 
ATOM      7  C   UNL     1      -4.773 -59.478 -29.265  1.00  0.00    -0.063 C 
ATOM      8  C   UNL     1      -4.901 -61.699 -30.589  1.00  0.00    -0.003 C 
ATOM      9  C   UNL     1      -4.781 -62.371 -32.000  1.00  0.00    -0.011 C 
ATOM     10  C   UNL     1      -5.850 -58.525 -28.712  1.00  0.00    -0.006 C 
ATOM     11  C   UNL     1      -3.671 -59.715 -28.509  1.00  0.00    -0.027 C 
ATOM     12  C   UNL     1      -6.113 -62.245 -29.817  1.00  0.00     0.008 C 
ATOM     13  C   UNL     1      -3.372 -62.938 -32.233  1.00  0.00     0.008 C 
ATOM     14  C   UNL     1      -6.731 -59.378 -27.736  1.00  0.00     0.017 C 
ATOM     15  C   UNL     1      -5.084 -57.306 -27.988  1.00  0.00    -0.020 C 
ATOM     16  C   UNL     1      -3.385 -59.075 -27.162  1.00  0.00     0.032 C 
ATOM     17  C   UNL     1      -4.316 -57.884 -26.746  1.00  0.00     0.006 C 
ATOM     18  C   UNL     1      -6.087 -56.234 -27.486  1.00  0.00     0.008 C 
ATOM     19  C   UNL     1      -4.080 -56.646 -29.005  1.00  0.00     0.012 C 
ATOM     20  C   UNL     1      -3.690 -56.852 -25.694  1.00  0.00    -0.025 C 
ATOM     21  C   UNL     1      -5.460 -55.174 -26.576  1.00  0.00     0.005 C 
ATOM     22  C   UNL     1      -4.772 -55.754 -25.302  1.00  0.00     0.003 C 
ATOM     23  C   UNL     1      -2.400 -56.144 -26.214  1.00  0.00     0.010 C 
ATOM     24  C   UNL     1      -3.318 -57.713 -24.442  1.00  0.00     0.012 C 
ATOM     25  C   UNL     1      -4.229 -54.580 -24.356  1.00  0.00    -0.006 C 
ATOM     26  C   UNL     1      -1.848 -55.072 -25.262  1.00  0.00     0.033 C 
ATOM     27  C   UNL     1      -2.901 -53.995 -24.939  1.00  0.00     0.120 C 
ATOM     28  C   UNL     1      -5.255 -53.410 -24.265  1.00  0.00     0.014 C 
ATOM     29  C   UNL     1      -4.038 -55.073 -22.886  1.00  0.00     0.014 C 
ENDROOT
BRANCH   1  30
ATOM     30  C   UNL     1      -5.203 -58.285 -32.391  1.00  0.00     0.048 C 
ATOM     31  O   UNL     1      -5.845 -57.630 -33.256  1.00  0.00    -0.550 OA
ATOM     32  O   UNL     1      -3.860 -57.980 -32.204  1.00  0.00    -0.550 OA
ENDBRANCH   1  30
BRANCH  27  33
ATOM     33  O   UNL     1      -2.362 -52.992 -24.109  1.00  0.00    -0.393 OA
ATOM     34  H   UNL     1      -3.090 -52.361 -23.868  1.00  0.00     0.210 HD
ENDBRANCH  27  33
TORSDOF 2
ENDMDL
MODEL 7
REMARK VINA RESULT:    -4.866      4.017      7.880
REMARK INTER + INTRA:          -5.605
REMARK INTER:                  -5.282
REMARK INTRA:                  -0.322
REMARK UNBOUND:                -0.312
REMARK SMILES C[C@H]1[C@H](C)CC[C@@]2(C(=O)[O-])CC[C@@]3(C)C(=CC[C@H]4[C@@]5(C)CC[C@H](O)C(C)(C)[C@H]5CC[C@@]43C)[C@@H]12
REMARK SMILES IDX 7 1 6 2 11 3 33 4 5 5 12 6 15 7 2 8 3 9 13 10 16 11 1 12
REMARK SMILES IDX 4 13 14 14 31 15 17 16 18 17 30 18 32 19 19 20 29 21 28 22
REMARK SMILES IDX 21 23 20 24 25 25 22 26 23 27 26 28 27 29 8 30 9 31 10 32
REMARK SMILES IDX 24 33
REMARK H PARENT 24 34
REMARK Flexibility Score: inf
ROOT
ATOM      1  C   UNL     1      -4.413 -53.390 -24.436  1.00  0.00     0.017 C 
ATOM      2  C   UNL     1      -4.277 -52.630 -23.083  1.00  0.00     0.014 C 
ATOM      3  C   UNL     1      -2.998 -53.517 -25.053  1.00  0.00     0.014 C 
ATOM      4  C   UNL     1      -5.051 -54.823 -24.231  1.00  0.00     0.030 C 
ATOM      5  C   UNL     1      -5.430 -52.946 -22.128  1.00  0.00     0.004 C 
ATOM      6  C   UNL     1      -3.010 -54.238 -26.403  1.00  0.00     0.013 C 
ATOM      7  C   UNL     1      -4.721 -55.852 -25.328  1.00  0.00    -0.063 C 
ATOM      8  C   UNL     1      -4.893 -55.408 -22.783  1.00  0.00    -0.003 C 
ATOM      9  C   UNL     1      -5.398 -54.420 -21.675  1.00  0.00    -0.011 C 
ATOM     10  C   UNL     1      -3.573 -55.694 -26.343  1.00  0.00    -0.006 C 
ATOM     11  C   UNL     1      -5.534 -56.934 -25.436  1.00  0.00    -0.027 C 
ATOM     12  C   UNL     1      -3.481 -55.924 -22.462  1.00  0.00     0.008 C 
ATOM     13  C   UNL     1      -6.785 -54.828 -21.153  1.00  0.00     0.008 C 
ATOM     14  C   UNL     1      -2.402 -56.598 -25.826  1.00  0.00     0.017 C 
ATOM     15  C   UNL     1      -4.143 -56.142 -27.783  1.00  0.00    -0.020 C 
ATOM     16  C   UNL     1      -5.434 -57.994 -26.517  1.00  0.00     0.032 C 
ATOM     17  C   UNL     1      -4.476 -57.675 -27.717  1.00  0.00     0.006 C 
ATOM     18  C   UNL     1      -3.086 -55.919 -28.897  1.00  0.00     0.008 C 
ATOM     19  C   UNL     1      -5.435 -55.305 -28.113  1.00  0.00     0.012 C 
ATOM     20  C   UNL     1      -4.806 -58.438 -29.086  1.00  0.00    -0.025 C 
ATOM     21  C   UNL     1      -3.461 -56.547 -30.242  1.00  0.00     0.005 C 
ATOM     22  C   UNL     1      -3.708 -58.085 -30.182  1.00  0.00     0.003 C 
ATOM     23  C   UNL     1      -6.223 -58.112 -29.651  1.00  0.00     0.010 C 
ATOM     24  C   UNL     1      -4.746 -59.961 -28.735  1.00  0.00     0.012 C 
ATOM     25  C   UNL     1      -3.997 -58.681 -31.642  1.00  0.00    -0.006 C 
ATOM     26  C   UNL     1      -6.514 -58.751 -31.018  1.00  0.00     0.033 C 
ATOM     27  C   UNL     1      -5.463 -58.352 -32.072  1.00  0.00     0.120 C 
ATOM     28  C   UNL     1      -3.046 -58.051 -32.704  1.00  0.00     0.014 C 
ATOM     29  C   UNL     1      -3.716 -60.216 -31.698  1.00  0.00     0.014 C 
ENDROOT
BRANCH   1  30
ATOM     30  C   UNL     1      -5.302 -52.529 -25.341  1.00  0.00     0.048 C 
ATOM     31  O   UNL     1      -4.937 -51.373 -25.688  1.00  0.00    -0.550 OA
ATOM     32  O   UNL     1      -6.580 -52.946 -25.697  1.00  0.00    -0.550 OA
ENDBRANCH   1  30
BRANCH  27  33
ATOM     33  O   UNL     1      -5.775 -58.901 -33.331  1.00  0.00    -0.393 OA
ATOM     34  H   UNL     1      -4.958 -58.874 -33.896  1.00  0.00     0.210 HD
ENDBRANCH  27  33
TORSDOF 2
ENDMDL
MODEL 8
REMARK VINA RESULT:    -4.826      4.358      7.155
REMARK INTER + INTRA:          -5.561
REMARK INTER:                  -5.238
REMARK INTRA:                  -0.323
REMARK UNBOUND:                -0.312
REMARK SMILES C[C@H]1[C@H](C)CC[C@@]2(C(=O)[O-])CC[C@@]3(C)C(=CC[C@H]4[C@@]5(C)CC[C@H](O)C(C)(C)[C@H]5CC[C@@]43C)[C@@H]12
REMARK SMILES IDX 7 1 6 2 11 3 33 4 5 5 12 6 15 7 2 8 3 9 13 10 16 11 1 12
REMARK SMILES IDX 4 13 14 14 31 15 17 16 18 17 30 18 32 19 19 20 29 21 28 22
REMARK SMILES IDX 21 23 20 24 25 25 22 26 23 27 26 28 27 29 8 30 9 31 10 32
REMARK SMILES IDX 24 33
REMARK H PARENT 24 34
REMARK Flexibility Score: inf
ROOT
ATOM      1  C   UNL     1      -3.998 -52.030 -21.272  1.00  0.00     0.017 C 
ATOM      2  C   UNL     1      -5.084 -53.118 -21.018  1.00  0.00     0.014 C 
ATOM      3  C   UNL     1      -3.452 -51.575 -19.896  1.00  0.00     0.014 C 
ATOM      4  C   UNL     1      -2.822 -52.588 -22.170  1.00  0.00     0.030 C 
ATOM      5  C   UNL     1      -5.266 -54.041 -22.224  1.00  0.00     0.004 C 
ATOM      6  C   UNL     1      -2.383 -50.486 -20.021  1.00  0.00     0.013 C 
ATOM      7  C   UNL     1      -1.477 -51.853 -22.021  1.00  0.00    -0.063 C 
ATOM      8  C   UNL     1      -2.666 -54.149 -22.148  1.00  0.00    -0.003 C 
ATOM      9  C   UNL     1      -4.006 -54.894 -22.477  1.00  0.00    -0.011 C 
ATOM     10  C   UNL     1      -1.130 -50.917 -20.848  1.00  0.00    -0.006 C 
ATOM     11  C   UNL     1      -0.570 -52.000 -23.021  1.00  0.00    -0.027 C 
ATOM     12  C   UNL     1      -2.028 -54.701 -20.862  1.00  0.00     0.008 C 
ATOM     13  C   UNL     1      -4.017 -55.413 -23.923  1.00  0.00     0.008 C 
ATOM     14  C   UNL     1      -0.226 -51.750 -19.875  1.00  0.00     0.017 C 
ATOM     15  C   UNL     1      -0.388 -49.628 -21.468  1.00  0.00    -0.020 C 
ATOM     16  C   UNL     1       0.760 -51.274 -23.103  1.00  0.00     0.032 C 
ATOM     17  C   UNL     1       0.977 -50.101 -22.083  1.00  0.00     0.006 C 
ATOM     18  C   UNL     1      -0.088 -48.572 -20.371  1.00  0.00     0.008 C 
ATOM     19  C   UNL     1      -1.304 -48.985 -22.576  1.00  0.00     0.012 C 
ATOM     20  C   UNL     1       2.036 -48.985 -22.529  1.00  0.00    -0.025 C 
ATOM     21  C   UNL     1       0.828 -47.437 -20.835  1.00  0.00     0.005 C 
ATOM     22  C   UNL     1       2.215 -47.914 -21.366  1.00  0.00     0.003 C 
ATOM     23  C   UNL     1       1.646 -48.254 -23.851  1.00  0.00     0.010 C 
ATOM     24  C   UNL     1       3.376 -49.757 -22.760  1.00  0.00     0.012 C 
ATOM     25  C   UNL     1       3.150 -46.666 -21.738  1.00  0.00    -0.006 C 
ATOM     26  C   UNL     1       2.595 -47.107 -24.234  1.00  0.00     0.033 C 
ATOM     27  C   UNL     1       2.710 -46.060 -23.110  1.00  0.00     0.120 C 
ATOM     28  C   UNL     1       3.033 -45.538 -20.669  1.00  0.00     0.014 C 
ATOM     29  C   UNL     1       4.659 -47.067 -21.749  1.00  0.00     0.014 C 
ENDROOT
BRANCH   1  30
ATOM     30  C   UNL     1      -4.700 -50.858 -21.969  1.00  0.00     0.048 C 
ATOM     31  O   UNL     1      -5.611 -50.214 -21.383  1.00  0.00    -0.550 OA
ATOM     32  O   UNL     1      -4.441 -50.559 -23.302  1.00  0.00    -0.550 OA
ENDBRANCH   1  30
BRANCH  27  33
ATOM     33  O   UNL     1       3.539 -44.989 -23.499  1.00  0.00    -0.393 OA
ATOM     34  H   UNL     1       4.437 -45.352 -23.718  1.00  0.00     0.210 HD
ENDBRANCH  27  33
TORSDOF 2
ENDMDL
MODEL 9
REMARK VINA RESULT:    -4.756      5.060      6.563
REMARK INTER + INTRA:          -5.485
REMARK INTER:                  -5.171
REMARK INTRA:                  -0.315
REMARK UNBOUND:                -0.312
REMARK SMILES C[C@H]1[C@H](C)CC[C@@]2(C(=O)[O-])CC[C@@]3(C)C(=CC[C@H]4[C@@]5(C)CC[C@H](O)C(C)(C)[C@H]5CC[C@@]43C)[C@@H]12
REMARK SMILES IDX 7 1 6 2 11 3 33 4 5 5 12 6 15 7 2 8 3 9 13 10 16 11 1 12
REMARK SMILES IDX 4 13 14 14 31 15 17 16 18 17 30 18 32 19 19 20 29 21 28 22
REMARK SMILES IDX 21 23 20 24 25 25 22 26 23 27 26 28 27 29 8 30 9 31 10 32
REMARK SMILES IDX 24 33
REMARK H PARENT 24 34
REMARK Flexibility Score: inf
ROOT
ATOM      1  C   UNL     1      -5.598 -55.313 -25.693  1.00  0.00     0.017 C 
ATOM      2  C   UNL     1      -5.689 -56.853 -25.911  1.00  0.00     0.014 C 
ATOM      3  C   UNL     1      -6.953 -54.836 -25.113  1.00  0.00     0.014 C 
ATOM      4  C   UNL     1      -4.419 -54.940 -24.707  1.00  0.00     0.030 C 
ATOM      5  C   UNL     1      -4.311 -57.517 -25.905  1.00  0.00     0.004 C 
ATOM      6  C   UNL     1      -6.986 -53.324 -24.872  1.00  0.00     0.013 C 
ATOM      7  C   UNL     1      -4.573 -53.590 -23.980  1.00  0.00    -0.063 C 
ATOM      8  C   UNL     1      -3.978 -56.099 -23.746  1.00  0.00    -0.003 C 
ATOM      9  C   UNL     1      -3.649 -57.426 -24.514  1.00  0.00    -0.011 C 
ATOM     10  C   UNL     1      -5.899 -52.815 -23.872  1.00  0.00    -0.006 C 
ATOM     11  C   UNL     1      -3.452 -53.031 -23.457  1.00  0.00    -0.027 C 
ATOM     12  C   UNL     1      -4.949 -56.359 -22.583  1.00  0.00     0.008 C 
ATOM     13  C   UNL     1      -2.133 -57.632 -24.651  1.00  0.00     0.008 C 
ATOM     14  C   UNL     1      -6.457 -53.098 -22.435  1.00  0.00     0.017 C 
ATOM     15  C   UNL     1      -5.567 -51.260 -24.138  1.00  0.00    -0.020 C 
ATOM     16  C   UNL     1      -3.387 -51.663 -22.803  1.00  0.00     0.032 C 
ATOM     17  C   UNL     1      -4.653 -50.752 -22.967  1.00  0.00     0.006 C 
ATOM     18  C   UNL     1      -6.862 -50.405 -24.153  1.00  0.00     0.008 C 
ATOM     19  C   UNL     1      -4.830 -51.116 -25.522  1.00  0.00     0.012 C 
ATOM     20  C   UNL     1      -4.392 -49.177 -22.838  1.00  0.00    -0.025 C 
ATOM     21  C   UNL     1      -6.610 -48.895 -24.153  1.00  0.00     0.005 C 
ATOM     22  C   UNL     1      -5.771 -48.389 -22.940  1.00  0.00     0.003 C 
ATOM     23  C   UNL     1      -3.400 -48.623 -23.908  1.00  0.00     0.010 C 
ATOM     24  C   UNL     1      -3.762 -48.977 -21.421  1.00  0.00     0.012 C 
ATOM     25  C   UNL     1      -5.635 -46.792 -22.960  1.00  0.00    -0.006 C 
ATOM     26  C   UNL     1      -3.223 -47.097 -23.867  1.00  0.00     0.033 C 
ATOM     27  C   UNL     1      -4.568 -46.360 -24.017  1.00  0.00     0.120 C 
ATOM     28  C   UNL     1      -6.983 -46.117 -23.353  1.00  0.00     0.014 C 
ATOM     29  C   UNL     1      -5.293 -46.231 -21.542  1.00  0.00     0.014 C 
ENDROOT
BRANCH   1  30
ATOM     30  C   UNL     1      -5.368 -54.683 -27.072  1.00  0.00     0.048 C 
ATOM     31  O   UNL     1      -6.262 -54.734 -27.959  1.00  0.00    -0.550 OA
ATOM     32  O   UNL     1      -4.131 -54.153 -27.420  1.00  0.00    -0.550 OA
ENDBRANCH   1  30
BRANCH  27  33
ATOM     33  O   UNL     1      -4.380 -44.964 -24.032  1.00  0.00    -0.393 OA
ATOM     34  H   UNL     1      -4.596 -44.609 -23.129  1.00  0.00     0.210 HD
ENDBRANCH  27  33
TORSDOF 2
ENDMDL
