MODEL 1
REMARK VINA RESULT:    -2.989      0.000      0.000
REMARK INTER + INTRA:         -13.633
REMARK INTER:                  -7.883
REMARK INTRA:                  -5.750
REMARK UNBOUND:                -5.750
REMARK SMILES CCCCCCCCCCCCCCCCCCCCCCCCCCCCCC(=O)[O-]
REMARK SMILES IDX 16 1 17 2 18 3 19 4 20 5 21 6 22 7 23 8 24 9 25 10 26 11
REMARK SMILES IDX 27 12 28 13 29 14 30 15 31 16 32 17 15 18 14 19 13 20 12 21
REMARK SMILES IDX 11 22 10 23 9 24 8 25 7 26 6 27 5 28 4 29 3 30 2 31 1 32
REMARK H PARENT
REMARK Flexibility Score: inf
ROOT
ATOM      1  C   UNL     1      53.595  26.724  50.351  1.00  0.00     0.000 C 
ENDROOT
BRANCH   1   2
ATOM      2  C   UNL     1      53.254  28.030  49.615  1.00  0.00     0.000 C 
BRANCH   2   3
ATOM      3  C   UNL     1      53.293  29.258  50.543  1.00  0.00     0.000 C 
BRANCH   3   4
ATOM      4  C   UNL     1      53.024  28.900  52.012  1.00  0.00     0.000 C 
BRANCH   4   5
ATOM      5  C   UNL     1      53.806  29.794  52.992  1.00  0.00     0.000 C 
BRANCH   5   6
ATOM      6  C   UNL     1      53.734  31.281  52.612  1.00  0.00     0.000 C 
BRANCH   6   7
ATOM      7  C   UNL     1      54.899  32.097  53.203  1.00  0.00     0.000 C 
BRANCH   7   8
ATOM      8  C   UNL     1      56.014  31.209  53.780  1.00  0.00     0.000 C 
BRANCH   8   9
ATOM      9  C   UNL     1      57.444  31.597  53.360  1.00  0.00     0.000 C 
BRANCH   9  10
ATOM     10  C   UNL     1      58.554  30.885  54.163  1.00  0.00     0.000 C 
BRANCH  10  11
ATOM     11  C   UNL     1      59.563  30.152  53.260  1.00  0.00     0.000 C 
BRANCH  11  12
ATOM     12  C   UNL     1      60.815  30.993  52.958  1.00  0.00     0.000 C 
BRANCH  12  13
ATOM     13  C   UNL     1      61.814  30.269  52.043  1.00  0.00     0.006 C 
BRANCH  13  14
ATOM     14  C   UNL     1      61.657  30.725  50.589  1.00  0.00     0.053 C 
BRANCH  14  15
ATOM     15  C   UNL     1      62.836  30.310  49.762  1.00  0.00     0.041 C 
ATOM     16  O   UNL     1      63.275  29.131  49.826  1.00  0.00    -0.550 OA
ATOM     17  O   UNL     1      63.436  31.223  48.902  1.00  0.00    -0.550 OA
ENDBRANCH  14  15
ENDBRANCH  13  14
ENDBRANCH  12  13
ENDBRANCH  11  12
ENDBRANCH  10  11
ENDBRANCH   9  10
ENDBRANCH   8   9
ENDBRANCH   7   8
ENDBRANCH   6   7
ENDBRANCH   5   6
ENDBRANCH   4   5
ENDBRANCH   3   4
ENDBRANCH   2   3
ENDBRANCH   1   2
BRANCH   1  18
ATOM     18  C   UNL     1      54.632  25.874  49.599  1.00  0.00     0.000 C 
BRANCH  18  19
ATOM     19  C   UNL     1      56.062  26.262  50.008  1.00  0.00     0.000 C 
BRANCH  19  20
ATOM     20  C   UNL     1      56.201  26.510  51.519  1.00  0.00     0.000 C 
BRANCH  20  21
ATOM     21  C   UNL     1      56.746  27.912  51.838  1.00  0.00     0.000 C 
BRANCH  21  22
ATOM     22  C   UNL     1      56.884  28.797  50.587  1.00  0.00     0.000 C 
BRANCH  22  23
ATOM     23  C   UNL     1      58.323  29.224  50.239  1.00  0.00     0.000 C 
BRANCH  23  24
ATOM     24  C   UNL     1      58.889  28.625  48.937  1.00  0.00    -0.000 C 
BRANCH  24  25
ATOM     25  C   UNL     1      60.098  27.685  49.119  1.00  0.00    -0.000 C 
BRANCH  25  26
ATOM     26  C   UNL     1      59.841  26.458  50.017  1.00  0.00    -0.000 C 
BRANCH  26  27
ATOM     27  C   UNL     1      60.855  26.265  51.158  1.00  0.00    -0.000 C 
BRANCH  27  28
ATOM     28  C   UNL     1      60.324  26.764  52.513  1.00  0.00    -0.000 C 
BRANCH  28  29
ATOM     29  C   UNL     1      59.901  25.611  53.440  1.00  0.00    -0.000 C 
BRANCH  29  30
ATOM     30  C   UNL     1      60.554  24.273  53.048  1.00  0.00    -0.000 C 
BRANCH  30  31
ATOM     31  C   UNL     1      59.554  23.106  53.053  1.00  0.00    -0.003 C 
ATOM     32  C   UNL     1      58.142  23.534  52.651  1.00  0.00     0.004 C 
ENDBRANCH  30  31
ENDBRANCH  29  30
ENDBRANCH  28  29
ENDBRANCH  27  28
ENDBRANCH  26  27
ENDBRANCH  25  26
ENDBRANCH  24  25
ENDBRANCH  23  24
ENDBRANCH  22  23
ENDBRANCH  21  22
ENDBRANCH  20  21
ENDBRANCH  19  20
ENDBRANCH  18  19
ENDBRANCH   1  18
TORSDOF 28
ENDMDL
MODEL 2
REMARK VINA RESULT:    -2.890      2.733      6.454
REMARK INTER + INTRA:         -13.371
REMARK INTER:                  -6.676
REMARK INTRA:                  -6.695
REMARK UNBOUND:                -5.750
REMARK SMILES CCCCCCCCCCCCCCCCCCCCCCCCCCCCCC(=O)[O-]
REMARK SMILES IDX 16 1 17 2 18 3 19 4 20 5 21 6 22 7 23 8 24 9 25 10 26 11
REMARK SMILES IDX 27 12 28 13 29 14 30 15 31 16 32 17 15 18 14 19 13 20 12 21
REMARK SMILES IDX 11 22 10 23 9 24 8 25 7 26 6 27 5 28 4 29 3 30 2 31 1 32
REMARK H PARENT
REMARK Flexibility Score: inf
ROOT
ATOM      1  C   UNL     1      60.784  26.217  49.788  1.00  0.00     0.000 C 
ENDROOT
BRANCH   1   2
ATOM      2  C   UNL     1      61.970  27.056  49.284  1.00  0.00     0.000 C 
BRANCH   2   3
ATOM      3  C   UNL     1      63.330  26.468  49.702  1.00  0.00     0.000 C 
BRANCH   3   4
ATOM      4  C   UNL     1      64.517  27.245  49.114  1.00  0.00     0.000 C 
BRANCH   4   5
ATOM      5  C   UNL     1      64.103  28.167  47.952  1.00  0.00     0.000 C 
BRANCH   5   6
ATOM      6  C   UNL     1      64.346  29.652  48.268  1.00  0.00     0.000 C 
BRANCH   6   7
ATOM      7  C   UNL     1      64.622  29.899  49.762  1.00  0.00     0.000 C 
BRANCH   7   8
ATOM      8  C   UNL     1      63.627  30.886  50.395  1.00  0.00     0.000 C 
BRANCH   8   9
ATOM      9  C   UNL     1      62.156  30.426  50.392  1.00  0.00     0.000 C 
BRANCH   9  10
ATOM     10  C   UNL     1      61.507  30.379  51.793  1.00  0.00     0.000 C 
BRANCH  10  11
ATOM     11  C   UNL     1      61.316  28.942  52.310  1.00  0.00     0.000 C 
BRANCH  11  12
ATOM     12  C   UNL     1      62.629  28.299  52.787  1.00  0.00     0.000 C 
BRANCH  12  13
ATOM     13  C   UNL     1      62.406  27.173  53.809  1.00  0.00     0.006 C 
BRANCH  13  14
ATOM     14  C   UNL     1      62.485  25.799  53.137  1.00  0.00     0.053 C 
BRANCH  14  15
ATOM     15  C   UNL     1      63.705  25.050  53.581  1.00  0.00     0.041 C 
ATOM     16  O   UNL     1      64.317  24.298  52.777  1.00  0.00    -0.550 OA
ATOM     17  O   UNL     1      64.178  25.201  54.879  1.00  0.00    -0.550 OA
ENDBRANCH  14  15
ENDBRANCH  13  14
ENDBRANCH  12  13
ENDBRANCH  11  12
ENDBRANCH  10  11
ENDBRANCH   9  10
ENDBRANCH   8   9
ENDBRANCH   7   8
ENDBRANCH   6   7
ENDBRANCH   5   6
ENDBRANCH   4   5
ENDBRANCH   3   4
ENDBRANCH   2   3
ENDBRANCH   1   2
BRANCH   1  18
ATOM     18  C   UNL     1      59.425  26.809  49.383  1.00  0.00     0.000 C 
BRANCH  18  19
ATOM     19  C   UNL     1      59.551  28.307  49.064  1.00  0.00     0.000 C 
BRANCH  19  20
ATOM     20  C   UNL     1      58.289  29.102  49.437  1.00  0.00     0.000 C 
BRANCH  20  21
ATOM     21  C   UNL     1      58.019  29.101  50.951  1.00  0.00     0.000 C 
BRANCH  21  22
ATOM     22  C   UNL     1      56.547  28.811  51.294  1.00  0.00     0.000 C 
BRANCH  22  23
ATOM     23  C   UNL     1      55.800  27.920  50.283  1.00  0.00     0.000 C 
BRANCH  23  24
ATOM     24  C   UNL     1      55.918  26.403  50.532  1.00  0.00    -0.000 C 
BRANCH  24  25
ATOM     25  C   UNL     1      55.356  25.916  51.883  1.00  0.00    -0.000 C 
BRANCH  25  26
ATOM     26  C   UNL     1      56.401  25.332  52.853  1.00  0.00    -0.000 C 
BRANCH  26  27
ATOM     27  C   UNL     1      57.823  25.206  52.278  1.00  0.00    -0.000 C 
BRANCH  27  28
ATOM     28  C   UNL     1      58.816  26.180  52.933  1.00  0.00    -0.000 C 
BRANCH  28  29
ATOM     29  C   UNL     1      58.545  26.376  54.435  1.00  0.00    -0.000 C 
BRANCH  29  30
ATOM     30  C   UNL     1      58.922  27.788  54.921  1.00  0.00    -0.000 C 
BRANCH  30  31
ATOM     31  C   UNL     1      57.800  28.812  54.682  1.00  0.00    -0.003 C 
ATOM     32  C   UNL     1      56.428  28.301  55.121  1.00  0.00     0.004 C 
ENDBRANCH  30  31
ENDBRANCH  29  30
ENDBRANCH  28  29
ENDBRANCH  27  28
ENDBRANCH  26  27
ENDBRANCH  25  26
ENDBRANCH  24  25
ENDBRANCH  23  24
ENDBRANCH  22  23
ENDBRANCH  21  22
ENDBRANCH  20  21
ENDBRANCH  19  20
ENDBRANCH  18  19
ENDBRANCH   1  18
TORSDOF 28
ENDMDL
MODEL 3
REMARK VINA RESULT:    -2.877      8.627     12.411
REMARK INTER + INTRA:         -13.335
REMARK INTER:                  -7.017
REMARK INTRA:                  -6.318
REMARK UNBOUND:                -5.750
REMARK SMILES CCCCCCCCCCCCCCCCCCCCCCCCCCCCCC(=O)[O-]
REMARK SMILES IDX 16 1 17 2 18 3 19 4 20 5 21 6 22 7 23 8 24 9 25 10 26 11
REMARK SMILES IDX 27 12 28 13 29 14 30 15 31 16 32 17 15 18 14 19 13 20 12 21
REMARK SMILES IDX 11 22 10 23 9 24 8 25 7 26 6 27 5 28 4 29 3 30 2 31 1 32
REMARK H PARENT
REMARK Flexibility Score: inf
ROOT
ATOM      1  C   UNL     1      64.676  31.688  59.819  1.00  0.00     0.000 C 
ENDROOT
BRANCH   1   2
ATOM      2  C   UNL     1      64.143  31.740  61.260  1.00  0.00     0.000 C 
BRANCH   2   3
ATOM      3  C   UNL     1      63.032  30.704  61.517  1.00  0.00     0.000 C 
BRANCH   3   4
ATOM      4  C   UNL     1      61.624  31.297  61.366  1.00  0.00     0.000 C 
BRANCH   4   5
ATOM      5  C   UNL     1      60.803  30.601  60.265  1.00  0.00     0.000 C 
BRANCH   5   6
ATOM      6  C   UNL     1      60.637  31.480  59.015  1.00  0.00     0.000 C 
BRANCH   6   7
ATOM      7  C   UNL     1      61.470  30.974  57.824  1.00  0.00     0.000 C 
BRANCH   7   8
ATOM      8  C   UNL     1      61.966  29.530  58.016  1.00  0.00     0.000 C 
BRANCH   8   9
ATOM      9  C   UNL     1      63.375  29.243  57.464  1.00  0.00     0.000 C 
BRANCH   9  10
ATOM     10  C   UNL     1      64.077  28.036  58.124  1.00  0.00     0.000 C 
BRANCH  10  11
ATOM     11  C   UNL     1      63.458  27.660  59.483  1.00  0.00     0.000 C 
BRANCH  11  12
ATOM     12  C   UNL     1      64.439  27.835  60.655  1.00  0.00     0.000 C 
BRANCH  12  13
ATOM     13  C   UNL     1      65.905  27.899  60.201  1.00  0.00     0.006 C 
BRANCH  13  14
ATOM     14  C   UNL     1      66.711  28.860  61.081  1.00  0.00     0.053 C 
BRANCH  14  15
ATOM     15  C   UNL     1      68.118  28.997  60.584  1.00  0.00     0.041 C 
ATOM     16  O   UNL     1      69.039  28.297  61.082  1.00  0.00    -0.550 OA
ATOM     17  O   UNL     1      68.407  29.884  59.554  1.00  0.00    -0.550 OA
ENDBRANCH  14  15
ENDBRANCH  13  14
ENDBRANCH  12  13
ENDBRANCH  11  12
ENDBRANCH  10  11
ENDBRANCH   9  10
ENDBRANCH   8   9
ENDBRANCH   7   8
ENDBRANCH   6   7
ENDBRANCH   5   6
ENDBRANCH   4   5
ENDBRANCH   3   4
ENDBRANCH   2   3
ENDBRANCH   1   2
BRANCH   1  18
ATOM     18  C   UNL     1      64.290  32.929  59.000  1.00  0.00     0.000 C 
BRANCH  18  19
ATOM     19  C   UNL     1      64.983  32.921  57.629  1.00  0.00     0.000 C 
BRANCH  19  20
ATOM     20  C   UNL     1      66.202  33.857  57.574  1.00  0.00     0.000 C 
BRANCH  20  21
ATOM     21  C   UNL     1      65.805  35.342  57.567  1.00  0.00     0.000 C 
BRANCH  21  22
ATOM     22  C   UNL     1      66.385  36.121  58.760  1.00  0.00     0.000 C 
BRANCH  22  23
ATOM     23  C   UNL     1      65.347  36.637  59.776  1.00  0.00     0.000 C 
BRANCH  23  24
ATOM     24  C   UNL     1      65.509  36.099  61.211  1.00  0.00    -0.000 C 
BRANCH  24  25
ATOM     25  C   UNL     1      64.279  35.361  61.777  1.00  0.00    -0.000 C 
BRANCH  25  26
ATOM     26  C   UNL     1      62.918  35.879  61.273  1.00  0.00    -0.000 C 
BRANCH  26  27
ATOM     27  C   UNL     1      61.921  34.784  60.854  1.00  0.00    -0.000 C 
BRANCH  27  28
ATOM     28  C   UNL     1      61.132  35.156  59.587  1.00  0.00    -0.000 C 
BRANCH  28  29
ATOM     29  C   UNL     1      61.736  36.364  58.850  1.00  0.00    -0.000 C 
BRANCH  29  30
ATOM     30  C   UNL     1      61.469  36.321  57.334  1.00  0.00    -0.000 C 
BRANCH  30  31
ATOM     31  C   UNL     1      62.315  35.257  56.617  1.00  0.00    -0.003 C 
ATOM     32  C   UNL     1      61.464  34.174  55.953  1.00  0.00     0.004 C 
ENDBRANCH  30  31
ENDBRANCH  29  30
ENDBRANCH  28  29
ENDBRANCH  27  28
ENDBRANCH  26  27
ENDBRANCH  25  26
ENDBRANCH  24  25
ENDBRANCH  23  24
ENDBRANCH  22  23
ENDBRANCH  21  22
ENDBRANCH  20  21
ENDBRANCH  19  20
ENDBRANCH  18  19
ENDBRANCH   1  18
TORSDOF 28
ENDMDL
MODEL 4
REMARK VINA RESULT:    -2.876      3.134      6.158
REMARK INTER + INTRA:         -13.333
REMARK INTER:                  -7.643
REMARK INTRA:                  -5.690
REMARK UNBOUND:                -5.750
REMARK SMILES CCCCCCCCCCCCCCCCCCCCCCCCCCCCCC(=O)[O-]
REMARK SMILES IDX 16 1 17 2 18 3 19 4 20 5 21 6 22 7 23 8 24 9 25 10 26 11
REMARK SMILES IDX 27 12 28 13 29 14 30 15 31 16 32 17 15 18 14 19 13 20 12 21
REMARK SMILES IDX 11 22 10 23 9 24 8 25 7 26 6 27 5 28 4 29 3 30 2 31 1 32
REMARK H PARENT
REMARK Flexibility Score: inf
ROOT
ATOM      1  C   UNL     1      59.752  28.752  50.389  1.00  0.00     0.000 C 
ENDROOT
BRANCH   1   2
ATOM      2  C   UNL     1      58.387  28.990  51.054  1.00  0.00     0.000 C 
BRANCH   2   3
ATOM      3  C   UNL     1      57.225  28.966  50.043  1.00  0.00     0.000 C 
BRANCH   3   4
ATOM      4  C   UNL     1      56.151  27.928  50.400  1.00  0.00     0.000 C 
BRANCH   4   5
ATOM      5  C   UNL     1      54.726  28.507  50.343  1.00  0.00     0.000 C 
BRANCH   5   6
ATOM      6  C   UNL     1      53.732  27.551  49.664  1.00  0.00     0.000 C 
BRANCH   6   7
ATOM      7  C   UNL     1      54.339  26.161  49.399  1.00  0.00     0.000 C 
BRANCH   7   8
ATOM      8  C   UNL     1      53.442  25.017  49.901  1.00  0.00     0.000 C 
BRANCH   8   9
ATOM      9  C   UNL     1      53.176  25.010  51.419  1.00  0.00     0.000 C 
BRANCH   9  10
ATOM     10  C   UNL     1      54.448  25.153  52.283  1.00  0.00     0.000 C 
BRANCH  10  11
ATOM     11  C   UNL     1      54.321  26.258  53.348  1.00  0.00     0.000 C 
BRANCH  11  12
ATOM     12  C   UNL     1      55.684  26.763  53.850  1.00  0.00     0.000 C 
BRANCH  12  13
ATOM     13  C   UNL     1      55.742  28.293  53.984  1.00  0.00     0.006 C 
BRANCH  13  14
ATOM     14  C   UNL     1      57.039  28.735  54.668  1.00  0.00     0.053 C 
BRANCH  14  15
ATOM     15  C   UNL     1      57.099  28.242  56.083  1.00  0.00     0.041 C 
ATOM     16  O   UNL     1      58.093  27.581  56.484  1.00  0.00    -0.550 OA
ATOM     17  O   UNL     1      56.065  28.534  56.964  1.00  0.00    -0.550 OA
ENDBRANCH  14  15
ENDBRANCH  13  14
ENDBRANCH  12  13
ENDBRANCH  11  12
ENDBRANCH  10  11
ENDBRANCH   9  10
ENDBRANCH   8   9
ENDBRANCH   7   8
ENDBRANCH   6   7
ENDBRANCH   5   6
ENDBRANCH   4   5
ENDBRANCH   3   4
ENDBRANCH   2   3
ENDBRANCH   1   2
BRANCH   1  18
ATOM     18  C   UNL     1      59.706  27.650  49.319  1.00  0.00     0.000 C 
BRANCH  18  19
ATOM     19  C   UNL     1      59.909  26.263  49.950  1.00  0.00     0.000 C 
BRANCH  19  20
ATOM     20  C   UNL     1      58.622  25.420  49.958  1.00  0.00     0.000 C 
BRANCH  20  21
ATOM     21  C   UNL     1      58.052  25.231  51.373  1.00  0.00     0.000 C 
BRANCH  21  22
ATOM     22  C   UNL     1      59.094  24.697  52.371  1.00  0.00     0.000 C 
BRANCH  22  23
ATOM     23  C   UNL     1      59.238  25.512  53.671  1.00  0.00     0.000 C 
BRANCH  23  24
ATOM     24  C   UNL     1      59.892  26.898  53.508  1.00  0.00    -0.000 C 
BRANCH  24  25
ATOM     25  C   UNL     1      61.353  26.992  53.992  1.00  0.00    -0.000 C 
BRANCH  25  26
ATOM     26  C   UNL     1      62.418  26.819  52.891  1.00  0.00    -0.000 C 
BRANCH  26  27
ATOM     27  C   UNL     1      62.708  25.362  52.490  1.00  0.00    -0.000 C 
BRANCH  27  28
ATOM     28  C   UNL     1      63.859  25.244  51.477  1.00  0.00    -0.000 C 
BRANCH  28  29
ATOM     29  C   UNL     1      63.426  25.611  50.047  1.00  0.00    -0.000 C 
BRANCH  29  30
ATOM     30  C   UNL     1      64.250  26.773  49.464  1.00  0.00    -0.000 C 
BRANCH  30  31
ATOM     31  C   UNL     1      63.389  27.760  48.659  1.00  0.00    -0.003 C 
ATOM     32  C   UNL     1      64.197  28.546  47.627  1.00  0.00     0.004 C 
ENDBRANCH  30  31
ENDBRANCH  29  30
ENDBRANCH  28  29
ENDBRANCH  27  28
ENDBRANCH  26  27
ENDBRANCH  25  26
ENDBRANCH  24  25
ENDBRANCH  23  24
ENDBRANCH  22  23
ENDBRANCH  21  22
ENDBRANCH  20  21
ENDBRANCH  19  20
ENDBRANCH  18  19
ENDBRANCH   1  18
TORSDOF 28
ENDMDL
MODEL 5
REMARK VINA RESULT:    -2.853      3.788      8.835
REMARK INTER + INTRA:         -13.273
REMARK INTER:                  -7.255
REMARK INTRA:                  -6.018
REMARK UNBOUND:                -5.750
REMARK SMILES CCCCCCCCCCCCCCCCCCCCCCCCCCCCCC(=O)[O-]
REMARK SMILES IDX 16 1 17 2 18 3 19 4 20 5 21 6 22 7 23 8 24 9 25 10 26 11
REMARK SMILES IDX 27 12 28 13 29 14 30 15 31 16 32 17 15 18 14 19 13 20 12 21
REMARK SMILES IDX 11 22 10 23 9 24 8 25 7 26 6 27 5 28 4 29 3 30 2 31 1 32
REMARK H PARENT
REMARK Flexibility Score: inf
ROOT
ATOM      1  C   UNL     1      62.650  31.900  49.290  1.00  0.00     0.000 C 
ENDROOT
BRANCH   1   2
ATOM      2  C   UNL     1      63.556  30.668  49.134  1.00  0.00     0.000 C 
BRANCH   2   3
ATOM      3  C   UNL     1      63.825  29.959  50.475  1.00  0.00     0.000 C 
BRANCH   3   4
ATOM      4  C   UNL     1      65.055  29.041  50.422  1.00  0.00     0.000 C 
BRANCH   4   5
ATOM      5  C   UNL     1      64.689  27.552  50.568  1.00  0.00     0.000 C 
BRANCH   5   6
ATOM      6  C   UNL     1      63.543  27.137  49.631  1.00  0.00     0.000 C 
BRANCH   6   7
ATOM      7  C   UNL     1      62.720  25.962  50.192  1.00  0.00     0.000 C 
BRANCH   7   8
ATOM      8  C   UNL     1      61.262  26.349  50.493  1.00  0.00     0.000 C 
BRANCH   8   9
ATOM      9  C   UNL     1      61.079  27.398  51.606  1.00  0.00     0.000 C 
BRANCH   9  10
ATOM     10  C   UNL     1      60.477  28.735  51.122  1.00  0.00     0.000 C 
BRANCH  10  11
ATOM     11  C   UNL     1      60.256  28.767  49.598  1.00  0.00     0.000 C 
BRANCH  11  12
ATOM     12  C   UNL     1      58.800  29.079  49.213  1.00  0.00     0.000 C 
BRANCH  12  13
ATOM     13  C   UNL     1      57.834  28.982  50.404  1.00  0.00     0.006 C 
BRANCH  13  14
ATOM     14  C   UNL     1      56.881  27.793  50.243  1.00  0.00     0.053 C 
BRANCH  14  15
ATOM     15  C   UNL     1      57.497  26.532  50.771  1.00  0.00     0.041 C 
ATOM     16  O   UNL     1      57.625  26.359  52.012  1.00  0.00    -0.550 OA
ATOM     17  O   UNL     1      57.908  25.539  49.891  1.00  0.00    -0.550 OA
ENDBRANCH  14  15
ENDBRANCH  13  14
ENDBRANCH  12  13
ENDBRANCH  11  12
ENDBRANCH  10  11
ENDBRANCH   9  10
ENDBRANCH   8   9
ENDBRANCH   7   8
ENDBRANCH   6   7
ENDBRANCH   5   6
ENDBRANCH   4   5
ENDBRANCH   3   4
ENDBRANCH   2   3
ENDBRANCH   1   2
BRANCH   1  18
ATOM     18  C   UNL     1      62.081  32.041  50.710  1.00  0.00     0.000 C 
BRANCH  18  19
ATOM     19  C   UNL     1      62.122  33.505  51.176  1.00  0.00     0.000 C 
BRANCH  19  20
ATOM     20  C   UNL     1      63.022  33.712  52.406  1.00  0.00     0.000 C 
BRANCH  20  21
ATOM     21  C   UNL     1      64.503  33.884  52.030  1.00  0.00     0.000 C 
BRANCH  21  22
ATOM     22  C   UNL     1      64.697  34.617  50.691  1.00  0.00     0.000 C 
BRANCH  22  23
ATOM     23  C   UNL     1      65.698  33.959  49.721  1.00  0.00     0.000 C 
BRANCH  23  24
ATOM     24  C   UNL     1      66.429  32.719  50.273  1.00  0.00    -0.000 C 
BRANCH  24  25
ATOM     25  C   UNL     1      67.092  31.822  49.209  1.00  0.00    -0.000 C 
BRANCH  25  26
ATOM     26  C   UNL     1      66.604  32.052  47.765  1.00  0.00    -0.000 C 
BRANCH  26  27
ATOM     27  C   UNL     1      67.129  31.039  46.733  1.00  0.00    -0.000 C 
BRANCH  27  28
ATOM     28  C   UNL     1      67.043  29.587  47.233  1.00  0.00    -0.000 C 
BRANCH  28  29
ATOM     29  C   UNL     1      65.749  28.885  46.785  1.00  0.00    -0.000 C 
BRANCH  29  30
ATOM     30  C   UNL     1      65.837  27.353  46.911  1.00  0.00    -0.000 C 
BRANCH  30  31
ATOM     31  C   UNL     1      67.077  26.897  47.698  1.00  0.00    -0.003 C 
ATOM     32  C   UNL     1      66.900  25.518  48.334  1.00  0.00     0.004 C 
ENDBRANCH  30  31
ENDBRANCH  29  30
ENDBRANCH  28  29
ENDBRANCH  27  28
ENDBRANCH  26  27
ENDBRANCH  25  26
ENDBRANCH  24  25
ENDBRANCH  23  24
ENDBRANCH  22  23
ENDBRANCH  21  22
ENDBRANCH  20  21
ENDBRANCH  19  20
ENDBRANCH  18  19
ENDBRANCH   1  18
TORSDOF 28
ENDMDL
MODEL 6
REMARK VINA RESULT:    -2.847      2.206      5.597
REMARK INTER + INTRA:         -13.257
REMARK INTER:                  -7.819
REMARK INTRA:                  -5.439
REMARK UNBOUND:                -5.750
REMARK SMILES CCCCCCCCCCCCCCCCCCCCCCCCCCCCCC(=O)[O-]
REMARK SMILES IDX 16 1 17 2 18 3 19 4 20 5 21 6 22 7 23 8 24 9 25 10 26 11
REMARK SMILES IDX 27 12 28 13 29 14 30 15 31 16 32 17 15 18 14 19 13 20 12 21
REMARK SMILES IDX 11 22 10 23 9 24 8 25 7 26 6 27 5 28 4 29 3 30 2 31 1 32
REMARK H PARENT
REMARK Flexibility Score: inf
ROOT
ATOM      1  C   UNL     1      58.558  29.193  51.017  1.00  0.00     0.000 C 
ENDROOT
BRANCH   1   2
ATOM      2  C   UNL     1      58.515  29.070  49.485  1.00  0.00     0.000 C 
BRANCH   2   3
ATOM      3  C   UNL     1      59.681  28.233  48.927  1.00  0.00     0.000 C 
BRANCH   3   4
ATOM      4  C   UNL     1      59.609  26.759  49.354  1.00  0.00     0.000 C 
BRANCH   4   5
ATOM      5  C   UNL     1      60.949  26.237  49.904  1.00  0.00     0.000 C 
BRANCH   5   6
ATOM      6  C   UNL     1      62.119  27.183  49.592  1.00  0.00     0.000 C 
BRANCH   6   7
ATOM      7  C   UNL     1      63.029  27.418  50.811  1.00  0.00     0.000 C 
BRANCH   7   8
ATOM      8  C   UNL     1      63.334  28.907  51.046  1.00  0.00     0.000 C 
BRANCH   8   9
ATOM      9  C   UNL     1      62.101  29.797  51.296  1.00  0.00     0.000 C 
BRANCH   9  10
ATOM     10  C   UNL     1      61.822  30.820  50.173  1.00  0.00     0.000 C 
BRANCH  10  11
ATOM     11  C   UNL     1      63.072  31.128  49.328  1.00  0.00     0.000 C 
BRANCH  11  12
ATOM     12  C   UNL     1      63.437  32.622  49.326  1.00  0.00     0.000 C 
BRANCH  12  13
ATOM     13  C   UNL     1      62.233  33.531  49.619  1.00  0.00     0.006 C 
BRANCH  13  14
ATOM     14  C   UNL     1      62.583  34.579  50.681  1.00  0.00     0.053 C 
BRANCH  14  15
ATOM     15  C   UNL     1      61.418  34.839  51.588  1.00  0.00     0.041 C 
ATOM     16  O   UNL     1      60.267  35.021  51.108  1.00  0.00    -0.550 OA
ATOM     17  O   UNL     1      61.601  34.856  52.965  1.00  0.00    -0.550 OA
ENDBRANCH  14  15
ENDBRANCH  13  14
ENDBRANCH  12  13
ENDBRANCH  11  12
ENDBRANCH  10  11
ENDBRANCH   9  10
ENDBRANCH   8   9
ENDBRANCH   7   8
ENDBRANCH   6   7
ENDBRANCH   5   6
ENDBRANCH   4   5
ENDBRANCH   3   4
ENDBRANCH   2   3
ENDBRANCH   1   2
BRANCH   1  18
ATOM     18  C   UNL     1      57.161  29.349  51.637  1.00  0.00     0.000 C 
BRANCH  18  19
ATOM     19  C   UNL     1      57.247  29.445  53.169  1.00  0.00     0.000 C 
BRANCH  19  20
ATOM     20  C   UNL     1      55.870  29.354  53.848  1.00  0.00     0.000 C 
BRANCH  20  21
ATOM     21  C   UNL     1      54.739  29.904  52.963  1.00  0.00     0.000 C 
BRANCH  21  22
ATOM     22  C   UNL     1      53.718  28.825  52.561  1.00  0.00     0.000 C 
BRANCH  22  23
ATOM     23  C   UNL     1      52.992  29.074  51.224  1.00  0.00     0.000 C 
BRANCH  23  24
ATOM     24  C   UNL     1      53.294  28.050  50.112  1.00  0.00    -0.000 C 
BRANCH  24  25
ATOM     25  C   UNL     1      54.787  27.725  49.909  1.00  0.00    -0.000 C 
BRANCH  25  26
ATOM     26  C   UNL     1      55.151  26.230  50.012  1.00  0.00    -0.000 C 
BRANCH  26  27
ATOM     27  C   UNL     1      56.407  25.923  50.846  1.00  0.00    -0.000 C 
BRANCH  27  28
ATOM     28  C   UNL     1      56.092  25.722  52.338  1.00  0.00    -0.000 C 
BRANCH  28  29
ATOM     29  C   UNL     1      57.339  25.870  53.227  1.00  0.00    -0.000 C 
BRANCH  29  30
ATOM     30  C   UNL     1      58.617  25.361  52.536  1.00  0.00    -0.000 C 
BRANCH  30  31
ATOM     31  C   UNL     1      59.883  25.634  53.365  1.00  0.00    -0.003 C 
ATOM     32  C   UNL     1      60.233  27.120  53.440  1.00  0.00     0.004 C 
ENDBRANCH  30  31
ENDBRANCH  29  30
ENDBRANCH  28  29
ENDBRANCH  27  28
ENDBRANCH  26  27
ENDBRANCH  25  26
ENDBRANCH  24  25
ENDBRANCH  23  24
ENDBRANCH  22  23
ENDBRANCH  21  22
ENDBRANCH  20  21
ENDBRANCH  19  20
ENDBRANCH  18  19
ENDBRANCH   1  18
TORSDOF 28
ENDMDL
MODEL 7
REMARK VINA RESULT:    -2.834      3.197      5.219
REMARK INTER + INTRA:         -13.223
REMARK INTER:                  -7.286
REMARK INTRA:                  -5.937
REMARK UNBOUND:                -5.750
REMARK SMILES CCCCCCCCCCCCCCCCCCCCCCCCCCCCCC(=O)[O-]
REMARK SMILES IDX 16 1 17 2 18 3 19 4 20 5 21 6 22 7 23 8 24 9 25 10 26 11
REMARK SMILES IDX 27 12 28 13 29 14 30 15 31 16 32 17 15 18 14 19 13 20 12 21
REMARK SMILES IDX 11 22 10 23 9 24 8 25 7 26 6 27 5 28 4 29 3 30 2 31 1 32
REMARK H PARENT
REMARK Flexibility Score: inf
ROOT
ATOM      1  C   UNL     1      54.319  28.548  50.115  1.00  0.00     0.000 C 
ENDROOT
BRANCH   1   2
ATOM      2  C   UNL     1      53.497  29.706  50.704  1.00  0.00     0.000 C 
BRANCH   2   3
ATOM      3  C   UNL     1      53.984  30.123  52.104  1.00  0.00     0.000 C 
BRANCH   3   4
ATOM      4  C   UNL     1      53.138  29.513  53.231  1.00  0.00     0.000 C 
BRANCH   4   5
ATOM      5  C   UNL     1      53.865  28.371  53.965  1.00  0.00     0.000 C 
BRANCH   5   6
ATOM      6  C   UNL     1      55.385  28.407  53.742  1.00  0.00     0.000 C 
BRANCH   6   7
ATOM      7  C   UNL     1      56.157  27.616  54.814  1.00  0.00     0.000 C 
BRANCH   7   8
ATOM      8  C   UNL     1      57.500  28.269  55.182  1.00  0.00     0.000 C 
BRANCH   8   9
ATOM      9  C   UNL     1      58.057  27.886  56.567  1.00  0.00     0.000 C 
BRANCH   9  10
ATOM     10  C   UNL     1      58.146  29.065  57.560  1.00  0.00     0.000 C 
BRANCH  10  11
ATOM     11  C   UNL     1      56.781  29.426  58.176  1.00  0.00     0.000 C 
BRANCH  11  12
ATOM     12  C   UNL     1      56.253  30.789  57.700  1.00  0.00     0.000 C 
BRANCH  12  13
ATOM     13  C   UNL     1      55.100  30.663  56.691  1.00  0.00     0.006 C 
BRANCH  13  14
ATOM     14  C   UNL     1      54.592  32.043  56.263  1.00  0.00     0.053 C 
BRANCH  14  15
ATOM     15  C   UNL     1      55.004  32.359  54.857  1.00  0.00     0.041 C 
ATOM     16  O   UNL     1      54.305  33.131  54.148  1.00  0.00    -0.550 OA
ATOM     17  O   UNL     1      56.173  31.815  54.338  1.00  0.00    -0.550 OA
ENDBRANCH  14  15
ENDBRANCH  13  14
ENDBRANCH  12  13
ENDBRANCH  11  12
ENDBRANCH  10  11
ENDBRANCH   9  10
ENDBRANCH   8   9
ENDBRANCH   7   8
ENDBRANCH   6   7
ENDBRANCH   5   6
ENDBRANCH   4   5
ENDBRANCH   3   4
ENDBRANCH   2   3
ENDBRANCH   1   2
BRANCH   1  18
ATOM     18  C   UNL     1      53.440  27.379  49.643  1.00  0.00     0.000 C 
BRANCH  18  19
ATOM     19  C   UNL     1      54.209  26.050  49.712  1.00  0.00     0.000 C 
BRANCH  19  20
ATOM     20  C   UNL     1      55.726  26.249  49.870  1.00  0.00     0.000 C 
BRANCH  20  21
ATOM     21  C   UNL     1      56.228  25.863  51.271  1.00  0.00     0.000 C 
BRANCH  21  22
ATOM     22  C   UNL     1      57.715  25.465  51.283  1.00  0.00     0.000 C 
BRANCH  22  23
ATOM     23  C   UNL     1      58.385  25.471  52.671  1.00  0.00     0.000 C 
BRANCH  23  24
ATOM     24  C   UNL     1      59.641  26.357  52.791  1.00  0.00    -0.000 C 
BRANCH  24  25
ATOM     25  C   UNL     1      60.806  25.969  51.858  1.00  0.00    -0.000 C 
BRANCH  25  26
ATOM     26  C   UNL     1      61.441  27.141  51.084  1.00  0.00    -0.000 C 
BRANCH  26  27
ATOM     27  C   UNL     1      61.254  27.089  49.558  1.00  0.00    -0.000 C 
BRANCH  27  28
ATOM     28  C   UNL     1      59.833  27.485  49.122  1.00  0.00    -0.000 C 
BRANCH  28  29
ATOM     29  C   UNL     1      59.463  28.916  49.551  1.00  0.00    -0.000 C 
BRANCH  29  30
ATOM     30  C   UNL     1      57.977  29.050  49.931  1.00  0.00    -0.000 C 
BRANCH  30  31
ATOM     31  C   UNL     1      57.776  29.337  51.428  1.00  0.00    -0.003 C 
ATOM     32  C   UNL     1      59.025  29.913  52.093  1.00  0.00     0.004 C 
ENDBRANCH  30  31
ENDBRANCH  29  30
ENDBRANCH  28  29
ENDBRANCH  27  28
ENDBRANCH  26  27
ENDBRANCH  25  26
ENDBRANCH  24  25
ENDBRANCH  23  24
ENDBRANCH  22  23
ENDBRANCH  21  22
ENDBRANCH  20  21
ENDBRANCH  19  20
ENDBRANCH  18  19
ENDBRANCH   1  18
TORSDOF 28
ENDMDL
MODEL 8
REMARK VINA RESULT:    -2.834      2.343      5.725
REMARK INTER + INTRA:         -13.222
REMARK INTER:                  -7.681
REMARK INTRA:                  -5.541
REMARK UNBOUND:                -5.750
REMARK SMILES CCCCCCCCCCCCCCCCCCCCCCCCCCCCCC(=O)[O-]
REMARK SMILES IDX 16 1 17 2 18 3 19 4 20 5 21 6 22 7 23 8 24 9 25 10 26 11
REMARK SMILES IDX 27 12 28 13 29 14 30 15 31 16 32 17 15 18 14 19 13 20 12 21
REMARK SMILES IDX 11 22 10 23 9 24 8 25 7 26 6 27 5 28 4 29 3 30 2 31 1 32
REMARK H PARENT
REMARK Flexibility Score: inf
ROOT
ATOM      1  C   UNL     1      56.857  29.263  51.853  1.00  0.00     0.000 C 
ENDROOT
BRANCH   1   2
ATOM      2  C   UNL     1      55.320  29.282  51.872  1.00  0.00     0.000 C 
BRANCH   2   3
ATOM      3  C   UNL     1      54.711  29.210  50.459  1.00  0.00     0.000 C 
BRANCH   3   4
ATOM      4  C   UNL     1      53.644  28.112  50.329  1.00  0.00     0.000 C 
BRANCH   4   5
ATOM      5  C   UNL     1      54.179  26.847  49.633  1.00  0.00     0.000 C 
BRANCH   5   6
ATOM      6  C   UNL     1      54.842  25.872  50.618  1.00  0.00     0.000 C 
BRANCH   6   7
ATOM      7  C   UNL     1      56.374  25.836  50.471  1.00  0.00     0.000 C 
BRANCH   7   8
ATOM      8  C   UNL     1      57.097  25.673  51.819  1.00  0.00     0.000 C 
BRANCH   8   9
ATOM      9  C   UNL     1      58.242  24.643  51.828  1.00  0.00     0.000 C 
BRANCH   9  10
ATOM     10  C   UNL     1      59.402  24.997  52.784  1.00  0.00     0.000 C 
BRANCH  10  11
ATOM     11  C   UNL     1      59.454  26.498  53.122  1.00  0.00     0.000 C 
BRANCH  11  12
ATOM     12  C   UNL     1      60.891  27.030  53.255  1.00  0.00     0.000 C 
BRANCH  12  13
ATOM     13  C   UNL     1      60.964  28.565  53.234  1.00  0.00     0.006 C 
BRANCH  13  14
ATOM     14  C   UNL     1      60.373  29.160  54.516  1.00  0.00     0.053 C 
BRANCH  14  15
ATOM     15  C   UNL     1      59.447  30.298  54.207  1.00  0.00     0.041 C 
ATOM     16  O   UNL     1      58.385  30.451  54.866  1.00  0.00    -0.550 OA
ATOM     17  O   UNL     1      59.772  31.203  53.203  1.00  0.00    -0.550 OA
ENDBRANCH  14  15
ENDBRANCH  13  14
ENDBRANCH  12  13
ENDBRANCH  11  12
ENDBRANCH  10  11
ENDBRANCH   9  10
ENDBRANCH   8   9
ENDBRANCH   7   8
ENDBRANCH   6   7
ENDBRANCH   5   6
ENDBRANCH   4   5
ENDBRANCH   3   4
ENDBRANCH   2   3
ENDBRANCH   1   2
BRANCH   1  18
ATOM     18  C   UNL     1      57.430  29.146  50.433  1.00  0.00     0.000 C 
BRANCH  18  19
ATOM     19  C   UNL     1      58.966  29.086  50.463  1.00  0.00     0.000 C 
BRANCH  19  20
ATOM     20  C   UNL     1      59.560  28.440  49.200  1.00  0.00     0.000 C 
BRANCH  20  21
ATOM     21  C   UNL     1      59.589  26.905  49.283  1.00  0.00     0.000 C 
BRANCH  21  22
ATOM     22  C   UNL     1      60.967  26.355  49.693  1.00  0.00     0.000 C 
BRANCH  22  23
ATOM     23  C   UNL     1      62.154  27.305  49.443  1.00  0.00     0.000 C 
BRANCH  23  24
ATOM     24  C   UNL     1      63.541  26.632  49.424  1.00  0.00    -0.000 C 
BRANCH  24  25
ATOM     25  C   UNL     1      64.617  27.326  50.285  1.00  0.00    -0.000 C 
BRANCH  25  26
ATOM     26  C   UNL     1      64.072  28.255  51.387  1.00  0.00    -0.000 C 
BRANCH  26  27
ATOM     27  C   UNL     1      64.579  29.707  51.321  1.00  0.00    -0.000 C 
BRANCH  27  28
ATOM     28  C   UNL     1      63.866  30.534  50.238  1.00  0.00    -0.000 C 
BRANCH  28  29
ATOM     29  C   UNL     1      62.367  30.722  50.532  1.00  0.00    -0.000 C 
BRANCH  29  30
ATOM     30  C   UNL     1      61.920  32.188  50.390  1.00  0.00    -0.000 C 
BRANCH  30  31
ATOM     31  C   UNL     1      62.922  33.035  49.588  1.00  0.00    -0.003 C 
ATOM     32  C   UNL     1      62.264  33.804  48.443  1.00  0.00     0.004 C 
ENDBRANCH  30  31
ENDBRANCH  29  30
ENDBRANCH  28  29
ENDBRANCH  27  28
ENDBRANCH  26  27
ENDBRANCH  25  26
ENDBRANCH  24  25
ENDBRANCH  23  24
ENDBRANCH  22  23
ENDBRANCH  21  22
ENDBRANCH  20  21
ENDBRANCH  19  20
ENDBRANCH  18  19
ENDBRANCH   1  18
TORSDOF 28
ENDMDL
MODEL 9
REMARK VINA RESULT:    -2.824      4.361      6.222
REMARK INTER + INTRA:         -13.197
REMARK INTER:                  -7.280
REMARK INTRA:                  -5.917
REMARK UNBOUND:                -5.750
REMARK SMILES CCCCCCCCCCCCCCCCCCCCCCCCCCCCCC(=O)[O-]
REMARK SMILES IDX 16 1 17 2 18 3 19 4 20 5 21 6 22 7 23 8 24 9 25 10 26 11
REMARK SMILES IDX 27 12 28 13 29 14 30 15 31 16 32 17 15 18 14 19 13 20 12 21
REMARK SMILES IDX 11 22 10 23 9 24 8 25 7 26 6 27 5 28 4 29 3 30 2 31 1 32
REMARK H PARENT
REMARK Flexibility Score: inf
ROOT
ATOM      1  C   UNL     1      56.238  26.398  50.007  1.00  0.00     0.000 C 
ENDROOT
BRANCH   1   2
ATOM      2  C   UNL     1      54.764  26.044  50.264  1.00  0.00     0.000 C 
BRANCH   2   3
ATOM      3  C   UNL     1      53.794  26.953  49.487  1.00  0.00     0.000 C 
BRANCH   3   4
ATOM      4  C   UNL     1      53.070  27.959  50.394  1.00  0.00     0.000 C 
BRANCH   4   5
ATOM      5  C   UNL     1      53.714  29.357  50.359  1.00  0.00     0.000 C 
BRANCH   5   6
ATOM      6  C   UNL     1      54.299  29.766  51.720  1.00  0.00     0.000 C 
BRANCH   6   7
ATOM      7  C   UNL     1      53.979  28.748  52.829  1.00  0.00     0.000 C 
BRANCH   7   8
ATOM      8  C   UNL     1      55.133  28.581  53.833  1.00  0.00     0.000 C 
BRANCH   8   9
ATOM      9  C   UNL     1      54.962  27.430  54.842  1.00  0.00     0.000 C 
BRANCH   9  10
ATOM     10  C   UNL     1      54.783  27.894  56.304  1.00  0.00     0.000 C 
BRANCH  10  11
ATOM     11  C   UNL     1      55.395  29.283  56.565  1.00  0.00     0.000 C 
BRANCH  11  12
ATOM     12  C   UNL     1      56.176  29.352  57.888  1.00  0.00     0.000 C 
BRANCH  12  13
ATOM     13  C   UNL     1      56.093  28.049  58.698  1.00  0.00     0.006 C 
BRANCH  13  14
ATOM     14  C   UNL     1      55.309  28.260  59.998  1.00  0.00     0.053 C 
BRANCH  14  15
ATOM     15  C   UNL     1      56.202  28.128  61.195  1.00  0.00     0.041 C 
ATOM     16  O   UNL     1      55.747  28.329  62.352  1.00  0.00    -0.550 OA
ATOM     17  O   UNL     1      57.532  27.760  61.031  1.00  0.00    -0.550 OA
ENDBRANCH  14  15
ENDBRANCH  13  14
ENDBRANCH  12  13
ENDBRANCH  11  12
ENDBRANCH  10  11
ENDBRANCH   9  10
ENDBRANCH   8   9
ENDBRANCH   7   8
ENDBRANCH   6   7
ENDBRANCH   5   6
ENDBRANCH   4   5
ENDBRANCH   3   4
ENDBRANCH   2   3
ENDBRANCH   1   2
BRANCH   1  18
ATOM     18  C   UNL     1      57.023  26.644  51.305  1.00  0.00     0.000 C 
BRANCH  18  19
ATOM     19  C   UNL     1      57.630  28.055  51.321  1.00  0.00     0.000 C 
BRANCH  19  20
ATOM     20  C   UNL     1      57.354  28.836  50.026  1.00  0.00     0.000 C 
BRANCH  20  21
ATOM     21  C   UNL     1      58.644  29.226  49.286  1.00  0.00     0.000 C 
BRANCH  21  22
ATOM     22  C   UNL     1      59.915  28.748  50.010  1.00  0.00     0.000 C 
BRANCH  22  23
ATOM     23  C   UNL     1      60.687  27.617  49.303  1.00  0.00     0.000 C 
BRANCH  23  24
ATOM     24  C   UNL     1      60.521  26.217  49.927  1.00  0.00    -0.000 C 
BRANCH  24  25
ATOM     25  C   UNL     1      61.296  25.990  51.241  1.00  0.00    -0.000 C 
BRANCH  25  26
ATOM     26  C   UNL     1      60.418  25.807  52.494  1.00  0.00    -0.000 C 
BRANCH  26  27
ATOM     27  C   UNL     1      60.389  27.013  53.449  1.00  0.00    -0.000 C 
BRANCH  27  28
ATOM     28  C   UNL     1      59.451  26.795  54.649  1.00  0.00    -0.000 C 
BRANCH  28  29
ATOM     29  C   UNL     1      58.616  28.045  54.978  1.00  0.00    -0.000 C 
BRANCH  29  30
ATOM     30  C   UNL     1      59.190  29.321  54.335  1.00  0.00    -0.000 C 
BRANCH  30  31
ATOM     31  C   UNL     1      58.259  30.533  54.499  1.00  0.00    -0.003 C 
ATOM     32  C   UNL     1      57.851  31.151  53.162  1.00  0.00     0.004 C 
ENDBRANCH  30  31
ENDBRANCH  29  30
ENDBRANCH  28  29
ENDBRANCH  27  28
ENDBRANCH  26  27
ENDBRANCH  25  26
ENDBRANCH  24  25
ENDBRANCH  23  24
ENDBRANCH  22  23
ENDBRANCH  21  22
ENDBRANCH  20  21
ENDBRANCH  19  20
ENDBRANCH  18  19
ENDBRANCH   1  18
TORSDOF 28
ENDMDL
