MODEL 1
REMARK VINA RESULT:    -1.951      0.000      0.000
REMARK INTER + INTRA:          -3.093
REMARK INTER:                  -3.776
REMARK INTRA:                   0.684
REMARK UNBOUND:                 0.684
REMARK SMILES CCCCCCCCCCCCCCCCCC(=O)[O-]
REMARK SMILES IDX 10 1 11 2 12 3 13 4 14 5 15 6 16 7 17 8 18 9 19 10 20 11
REMARK SMILES IDX 9 12 8 13 7 14 6 15 5 16 4 17 3 18 2 19 1 20
REMARK H PARENT
REMARK Flexibility Score: inf
ROOT
ATOM      1  C   UNL     1      -7.719  17.470 -15.108  1.00  0.00     0.000 C 
ENDROOT
BRANCH   1   2
ATOM      2  C   UNL     1      -6.694  16.323 -15.110  1.00  0.00     0.000 C 
BRANCH   2   3
ATOM      3  C   UNL     1      -5.280  16.784 -14.712  1.00  0.00     0.000 C 
BRANCH   3   4
ATOM      4  C   UNL     1      -4.916  18.226 -15.124  1.00  0.00     0.000 C 
BRANCH   4   5
ATOM      5  C   UNL     1      -4.877  19.245 -13.969  1.00  0.00     0.000 C 
BRANCH   5   6
ATOM      6  C   UNL     1      -5.007  20.721 -14.397  1.00  0.00     0.000 C 
BRANCH   6   7
ATOM      7  C   UNL     1      -6.345  21.090 -15.070  1.00  0.00     0.006 C 
BRANCH   7   8
ATOM      8  C   UNL     1      -7.583  20.858 -14.189  1.00  0.00     0.053 C 
BRANCH   8   9
ATOM      9  C   UNL     1      -7.210  20.549 -12.771  1.00  0.00     0.041 C 
ATOM     10  O   UNL     1      -7.910  19.754 -12.091  1.00  0.00    -0.550 OA
ATOM     11  O   UNL     1      -6.071  21.114 -12.213  1.00  0.00    -0.550 OA
ENDBRANCH   8   9
ENDBRANCH   7   8
ENDBRANCH   6   7
ENDBRANCH   5   6
ENDBRANCH   4   5
ENDBRANCH   3   4
ENDBRANCH   2   3
ENDBRANCH   1   2
BRANCH   1  12
ATOM     12  C   UNL     1      -8.706  17.392 -13.928  1.00  0.00     0.000 C 
BRANCH  12  13
ATOM     13  C   UNL     1      -8.994  15.975 -13.400  1.00  0.00    -0.000 C 
BRANCH  13  14
ATOM     14  C   UNL     1      -8.916  15.877 -11.866  1.00  0.00    -0.000 C 
BRANCH  14  15
ATOM     15  C   UNL     1      -7.725  15.032 -11.388  1.00  0.00    -0.000 C 
BRANCH  15  16
ATOM     16  C   UNL     1      -6.767  14.654 -12.529  1.00  0.00    -0.000 C 
BRANCH  16  17
ATOM     17  C   UNL     1      -6.741  13.135 -12.741  1.00  0.00    -0.000 C 
BRANCH  17  18
ATOM     18  C   UNL     1      -6.718  12.788 -14.235  1.00  0.00    -0.000 C 
BRANCH  18  19
ATOM     19  C   UNL     1      -7.966  11.991 -14.633  1.00  0.00    -0.003 C 
ATOM     20  C   UNL     1      -9.077  12.915 -15.125  1.00  0.00     0.004 C 
ENDBRANCH  18  19
ENDBRANCH  17  18
ENDBRANCH  16  17
ENDBRANCH  15  16
ENDBRANCH  14  15
ENDBRANCH  13  14
ENDBRANCH  12  13
ENDBRANCH   1  12
TORSDOF 16
ENDMDL
MODEL 2
REMARK VINA RESULT:    -0.874      1.200      2.883
REMARK INTER + INTRA:          -1.008
REMARK INTER:                  -0.470
REMARK INTRA:                  -0.538
REMARK UNBOUND:                 0.684
REMARK SMILES CCCCCCCCCCCCCCCCCC(=O)[O-]
REMARK SMILES IDX 10 1 11 2 12 3 13 4 14 5 15 6 16 7 17 8 18 9 19 10 20 11
REMARK SMILES IDX 9 12 8 13 7 14 6 15 5 16 4 17 3 18 2 19 1 20
REMARK H PARENT
REMARK Flexibility Score: inf
ROOT
ATOM      1  C   UNL     1      -8.757  15.137 -11.371  1.00  0.00     0.000 C 
ENDROOT
BRANCH   1   2
ATOM      2  C   UNL     1      -8.141  16.383 -12.031  1.00  0.00     0.000 C 
BRANCH   2   3
ATOM      3  C   UNL     1      -8.194  16.332 -13.569  1.00  0.00     0.000 C 
BRANCH   3   4
ATOM      4  C   UNL     1      -7.334  17.388 -14.294  1.00  0.00     0.000 C 
BRANCH   4   5
ATOM      5  C   UNL     1      -5.938  17.624 -13.684  1.00  0.00     0.000 C 
BRANCH   5   6
ATOM      6  C   UNL     1      -4.959  18.407 -14.582  1.00  0.00     0.000 C 
BRANCH   6   7
ATOM      7  C   UNL     1      -5.491  19.758 -15.104  1.00  0.00     0.006 C 
BRANCH   7   8
ATOM      8  C   UNL     1      -5.175  20.958 -14.197  1.00  0.00     0.053 C 
BRANCH   8   9
ATOM      9  C   UNL     1      -5.963  20.919 -12.924  1.00  0.00     0.041 C 
ATOM     10  O   UNL     1      -5.372  20.899 -11.812  1.00  0.00    -0.550 OA
ATOM     11  O   UNL     1      -7.351  20.939 -12.965  1.00  0.00    -0.550 OA
ENDBRANCH   8   9
ENDBRANCH   7   8
ENDBRANCH   6   7
ENDBRANCH   5   6
ENDBRANCH   4   5
ENDBRANCH   3   4
ENDBRANCH   2   3
ENDBRANCH   1   2
BRANCH   1  12
ATOM     12  C   UNL     1      -7.728  14.020 -11.118  1.00  0.00     0.000 C 
BRANCH  12  13
ATOM     13  C   UNL     1      -6.489  14.042 -12.033  1.00  0.00    -0.000 C 
BRANCH  13  14
ATOM     14  C   UNL     1      -5.927  12.638 -12.318  1.00  0.00    -0.000 C 
BRANCH  14  15
ATOM     15  C   UNL     1      -4.942  12.623 -13.497  1.00  0.00    -0.000 C 
BRANCH  15  16
ATOM     16  C   UNL     1      -4.875  13.971 -14.233  1.00  0.00    -0.000 C 
BRANCH  16  17
ATOM     17  C   UNL     1      -6.112  14.175 -15.117  1.00  0.00    -0.000 C 
BRANCH  17  18
ATOM     18  C   UNL     1      -7.037  12.953 -15.059  1.00  0.00    -0.000 C 
BRANCH  18  19
ATOM     19  C   UNL     1      -8.507  13.381 -14.986  1.00  0.00    -0.003 C 
ATOM     20  C   UNL     1      -9.439  12.179 -15.113  1.00  0.00     0.004 C 
ENDBRANCH  18  19
ENDBRANCH  17  18
ENDBRANCH  16  17
ENDBRANCH  15  16
ENDBRANCH  14  15
ENDBRANCH  13  14
ENDBRANCH  12  13
ENDBRANCH   1  12
TORSDOF 16
ENDMDL
MODEL 3
REMARK VINA RESULT:    -0.520      2.641      6.276
REMARK INTER + INTRA:          -0.323
REMARK INTER:                  -1.337
REMARK INTRA:                   1.014
REMARK UNBOUND:                 0.684
REMARK SMILES CCCCCCCCCCCCCCCCCC(=O)[O-]
REMARK SMILES IDX 10 1 11 2 12 3 13 4 14 5 15 6 16 7 17 8 18 9 19 10 20 11
REMARK SMILES IDX 9 12 8 13 7 14 6 15 5 16 4 17 3 18 2 19 1 20
REMARK H PARENT
REMARK Flexibility Score: inf
ROOT
ATOM      1  C   UNL     1      -5.755  17.516 -14.004  1.00  0.00     0.000 C 
ENDROOT
BRANCH   1   2
ATOM      2  C   UNL     1      -5.330  16.041 -14.097  1.00  0.00     0.000 C 
BRANCH   2   3
ATOM      3  C   UNL     1      -6.155  15.244 -15.125  1.00  0.00     0.000 C 
BRANCH   3   4
ATOM      4  C   UNL     1      -7.677  15.494 -15.085  1.00  0.00     0.000 C 
BRANCH   4   5
ATOM      5  C   UNL     1      -8.487  14.462 -14.277  1.00  0.00     0.000 C 
BRANCH   5   6
ATOM      6  C   UNL     1      -8.054  12.996 -14.474  1.00  0.00     0.000 C 
BRANCH   6   7
ATOM      7  C   UNL     1      -6.625  12.805 -15.023  1.00  0.00     0.006 C 
BRANCH   7   8
ATOM      8  C   UNL     1      -5.711  11.951 -14.131  1.00  0.00     0.053 C 
BRANCH   8   9
ATOM      9  C   UNL     1      -5.568  12.532 -12.757  1.00  0.00     0.041 C 
ATOM     10  O   UNL     1      -6.064  13.659 -12.491  1.00  0.00    -0.550 OA
ATOM     11  O   UNL     1      -4.917  11.814 -11.763  1.00  0.00    -0.550 OA
ENDBRANCH   8   9
ENDBRANCH   7   8
ENDBRANCH   6   7
ENDBRANCH   5   6
ENDBRANCH   4   5
ENDBRANCH   3   4
ENDBRANCH   2   3
ENDBRANCH   1   2
BRANCH   1  12
ATOM     12  C   UNL     1      -4.876  18.450 -14.855  1.00  0.00     0.000 C 
BRANCH  12  13
ATOM     13  C   UNL     1      -5.152  19.956 -14.684  1.00  0.00    -0.000 C 
BRANCH  13  14
ATOM     14  C   UNL     1      -5.446  20.350 -13.225  1.00  0.00    -0.000 C 
BRANCH  14  15
ATOM     15  C   UNL     1      -6.871  20.894 -13.036  1.00  0.00    -0.000 C 
BRANCH  15  16
ATOM     16  C   UNL     1      -7.787  20.589 -14.231  1.00  0.00    -0.000 C 
BRANCH  16  17
ATOM     17  C   UNL     1      -8.828  19.523 -13.865  1.00  0.00    -0.000 C 
BRANCH  17  18
ATOM     18  C   UNL     1      -8.435  18.788 -12.578  1.00  0.00    -0.000 C 
BRANCH  18  19
ATOM     19  C   UNL     1      -8.925  17.336 -12.603  1.00  0.00    -0.003 C 
ATOM     20  C   UNL     1      -8.388  16.552 -11.409  1.00  0.00     0.004 C 
ENDBRANCH  18  19
ENDBRANCH  17  18
ENDBRANCH  16  17
ENDBRANCH  15  16
ENDBRANCH  14  15
ENDBRANCH  13  14
ENDBRANCH  12  13
ENDBRANCH   1  12
TORSDOF 16
ENDMDL
MODEL 4
REMARK VINA RESULT:    -0.303      1.263      3.344
REMARK INTER + INTRA:           0.098
REMARK INTER:                  -0.118
REMARK INTRA:                   0.217
REMARK UNBOUND:                 0.684
REMARK SMILES CCCCCCCCCCCCCCCCCC(=O)[O-]
REMARK SMILES IDX 10 1 11 2 12 3 13 4 14 5 15 6 16 7 17 8 18 9 19 10 20 11
REMARK SMILES IDX 9 12 8 13 7 14 6 15 5 16 4 17 3 18 2 19 1 20
REMARK H PARENT
REMARK Flexibility Score: inf
ROOT
ATOM      1  C   UNL     1      -8.660  15.500 -11.302  1.00  0.00     0.000 C 
ENDROOT
BRANCH   1   2
ATOM      2  C   UNL     1      -9.295  16.803 -11.818  1.00  0.00     0.000 C 
BRANCH   2   3
ATOM      3  C   UNL     1      -8.266  17.763 -12.443  1.00  0.00     0.000 C 
BRANCH   3   4
ATOM      4  C   UNL     1      -8.849  18.823 -13.400  1.00  0.00     0.000 C 
BRANCH   4   5
ATOM      5  C   UNL     1      -8.367  18.721 -14.860  1.00  0.00     0.000 C 
BRANCH   5   6
ATOM      6  C   UNL     1      -6.893  19.112 -15.087  1.00  0.00     0.000 C 
BRANCH   6   7
ATOM      7  C   UNL     1      -6.618  20.629 -15.122  1.00  0.00     0.006 C 
BRANCH   7   8
ATOM      8  C   UNL     1      -5.635  21.121 -14.049  1.00  0.00     0.053 C 
BRANCH   8   9
ATOM      9  C   UNL     1      -6.192  20.966 -12.667  1.00  0.00     0.041 C 
ATOM     10  O   UNL     1      -7.434  20.850 -12.494  1.00  0.00    -0.550 OA
ATOM     11  O   UNL     1      -5.338  20.917 -11.574  1.00  0.00    -0.550 OA
ENDBRANCH   8   9
ENDBRANCH   7   8
ENDBRANCH   6   7
ENDBRANCH   5   6
ENDBRANCH   4   5
ENDBRANCH   3   4
ENDBRANCH   2   3
ENDBRANCH   1   2
BRANCH   1  12
ATOM     12  C   UNL     1      -7.268  15.230 -11.903  1.00  0.00     0.000 C 
BRANCH  12  13
ATOM     13  C   UNL     1      -6.820  13.757 -11.897  1.00  0.00    -0.000 C 
BRANCH  13  14
ATOM     14  C   UNL     1      -7.748  12.843 -12.717  1.00  0.00    -0.000 C 
BRANCH  14  15
ATOM     15  C   UNL     1      -7.326  12.742 -14.191  1.00  0.00    -0.000 C 
BRANCH  15  16
ATOM     16  C   UNL     1      -5.910  12.171 -14.367  1.00  0.00    -0.000 C 
BRANCH  16  17
ATOM     17  C   UNL     1      -5.009  13.162 -15.115  1.00  0.00    -0.000 C 
BRANCH  17  18
ATOM     18  C   UNL     1      -4.875  14.478 -14.340  1.00  0.00    -0.000 C 
BRANCH  18  19
ATOM     19  C   UNL     1      -5.585  15.622 -15.074  1.00  0.00    -0.003 C 
ATOM     20  C   UNL     1      -4.995  16.975 -14.688  1.00  0.00     0.004 C 
ENDBRANCH  18  19
ENDBRANCH  17  18
ENDBRANCH  16  17
ENDBRANCH  15  16
ENDBRANCH  14  15
ENDBRANCH  13  14
ENDBRANCH  12  13
ENDBRANCH   1  12
TORSDOF 16
ENDMDL
MODEL 5
REMARK VINA RESULT:    -0.066      2.437      6.371
REMARK INTER + INTRA:           0.555
REMARK INTER:                   0.733
REMARK INTRA:                  -0.177
REMARK UNBOUND:                 0.684
REMARK SMILES CCCCCCCCCCCCCCCCCC(=O)[O-]
REMARK SMILES IDX 10 1 11 2 12 3 13 4 14 5 15 6 16 7 17 8 18 9 19 10 20 11
REMARK SMILES IDX 9 12 8 13 7 14 6 15 5 16 4 17 3 18 2 19 1 20
REMARK H PARENT
REMARK Flexibility Score: inf
ROOT
ATOM      1  C   UNL     1      -8.601  17.299 -11.860  1.00  0.00     0.000 C 
ENDROOT
BRANCH   1   2
ATOM      2  C   UNL     1      -9.258  16.234 -12.753  1.00  0.00     0.000 C 
BRANCH   2   3
ATOM      3  C   UNL     1      -8.646  14.834 -12.566  1.00  0.00     0.000 C 
BRANCH   3   4
ATOM      4  C   UNL     1      -7.450  14.762 -11.593  1.00  0.00     0.000 C 
BRANCH   4   5
ATOM      5  C   UNL     1      -6.712  13.410 -11.565  1.00  0.00     0.000 C 
BRANCH   5   6
ATOM      6  C   UNL     1      -7.180  12.390 -12.622  1.00  0.00     0.000 C 
BRANCH   6   7
ATOM      7  C   UNL     1      -6.165  12.105 -13.749  1.00  0.00     0.006 C 
BRANCH   7   8
ATOM      8  C   UNL     1      -6.574  12.653 -15.125  1.00  0.00     0.053 C 
BRANCH   8   9
ATOM      9  C   UNL     1      -7.944  13.259 -15.101  1.00  0.00     0.041 C 
ATOM     10  O   UNL     1      -8.963  12.520 -15.070  1.00  0.00    -0.550 OA
ATOM     11  O   UNL     1      -8.093  14.639 -15.080  1.00  0.00    -0.550 OA
ENDBRANCH   8   9
ENDBRANCH   7   8
ENDBRANCH   6   7
ENDBRANCH   5   6
ENDBRANCH   4   5
ENDBRANCH   3   4
ENDBRANCH   2   3
ENDBRANCH   1   2
BRANCH   1  12
ATOM     12  C   UNL     1      -8.614  18.704 -12.490  1.00  0.00     0.000 C 
BRANCH  12  13
ATOM     13  C   UNL     1      -7.790  19.770 -11.744  1.00  0.00    -0.000 C 
BRANCH  13  14
ATOM     14  C   UNL     1      -7.241  20.866 -12.675  1.00  0.00    -0.000 C 
BRANCH  14  15
ATOM     15  C   UNL     1      -5.724  20.752 -12.891  1.00  0.00    -0.000 C 
BRANCH  15  16
ATOM     16  C   UNL     1      -5.297  21.124 -14.320  1.00  0.00    -0.000 C 
BRANCH  16  17
ATOM     17  C   UNL     1      -4.927  19.871 -15.125  1.00  0.00    -0.000 C 
BRANCH  17  18
ATOM     18  C   UNL     1      -4.921  18.625 -14.232  1.00  0.00    -0.000 C 
BRANCH  18  19
ATOM     19  C   UNL     1      -5.474  17.408 -14.983  1.00  0.00    -0.003 C 
ATOM     20  C   UNL     1      -5.299  16.130 -14.167  1.00  0.00     0.004 C 
ENDBRANCH  18  19
ENDBRANCH  17  18
ENDBRANCH  16  17
ENDBRANCH  15  16
ENDBRANCH  14  15
ENDBRANCH  13  14
ENDBRANCH  12  13
ENDBRANCH   1  12
TORSDOF 16
ENDMDL
MODEL 6
REMARK VINA RESULT:     0.078      2.968      6.377
REMARK INTER + INTRA:           0.835
REMARK INTER:                  -0.799
REMARK INTRA:                   1.634
REMARK UNBOUND:                 0.684
REMARK SMILES CCCCCCCCCCCCCCCCCC(=O)[O-]
REMARK SMILES IDX 10 1 11 2 12 3 13 4 14 5 15 6 16 7 17 8 18 9 19 10 20 11
REMARK SMILES IDX 9 12 8 13 7 14 6 15 5 16 4 17 3 18 2 19 1 20
REMARK H PARENT
REMARK Flexibility Score: inf
ROOT
ATOM      1  C   UNL     1      -7.662  15.518 -12.350  1.00  0.00     0.000 C 
ENDROOT
BRANCH   1   2
ATOM      2  C   UNL     1      -9.087  15.195 -12.830  1.00  0.00     0.000 C 
BRANCH   2   3
ATOM      3  C   UNL     1      -9.117  14.572 -14.238  1.00  0.00     0.000 C 
BRANCH   3   4
ATOM      4  C   UNL     1      -7.777  14.606 -15.003  1.00  0.00     0.000 C 
BRANCH   4   5
ATOM      5  C   UNL     1      -7.017  15.945 -14.929  1.00  0.00     0.000 C 
BRANCH   5   6
ATOM      6  C   UNL     1      -5.491  15.839 -15.123  1.00  0.00     0.000 C 
BRANCH   6   7
ATOM      7  C   UNL     1      -4.876  14.479 -14.733  1.00  0.00     0.006 C 
BRANCH   7   8
ATOM      8  C   UNL     1      -5.735  13.262 -15.112  1.00  0.00     0.053 C 
BRANCH   8   9
ATOM      9  C   UNL     1      -5.725  12.216 -14.039  1.00  0.00     0.041 C 
ATOM     10  O   UNL     1      -4.898  11.268 -14.086  1.00  0.00    -0.550 OA
ATOM     11  O   UNL     1      -6.609  12.307 -12.971  1.00  0.00    -0.550 OA
ENDBRANCH   8   9
ENDBRANCH   7   8
ENDBRANCH   6   7
ENDBRANCH   5   6
ENDBRANCH   4   5
ENDBRANCH   3   4
ENDBRANCH   2   3
ENDBRANCH   1   2
BRANCH   1  12
ATOM     12  C   UNL     1      -7.407  17.029 -12.198  1.00  0.00     0.000 C 
BRANCH  12  13
ATOM     13  C   UNL     1      -8.586  17.941 -12.585  1.00  0.00    -0.000 C 
BRANCH  13  14
ATOM     14  C   UNL     1      -8.391  18.631 -13.947  1.00  0.00    -0.000 C 
BRANCH  14  15
ATOM     15  C   UNL     1      -8.453  20.163 -13.846  1.00  0.00    -0.000 C 
BRANCH  15  16
ATOM     16  C   UNL     1      -7.685  20.865 -14.978  1.00  0.00    -0.000 C 
BRANCH  16  17
ATOM     17  C   UNL     1      -6.170  20.740 -14.772  1.00  0.00    -0.000 C 
BRANCH  17  18
ATOM     18  C   UNL     1      -5.780  21.087 -13.330  1.00  0.00    -0.000 C 
BRANCH  18  19
ATOM     19  C   UNL     1      -4.939  19.968 -12.705  1.00  0.00    -0.003 C 
ATOM     20  C   UNL     1      -4.922  18.728 -13.595  1.00  0.00     0.004 C 
ENDBRANCH  18  19
ENDBRANCH  17  18
ENDBRANCH  16  17
ENDBRANCH  15  16
ENDBRANCH  14  15
ENDBRANCH  13  14
ENDBRANCH  12  13
ENDBRANCH   1  12
TORSDOF 16
ENDMDL
