MODEL 1
REMARK VINA RESULT:    -8.545      0.000      0.000
REMARK INTER + INTRA:         -10.371
REMARK INTER:                 -10.293
REMARK INTRA:                  -0.077
REMARK UNBOUND:                -0.077
REMARK SMILES O=c1c(O)c(-c2ccc(O)c(O)c2)oc2cc(O)cc(O)c12
REMARK SMILES IDX 5 1 3 2 2 3 1 4 22 5 20 6 19 7 17 8 16 9 15 10 14 11 6 12
REMARK SMILES IDX 7 13 8 14 9 15 13 16 11 17 10 18 12 20 4 22 21 24 18 26
REMARK H PARENT 10 19 12 21 4 23 21 25 18 27
REMARK Flexibility Score: inf
ROOT
ATOM      1  C   UNL     1     -47.468 -16.203  33.264  1.00  0.00     0.180 A 
ATOM      2  C   UNL     1     -46.140 -16.147  33.722  1.00  0.00     0.208 A 
ATOM      3  C   UNL     1     -45.184 -16.996  33.144  1.00  0.00     0.238 A 
ATOM      4  O   UNL     1     -44.009 -16.980  33.596  1.00  0.00    -0.285 OA
ATOM      5  C   UNL     1     -45.563 -17.881  32.105  1.00  0.00     0.111 A 
ATOM      6  C   UNL     1     -44.668 -18.757  31.421  1.00  0.00     0.134 A 
ATOM      7  C   UNL     1     -45.177 -19.680  30.499  1.00  0.00     0.093 A 
ATOM      8  C   UNL     1     -46.536 -19.715  30.190  1.00  0.00     0.123 A 
ATOM      9  C   UNL     1     -47.411 -18.822  30.810  1.00  0.00     0.094 A 
ATOM     10  C   UNL     1     -46.939 -17.914  31.760  1.00  0.00     0.146 A 
ATOM     11  O   UNL     1     -47.806 -17.088  32.334  1.00  0.00    -0.452 OA
ENDROOT
BRANCH   1  12
ATOM     12  C   UNL     1     -48.527 -15.320  33.806  1.00  0.00     0.025 A 
ATOM     13  C   UNL     1     -48.836 -15.374  35.175  1.00  0.00     0.016 A 
ATOM     14  C   UNL     1     -49.846 -14.565  35.704  1.00  0.00     0.051 A 
ATOM     15  C   UNL     1     -50.569 -13.703  34.871  1.00  0.00     0.157 A 
ATOM     16  C   UNL     1     -49.269 -14.468  32.970  1.00  0.00     0.062 A 
ATOM     17  C   UNL     1     -50.283 -13.658  33.500  1.00  0.00     0.158 A 
BRANCH  15  18
ATOM     18  O   UNL     1     -51.575 -12.893  35.395  1.00  0.00    -0.504 OA
ATOM     19  H   UNL     1     -51.485 -12.460  36.306  1.00  0.00     0.293 HD
ENDBRANCH  15  18
BRANCH  17  20
ATOM     20  O   UNL     1     -51.015 -12.808  32.671  1.00  0.00    -0.504 OA
ATOM     21  H   UNL     1     -50.642 -11.916  32.366  1.00  0.00     0.293 HD
ENDBRANCH  17  20
ENDBRANCH   1  12
BRANCH   2  22
ATOM     22  O   UNL     1     -45.792 -15.282  34.764  1.00  0.00    -0.502 OA
ATOM     23  H   UNL     1     -44.913 -15.355  35.260  1.00  0.00     0.293 HD
ENDBRANCH   2  22
BRANCH   6  24
ATOM     24  O   UNL     1     -43.280 -18.742  31.587  1.00  0.00    -0.507 OA
ATOM     25  H   UNL     1     -42.629 -19.266  31.022  1.00  0.00     0.293 HD
ENDBRANCH   6  24
BRANCH   8  26
ATOM     26  O   UNL     1     -47.006 -20.637  29.256  1.00  0.00    -0.508 OA
ATOM     27  H   UNL     1     -46.414 -20.983  28.510  1.00  0.00     0.293 HD
ENDBRANCH   8  26
TORSDOF 6
ENDMDL
MODEL 2
REMARK VINA RESULT:    -8.467      5.177      8.393
REMARK INTER + INTRA:         -10.277
REMARK INTER:                 -10.045
REMARK INTRA:                  -0.231
REMARK UNBOUND:                -0.077
REMARK SMILES O=c1c(O)c(-c2ccc(O)c(O)c2)oc2cc(O)cc(O)c12
REMARK SMILES IDX 5 1 3 2 2 3 1 4 22 5 20 6 19 7 17 8 16 9 15 10 14 11 6 12
REMARK SMILES IDX 7 13 8 14 9 15 13 16 11 17 10 18 12 20 4 22 21 24 18 26
REMARK H PARENT 10 19 12 21 4 23 21 25 18 27
REMARK Flexibility Score: inf
ROOT
ATOM      1  C   UNL     1     -44.581 -21.651  31.024  1.00  0.00     0.180 A 
ATOM      2  C   UNL     1     -45.145 -20.476  31.550  1.00  0.00     0.208 A 
ATOM      3  C   UNL     1     -45.874 -19.630  30.701  1.00  0.00     0.238 A 
ATOM      4  O   UNL     1     -46.329 -18.552  31.165  1.00  0.00    -0.285 OA
ATOM      5  C   UNL     1     -46.045 -19.978  29.338  1.00  0.00     0.111 A 
ATOM      6  C   UNL     1     -46.799 -19.214  28.397  1.00  0.00     0.134 A 
ATOM      7  C   UNL     1     -46.793 -19.584  27.046  1.00  0.00     0.093 A 
ATOM      8  C   UNL     1     -46.115 -20.723  26.614  1.00  0.00     0.123 A 
ATOM      9  C   UNL     1     -45.423 -21.509  27.536  1.00  0.00     0.094 A 
ATOM     10  C   UNL     1     -45.381 -21.147  28.884  1.00  0.00     0.146 A 
ATOM     11  O   UNL     1     -44.704 -21.916  29.729  1.00  0.00    -0.452 OA
ENDROOT
BRANCH   1  12
ATOM     12  C   UNL     1     -43.821 -22.606  31.863  1.00  0.00     0.025 A 
ATOM     13  C   UNL     1     -42.448 -22.789  31.630  1.00  0.00     0.016 A 
ATOM     14  C   UNL     1     -41.716 -23.700  32.396  1.00  0.00     0.051 A 
ATOM     15  C   UNL     1     -42.347 -24.450  33.395  1.00  0.00     0.157 A 
ATOM     16  C   UNL     1     -44.455 -23.377  32.853  1.00  0.00     0.062 A 
ATOM     17  C   UNL     1     -43.721 -24.292  33.621  1.00  0.00     0.158 A 
BRANCH  15  18
ATOM     18  O   UNL     1     -41.620 -25.358  34.163  1.00  0.00    -0.504 OA
ATOM     19  H   UNL     1     -40.777 -25.082  34.652  1.00  0.00     0.293 HD
ENDBRANCH  15  18
BRANCH  17  20
ATOM     20  O   UNL     1     -44.349 -25.051  34.607  1.00  0.00    -0.504 OA
ATOM     21  H   UNL     1     -44.139 -24.920  35.591  1.00  0.00     0.293 HD
ENDBRANCH  17  20
ENDBRANCH   1  12
BRANCH   2  22
ATOM     22  O   UNL     1     -44.944 -20.141  32.893  1.00  0.00    -0.502 OA
ATOM     23  H   UNL     1     -45.627 -19.624  33.432  1.00  0.00     0.293 HD
ENDBRANCH   2  22
BRANCH   6  24
ATOM     24  O   UNL     1     -47.587 -18.110  28.738  1.00  0.00    -0.507 OA
ATOM     25  H   UNL     1     -48.577 -18.035  28.558  1.00  0.00     0.293 HD
ENDBRANCH   6  24
BRANCH   8  26
ATOM     26  O   UNL     1     -46.143 -21.070  25.265  1.00  0.00    -0.508 OA
ATOM     27  H   UNL     1     -46.851 -20.705  24.639  1.00  0.00     0.293 HD
ENDBRANCH   8  26
TORSDOF 6
ENDMDL
MODEL 3
REMARK VINA RESULT:    -8.452      2.603      4.605
REMARK INTER + INTRA:         -10.258
REMARK INTER:                 -10.019
REMARK INTRA:                  -0.239
REMARK UNBOUND:                -0.077
REMARK SMILES O=c1c(O)c(-c2ccc(O)c(O)c2)oc2cc(O)cc(O)c12
REMARK SMILES IDX 5 1 3 2 2 3 1 4 22 5 20 6 19 7 17 8 16 9 15 10 14 11 6 12
REMARK SMILES IDX 7 13 8 14 9 15 13 16 11 17 10 18 12 20 4 22 21 24 18 26
REMARK H PARENT 10 19 12 21 4 23 21 25 18 27
REMARK Flexibility Score: inf
ROOT
ATOM      1  C   UNL     1     -45.260 -18.679  31.049  1.00  0.00     0.180 A 
ATOM      2  C   UNL     1     -44.704 -19.884  31.513  1.00  0.00     0.208 A 
ATOM      3  C   UNL     1     -44.000 -20.701  30.615  1.00  0.00     0.238 A 
ATOM      4  O   UNL     1     -43.552 -21.804  31.023  1.00  0.00    -0.285 OA
ATOM      5  C   UNL     1     -43.846 -20.295  29.266  1.00  0.00     0.111 A 
ATOM      6  C   UNL     1     -43.117 -21.025  28.280  1.00  0.00     0.134 A 
ATOM      7  C   UNL     1     -43.140 -20.595  26.947  1.00  0.00     0.093 A 
ATOM      8  C   UNL     1     -43.809 -19.429  26.578  1.00  0.00     0.123 A 
ATOM      9  C   UNL     1     -44.475 -18.676  27.545  1.00  0.00     0.094 A 
ATOM     10  C   UNL     1     -44.501 -19.098  28.876  1.00  0.00     0.146 A 
ATOM     11  O   UNL     1     -45.154 -18.358  29.765  1.00  0.00    -0.452 OA
ENDROOT
BRANCH   1  12
ATOM     12  C   UNL     1     -45.994 -17.754  31.942  1.00  0.00     0.025 A 
ATOM     13  C   UNL     1     -47.371 -17.556  31.751  1.00  0.00     0.016 A 
ATOM     14  C   UNL     1     -48.080 -16.672  32.568  1.00  0.00     0.051 A 
ATOM     15  C   UNL     1     -47.419 -15.962  33.579  1.00  0.00     0.157 A 
ATOM     16  C   UNL     1     -45.332 -17.023  32.944  1.00  0.00     0.062 A 
ATOM     17  C   UNL     1     -46.041 -16.135  33.764  1.00  0.00     0.158 A 
BRANCH  15  18
ATOM     18  O   UNL     1     -48.123 -15.081  34.398  1.00  0.00    -0.504 OA
ATOM     19  H   UNL     1     -49.135 -15.077  34.426  1.00  0.00     0.293 HD
ENDBRANCH  15  18
BRANCH  17  20
ATOM     20  O   UNL     1     -45.384 -15.416  34.762  1.00  0.00    -0.504 OA
ATOM     21  H   UNL     1     -44.666 -15.842  35.336  1.00  0.00     0.293 HD
ENDBRANCH  17  20
ENDBRANCH   1  12
BRANCH   2  22
ATOM     22  O   UNL     1     -44.888 -20.276  32.843  1.00  0.00    -0.502 OA
ATOM     23  H   UNL     1     -44.206 -20.083  33.565  1.00  0.00     0.293 HD
ENDBRANCH   2  22
BRANCH   6  24
ATOM     24  O   UNL     1     -42.339 -22.152  28.558  1.00  0.00    -0.507 OA
ATOM     25  H   UNL     1     -41.599 -22.184  29.242  1.00  0.00     0.293 HD
ENDBRANCH   6  24
BRANCH   8  26
ATOM     26  O   UNL     1     -43.798 -19.022  25.245  1.00  0.00    -0.508 OA
ATOM     27  H   UNL     1     -43.752 -19.693  24.487  1.00  0.00     0.293 HD
ENDBRANCH   8  26
TORSDOF 6
ENDMDL
MODEL 4
REMARK VINA RESULT:    -8.158      6.305      7.446
REMARK INTER + INTRA:          -9.905
REMARK INTER:                  -9.632
REMARK INTRA:                  -0.272
REMARK UNBOUND:                -0.077
REMARK SMILES O=c1c(O)c(-c2ccc(O)c(O)c2)oc2cc(O)cc(O)c12
REMARK SMILES IDX 5 1 3 2 2 3 1 4 22 5 20 6 19 7 17 8 16 9 15 10 14 11 6 12
REMARK SMILES IDX 7 13 8 14 9 15 13 16 11 17 10 18 12 20 4 22 21 24 18 26
REMARK H PARENT 10 19 12 21 4 23 21 25 18 27
REMARK Flexibility Score: inf
ROOT
ATOM      1  C   UNL     1     -45.287 -20.822  29.060  1.00  0.00     0.180 A 
ATOM      2  C   UNL     1     -43.882 -20.808  29.123  1.00  0.00     0.208 A 
ATOM      3  C   UNL     1     -43.243 -21.404  30.221  1.00  0.00     0.238 A 
ATOM      4  O   UNL     1     -41.989 -21.340  30.299  1.00  0.00    -0.285 OA
ATOM      5  C   UNL     1     -44.016 -22.022  31.235  1.00  0.00     0.111 A 
ATOM      6  C   UNL     1     -43.471 -22.692  32.372  1.00  0.00     0.134 A 
ATOM      7  C   UNL     1     -44.330 -23.153  33.377  1.00  0.00     0.093 A 
ATOM      8  C   UNL     1     -45.713 -23.027  33.257  1.00  0.00     0.123 A 
ATOM      9  C   UNL     1     -46.258 -22.427  32.122  1.00  0.00     0.094 A 
ATOM     10  C   UNL     1     -45.426 -21.925  31.119  1.00  0.00     0.146 A 
ATOM     11  O   UNL     1     -45.984 -21.351  30.058  1.00  0.00    -0.452 OA
ENDROOT
BRANCH   1  12
ATOM     12  C   UNL     1     -46.031 -20.236  27.922  1.00  0.00     0.025 A 
ATOM     13  C   UNL     1     -46.075 -20.925  26.699  1.00  0.00     0.016 A 
ATOM     14  C   UNL     1     -46.754 -20.381  25.605  1.00  0.00     0.051 A 
ATOM     15  C   UNL     1     -47.386 -19.136  25.714  1.00  0.00     0.157 A 
ATOM     16  C   UNL     1     -46.649 -18.977  28.020  1.00  0.00     0.062 A 
ATOM     17  C   UNL     1     -47.329 -18.430  26.923  1.00  0.00     0.158 A 
BRANCH  15  18
ATOM     18  O   UNL     1     -48.066 -18.591  24.626  1.00  0.00    -0.504 OA
ATOM     19  H   UNL     1     -48.994 -18.198  24.724  1.00  0.00     0.293 HD
ENDBRANCH  15  18
BRANCH  17  20
ATOM     20  O   UNL     1     -47.947 -17.185  27.024  1.00  0.00    -0.504 OA
ATOM     21  H   UNL     1     -47.411 -16.338  27.177  1.00  0.00     0.293 HD
ENDBRANCH  17  20
ENDBRANCH   1  12
BRANCH   2  22
ATOM     22  O   UNL     1     -43.141 -20.172  28.122  1.00  0.00    -0.502 OA
ATOM     23  H   UNL     1     -43.553 -19.505  27.481  1.00  0.00     0.293 HD
ENDBRANCH   2  22
BRANCH   6  24
ATOM     24  O   UNL     1     -42.109 -22.953  32.547  1.00  0.00    -0.507 OA
ATOM     25  H   UNL     1     -41.506 -23.352  31.844  1.00  0.00     0.293 HD
ENDBRANCH   6  24
BRANCH   8  26
ATOM     26  O   UNL     1     -46.539 -23.512  34.270  1.00  0.00    -0.508 OA
ATOM     27  H   UNL     1     -46.455 -23.182  35.224  1.00  0.00     0.293 HD
ENDBRANCH   8  26
TORSDOF 6
ENDMDL
MODEL 5
REMARK VINA RESULT:    -8.152      6.669     11.116
REMARK INTER + INTRA:          -9.897
REMARK INTER:                  -9.834
REMARK INTRA:                  -0.063
REMARK UNBOUND:                -0.077
REMARK SMILES O=c1c(O)c(-c2ccc(O)c(O)c2)oc2cc(O)cc(O)c12
REMARK SMILES IDX 5 1 3 2 2 3 1 4 22 5 20 6 19 7 17 8 16 9 15 10 14 11 6 12
REMARK SMILES IDX 7 13 8 14 9 15 13 16 11 17 10 18 12 20 4 22 21 24 18 26
REMARK H PARENT 10 19 12 21 4 23 21 25 18 27
REMARK Flexibility Score: inf
ROOT
ATOM      1  C   UNL     1     -42.279 -24.354  33.209  1.00  0.00     0.180 A 
ATOM      2  C   UNL     1     -43.596 -24.400  33.701  1.00  0.00     0.208 A 
ATOM      3  C   UNL     1     -44.560 -23.543  33.147  1.00  0.00     0.238 A 
ATOM      4  O   UNL     1     -45.723 -23.550  33.629  1.00  0.00    -0.285 OA
ATOM      5  C   UNL     1     -44.200 -22.662  32.098  1.00  0.00     0.111 A 
ATOM      6  C   UNL     1     -45.105 -21.778  31.437  1.00  0.00     0.134 A 
ATOM      7  C   UNL     1     -44.613 -20.859  30.503  1.00  0.00     0.093 A 
ATOM      8  C   UNL     1     -43.262 -20.835  30.159  1.00  0.00     0.123 A 
ATOM      9  C   UNL     1     -42.379 -21.734  30.756  1.00  0.00     0.094 A 
ATOM     10  C   UNL     1     -42.833 -22.639  31.718  1.00  0.00     0.146 A 
ATOM     11  O   UNL     1     -41.958 -23.472  32.271  1.00  0.00    -0.452 OA
ENDROOT
BRANCH   1  12
ATOM     12  C   UNL     1     -41.214 -25.245  33.724  1.00  0.00     0.025 A 
ATOM     13  C   UNL     1     -40.881 -25.205  35.088  1.00  0.00     0.016 A 
ATOM     14  C   UNL     1     -39.864 -26.022  35.592  1.00  0.00     0.051 A 
ATOM     15  C   UNL     1     -39.159 -26.878  34.737  1.00  0.00     0.157 A 
ATOM     16  C   UNL     1     -40.489 -26.091  32.867  1.00  0.00     0.062 A 
ATOM     17  C   UNL     1     -39.468 -26.909  33.372  1.00  0.00     0.158 A 
BRANCH  15  18
ATOM     18  O   UNL     1     -38.146 -27.696  35.237  1.00  0.00    -0.504 OA
ATOM     19  H   UNL     1     -37.202 -27.353  35.362  1.00  0.00     0.293 HD
ENDBRANCH  15  18
BRANCH  17  20
ATOM     20  O   UNL     1     -38.755 -27.753  32.522  1.00  0.00    -0.504 OA
ATOM     21  H   UNL     1     -38.437 -28.666  32.827  1.00  0.00     0.293 HD
ENDBRANCH  17  20
ENDBRANCH   1  12
BRANCH   2  22
ATOM     22  O   UNL     1     -43.923 -25.261  34.752  1.00  0.00    -0.502 OA
ATOM     23  H   UNL     1     -44.544 -24.990  35.504  1.00  0.00     0.293 HD
ENDBRANCH   2  22
BRANCH   6  24
ATOM     24  O   UNL     1     -46.489 -21.782  31.639  1.00  0.00    -0.507 OA
ATOM     25  H   UNL     1     -46.960 -21.308  32.395  1.00  0.00     0.293 HD
ENDBRANCH   6  24
BRANCH   8  26
ATOM     26  O   UNL     1     -42.810 -19.916  29.213  1.00  0.00    -0.508 OA
ATOM     27  H   UNL     1     -41.974 -19.365  29.367  1.00  0.00     0.293 HD
ENDBRANCH   8  26
TORSDOF 6
ENDMDL
MODEL 6
REMARK VINA RESULT:    -8.117      3.329      8.774
REMARK INTER + INTRA:          -9.855
REMARK INTER:                  -9.567
REMARK INTRA:                  -0.288
REMARK UNBOUND:                -0.077
REMARK SMILES O=c1c(O)c(-c2ccc(O)c(O)c2)oc2cc(O)cc(O)c12
REMARK SMILES IDX 5 1 3 2 2 3 1 4 22 5 20 6 19 7 17 8 16 9 15 10 14 11 6 12
REMARK SMILES IDX 7 13 8 14 9 15 13 16 11 17 10 18 12 20 4 22 21 24 18 26
REMARK H PARENT 10 19 12 21 4 23 21 25 18 27
REMARK Flexibility Score: inf
ROOT
ATOM      1  C   UNL     1     -44.600 -19.452  29.129  1.00  0.00     0.180 A 
ATOM      2  C   UNL     1     -46.004 -19.490  29.192  1.00  0.00     0.208 A 
ATOM      3  C   UNL     1     -46.652 -18.909  30.293  1.00  0.00     0.238 A 
ATOM      4  O   UNL     1     -47.906 -18.995  30.371  1.00  0.00    -0.285 OA
ATOM      5  C   UNL     1     -45.890 -18.282  31.310  1.00  0.00     0.111 A 
ATOM      6  C   UNL     1     -46.445 -17.627  32.449  1.00  0.00     0.134 A 
ATOM      7  C   UNL     1     -45.594 -17.155  33.456  1.00  0.00     0.093 A 
ATOM      8  C   UNL     1     -44.209 -17.257  33.335  1.00  0.00     0.123 A 
ATOM      9  C   UNL     1     -43.654 -17.843  32.197  1.00  0.00     0.094 A 
ATOM     10  C   UNL     1     -44.478 -18.355  31.192  1.00  0.00     0.146 A 
ATOM     11  O   UNL     1     -43.911 -18.915  30.129  1.00  0.00    -0.452 OA
ENDROOT
BRANCH   1  12
ATOM     12  C   UNL     1     -43.846 -20.020  27.988  1.00  0.00     0.025 A 
ATOM     13  C   UNL     1     -43.773 -19.302  26.783  1.00  0.00     0.016 A 
ATOM     14  C   UNL     1     -43.085 -19.828  25.686  1.00  0.00     0.051 A 
ATOM     15  C   UNL     1     -42.473 -21.085  25.774  1.00  0.00     0.157 A 
ATOM     16  C   UNL     1     -43.248 -21.290  28.064  1.00  0.00     0.062 A 
ATOM     17  C   UNL     1     -42.559 -21.819  26.964  1.00  0.00     0.158 A 
BRANCH  15  18
ATOM     18  O   UNL     1     -41.784 -21.612  24.683  1.00  0.00    -0.504 OA
ATOM     19  H   UNL     1     -40.886 -22.067  24.794  1.00  0.00     0.293 HD
ENDBRANCH  15  18
BRANCH  17  20
ATOM     20  O   UNL     1     -41.961 -23.076  27.043  1.00  0.00    -0.504 OA
ATOM     21  H   UNL     1     -41.000 -23.187  27.348  1.00  0.00     0.293 HD
ENDBRANCH  17  20
ENDBRANCH   1  12
BRANCH   2  22
ATOM     22  O   UNL     1     -46.735 -20.134  28.189  1.00  0.00    -0.502 OA
ATOM     23  H   UNL     1     -46.386 -20.949  27.702  1.00  0.00     0.293 HD
ENDBRANCH   2  22
BRANCH   6  24
ATOM     24  O   UNL     1     -47.812 -17.390  32.627  1.00  0.00    -0.507 OA
ATOM     25  H   UNL     1     -48.499 -17.419  31.889  1.00  0.00     0.293 HD
ENDBRANCH   6  24
BRANCH   8  26
ATOM     26  O   UNL     1     -43.391 -16.763  34.350  1.00  0.00    -0.508 OA
ATOM     27  H   UNL     1     -43.694 -16.752  35.316  1.00  0.00     0.293 HD
ENDBRANCH   8  26
TORSDOF 6
ENDMDL
MODEL 7
REMARK VINA RESULT:    -8.024      7.428     11.767
REMARK INTER + INTRA:          -9.743
REMARK INTER:                  -9.666
REMARK INTRA:                  -0.077
REMARK UNBOUND:                -0.077
REMARK SMILES O=c1c(O)c(-c2ccc(O)c(O)c2)oc2cc(O)cc(O)c12
REMARK SMILES IDX 5 1 3 2 2 3 1 4 22 5 20 6 19 7 17 8 16 9 15 10 14 11 6 12
REMARK SMILES IDX 7 13 8 14 9 15 13 16 11 17 10 18 12 20 4 22 21 24 18 26
REMARK H PARENT 10 19 12 21 4 23 21 25 18 27
REMARK Flexibility Score: inf
ROOT
ATOM      1  C   UNL     1     -41.816 -24.929  33.316  1.00  0.00     0.180 A 
ATOM      2  C   UNL     1     -41.648 -23.900  32.374  1.00  0.00     0.208 A 
ATOM      3  C   UNL     1     -42.737 -23.069  32.070  1.00  0.00     0.238 A 
ATOM      4  O   UNL     1     -42.595 -22.184  31.186  1.00  0.00    -0.285 OA
ATOM      5  C   UNL     1     -43.978 -23.266  32.725  1.00  0.00     0.111 A 
ATOM      6  C   UNL     1     -45.136 -22.457  32.524  1.00  0.00     0.134 A 
ATOM      7  C   UNL     1     -46.346 -22.823  33.127  1.00  0.00     0.093 A 
ATOM      8  C   UNL     1     -46.423 -23.929  33.973  1.00  0.00     0.123 A 
ATOM      9  C   UNL     1     -45.282 -24.692  34.223  1.00  0.00     0.094 A 
ATOM     10  C   UNL     1     -44.070 -24.373  33.608  1.00  0.00     0.146 A 
ATOM     11  O   UNL     1     -43.009 -25.130  33.864  1.00  0.00    -0.452 OA
ENDROOT
BRANCH   1  12
ATOM     12  C   UNL     1     -40.708 -25.830  33.707  1.00  0.00     0.025 A 
ATOM     13  C   UNL     1     -40.084 -26.621  32.729  1.00  0.00     0.016 A 
ATOM     14  C   UNL     1     -39.049 -27.494  33.079  1.00  0.00     0.051 A 
ATOM     15  C   UNL     1     -38.634 -27.597  34.413  1.00  0.00     0.157 A 
ATOM     16  C   UNL     1     -40.301 -25.953  35.047  1.00  0.00     0.062 A 
ATOM     17  C   UNL     1     -39.265 -26.828  35.400  1.00  0.00     0.158 A 
BRANCH  15  18
ATOM     18  O   UNL     1     -37.601 -28.464  34.765  1.00  0.00    -0.504 OA
ATOM     19  H   UNL     1     -36.652 -28.134  34.888  1.00  0.00     0.293 HD
ENDBRANCH  15  18
BRANCH  17  20
ATOM     20  O   UNL     1     -38.858 -26.944  36.728  1.00  0.00    -0.504 OA
ATOM     21  H   UNL     1     -38.136 -27.600  37.006  1.00  0.00     0.293 HD
ENDBRANCH  17  20
ENDBRANCH   1  12
BRANCH   2  22
ATOM     22  O   UNL     1     -40.421 -23.738  31.723  1.00  0.00    -0.502 OA
ATOM     23  H   UNL     1     -39.601 -23.375  32.193  1.00  0.00     0.293 HD
ENDBRANCH   2  22
BRANCH   6  24
ATOM     24  O   UNL     1     -45.146 -21.279  31.771  1.00  0.00    -0.507 OA
ATOM     25  H   UNL     1     -45.078 -20.350  32.159  1.00  0.00     0.293 HD
ENDBRANCH   6  24
BRANCH   8  26
ATOM     26  O   UNL     1     -47.641 -24.255  34.569  1.00  0.00    -0.508 OA
ATOM     27  H   UNL     1     -47.956 -25.215  34.637  1.00  0.00     0.293 HD
ENDBRANCH   8  26
TORSDOF 6
ENDMDL
MODEL 8
REMARK VINA RESULT:    -7.867      6.039      8.021
REMARK INTER + INTRA:          -9.553
REMARK INTER:                  -9.300
REMARK INTRA:                  -0.253
REMARK UNBOUND:                -0.077
REMARK SMILES O=c1c(O)c(-c2ccc(O)c(O)c2)oc2cc(O)cc(O)c12
REMARK SMILES IDX 5 1 3 2 2 3 1 4 22 5 20 6 19 7 17 8 16 9 15 10 14 11 6 12
REMARK SMILES IDX 7 13 8 14 9 15 13 16 11 17 10 18 12 20 4 22 21 24 18 26
REMARK H PARENT 10 19 12 21 4 23 21 25 18 27
REMARK Flexibility Score: inf
ROOT
ATOM      1  C   UNL     1     -44.238 -21.923  31.217  1.00  0.00     0.180 A 
ATOM      2  C   UNL     1     -45.057 -22.374  32.266  1.00  0.00     0.208 A 
ATOM      3  C   UNL     1     -44.552 -23.330  33.161  1.00  0.00     0.238 A 
ATOM      4  O   UNL     1     -45.309 -23.771  34.066  1.00  0.00    -0.285 OA
ATOM      5  C   UNL     1     -43.229 -23.812  33.006  1.00  0.00     0.111 A 
ATOM      6  C   UNL     1     -42.603 -24.752  33.878  1.00  0.00     0.134 A 
ATOM      7  C   UNL     1     -41.337 -25.256  33.554  1.00  0.00     0.093 A 
ATOM      8  C   UNL     1     -40.650 -24.807  32.427  1.00  0.00     0.123 A 
ATOM      9  C   UNL     1     -41.229 -23.845  31.599  1.00  0.00     0.094 A 
ATOM     10  C   UNL     1     -42.505 -23.350  31.877  1.00  0.00     0.146 A 
ATOM     11  O   UNL     1     -43.026 -22.442  31.059  1.00  0.00    -0.452 OA
ENDROOT
BRANCH   1  12
ATOM     12  C   UNL     1     -44.690 -20.897  30.249  1.00  0.00     0.025 A 
ATOM     13  C   UNL     1     -45.590 -21.257  29.233  1.00  0.00     0.016 A 
ATOM     14  C   UNL     1     -46.014 -20.310  28.296  1.00  0.00     0.051 A 
ATOM     15  C   UNL     1     -45.534 -18.996  28.353  1.00  0.00     0.157 A 
ATOM     16  C   UNL     1     -44.195 -19.582  30.290  1.00  0.00     0.062 A 
ATOM     17  C   UNL     1     -44.618 -18.632  29.350  1.00  0.00     0.158 A 
BRANCH  15  18
ATOM     18  O   UNL     1     -45.956 -18.048  27.422  1.00  0.00    -0.504 OA
ATOM     19  H   UNL     1     -45.799 -18.174  26.430  1.00  0.00     0.293 HD
ENDBRANCH  15  18
BRANCH  17  20
ATOM     20  O   UNL     1     -44.131 -17.327  29.395  1.00  0.00    -0.504 OA
ATOM     21  H   UNL     1     -44.408 -16.684  30.129  1.00  0.00     0.293 HD
ENDBRANCH  17  20
ENDBRANCH   1  12
BRANCH   2  22
ATOM     22  O   UNL     1     -46.367 -21.902  32.388  1.00  0.00    -0.502 OA
ATOM     23  H   UNL     1     -46.628 -21.189  33.058  1.00  0.00     0.293 HD
ENDBRANCH   2  22
BRANCH   6  24
ATOM     24  O   UNL     1     -43.162 -25.198  35.079  1.00  0.00    -0.507 OA
ATOM     25  H   UNL     1     -42.769 -25.921  35.662  1.00  0.00     0.293 HD
ENDBRANCH   6  24
BRANCH   8  26
ATOM     26  O   UNL     1     -39.385 -25.319  32.143  1.00  0.00    -0.508 OA
ATOM     27  H   UNL     1     -39.198 -26.314  32.170  1.00  0.00     0.293 HD
ENDBRANCH   8  26
TORSDOF 6
ENDMDL
MODEL 9
REMARK VINA RESULT:    -7.695      3.948      5.538
REMARK INTER + INTRA:          -9.347
REMARK INTER:                  -9.053
REMARK INTRA:                  -0.294
REMARK UNBOUND:                -0.077
REMARK SMILES O=c1c(O)c(-c2ccc(O)c(O)c2)oc2cc(O)cc(O)c12
REMARK SMILES IDX 5 1 3 2 2 3 1 4 22 5 20 6 19 7 17 8 16 9 15 10 14 11 6 12
REMARK SMILES IDX 7 13 8 14 9 15 13 16 11 17 10 18 12 20 4 22 21 24 18 26
REMARK H PARENT 10 19 12 21 4 23 21 25 18 27
REMARK Flexibility Score: inf
ROOT
ATOM      1  C   UNL     1     -44.239 -18.745  31.638  1.00  0.00     0.180 A 
ATOM      2  C   UNL     1     -44.781 -19.948  32.124  1.00  0.00     0.208 A 
ATOM      3  C   UNL     1     -45.152 -20.946  31.209  1.00  0.00     0.238 A 
ATOM      4  O   UNL     1     -45.687 -21.998  31.646  1.00  0.00    -0.285 OA
ATOM      5  C   UNL     1     -44.961 -20.736  29.821  1.00  0.00     0.111 A 
ATOM      6  C   UNL     1     -45.265 -21.694  28.809  1.00  0.00     0.134 A 
ATOM      7  C   UNL     1     -45.158 -21.331  27.461  1.00  0.00     0.093 A 
ATOM      8  C   UNL     1     -44.698 -20.068  27.089  1.00  0.00     0.123 A 
ATOM      9  C   UNL     1     -44.342 -19.143  28.072  1.00  0.00     0.094 A 
ATOM     10  C   UNL     1     -44.472 -19.464  29.425  1.00  0.00     0.146 A 
ATOM     11  O   UNL     1     -44.133 -18.552  30.329  1.00  0.00    -0.452 OA
ENDROOT
BRANCH   1  12
ATOM     12  C   UNL     1     -43.800 -17.657  32.542  1.00  0.00     0.025 A 
ATOM     13  C   UNL     1     -42.444 -17.553  32.890  1.00  0.00     0.016 A 
ATOM     14  C   UNL     1     -42.011 -16.547  33.758  1.00  0.00     0.051 A 
ATOM     15  C   UNL     1     -42.929 -15.639  34.300  1.00  0.00     0.157 A 
ATOM     16  C   UNL     1     -44.721 -16.756  33.105  1.00  0.00     0.062 A 
ATOM     17  C   UNL     1     -44.288 -15.747  33.977  1.00  0.00     0.158 A 
BRANCH  15  18
ATOM     18  O   UNL     1     -42.501 -14.633  35.164  1.00  0.00    -0.504 OA
ATOM     19  H   UNL     1     -41.556 -14.613  35.528  1.00  0.00     0.293 HD
ENDBRANCH  15  18
BRANCH  17  20
ATOM     20  O   UNL     1     -45.201 -14.850  34.529  1.00  0.00    -0.504 OA
ATOM     21  H   UNL     1     -46.201 -14.984  34.430  1.00  0.00     0.293 HD
ENDBRANCH  17  20
ENDBRANCH   1  12
BRANCH   2  22
ATOM     22  O   UNL     1     -44.981 -20.124  33.496  1.00  0.00    -0.502 OA
ATOM     23  H   UNL     1     -44.732 -20.980  33.976  1.00  0.00     0.293 HD
ENDBRANCH   2  22
BRANCH   6  24
ATOM     24  O   UNL     1     -45.644 -23.014  29.070  1.00  0.00    -0.507 OA
ATOM     25  H   UNL     1     -45.478 -23.497  29.940  1.00  0.00     0.293 HD
ENDBRANCH   6  24
BRANCH   8  26
ATOM     26  O   UNL     1     -44.589 -19.746  25.737  1.00  0.00    -0.508 OA
ATOM     27  H   UNL     1     -43.703 -19.478  25.327  1.00  0.00     0.293 HD
ENDBRANCH   8  26
TORSDOF 6
ENDMDL
