MODEL 1
REMARK VINA RESULT:    44.058      0.000      0.000
REMARK INTER + INTRA:          59.798
REMARK INTER:                  60.800
REMARK INTRA:                  -1.002
REMARK UNBOUND:                -1.002
REMARK SMILES CC[C@H](CC[C@H](C)[C@@H]1CC[C@@H]2[C@@H]3CC=C4C[C@H](O)CC[C@@]4(C)[C@@H]3CC[C@@]21C)C(C)C
REMARK SMILES IDX 5 1 4 2 3 3 2 4 1 5 28 6 29 7 30 8 6 9 7 10 8 11 9 12 26 13
REMARK SMILES IDX 10 14 11 15 25 16 27 17 12 18 24 19 23 20 13 21 21 22 14 23
REMARK SMILES IDX 15 24 20 25 22 26 16 27 19 28 17 29 18 30
REMARK H PARENT 18 31
REMARK Flexibility Score: inf
ROOT
ATOM      1  C   UNL     1     -30.667  31.966  -2.535  1.00  0.00     0.004 C 
ENDROOT
BRANCH   1   2
ATOM      2  C   UNL     1     -31.905  31.201  -2.021  1.00  0.00     0.004 C 
BRANCH   2   3
ATOM      3  C   UNL     1     -32.731  30.497  -3.139  1.00  0.00    -0.009 C 
BRANCH   3   4
ATOM      4  C   UNL     1     -32.484  28.958  -3.175  1.00  0.00     0.000 C 
ATOM      5  C   UNL     1     -31.950  28.373  -1.866  1.00  0.00     0.004 C 
ENDBRANCH   3   4
BRANCH   3   6
ATOM      6  C   UNL     1     -34.253  30.871  -3.044  1.00  0.00    -0.014 C 
ATOM      7  C   UNL     1     -35.025  30.473  -4.317  1.00  0.00     0.007 C 
ATOM      8  C   UNL     1     -34.943  30.217  -1.829  1.00  0.00     0.007 C 
ENDBRANCH   3   6
ENDBRANCH   2   3
ENDBRANCH   1   2
BRANCH   1   9
ATOM      9  C   UNL     1     -29.368  31.545  -1.771  1.00  0.00    -0.011 C 
ATOM     10  C   UNL     1     -29.665  31.649  -0.254  1.00  0.00     0.008 C 
BRANCH   9  11
ATOM     11  C   UNL     1     -28.131  32.408  -2.233  1.00  0.00    -0.002 C 
ATOM     12  C   UNL     1     -28.581  33.776  -2.797  1.00  0.00     0.005 C 
ATOM     13  C   UNL     1     -27.098  31.835  -3.308  1.00  0.00    -0.026 C 
ATOM     14  C   UNL     1     -28.329  33.737  -4.278  1.00  0.00     0.005 C 
ATOM     15  C   UNL     1     -27.061  32.914  -4.444  1.00  0.00    -0.001 C 
ATOM     16  C   UNL     1     -27.454  30.454  -3.921  1.00  0.00     0.007 C 
ATOM     17  C   UNL     1     -25.715  31.717  -2.603  1.00  0.00     0.012 C 
ATOM     18  C   UNL     1     -26.817  32.419  -5.916  1.00  0.00     0.000 C 
ATOM     19  C   UNL     1     -26.600  30.024  -5.141  1.00  0.00     0.005 C 
ATOM     20  C   UNL     1     -25.911  31.177  -5.931  1.00  0.00     0.003 C 
ATOM     21  C   UNL     1     -28.082  32.142  -6.761  1.00  0.00     0.031 C 
ATOM     22  C   UNL     1     -25.466  30.780  -7.398  1.00  0.00    -0.008 C 
ATOM     23  C   UNL     1     -27.751  31.588  -8.120  1.00  0.00    -0.027 C 
ATOM     24  C   UNL     1     -26.608  30.928  -8.407  1.00  0.00    -0.065 C 
ATOM     25  C   UNL     1     -24.312  31.725  -7.873  1.00  0.00     0.014 C 
ATOM     26  C   UNL     1     -24.930  29.319  -7.407  1.00  0.00     0.016 C 
ATOM     27  C   UNL     1     -26.275  30.664  -9.859  1.00  0.00     0.063 C 
ATOM     28  C   UNL     1     -23.934  31.556  -9.363  1.00  0.00     0.033 C 
ATOM     29  C   UNL     1     -25.166  31.639 -10.292  1.00  0.00     0.118 C 
BRANCH  29  30
ATOM     30  O   UNL     1     -24.795  31.406 -11.627  1.00  0.00    -0.393 OA
ATOM     31  H   UNL     1     -24.734  32.288 -12.080  1.00  0.00     0.210 HD
ENDBRANCH  29  30
ENDBRANCH   9  11
ENDBRANCH   1   9
TORSDOF 7
ENDMDL
