MODEL 1
REMARK VINA RESULT:    -5.234      0.000      0.000
REMARK INTER + INTRA:         -15.255
REMARK INTER:                 -11.353
REMARK INTRA:                  -3.902
REMARK UNBOUND:                -3.902
REMARK SMILES CCCCCCCCCCCCCCCCCCCCCC(=O)[O-]
REMARK SMILES IDX 12 1 11 2 10 3 9 4 8 5 7 6 6 7 5 8 4 9 3 10 2 11 1 12 13 13
REMARK SMILES IDX 14 14 15 15 16 16 17 17 18 18 19 19 20 20 21 21 22 22 23 23
REMARK SMILES IDX 24 24
REMARK H PARENT
REMARK Flexibility Score: inf
ROOT
ATOM      1  C   UNL     1     138.499 130.928 128.163  1.00  0.00     0.000 C 
ENDROOT
BRANCH   1   2
ATOM      2  C   UNL     1     137.104 131.080 127.536  1.00  0.00     0.000 C 
BRANCH   2   3
ATOM      3  C   UNL     1     136.909 132.441 126.850  1.00  0.00     0.000 C 
BRANCH   3   4
ATOM      4  C   UNL     1     136.882 133.607 127.849  1.00  0.00    -0.000 C 
BRANCH   4   5
ATOM      5  C   UNL     1     135.452 133.885 128.328  1.00  0.00    -0.000 C 
BRANCH   5   6
ATOM      6  C   UNL     1     135.445 134.405 129.771  1.00  0.00    -0.000 C 
BRANCH   6   7
ATOM      7  C   UNL     1     136.488 133.676 130.625  1.00  0.00    -0.000 C 
BRANCH   7   8
ATOM      8  C   UNL     1     135.830 132.592 131.493  1.00  0.00    -0.000 C 
BRANCH   8   9
ATOM      9  C   UNL     1     134.291 132.712 131.515  1.00  0.00    -0.000 C 
BRANCH   9  10
ATOM     10  C   UNL     1     133.561 131.392 131.203  1.00  0.00    -0.000 C 
BRANCH  10  11
ATOM     11  C   UNL     1     133.758 130.871 129.770  1.00  0.00    -0.003 C 
ATOM     12  C   UNL     1     134.764 129.724 129.688  1.00  0.00     0.004 C 
ENDBRANCH  10  11
ENDBRANCH   9  10
ENDBRANCH   8   9
ENDBRANCH   7   8
ENDBRANCH   6   7
ENDBRANCH   5   6
ENDBRANCH   4   5
ENDBRANCH   3   4
ENDBRANCH   2   3
ENDBRANCH   1   2
BRANCH   1  13
ATOM     13  C   UNL     1     138.436 130.078 129.438  1.00  0.00     0.000 C 
BRANCH  13  14
ATOM     14  C   UNL     1     138.995 130.848 130.643  1.00  0.00     0.000 C 
BRANCH  14  15
ATOM     15  C   UNL     1     139.651 132.183 130.250  1.00  0.00     0.000 C 
BRANCH  15  16
ATOM     16  C   UNL     1     139.962 133.098 131.454  1.00  0.00     0.000 C 
BRANCH  16  17
ATOM     17  C   UNL     1     140.347 134.522 131.016  1.00  0.00     0.000 C 
BRANCH  17  18
ATOM     18  C   UNL     1     139.986 134.799 129.540  1.00  0.00     0.000 C 
BRANCH  18  19
ATOM     19  C   UNL     1     139.046 136.000 129.349  1.00  0.00     0.000 C 
BRANCH  19  20
ATOM     20  C   UNL     1     139.010 136.929 130.573  1.00  0.00     0.006 C 
BRANCH  20  21
ATOM     21  C   UNL     1     137.580 137.189 131.064  1.00  0.00     0.053 C 
BRANCH  21  22
ATOM     22  C   UNL     1     136.942 138.337 130.342  1.00  0.00     0.041 C 
ATOM     23  O   UNL     1     137.630 139.337 130.007  1.00  0.00    -0.550 OA
ATOM     24  O   UNL     1     135.593 138.290 130.015  1.00  0.00    -0.550 OA
ENDBRANCH  21  22
ENDBRANCH  20  21
ENDBRANCH  19  20
ENDBRANCH  18  19
ENDBRANCH  17  18
ENDBRANCH  16  17
ENDBRANCH  15  16
ENDBRANCH  14  15
ENDBRANCH  13  14
ENDBRANCH   1  13
TORSDOF 20
ENDMDL
MODEL 2
REMARK VINA RESULT:    -4.804      2.931      6.105
REMARK INTER + INTRA:         -14.322
REMARK INTER:                 -11.375
REMARK INTRA:                  -2.947
REMARK UNBOUND:                -3.902
REMARK SMILES CCCCCCCCCCCCCCCCCCCCCC(=O)[O-]
REMARK SMILES IDX 12 1 11 2 10 3 9 4 8 5 7 6 6 7 5 8 4 9 3 10 2 11 1 12 13 13
REMARK SMILES IDX 14 14 15 15 16 16 17 17 18 18 19 19 20 20 21 21 22 22 23 23
REMARK SMILES IDX 24 24
REMARK H PARENT
REMARK Flexibility Score: inf
ROOT
ATOM      1  C   UNL     1     138.512 130.132 129.052  1.00  0.00     0.000 C 
ENDROOT
BRANCH   1   2
ATOM      2  C   UNL     1     137.565 130.610 130.163  1.00  0.00     0.000 C 
BRANCH   2   3
ATOM      3  C   UNL     1     138.318 131.163 131.383  1.00  0.00     0.000 C 
BRANCH   3   4
ATOM      4  C   UNL     1     138.527 132.683 131.310  1.00  0.00    -0.000 C 
BRANCH   4   5
ATOM      5  C   UNL     1     139.898 133.020 130.712  1.00  0.00    -0.000 C 
BRANCH   5   6
ATOM      6  C   UNL     1     140.395 134.384 131.206  1.00  0.00    -0.000 C 
BRANCH   6   7
ATOM      7  C   UNL     1     139.982 135.502 130.243  1.00  0.00    -0.000 C 
BRANCH   7   8
ATOM      8  C   UNL     1     139.595 136.776 131.010  1.00  0.00    -0.000 C 
BRANCH   8   9
ATOM      9  C   UNL     1     138.525 137.606 130.268  1.00  0.00    -0.000 C 
BRANCH   9  10
ATOM     10  C   UNL     1     137.079 137.184 130.590  1.00  0.00    -0.000 C 
BRANCH  10  11
ATOM     11  C   UNL     1     136.021 138.273 130.345  1.00  0.00    -0.003 C 
ATOM     12  C   UNL     1     136.619 139.677 130.277  1.00  0.00     0.004 C 
ENDBRANCH  10  11
ENDBRANCH   9  10
ENDBRANCH   8   9
ENDBRANCH   7   8
ENDBRANCH   6   7
ENDBRANCH   5   6
ENDBRANCH   4   5
ENDBRANCH   3   4
ENDBRANCH   2   3
ENDBRANCH   1   2
BRANCH   1  13
ATOM     13  C   UNL     1     138.218 130.855 127.732  1.00  0.00     0.000 C 
BRANCH  13  14
ATOM     14  C   UNL     1     136.763 131.343 127.682  1.00  0.00     0.000 C 
BRANCH  14  15
ATOM     15  C   UNL     1     136.621 132.747 127.072  1.00  0.00     0.000 C 
BRANCH  15  16
ATOM     16  C   UNL     1     137.196 133.870 127.962  1.00  0.00     0.000 C 
BRANCH  16  17
ATOM     17  C   UNL     1     136.462 133.972 129.311  1.00  0.00     0.000 C 
BRANCH  17  18
ATOM     18  C   UNL     1     135.091 134.670 129.182  1.00  0.00     0.000 C 
BRANCH  18  19
ATOM     19  C   UNL     1     133.966 133.969 129.960  1.00  0.00     0.000 C 
BRANCH  19  20
ATOM     20  C   UNL     1     134.380 132.588 130.492  1.00  0.00     0.006 C 
BRANCH  20  21
ATOM     21  C   UNL     1     133.953 131.452 129.553  1.00  0.00     0.053 C 
BRANCH  21  22
ATOM     22  C   UNL     1     133.643 130.193 130.304  1.00  0.00     0.041 C 
ATOM     23  O   UNL     1     132.706 130.170 131.145  1.00  0.00    -0.550 OA
ATOM     24  O   UNL     1     134.371 129.037 130.054  1.00  0.00    -0.550 OA
ENDBRANCH  21  22
ENDBRANCH  20  21
ENDBRANCH  19  20
ENDBRANCH  18  19
ENDBRANCH  17  18
ENDBRANCH  16  17
ENDBRANCH  15  16
ENDBRANCH  14  15
ENDBRANCH  13  14
ENDBRANCH   1  13
TORSDOF 20
ENDMDL
MODEL 3
REMARK VINA RESULT:    -4.799      2.977      6.370
REMARK INTER + INTRA:         -14.313
REMARK INTER:                 -11.221
REMARK INTRA:                  -3.091
REMARK UNBOUND:                -3.902
REMARK SMILES CCCCCCCCCCCCCCCCCCCCCC(=O)[O-]
REMARK SMILES IDX 12 1 11 2 10 3 9 4 8 5 7 6 6 7 5 8 4 9 3 10 2 11 1 12 13 13
REMARK SMILES IDX 14 14 15 15 16 16 17 17 18 18 19 19 20 20 21 21 22 22 23 23
REMARK SMILES IDX 24 24
REMARK H PARENT
REMARK Flexibility Score: inf
ROOT
ATOM      1  C   UNL     1     135.963 132.850 132.633  1.00  0.00     0.000 C 
ENDROOT
BRANCH   1   2
ATOM      2  C   UNL     1     137.053 132.532 131.599  1.00  0.00     0.000 C 
BRANCH   2   3
ATOM      3  C   UNL     1     138.449 132.410 132.230  1.00  0.00     0.000 C 
BRANCH   3   4
ATOM      4  C   UNL     1     139.566 132.888 131.291  1.00  0.00    -0.000 C 
BRANCH   4   5
ATOM      5  C   UNL     1     140.524 133.839 132.018  1.00  0.00    -0.000 C 
BRANCH   5   6
ATOM      6  C   UNL     1     140.599 135.196 131.307  1.00  0.00    -0.000 C 
BRANCH   6   7
ATOM      7  C   UNL     1     140.296 135.053 129.812  1.00  0.00    -0.000 C 
BRANCH   7   8
ATOM      8  C   UNL     1     139.072 135.891 129.414  1.00  0.00    -0.000 C 
BRANCH   8   9
ATOM      9  C   UNL     1     138.582 136.797 130.564  1.00  0.00    -0.000 C 
BRANCH   9  10
ATOM     10  C   UNL     1     137.085 136.634 130.888  1.00  0.00    -0.000 C 
BRANCH  10  11
ATOM     11  C   UNL     1     136.184 137.760 130.354  1.00  0.00    -0.003 C 
ATOM     12  C   UNL     1     136.912 139.098 130.237  1.00  0.00     0.004 C 
ENDBRANCH  10  11
ENDBRANCH   9  10
ENDBRANCH   8   9
ENDBRANCH   7   8
ENDBRANCH   6   7
ENDBRANCH   5   6
ENDBRANCH   4   5
ENDBRANCH   3   4
ENDBRANCH   2   3
ENDBRANCH   1   2
BRANCH   1  13
ATOM     13  C   UNL     1     134.588 132.378 132.143  1.00  0.00     0.000 C 
BRANCH  13  14
ATOM     14  C   UNL     1     134.493 132.453 130.612  1.00  0.00     0.000 C 
BRANCH  14  15
ATOM     15  C   UNL     1     133.958 133.805 130.110  1.00  0.00     0.000 C 
BRANCH  15  16
ATOM     16  C   UNL     1     134.789 134.410 128.958  1.00  0.00     0.000 C 
BRANCH  16  17
ATOM     17  C   UNL     1     136.184 133.769 128.850  1.00  0.00     0.000 C 
BRANCH  17  18
ATOM     18  C   UNL     1     136.612 133.538 127.385  1.00  0.00     0.000 C 
BRANCH  18  19
ATOM     19  C   UNL     1     136.860 132.060 127.039  1.00  0.00     0.000 C 
BRANCH  19  20
ATOM     20  C   UNL     1     136.961 131.166 128.285  1.00  0.00     0.006 C 
BRANCH  20  21
ATOM     21  C   UNL     1     138.356 130.548 128.445  1.00  0.00     0.053 C 
BRANCH  21  22
ATOM     22  C   UNL     1     138.478 129.765 129.717  1.00  0.00     0.041 C 
ATOM     23  O   UNL     1     139.582 129.700 130.319  1.00  0.00    -0.550 OA
ATOM     24  O   UNL     1     137.364 129.131 130.253  1.00  0.00    -0.550 OA
ENDBRANCH  21  22
ENDBRANCH  20  21
ENDBRANCH  19  20
ENDBRANCH  18  19
ENDBRANCH  17  18
ENDBRANCH  16  17
ENDBRANCH  15  16
ENDBRANCH  14  15
ENDBRANCH  13  14
ENDBRANCH   1  13
TORSDOF 20
ENDMDL
MODEL 4
REMARK VINA RESULT:    -4.688      1.184      2.472
REMARK INTER + INTRA:         -14.073
REMARK INTER:                 -10.863
REMARK INTRA:                  -3.210
REMARK UNBOUND:                -3.902
REMARK SMILES CCCCCCCCCCCCCCCCCCCCCC(=O)[O-]
REMARK SMILES IDX 12 1 11 2 10 3 9 4 8 5 7 6 6 7 5 8 4 9 3 10 2 11 1 12 13 13
REMARK SMILES IDX 14 14 15 15 16 16 17 17 18 18 19 19 20 20 21 21 22 22 23 23
REMARK SMILES IDX 24 24
REMARK H PARENT
REMARK Flexibility Score: inf
ROOT
ATOM      1  C   UNL     1     137.009 131.978 126.807  1.00  0.00     0.000 C 
ENDROOT
BRANCH   1   2
ATOM      2  C   UNL     1     137.016 131.104 128.070  1.00  0.00     0.000 C 
BRANCH   2   3
ATOM      3  C   UNL     1     138.408 130.532 128.386  1.00  0.00     0.000 C 
BRANCH   3   4
ATOM      4  C   UNL     1     138.523 130.022 129.830  1.00  0.00    -0.000 C 
BRANCH   4   5
ATOM      5  C   UNL     1     137.372 130.552 130.693  1.00  0.00    -0.000 C 
BRANCH   5   6
ATOM      6  C   UNL     1     137.857 131.657 131.639  1.00  0.00    -0.000 C 
BRANCH   6   7
ATOM      7  C   UNL     1     136.846 132.808 131.705  1.00  0.00    -0.000 C 
BRANCH   7   8
ATOM      8  C   UNL     1     135.804 132.565 132.807  1.00  0.00    -0.000 C 
BRANCH   8   9
ATOM      9  C   UNL     1     134.370 132.453 132.244  1.00  0.00    -0.000 C 
BRANCH   9  10
ATOM     10  C   UNL     1     134.216 133.022 130.822  1.00  0.00    -0.000 C 
BRANCH  10  11
ATOM     11  C   UNL     1     134.054 131.964 129.718  1.00  0.00    -0.003 C 
ATOM     12  C   UNL     1     133.572 130.616 130.254  1.00  0.00     0.004 C 
ENDBRANCH  10  11
ENDBRANCH   9  10
ENDBRANCH   8   9
ENDBRANCH   7   8
ENDBRANCH   6   7
ENDBRANCH   5   6
ENDBRANCH   4   5
ENDBRANCH   3   4
ENDBRANCH   2   3
ENDBRANCH   1   2
BRANCH   1  13
ATOM     13  C   UNL     1     136.614 133.421 127.142  1.00  0.00     0.000 C 
BRANCH  13  14
ATOM     14  C   UNL     1     137.021 133.786 128.577  1.00  0.00     0.000 C 
BRANCH  14  15
ATOM     15  C   UNL     1     138.396 134.471 128.654  1.00  0.00     0.000 C 
BRANCH  15  16
ATOM     16  C   UNL     1     139.414 133.717 129.535  1.00  0.00     0.000 C 
BRANCH  16  17
ATOM     17  C   UNL     1     140.140 134.656 130.516  1.00  0.00     0.000 C 
BRANCH  17  18
ATOM     18  C   UNL     1     140.112 136.127 130.047  1.00  0.00     0.000 C 
BRANCH  18  19
ATOM     19  C   UNL     1     139.471 137.087 131.063  1.00  0.00     0.000 C 
BRANCH  19  20
ATOM     20  C   UNL     1     138.311 137.899 130.464  1.00  0.00     0.006 C 
BRANCH  20  21
ATOM     21  C   UNL     1     136.963 137.181 130.610  1.00  0.00     0.053 C 
BRANCH  21  22
ATOM     22  C   UNL     1     135.820 138.043 130.170  1.00  0.00     0.041 C 
ATOM     23  O   UNL     1     135.951 139.295 130.121  1.00  0.00    -0.550 OA
ATOM     24  O   UNL     1     134.618 137.462 129.787  1.00  0.00    -0.550 OA
ENDBRANCH  21  22
ENDBRANCH  20  21
ENDBRANCH  19  20
ENDBRANCH  18  19
ENDBRANCH  17  18
ENDBRANCH  16  17
ENDBRANCH  15  16
ENDBRANCH  14  15
ENDBRANCH  13  14
ENDBRANCH   1  13
TORSDOF 20
ENDMDL
MODEL 5
REMARK VINA RESULT:    -4.674      2.855      5.988
REMARK INTER + INTRA:         -14.040
REMARK INTER:                 -10.937
REMARK INTRA:                  -3.104
REMARK UNBOUND:                -3.902
REMARK SMILES CCCCCCCCCCCCCCCCCCCCCC(=O)[O-]
REMARK SMILES IDX 12 1 11 2 10 3 9 4 8 5 7 6 6 7 5 8 4 9 3 10 2 11 1 12 13 13
REMARK SMILES IDX 14 14 15 15 16 16 17 17 18 18 19 19 20 20 21 21 22 22 23 23
REMARK SMILES IDX 24 24
REMARK H PARENT
REMARK Flexibility Score: inf
ROOT
ATOM      1  C   UNL     1     139.966 135.831 130.563  1.00  0.00     0.000 C 
ENDROOT
BRANCH   1   2
ATOM      2  C   UNL     1     139.371 135.417 129.209  1.00  0.00     0.000 C 
BRANCH   2   3
ATOM      3  C   UNL     1     138.780 133.998 129.232  1.00  0.00     0.000 C 
BRANCH   3   4
ATOM      4  C   UNL     1     138.042 133.687 130.542  1.00  0.00    -0.000 C 
BRANCH   4   5
ATOM      5  C   UNL     1     138.622 132.437 131.214  1.00  0.00    -0.000 C 
BRANCH   5   6
ATOM      6  C   UNL     1     139.569 131.690 130.267  1.00  0.00    -0.000 C 
BRANCH   6   7
ATOM      7  C   UNL     1     139.325 130.178 130.323  1.00  0.00    -0.000 C 
BRANCH   7   8
ATOM      8  C   UNL     1     138.238 129.758 129.323  1.00  0.00    -0.000 C 
BRANCH   8   9
ATOM      9  C   UNL     1     138.288 130.582 128.019  1.00  0.00    -0.000 C 
BRANCH   9  10
ATOM     10  C   UNL     1     136.944 131.234 127.645  1.00  0.00    -0.000 C 
BRANCH  10  11
ATOM     11  C   UNL     1     137.018 132.246 126.490  1.00  0.00    -0.003 C 
ATOM     12  C   UNL     1     136.249 133.535 126.781  1.00  0.00     0.004 C 
ENDBRANCH  10  11
ENDBRANCH   9  10
ENDBRANCH   8   9
ENDBRANCH   7   8
ENDBRANCH   6   7
ENDBRANCH   5   6
ENDBRANCH   4   5
ENDBRANCH   3   4
ENDBRANCH   2   3
ENDBRANCH   1   2
BRANCH   1  13
ATOM     13  C   UNL     1     139.417 137.192 131.009  1.00  0.00     0.000 C 
BRANCH  13  14
ATOM     14  C   UNL     1     138.191 137.592 130.177  1.00  0.00     0.000 C 
BRANCH  14  15
ATOM     15  C   UNL     1     136.861 137.194 130.839  1.00  0.00     0.000 C 
BRANCH  15  16
ATOM     16  C   UNL     1     135.623 137.832 130.173  1.00  0.00     0.000 C 
BRANCH  16  17
ATOM     17  C   UNL     1     134.530 136.792 129.867  1.00  0.00     0.000 C 
BRANCH  17  18
ATOM     18  C   UNL     1     135.078 135.349 129.863  1.00  0.00     0.000 C 
BRANCH  18  19
ATOM     19  C   UNL     1     133.983 134.272 129.942  1.00  0.00     0.000 C 
BRANCH  19  20
ATOM     20  C   UNL     1     134.491 132.950 130.538  1.00  0.00     0.006 C 
BRANCH  20  21
ATOM     21  C   UNL     1     134.491 131.811 129.510  1.00  0.00     0.053 C 
BRANCH  21  22
ATOM     22  C   UNL     1     134.046 130.513 130.113  1.00  0.00     0.041 C 
ATOM     23  O   UNL     1     134.673 129.450 129.866  1.00  0.00    -0.550 OA
ATOM     24  O   UNL     1     132.953 130.484 130.969  1.00  0.00    -0.550 OA
ENDBRANCH  21  22
ENDBRANCH  20  21
ENDBRANCH  19  20
ENDBRANCH  18  19
ENDBRANCH  17  18
ENDBRANCH  16  17
ENDBRANCH  15  16
ENDBRANCH  14  15
ENDBRANCH  13  14
ENDBRANCH   1  13
TORSDOF 20
ENDMDL
MODEL 6
REMARK VINA RESULT:    -4.673      1.858      3.688
REMARK INTER + INTRA:         -14.039
REMARK INTER:                 -10.970
REMARK INTRA:                  -3.069
REMARK UNBOUND:                -3.902
REMARK SMILES CCCCCCCCCCCCCCCCCCCCCC(=O)[O-]
REMARK SMILES IDX 12 1 11 2 10 3 9 4 8 5 7 6 6 7 5 8 4 9 3 10 2 11 1 12 13 13
REMARK SMILES IDX 14 14 15 15 16 16 17 17 18 18 19 19 20 20 21 21 22 22 23 23
REMARK SMILES IDX 24 24
REMARK H PARENT
REMARK Flexibility Score: inf
ROOT
ATOM      1  C   UNL     1     136.796 131.411 127.923  1.00  0.00     0.000 C 
ENDROOT
BRANCH   1   2
ATOM      2  C   UNL     1     138.223 130.848 128.009  1.00  0.00     0.000 C 
BRANCH   2   3
ATOM      3  C   UNL     1     138.380 129.806 129.128  1.00  0.00     0.000 C 
BRANCH   3   4
ATOM      4  C   UNL     1     139.210 130.330 130.309  1.00  0.00    -0.000 C 
BRANCH   4   5
ATOM      5  C   UNL     1     139.165 131.860 130.376  1.00  0.00    -0.000 C 
BRANCH   5   6
ATOM      6  C   UNL     1     138.360 132.336 131.592  1.00  0.00    -0.000 C 
BRANCH   6   7
ATOM      7  C   UNL     1     136.921 131.811 131.541  1.00  0.00    -0.000 C 
BRANCH   7   8
ATOM      8  C   UNL     1     135.943 132.821 132.159  1.00  0.00    -0.000 C 
BRANCH   8   9
ATOM      9  C   UNL     1     134.468 132.445 131.901  1.00  0.00    -0.000 C 
BRANCH   9  10
ATOM     10  C   UNL     1     134.206 131.899 130.485  1.00  0.00    -0.000 C 
BRANCH  10  11
ATOM     11  C   UNL     1     133.509 130.529 130.441  1.00  0.00    -0.003 C 
ATOM     12  C   UNL     1     134.411 129.422 129.896  1.00  0.00     0.004 C 
ENDBRANCH  10  11
ENDBRANCH   9  10
ENDBRANCH   8   9
ENDBRANCH   7   8
ENDBRANCH   6   7
ENDBRANCH   5   6
ENDBRANCH   4   5
ENDBRANCH   3   4
ENDBRANCH   2   3
ENDBRANCH   1   2
BRANCH   1  13
ATOM     13  C   UNL     1     136.803 132.836 127.355  1.00  0.00     0.000 C 
BRANCH  13  14
ATOM     14  C   UNL     1     136.597 133.874 128.466  1.00  0.00     0.000 C 
BRANCH  14  15
ATOM     15  C   UNL     1     135.117 134.234 128.684  1.00  0.00     0.000 C 
BRANCH  15  16
ATOM     16  C   UNL     1     134.906 135.440 129.625  1.00  0.00     0.000 C 
BRANCH  16  17
ATOM     17  C   UNL     1     136.223 135.916 130.262  1.00  0.00     0.000 C 
BRANCH  17  18
ATOM     18  C   UNL     1     136.248 137.444 130.484  1.00  0.00     0.000 C 
BRANCH  18  19
ATOM     19  C   UNL     1     137.638 138.073 130.296  1.00  0.00     0.000 C 
BRANCH  19  20
ATOM     20  C   UNL     1     138.704 137.048 129.879  1.00  0.00     0.006 C 
BRANCH  20  21
ATOM     21  C   UNL     1     139.594 136.624 131.055  1.00  0.00     0.053 C 
BRANCH  21  22
ATOM     22  C   UNL     1     140.355 135.368 130.756  1.00  0.00     0.041 C 
ATOM     23  O   UNL     1     140.980 134.772 131.672  1.00  0.00    -0.550 OA
ATOM     24  O   UNL     1     140.350 134.842 129.471  1.00  0.00    -0.550 OA
ENDBRANCH  21  22
ENDBRANCH  20  21
ENDBRANCH  19  20
ENDBRANCH  18  19
ENDBRANCH  17  18
ENDBRANCH  16  17
ENDBRANCH  15  16
ENDBRANCH  14  15
ENDBRANCH  13  14
ENDBRANCH   1  13
TORSDOF 20
ENDMDL
MODEL 7
REMARK VINA RESULT:    -4.668      0.819      2.817
REMARK INTER + INTRA:         -14.029
REMARK INTER:                 -10.884
REMARK INTRA:                  -3.145
REMARK UNBOUND:                -3.902
REMARK SMILES CCCCCCCCCCCCCCCCCCCCCC(=O)[O-]
REMARK SMILES IDX 12 1 11 2 10 3 9 4 8 5 7 6 6 7 5 8 4 9 3 10 2 11 1 12 13 13
REMARK SMILES IDX 14 14 15 15 16 16 17 17 18 18 19 19 20 20 21 21 22 22 23 23
REMARK SMILES IDX 24 24
REMARK H PARENT
REMARK Flexibility Score: inf
ROOT
ATOM      1  C   UNL     1     137.231 130.058 130.113  1.00  0.00     0.000 C 
ENDROOT
BRANCH   1   2
ATOM      2  C   UNL     1     135.982 130.236 129.237  1.00  0.00     0.000 C 
BRANCH   2   3
ATOM      3  C   UNL     1     134.700 129.745 129.928  1.00  0.00     0.000 C 
BRANCH   3   4
ATOM      4  C   UNL     1     133.606 130.821 129.979  1.00  0.00    -0.000 C 
BRANCH   4   5
ATOM      5  C   UNL     1     133.720 131.659 131.258  1.00  0.00    -0.000 C 
BRANCH   5   6
ATOM      6  C   UNL     1     134.631 132.874 131.042  1.00  0.00    -0.000 C 
BRANCH   6   7
ATOM      7  C   UNL     1     133.968 133.902 130.118  1.00  0.00    -0.000 C 
BRANCH   7   8
ATOM      8  C   UNL     1     134.998 134.540 129.174  1.00  0.00    -0.000 C 
BRANCH   8   9
ATOM      9  C   UNL     1     136.416 133.960 129.373  1.00  0.00    -0.000 C 
BRANCH   9  10
ATOM     10  C   UNL     1     137.212 133.805 128.064  1.00  0.00    -0.000 C 
BRANCH  10  11
ATOM     11  C   UNL     1     136.430 133.162 126.907  1.00  0.00    -0.003 C 
ATOM     12  C   UNL     1     137.042 131.843 126.437  1.00  0.00     0.004 C 
ENDBRANCH  10  11
ENDBRANCH   9  10
ENDBRANCH   8   9
ENDBRANCH   7   8
ENDBRANCH   6   7
ENDBRANCH   5   6
ENDBRANCH   4   5
ENDBRANCH   3   4
ENDBRANCH   2   3
ENDBRANCH   1   2
BRANCH   1  13
ATOM     13  C   UNL     1     138.501 130.020 129.255  1.00  0.00     0.000 C 
BRANCH  13  14
ATOM     14  C   UNL     1     139.363 131.268 129.488  1.00  0.00     0.000 C 
BRANCH  14  15
ATOM     15  C   UNL     1     139.285 131.791 130.932  1.00  0.00     0.000 C 
BRANCH  15  16
ATOM     16  C   UNL     1     139.050 133.314 131.028  1.00  0.00     0.000 C 
BRANCH  16  17
ATOM     17  C   UNL     1     140.334 134.075 131.404  1.00  0.00     0.000 C 
BRANCH  17  18
ATOM     18  C   UNL     1     140.723 135.128 130.343  1.00  0.00     0.000 C 
BRANCH  18  19
ATOM     19  C   UNL     1     139.541 135.984 129.860  1.00  0.00     0.000 C 
BRANCH  19  20
ATOM     20  C   UNL     1     139.003 136.926 130.949  1.00  0.00     0.006 C 
BRANCH  20  21
ATOM     21  C   UNL     1     137.474 136.865 131.067  1.00  0.00     0.053 C 
BRANCH  21  22
ATOM     22  C   UNL     1     136.816 138.038 130.405  1.00  0.00     0.041 C 
ATOM     23  O   UNL     1     135.564 138.078 130.282  1.00  0.00    -0.550 OA
ATOM     24  O   UNL     1     137.586 139.100 129.948  1.00  0.00    -0.550 OA
ENDBRANCH  21  22
ENDBRANCH  20  21
ENDBRANCH  19  20
ENDBRANCH  18  19
ENDBRANCH  17  18
ENDBRANCH  16  17
ENDBRANCH  15  16
ENDBRANCH  14  15
ENDBRANCH  13  14
ENDBRANCH   1  13
TORSDOF 20
ENDMDL
MODEL 8
REMARK VINA RESULT:    -4.582      2.609      5.317
REMARK INTER + INTRA:         -13.842
REMARK INTER:                 -10.385
REMARK INTRA:                  -3.458
REMARK UNBOUND:                -3.902
REMARK SMILES CCCCCCCCCCCCCCCCCCCCCC(=O)[O-]
REMARK SMILES IDX 12 1 11 2 10 3 9 4 8 5 7 6 6 7 5 8 4 9 3 10 2 11 1 12 13 13
REMARK SMILES IDX 14 14 15 15 16 16 17 17 18 18 19 19 20 20 21 21 22 22 23 23
REMARK SMILES IDX 24 24
REMARK H PARENT
REMARK Flexibility Score: inf
ROOT
ATOM      1  C   UNL     1     136.739 131.511 127.224  1.00  0.00     0.000 C 
ENDROOT
BRANCH   1   2
ATOM      2  C   UNL     1     136.813 133.038 127.066  1.00  0.00     0.000 C 
BRANCH   2   3
ATOM      3  C   UNL     1     136.259 133.786 128.289  1.00  0.00     0.000 C 
BRANCH   3   4
ATOM      4  C   UNL     1     137.365 134.247 129.250  1.00  0.00    -0.000 C 
BRANCH   4   5
ATOM      5  C   UNL     1     138.647 134.596 128.484  1.00  0.00    -0.000 C 
BRANCH   5   6
ATOM      6  C   UNL     1     139.826 134.794 129.444  1.00  0.00    -0.000 C 
BRANCH   6   7
ATOM      7  C   UNL     1     139.349 135.318 130.803  1.00  0.00    -0.000 C 
BRANCH   7   8
ATOM      8  C   UNL     1     139.591 136.830 130.928  1.00  0.00    -0.000 C 
BRANCH   8   9
ATOM      9  C   UNL     1     138.479 137.661 130.254  1.00  0.00    -0.000 C 
BRANCH   9  10
ATOM     10  C   UNL     1     137.080 137.429 130.856  1.00  0.00    -0.000 C 
BRANCH  10  11
ATOM     11  C   UNL     1     135.924 138.059 130.061  1.00  0.00    -0.003 C 
ATOM     12  C   UNL     1     134.718 137.131 129.932  1.00  0.00     0.004 C 
ENDBRANCH  10  11
ENDBRANCH   9  10
ENDBRANCH   8   9
ENDBRANCH   7   8
ENDBRANCH   6   7
ENDBRANCH   5   6
ENDBRANCH   4   5
ENDBRANCH   3   4
ENDBRANCH   2   3
ENDBRANCH   1   2
BRANCH   1  13
ATOM     13  C   UNL     1     138.118 130.927 127.552  1.00  0.00     0.000 C 
BRANCH  13  14
ATOM     14  C   UNL     1     138.183 130.448 129.009  1.00  0.00     0.000 C 
BRANCH  14  15
ATOM     15  C   UNL     1     139.405 130.993 129.766  1.00  0.00     0.000 C 
BRANCH  15  16
ATOM     16  C   UNL     1     139.057 131.628 131.129  1.00  0.00     0.000 C 
BRANCH  16  17
ATOM     17  C   UNL     1     137.546 131.584 131.420  1.00  0.00     0.000 C 
BRANCH  17  18
ATOM     18  C   UNL     1     137.188 132.251 132.766  1.00  0.00     0.000 C 
BRANCH  18  19
ATOM     19  C   UNL     1     135.760 132.820 132.813  1.00  0.00     0.000 C 
BRANCH  19  20
ATOM     20  C   UNL     1     135.053 132.767 131.449  1.00  0.00     0.006 C 
BRANCH  20  21
ATOM     21  C   UNL     1     133.720 132.011 131.515  1.00  0.00     0.053 C 
BRANCH  21  22
ATOM     22  C   UNL     1     133.598 130.997 130.419  1.00  0.00     0.041 C 
ATOM     23  O   UNL     1     134.280 131.114 129.367  1.00  0.00    -0.550 OA
ATOM     24  O   UNL     1     132.751 129.907 130.571  1.00  0.00    -0.550 OA
ENDBRANCH  21  22
ENDBRANCH  20  21
ENDBRANCH  19  20
ENDBRANCH  18  19
ENDBRANCH  17  18
ENDBRANCH  16  17
ENDBRANCH  15  16
ENDBRANCH  14  15
ENDBRANCH  13  14
ENDBRANCH   1  13
TORSDOF 20
ENDMDL
MODEL 9
REMARK VINA RESULT:    -4.529      0.879      2.789
REMARK INTER + INTRA:         -13.727
REMARK INTER:                 -10.359
REMARK INTRA:                  -3.368
REMARK UNBOUND:                -3.902
REMARK SMILES CCCCCCCCCCCCCCCCCCCCCC(=O)[O-]
REMARK SMILES IDX 12 1 11 2 10 3 9 4 8 5 7 6 6 7 5 8 4 9 3 10 2 11 1 12 13 13
REMARK SMILES IDX 14 14 15 15 16 16 17 17 18 18 19 19 20 20 21 21 22 22 23 23
REMARK SMILES IDX 24 24
REMARK H PARENT
REMARK Flexibility Score: inf
ROOT
ATOM      1  C   UNL     1     134.797 133.296 130.873  1.00  0.00     0.000 C 
ENDROOT
BRANCH   1   2
ATOM      2  C   UNL     1     135.313 134.393 129.929  1.00  0.00     0.000 C 
BRANCH   2   3
ATOM      3  C   UNL     1     135.441 133.909 128.476  1.00  0.00     0.000 C 
BRANCH   3   4
ATOM      4  C   UNL     1     136.852 133.402 128.144  1.00  0.00    -0.000 C 
BRANCH   4   5
ATOM      5  C   UNL     1     136.851 132.592 126.842  1.00  0.00    -0.000 C 
BRANCH   5   6
ATOM      6  C   UNL     1     137.320 131.153 127.087  1.00  0.00    -0.000 C 
BRANCH   6   7
ATOM      7  C   UNL     1     138.337 131.092 128.231  1.00  0.00    -0.000 C 
BRANCH   7   8
ATOM      8  C   UNL     1     138.131 129.832 129.086  1.00  0.00    -0.000 C 
BRANCH   8   9
ATOM      9  C   UNL     1     137.087 130.046 130.204  1.00  0.00    -0.000 C 
BRANCH   9  10
ATOM     10  C   UNL     1     135.739 129.352 129.934  1.00  0.00    -0.000 C 
BRANCH  10  11
ATOM     11  C   UNL     1     134.619 130.287 129.449  1.00  0.00    -0.003 C 
ATOM     12  C   UNL     1     133.318 130.112 130.233  1.00  0.00     0.004 C 
ENDBRANCH  10  11
ENDBRANCH   9  10
ENDBRANCH   8   9
ENDBRANCH   7   8
ENDBRANCH   6   7
ENDBRANCH   5   6
ENDBRANCH   4   5
ENDBRANCH   3   4
ENDBRANCH   2   3
ENDBRANCH   1   2
BRANCH   1  13
ATOM     13  C   UNL     1     135.906 132.822 131.820  1.00  0.00     0.000 C 
BRANCH  13  14
ATOM     14  C   UNL     1     137.228 133.547 131.529  1.00  0.00     0.000 C 
BRANCH  14  15
ATOM     15  C   UNL     1     138.463 132.670 131.792  1.00  0.00     0.000 C 
BRANCH  15  16
ATOM     16  C   UNL     1     139.799 133.360 131.440  1.00  0.00     0.000 C 
BRANCH  16  17
ATOM     17  C   UNL     1     139.941 133.609 129.928  1.00  0.00     0.000 C 
BRANCH  17  18
ATOM     18  C   UNL     1     140.115 135.107 129.595  1.00  0.00     0.000 C 
BRANCH  18  19
ATOM     19  C   UNL     1     139.797 136.043 130.772  1.00  0.00     0.000 C 
BRANCH  19  20
ATOM     20  C   UNL     1     138.963 137.264 130.354  1.00  0.00     0.006 C 
BRANCH  20  21
ATOM     21  C   UNL     1     137.502 137.153 130.809  1.00  0.00     0.053 C 
BRANCH  21  22
ATOM     22  C   UNL     1     136.681 138.316 130.340  1.00  0.00     0.041 C 
ATOM     23  O   UNL     1     137.189 139.465 130.271  1.00  0.00    -0.550 OA
ATOM     24  O   UNL     1     135.361 138.123 129.952  1.00  0.00    -0.550 OA
ENDBRANCH  21  22
ENDBRANCH  20  21
ENDBRANCH  19  20
ENDBRANCH  18  19
ENDBRANCH  17  18
ENDBRANCH  16  17
ENDBRANCH  15  16
ENDBRANCH  14  15
ENDBRANCH  13  14
ENDBRANCH   1  13
TORSDOF 20
ENDMDL
