MODEL 1
REMARK VINA RESULT:    -4.886      0.000      0.000
REMARK INTER + INTRA:          -8.948
REMARK INTER:                  -7.171
REMARK INTRA:                  -1.777
REMARK UNBOUND:                -1.777
REMARK SMILES O=c1c(O[C@@H]2O[C@H](CO)[C@H](O)[C@H](O)[C@H]2O)c(-c2ccc(O)c(O)c2)oc2cc(O)cc(O)c12
REMARK SMILES IDX 4 1 3 2 16 3 25 4 2 5 26 6 1 7 33 8 27 9 31 10 28 11 30 12
REMARK SMILES IDX 17 13 18 14 19 15 20 16 24 17 22 18 21 19 23 21 32 23 29 25
REMARK SMILES IDX 5 27 14 28 6 29 12 30 7 31 10 32 15 33 13 35 8 37 9 38 11 40
REMARK H PARENT 21 20 23 22 32 24 29 26 15 34 13 36 9 39 11 41
REMARK Flexibility Score: inf
ROOT
ATOM      1  O   UNL     1      30.435 178.249 170.430  1.00  0.00    -0.454 OA
ENDROOT
BRANCH   1   2
ATOM      2  C   UNL     1      31.451 177.402 170.890  1.00  0.00     0.214 A 
ATOM      3  C   UNL     1      32.560 177.896 171.599  1.00  0.00     0.180 A 
ATOM      4  O   UNL     1      33.538 177.071 171.951  1.00  0.00    -0.452 OA
ATOM      5  C   UNL     1      31.369 176.031 170.628  1.00  0.00     0.239 A 
ATOM      6  C   UNL     1      33.523 175.768 171.690  1.00  0.00     0.146 A 
ATOM      7  O   UNL     1      30.327 175.592 170.075  1.00  0.00    -0.285 OA
ATOM      8  C   UNL     1      32.436 175.176 170.994  1.00  0.00     0.111 A 
ATOM      9  C   UNL     1      34.593 174.989 172.134  1.00  0.00     0.094 A 
ATOM     10  C   UNL     1      32.485 173.774 170.727  1.00  0.00     0.134 A 
ATOM     11  C   UNL     1      34.606 173.615 171.911  1.00  0.00     0.123 A 
ATOM     12  C   UNL     1      33.553 173.014 171.217  1.00  0.00     0.093 A 
BRANCH   3  13
ATOM     13  C   UNL     1      32.667 179.314 171.997  1.00  0.00     0.025 A 
ATOM     14  C   UNL     1      32.338 179.721 173.300  1.00  0.00     0.016 A 
ATOM     15  C   UNL     1      32.461 181.061 173.672  1.00  0.00     0.051 A 
ATOM     16  C   UNL     1      32.927 182.009 172.754  1.00  0.00     0.157 A 
ATOM     17  C   UNL     1      33.159 180.259 171.085  1.00  0.00     0.062 A 
ATOM     18  C   UNL     1      33.282 181.607 171.455  1.00  0.00     0.158 A 
BRANCH  16  19
ATOM     19  O   UNL     1      33.033 183.341 173.151  1.00  0.00    -0.504 OA
ATOM     20  H   UNL     1      33.914 183.840 173.132  1.00  0.00     0.293 HD
ENDBRANCH  16  19
BRANCH  18  21
ATOM     21  O   UNL     1      33.754 182.545 170.538  1.00  0.00    -0.504 OA
ATOM     22  H   UNL     1      34.537 183.150 170.754  1.00  0.00     0.293 HD
ENDBRANCH  18  21
ENDBRANCH   3  13
BRANCH  10  23
ATOM     23  O   UNL     1      31.529 173.086 169.973  1.00  0.00    -0.507 OA
ATOM     24  H   UNL     1      30.554 172.998 170.211  1.00  0.00     0.293 HD
ENDBRANCH  10  23
BRANCH  11  25
ATOM     25  O   UNL     1      35.675 172.853 172.380  1.00  0.00    -0.508 OA
ATOM     26  H   UNL     1      36.523 172.738 171.837  1.00  0.00     0.293 HD
ENDBRANCH  11  25
ENDBRANCH   1   2
BRANCH   1  27
ATOM     27  C   UNL     1      29.325 178.638 171.244  1.00  0.00     0.339 C 
ATOM     28  C   UNL     1      28.800 180.012 170.776  1.00  0.00     0.214 C 
ATOM     29  O   UNL     1      28.356 177.593 171.253  1.00  0.00    -0.332 OA
ATOM     30  C   UNL     1      28.136 179.915 169.374  1.00  0.00     0.180 C 
ATOM     31  C   UNL     1      27.250 177.774 170.376  1.00  0.00     0.179 C 
ATOM     32  C   UNL     1      27.630 178.488 169.056  1.00  0.00     0.177 C 
BRANCH  28  33
ATOM     33  O   UNL     1      27.874 180.486 171.722  1.00  0.00    -0.384 OA
ATOM     34  H   UNL     1      28.257 181.316 172.108  1.00  0.00     0.211 HD
ENDBRANCH  28  33
BRANCH  30  35
ATOM     35  O   UNL     1      28.990 180.393 168.363  1.00  0.00    -0.387 OA
ATOM     36  H   UNL     1      29.387 181.247 168.675  1.00  0.00     0.211 HD
ENDBRANCH  30  35
BRANCH  31  37
ATOM     37  C   UNL     1      26.612 176.401 170.121  1.00  0.00     0.191 C 
BRANCH  37  38
ATOM     38  O   UNL     1      27.592 175.443 169.822  1.00  0.00    -0.394 OA
ATOM     39  H   UNL     1      27.344 175.037 168.950  1.00  0.00     0.210 HD
ENDBRANCH  37  38
ENDBRANCH  31  37
BRANCH  32  40
ATOM     40  O   UNL     1      28.618 177.752 168.374  1.00  0.00    -0.387 OA
ATOM     41  H   UNL     1      29.155 177.275 169.059  1.00  0.00     0.211 HD
ENDBRANCH  32  40
ENDBRANCH   1  27
TORSDOF 12
ENDMDL
MODEL 2
REMARK VINA RESULT:    -4.672      1.047      1.192
REMARK INTER + INTRA:          -8.634
REMARK INTER:                  -6.766
REMARK INTRA:                  -1.867
REMARK UNBOUND:                -1.777
REMARK SMILES O=c1c(O[C@@H]2O[C@H](CO)[C@H](O)[C@H](O)[C@H]2O)c(-c2ccc(O)c(O)c2)oc2cc(O)cc(O)c12
REMARK SMILES IDX 4 1 3 2 16 3 25 4 2 5 26 6 1 7 33 8 27 9 31 10 28 11 30 12
REMARK SMILES IDX 17 13 18 14 19 15 20 16 24 17 22 18 21 19 23 21 32 23 29 25
REMARK SMILES IDX 5 27 14 28 6 29 12 30 7 31 10 32 15 33 13 35 8 37 9 38 11 40
REMARK H PARENT 21 20 23 22 32 24 29 26 15 34 13 36 9 39 11 41
REMARK Flexibility Score: inf
ROOT
ATOM      1  O   UNL     1      30.501 177.121 170.444  1.00  0.00    -0.454 OA
ENDROOT
BRANCH   1   2
ATOM      2  C   UNL     1      31.632 176.427 170.893  1.00  0.00     0.214 A 
ATOM      3  C   UNL     1      32.671 177.076 171.582  1.00  0.00     0.180 A 
ATOM      4  O   UNL     1      33.759 176.397 171.923  1.00  0.00    -0.452 OA
ATOM      5  C   UNL     1      31.738 175.057 170.637  1.00  0.00     0.239 A 
ATOM      6  C   UNL     1      33.923 175.104 171.668  1.00  0.00     0.146 A 
ATOM      7  O   UNL     1      30.761 174.473 170.101  1.00  0.00    -0.285 OA
ATOM      8  C   UNL     1      32.920 174.361 170.990  1.00  0.00     0.111 A 
ATOM      9  C   UNL     1      35.098 174.485 172.099  1.00  0.00     0.094 A 
ATOM     10  C   UNL     1      33.160 172.978 170.729  1.00  0.00     0.134 A 
ATOM     11  C   UNL     1      35.300 173.125 171.882  1.00  0.00     0.123 A 
ATOM     12  C   UNL     1      34.332 172.379 171.206  1.00  0.00     0.093 A 
BRANCH   3  13
ATOM     13  C   UNL     1      32.583 178.497 171.973  1.00  0.00     0.025 A 
ATOM     14  C   UNL     1      32.149 178.864 173.257  1.00  0.00     0.016 A 
ATOM     15  C   UNL     1      32.090 180.210 173.623  1.00  0.00     0.051 A 
ATOM     16  C   UNL     1      32.475 181.206 172.718  1.00  0.00     0.157 A 
ATOM     17  C   UNL     1      32.995 179.493 171.075  1.00  0.00     0.062 A 
ATOM     18  C   UNL     1      32.933 180.847 171.439  1.00  0.00     0.158 A 
BRANCH  16  19
ATOM     19  O   UNL     1      32.397 182.542 173.108  1.00  0.00    -0.504 OA
ATOM     20  H   UNL     1      32.246 182.812 174.073  1.00  0.00     0.293 HD
ENDBRANCH  16  19
BRANCH  18  21
ATOM     21  O   UNL     1      33.326 181.833 170.536  1.00  0.00    -0.504 OA
ATOM     22  H   UNL     1      32.773 182.670 170.390  1.00  0.00     0.293 HD
ENDBRANCH  18  21
ENDBRANCH   3  13
BRANCH  10  23
ATOM     23  O   UNL     1      32.300 172.158 169.992  1.00  0.00    -0.507 OA
ATOM     24  H   UNL     1      31.317 172.035 170.176  1.00  0.00     0.293 HD
ENDBRANCH  10  23
BRANCH  11  25
ATOM     25  O   UNL     1      36.471 172.522 172.337  1.00  0.00    -0.508 OA
ATOM     26  H   UNL     1      36.896 172.787 173.219  1.00  0.00     0.293 HD
ENDBRANCH  11  25
ENDBRANCH   1   2
BRANCH   1  27
ATOM     27  C   UNL     1      29.383 177.404 171.289  1.00  0.00     0.339 C 
ATOM     28  C   UNL     1      28.620 178.629 170.741  1.00  0.00     0.214 C 
ATOM     29  O   UNL     1      28.597 176.225 171.447  1.00  0.00    -0.332 OA
ATOM     30  C   UNL     1      27.915 178.299 169.396  1.00  0.00     0.180 C 
ATOM     31  C   UNL     1      27.436 176.148 170.627  1.00  0.00     0.179 C 
ATOM     32  C   UNL     1      27.632 176.787 169.230  1.00  0.00     0.177 C 
BRANCH  28  33
ATOM     33  O   UNL     1      27.675 179.037 171.699  1.00  0.00    -0.384 OA
ATOM     34  H   UNL     1      26.815 178.606 171.457  1.00  0.00     0.211 HD
ENDBRANCH  28  33
BRANCH  30  35
ATOM     35  O   UNL     1      28.631 178.809 168.297  1.00  0.00    -0.387 OA
ATOM     36  H   UNL     1      28.086 178.660 167.480  1.00  0.00     0.211 HD
ENDBRANCH  30  35
BRANCH  31  37
ATOM     37  C   UNL     1      27.017 174.675 170.528  1.00  0.00     0.191 C 
BRANCH  37  38
ATOM     38  O   UNL     1      28.143 173.840 170.450  1.00  0.00    -0.394 OA
ATOM     39  H   UNL     1      28.902 174.406 170.152  1.00  0.00     0.210 HD
ENDBRANCH  37  38
ENDBRANCH  31  37
BRANCH  32  40
ATOM     40  O   UNL     1      28.692 176.155 168.553  1.00  0.00    -0.387 OA
ATOM     41  H   UNL     1      28.480 176.183 167.583  1.00  0.00     0.211 HD
ENDBRANCH  32  40
ENDBRANCH   1  27
TORSDOF 12
ENDMDL
MODEL 3
REMARK VINA RESULT:    -4.616      2.862      8.295
REMARK INTER + INTRA:          -8.551
REMARK INTER:                  -7.141
REMARK INTRA:                  -1.411
REMARK UNBOUND:                -1.777
REMARK SMILES O=c1c(O[C@@H]2O[C@H](CO)[C@H](O)[C@H](O)[C@H]2O)c(-c2ccc(O)c(O)c2)oc2cc(O)cc(O)c12
REMARK SMILES IDX 4 1 3 2 16 3 25 4 2 5 26 6 1 7 33 8 27 9 31 10 28 11 30 12
REMARK SMILES IDX 17 13 18 14 19 15 20 16 24 17 22 18 21 19 23 21 32 23 29 25
REMARK SMILES IDX 5 27 14 28 6 29 12 30 7 31 10 32 15 33 13 35 8 37 9 38 11 40
REMARK H PARENT 21 20 23 22 32 24 29 26 15 34 13 36 9 39 11 41
REMARK Flexibility Score: inf
ROOT
ATOM      1  O   UNL     1      32.971 172.248 170.515  1.00  0.00    -0.454 OA
ENDROOT
BRANCH   1   2
ATOM      2  C   UNL     1      33.136 173.576 170.930  1.00  0.00     0.214 A 
ATOM      3  C   UNL     1      34.347 174.033 171.477  1.00  0.00     0.180 A 
ATOM      4  O   UNL     1      34.438 175.279 171.927  1.00  0.00    -0.452 OA
ATOM      5  C   UNL     1      32.065 174.467 170.810  1.00  0.00     0.239 A 
ATOM      6  C   UNL     1      33.437 176.150 171.871  1.00  0.00     0.146 A 
ATOM      7  O   UNL     1      31.020 174.068 170.234  1.00  0.00    -0.285 OA
ATOM      8  C   UNL     1      32.180 175.783 171.319  1.00  0.00     0.111 A 
ATOM      9  C   UNL     1      33.654 177.444 172.349  1.00  0.00     0.094 A 
ATOM     10  C   UNL     1      31.136 176.758 171.301  1.00  0.00     0.134 A 
ATOM     11  C   UNL     1      32.644 178.400 172.281  1.00  0.00     0.123 A 
ATOM     12  C   UNL     1      31.396 178.056 171.754  1.00  0.00     0.093 A 
BRANCH   3  13
ATOM     13  C   UNL     1      35.549 173.178 171.545  1.00  0.00     0.025 A 
ATOM     14  C   UNL     1      36.334 173.133 172.708  1.00  0.00     0.016 A 
ATOM     15  C   UNL     1      37.457 172.305 172.768  1.00  0.00     0.051 A 
ATOM     16  C   UNL     1      37.803 171.503 171.674  1.00  0.00     0.157 A 
ATOM     17  C   UNL     1      35.880 172.354 170.458  1.00  0.00     0.062 A 
ATOM     18  C   UNL     1      37.009 171.524 170.515  1.00  0.00     0.158 A 
BRANCH  16  19
ATOM     19  O   UNL     1      38.934 170.692 171.760  1.00  0.00    -0.504 OA
ATOM     20  H   UNL     1      39.183 170.038 171.029  1.00  0.00     0.293 HD
ENDBRANCH  16  19
BRANCH  18  21
ATOM     21  O   UNL     1      37.344 170.722 169.425  1.00  0.00    -0.504 OA
ATOM     22  H   UNL     1      36.820 169.883 169.204  1.00  0.00     0.293 HD
ENDBRANCH  18  21
ENDBRANCH   3  13
BRANCH  10  23
ATOM     23  O   UNL     1      29.830 176.499 170.874  1.00  0.00    -0.507 OA
ATOM     24  H   UNL     1      29.478 175.597 170.597  1.00  0.00     0.293 HD
ENDBRANCH  10  23
BRANCH  11  25
ATOM     25  O   UNL     1      32.887 179.691 172.746  1.00  0.00    -0.508 OA
ATOM     26  H   UNL     1      32.327 180.104 173.482  1.00  0.00     0.293 HD
ENDBRANCH  11  25
ENDBRANCH   1   2
BRANCH   1  27
ATOM     27  C   UNL     1      32.423 171.237 171.364  1.00  0.00     0.339 C 
ATOM     28  C   UNL     1      31.256 170.532 170.639  1.00  0.00     0.214 C 
ATOM     29  O   UNL     1      33.466 170.373 171.808  1.00  0.00    -0.332 OA
ATOM     30  C   UNL     1      31.766 169.686 169.440  1.00  0.00     0.180 C 
ATOM     31  C   UNL     1      33.584 169.142 171.104  1.00  0.00     0.179 C 
ATOM     32  C   UNL     1      33.246 169.265 169.598  1.00  0.00     0.177 C 
BRANCH  28  33
ATOM     33  O   UNL     1      30.581 169.714 171.561  1.00  0.00    -0.384 OA
ATOM     34  H   UNL     1      30.569 170.203 172.425  1.00  0.00     0.211 HD
ENDBRANCH  28  33
BRANCH  30  35
ATOM     35  O   UNL     1      31.548 170.342 168.213  1.00  0.00    -0.387 OA
ATOM     36  H   UNL     1      31.420 169.649 167.514  1.00  0.00     0.211 HD
ENDBRANCH  30  35
BRANCH  31  37
ATOM     37  C   UNL     1      35.000 168.595 171.330  1.00  0.00     0.191 C 
BRANCH  37  38
ATOM     38  O   UNL     1      35.612 168.273 170.108  1.00  0.00    -0.394 OA
ATOM     39  H   UNL     1      35.201 168.857 169.417  1.00  0.00     0.210 HD
ENDBRANCH  37  38
ENDBRANCH  31  37
BRANCH  32  40
ATOM     40  O   UNL     1      34.097 170.206 168.986  1.00  0.00    -0.387 OA
ATOM     41  H   UNL     1      34.490 170.761 169.710  1.00  0.00     0.211 HD
ENDBRANCH  32  40
ENDBRANCH   1  27
TORSDOF 12
ENDMDL
MODEL 4
REMARK VINA RESULT:    -4.461      8.479     12.167
REMARK INTER + INTRA:          -8.324
REMARK INTER:                  -6.611
REMARK INTRA:                  -1.713
REMARK UNBOUND:                -1.777
REMARK SMILES O=c1c(O[C@@H]2O[C@H](CO)[C@H](O)[C@H](O)[C@H]2O)c(-c2ccc(O)c(O)c2)oc2cc(O)cc(O)c12
REMARK SMILES IDX 4 1 3 2 16 3 25 4 2 5 26 6 1 7 33 8 27 9 31 10 28 11 30 12
REMARK SMILES IDX 17 13 18 14 19 15 20 16 24 17 22 18 21 19 23 21 32 23 29 25
REMARK SMILES IDX 5 27 14 28 6 29 12 30 7 31 10 32 15 33 13 35 8 37 9 38 11 40
REMARK H PARENT 21 20 23 22 32 24 29 26 15 34 13 36 9 39 11 41
REMARK Flexibility Score: inf
ROOT
ATOM      1  O   UNL     1      30.844 169.576 165.039  1.00  0.00    -0.454 OA
ENDROOT
BRANCH   1   2
ATOM      2  C   UNL     1      30.641 169.564 163.653  1.00  0.00     0.214 A 
ATOM      3  C   UNL     1      29.638 170.341 163.047  1.00  0.00     0.180 A 
ATOM      4  O   UNL     1      29.429 170.242 161.740  1.00  0.00    -0.452 OA
ATOM      5  C   UNL     1      31.445 168.748 162.852  1.00  0.00     0.239 A 
ATOM      6  C   UNL     1      30.141 169.453 160.944  1.00  0.00     0.146 A 
ATOM      7  O   UNL     1      32.397 168.130 163.397  1.00  0.00    -0.285 OA
ATOM      8  C   UNL     1      31.186 168.643 161.464  1.00  0.00     0.111 A 
ATOM      9  C   UNL     1      29.852 169.451 159.578  1.00  0.00     0.094 A 
ATOM     10  C   UNL     1      31.906 167.802 160.562  1.00  0.00     0.134 A 
ATOM     11  C   UNL     1      30.593 168.663 158.701  1.00  0.00     0.123 A 
ATOM     12  C   UNL     1      31.616 167.850 159.194  1.00  0.00     0.093 A 
BRANCH   3  13
ATOM     13  C   UNL     1      28.817 171.297 163.815  1.00  0.00     0.025 A 
ATOM     14  C   UNL     1      29.356 172.516 164.255  1.00  0.00     0.016 A 
ATOM     15  C   UNL     1      28.564 173.423 164.963  1.00  0.00     0.051 A 
ATOM     16  C   UNL     1      27.222 173.130 165.230  1.00  0.00     0.157 A 
ATOM     17  C   UNL     1      27.464 171.016 164.058  1.00  0.00     0.062 A 
ATOM     18  C   UNL     1      26.667 171.923 164.772  1.00  0.00     0.158 A 
BRANCH  16  19
ATOM     19  O   UNL     1      26.458 174.051 165.946  1.00  0.00    -0.504 OA
ATOM     20  H   UNL     1      26.760 175.008 166.083  1.00  0.00     0.293 HD
ENDBRANCH  16  19
BRANCH  18  21
ATOM     21  O   UNL     1      25.328 171.629 165.027  1.00  0.00    -0.504 OA
ATOM     22  H   UNL     1      25.047 171.111 165.851  1.00  0.00     0.293 HD
ENDBRANCH  18  21
ENDBRANCH   3  13
BRANCH  10  23
ATOM     23  O   UNL     1      32.891 166.891 160.957  1.00  0.00    -0.507 OA
ATOM     24  H   UNL     1      33.762 166.733 160.475  1.00  0.00     0.293 HD
ENDBRANCH  10  23
BRANCH  11  25
ATOM     25  O   UNL     1      30.301 168.690 157.339  1.00  0.00    -0.508 OA
ATOM     26  H   UNL     1      30.770 168.076 156.683  1.00  0.00     0.293 HD
ENDBRANCH  11  25
ENDBRANCH   1   2
BRANCH   1  27
ATOM     27  C   UNL     1      29.923 168.985 165.960  1.00  0.00     0.339 C 
ATOM     28  C   UNL     1      30.274 167.494 166.154  1.00  0.00     0.214 C 
ATOM     29  O   UNL     1      29.889 169.757 167.157  1.00  0.00    -0.332 OA
ATOM     30  C   UNL     1      31.620 167.326 166.911  1.00  0.00     0.180 C 
ATOM     31  C   UNL     1      30.662 169.248 168.238  1.00  0.00     0.179 C 
ATOM     32  C   UNL     1      31.970 168.558 167.779  1.00  0.00     0.177 C 
BRANCH  28  33
ATOM     33  O   UNL     1      29.232 166.875 166.866  1.00  0.00    -0.384 OA
ATOM     34  H   UNL     1      28.941 167.517 167.565  1.00  0.00     0.211 HD
ENDBRANCH  28  33
BRANCH  30  35
ATOM     35  O   UNL     1      32.672 167.002 166.034  1.00  0.00    -0.387 OA
ATOM     36  H   UNL     1      32.288 166.883 165.126  1.00  0.00     0.211 HD
ENDBRANCH  30  35
BRANCH  31  37
ATOM     37  C   UNL     1      30.936 170.400 169.215  1.00  0.00     0.191 C 
BRANCH  37  38
ATOM     38  O   UNL     1      31.171 171.597 168.522  1.00  0.00    -0.394 OA
ATOM     39  H   UNL     1      30.472 172.241 168.812  1.00  0.00     0.210 HD
ENDBRANCH  37  38
ENDBRANCH  31  37
BRANCH  32  40
ATOM     40  O   UNL     1      32.768 169.464 167.055  1.00  0.00    -0.387 OA
ATOM     41  H   UNL     1      32.425 169.478 166.123  1.00  0.00     0.211 HD
ENDBRANCH  32  40
ENDBRANCH   1  27
TORSDOF 12
ENDMDL
MODEL 5
REMARK VINA RESULT:    -4.438      1.884      6.096
REMARK INTER + INTRA:          -8.291
REMARK INTER:                  -6.621
REMARK INTRA:                  -1.670
REMARK UNBOUND:                -1.777
REMARK SMILES O=c1c(O[C@@H]2O[C@H](CO)[C@H](O)[C@H](O)[C@H]2O)c(-c2ccc(O)c(O)c2)oc2cc(O)cc(O)c12
REMARK SMILES IDX 4 1 3 2 16 3 25 4 2 5 26 6 1 7 33 8 27 9 31 10 28 11 30 12
REMARK SMILES IDX 17 13 18 14 19 15 20 16 24 17 22 18 21 19 23 21 32 23 29 25
REMARK SMILES IDX 5 27 14 28 6 29 12 30 7 31 10 32 15 33 13 35 8 37 9 38 11 40
REMARK H PARENT 21 20 23 22 32 24 29 26 15 34 13 36 9 39 11 41
REMARK Flexibility Score: inf
ROOT
ATOM      1  O   UNL     1      30.964 176.345 170.756  1.00  0.00    -0.454 OA
ENDROOT
BRANCH   1   2
ATOM      2  C   UNL     1      30.181 177.380 170.230  1.00  0.00     0.214 A 
ATOM      3  C   UNL     1      30.384 178.721 170.600  1.00  0.00     0.180 A 
ATOM      4  O   UNL     1      29.571 179.663 170.137  1.00  0.00    -0.452 OA
ATOM      5  C   UNL     1      29.161 177.073 169.324  1.00  0.00     0.239 A 
ATOM      6  C   UNL     1      28.565 179.415 169.306  1.00  0.00     0.146 A 
ATOM      7  O   UNL     1      29.051 175.882 168.932  1.00  0.00    -0.285 OA
ATOM      8  C   UNL     1      28.293 178.092 168.864  1.00  0.00     0.111 A 
ATOM      9  C   UNL     1      27.792 180.488 168.860  1.00  0.00     0.094 A 
ATOM     10  C   UNL     1      27.188 177.886 167.983  1.00  0.00     0.134 A 
ATOM     11  C   UNL     1      26.747 180.280 167.963  1.00  0.00     0.123 A 
ATOM     12  C   UNL     1      26.454 178.986 167.526  1.00  0.00     0.093 A 
BRANCH   3  13
ATOM     13  C   UNL     1      31.501 179.131 171.474  1.00  0.00     0.025 A 
ATOM     14  C   UNL     1      31.280 179.440 172.825  1.00  0.00     0.016 A 
ATOM     15  C   UNL     1      32.348 179.808 173.648  1.00  0.00     0.051 A 
ATOM     16  C   UNL     1      33.649 179.859 173.136  1.00  0.00     0.157 A 
ATOM     17  C   UNL     1      32.809 179.156 170.967  1.00  0.00     0.062 A 
ATOM     18  C   UNL     1      33.883 179.528 171.790  1.00  0.00     0.158 A 
BRANCH  16  19
ATOM     19  O   UNL     1      34.693 180.237 173.979  1.00  0.00    -0.504 OA
ATOM     20  H   UNL     1      35.091 181.168 173.957  1.00  0.00     0.293 HD
ENDBRANCH  16  19
BRANCH  18  21
ATOM     21  O   UNL     1      35.178 179.569 171.276  1.00  0.00    -0.504 OA
ATOM     22  H   UNL     1      35.440 179.035 170.457  1.00  0.00     0.293 HD
ENDBRANCH  18  21
ENDBRANCH   3  13
BRANCH  10  23
ATOM     23  O   UNL     1      26.756 176.628 167.549  1.00  0.00    -0.507 OA
ATOM     24  H   UNL     1      26.003 176.099 167.960  1.00  0.00     0.293 HD
ENDBRANCH  10  23
BRANCH  11  25
ATOM     25  O   UNL     1      25.999 181.367 167.515  1.00  0.00    -0.508 OA
ATOM     26  H   UNL     1      25.715 181.453 166.546  1.00  0.00     0.293 HD
ENDBRANCH  11  25
ENDBRANCH   1   2
BRANCH   1  27
ATOM     27  C   UNL     1      30.772 175.825 172.074  1.00  0.00     0.339 C 
ATOM     28  C   UNL     1      29.937 174.528 171.999  1.00  0.00     0.214 C 
ATOM     29  O   UNL     1      32.036 175.692 172.719  1.00  0.00    -0.332 OA
ATOM     30  C   UNL     1      30.738 173.379 171.327  1.00  0.00     0.180 C 
ATOM     31  C   UNL     1      32.587 174.379 172.724  1.00  0.00     0.179 C 
ATOM     32  C   UNL     1      32.268 173.579 171.438  1.00  0.00     0.177 C 
BRANCH  28  33
ATOM     33  O   UNL     1      29.558 174.161 173.303  1.00  0.00    -0.384 OA
ATOM     34  H   UNL     1      29.530 173.169 173.325  1.00  0.00     0.211 HD
ENDBRANCH  28  33
BRANCH  30  35
ATOM     35  O   UNL     1      30.342 173.185 169.990  1.00  0.00    -0.387 OA
ATOM     36  H   UNL     1      30.438 172.220 169.779  1.00  0.00     0.211 HD
ENDBRANCH  30  35
BRANCH  31  37
ATOM     37  C   UNL     1      34.099 174.496 172.965  1.00  0.00     0.191 C 
BRANCH  37  38
ATOM     38  O   UNL     1      34.687 175.366 172.034  1.00  0.00    -0.394 OA
ATOM     39  H   UNL     1      34.069 176.136 171.929  1.00  0.00     0.210 HD
ENDBRANCH  37  38
ENDBRANCH  31  37
BRANCH  32  40
ATOM     40  O   UNL     1      32.762 174.260 170.308  1.00  0.00    -0.387 OA
ATOM     41  H   UNL     1      33.311 173.614 169.792  1.00  0.00     0.211 HD
ENDBRANCH  32  40
ENDBRANCH   1  27
TORSDOF 12
ENDMDL
MODEL 6
REMARK VINA RESULT:    -4.416      1.787      3.216
REMARK INTER + INTRA:          -8.259
REMARK INTER:                  -6.699
REMARK INTRA:                  -1.560
REMARK UNBOUND:                -1.777
REMARK SMILES O=c1c(O[C@@H]2O[C@H](CO)[C@H](O)[C@H](O)[C@H]2O)c(-c2ccc(O)c(O)c2)oc2cc(O)cc(O)c12
REMARK SMILES IDX 4 1 3 2 16 3 25 4 2 5 26 6 1 7 33 8 27 9 31 10 28 11 30 12
REMARK SMILES IDX 17 13 18 14 19 15 20 16 24 17 22 18 21 19 23 21 32 23 29 25
REMARK SMILES IDX 5 27 14 28 6 29 12 30 7 31 10 32 15 33 13 35 8 37 9 38 11 40
REMARK H PARENT 21 20 23 22 32 24 29 26 15 34 13 36 9 39 11 41
REMARK Flexibility Score: inf
ROOT
ATOM      1  O   UNL     1      31.158 175.811 171.244  1.00  0.00    -0.454 OA
ENDROOT
BRANCH   1   2
ATOM      2  C   UNL     1      32.380 175.131 171.322  1.00  0.00     0.214 A 
ATOM      3  C   UNL     1      33.540 175.751 171.819  1.00  0.00     0.180 A 
ATOM      4  O   UNL     1      34.694 175.096 171.805  1.00  0.00    -0.452 OA
ATOM      5  C   UNL     1      32.454 173.806 170.881  1.00  0.00     0.239 A 
ATOM      6  C   UNL     1      34.822 173.851 171.361  1.00  0.00     0.146 A 
ATOM      7  O   UNL     1      31.390 173.237 170.526  1.00  0.00    -0.285 OA
ATOM      8  C   UNL     1      33.702 173.138 170.855  1.00  0.00     0.111 A 
ATOM      9  C   UNL     1      36.081 173.250 171.421  1.00  0.00     0.094 A 
ATOM     10  C   UNL     1      33.905 171.808 170.375  1.00  0.00     0.134 A 
ATOM     11  C   UNL     1      36.256 171.935 170.996  1.00  0.00     0.123 A 
ATOM     12  C   UNL     1      35.171 171.221 170.482  1.00  0.00     0.093 A 
BRANCH   3  13
ATOM     13  C   UNL     1      33.517 177.112 172.391  1.00  0.00     0.025 A 
ATOM     14  C   UNL     1      32.821 177.378 173.582  1.00  0.00     0.016 A 
ATOM     15  C   UNL     1      32.823 178.665 174.125  1.00  0.00     0.051 A 
ATOM     16  C   UNL     1      33.528 179.697 173.496  1.00  0.00     0.157 A 
ATOM     17  C   UNL     1      34.246 178.140 171.775  1.00  0.00     0.062 A 
ATOM     18  C   UNL     1      34.246 179.433 172.317  1.00  0.00     0.158 A 
BRANCH  16  19
ATOM     19  O   UNL     1      33.504 180.973 174.057  1.00  0.00    -0.504 OA
ATOM     20  H   UNL     1      32.795 181.655 173.814  1.00  0.00     0.293 HD
ENDBRANCH  16  19
BRANCH  18  21
ATOM     21  O   UNL     1      34.958 180.455 171.690  1.00  0.00    -0.504 OA
ATOM     22  H   UNL     1      35.851 180.284 171.245  1.00  0.00     0.293 HD
ENDBRANCH  18  21
ENDBRANCH   3  13
BRANCH  10  23
ATOM     23  O   UNL     1      32.911 171.034 169.769  1.00  0.00    -0.507 OA
ATOM     24  H   UNL     1      32.368 171.311 168.966  1.00  0.00     0.293 HD
ENDBRANCH  10  23
BRANCH  11  25
ATOM     25  O   UNL     1      37.517 171.347 171.081  1.00  0.00    -0.508 OA
ATOM     26  H   UNL     1      38.290 171.815 171.540  1.00  0.00     0.293 HD
ENDBRANCH  11  25
ENDBRANCH   1   2
BRANCH   1  27
ATOM     27  C   UNL     1      30.785 176.600 170.111  1.00  0.00     0.339 C 
ATOM     28  C   UNL     1      29.315 176.305 169.741  1.00  0.00     0.214 C 
ATOM     29  O   UNL     1      31.078 177.970 170.371  1.00  0.00    -0.332 OA
ATOM     30  C   UNL     1      28.341 176.841 170.826  1.00  0.00     0.180 C 
ATOM     31  C   UNL     1      29.971 178.768 170.777  1.00  0.00     0.179 C 
ATOM     32  C   UNL     1      28.952 177.998 171.652  1.00  0.00     0.177 C 
BRANCH  28  33
ATOM     33  O   UNL     1      29.037 176.901 168.498  1.00  0.00    -0.384 OA
ATOM     34  H   UNL     1      29.897 177.251 168.147  1.00  0.00     0.211 HD
ENDBRANCH  28  33
BRANCH  30  35
ATOM     35  O   UNL     1      27.874 175.808 171.659  1.00  0.00    -0.387 OA
ATOM     36  H   UNL     1      27.105 175.373 171.207  1.00  0.00     0.211 HD
ENDBRANCH  30  35
BRANCH  31  37
ATOM     37  C   UNL     1      30.515 180.012 171.493  1.00  0.00     0.191 C 
BRANCH  37  38
ATOM     38  O   UNL     1      29.644 180.421 172.514  1.00  0.00    -0.394 OA
ATOM     39  H   UNL     1      29.097 179.630 172.762  1.00  0.00     0.210 HD
ENDBRANCH  37  38
ENDBRANCH  31  37
BRANCH  32  40
ATOM     40  O   UNL     1      29.585 177.501 172.808  1.00  0.00    -0.387 OA
ATOM     41  H   UNL     1      30.403 178.046 172.953  1.00  0.00     0.211 HD
ENDBRANCH  32  40
ENDBRANCH   1  27
TORSDOF 12
ENDMDL
MODEL 7
REMARK VINA RESULT:    -4.413     11.087     13.862
REMARK INTER + INTRA:          -8.255
REMARK INTER:                  -6.715
REMARK INTRA:                  -1.539
REMARK UNBOUND:                -1.777
REMARK SMILES O=c1c(O[C@@H]2O[C@H](CO)[C@H](O)[C@H](O)[C@H]2O)c(-c2ccc(O)c(O)c2)oc2cc(O)cc(O)c12
REMARK SMILES IDX 4 1 3 2 16 3 25 4 2 5 26 6 1 7 33 8 27 9 31 10 28 11 30 12
REMARK SMILES IDX 17 13 18 14 19 15 20 16 24 17 22 18 21 19 23 21 32 23 29 25
REMARK SMILES IDX 5 27 14 28 6 29 12 30 7 31 10 32 15 33 13 35 8 37 9 38 11 40
REMARK H PARENT 21 20 23 22 32 24 29 26 15 34 13 36 9 39 11 41
REMARK Flexibility Score: inf
ROOT
ATOM      1  O   UNL     1      28.837 169.687 161.080  1.00  0.00    -0.454 OA
ENDROOT
BRANCH   1   2
ATOM      2  C   UNL     1      29.877 169.088 160.359  1.00  0.00     0.214 A 
ATOM      3  C   UNL     1      30.938 168.427 161.002  1.00  0.00     0.180 A 
ATOM      4  O   UNL     1      31.942 167.940 160.285  1.00  0.00    -0.452 OA
ATOM      5  C   UNL     1      29.869 169.161 158.962  1.00  0.00     0.239 A 
ATOM      6  C   UNL     1      31.999 168.018 158.960  1.00  0.00     0.146 A 
ATOM      7  O   UNL     1      28.869 169.674 158.398  1.00  0.00    -0.285 OA
ATOM      8  C   UNL     1      30.964 168.653 158.222  1.00  0.00     0.111 A 
ATOM      9  C   UNL     1      33.090 167.444 158.306  1.00  0.00     0.094 A 
ATOM     10  C   UNL     1      31.089 168.722 156.801  1.00  0.00     0.134 A 
ATOM     11  C   UNL     1      33.176 167.474 156.917  1.00  0.00     0.123 A 
ATOM     12  C   UNL     1      32.177 168.105 156.172  1.00  0.00     0.093 A 
BRANCH   3  13
ATOM     13  C   UNL     1      30.963 168.227 162.464  1.00  0.00     0.025 A 
ATOM     14  C   UNL     1      29.897 167.590 163.121  1.00  0.00     0.016 A 
ATOM     15  C   UNL     1      29.941 167.387 164.502  1.00  0.00     0.051 A 
ATOM     16  C   UNL     1      31.052 167.804 165.242  1.00  0.00     0.157 A 
ATOM     17  C   UNL     1      32.089 168.620 163.203  1.00  0.00     0.062 A 
ATOM     18  C   UNL     1      32.134 168.420 164.590  1.00  0.00     0.158 A 
BRANCH  16  19
ATOM     19  O   UNL     1      31.064 167.595 166.621  1.00  0.00    -0.504 OA
ATOM     20  H   UNL     1      31.367 166.719 167.029  1.00  0.00     0.293 HD
ENDBRANCH  16  19
BRANCH  18  21
ATOM     21  O   UNL     1      33.248 168.830 165.322  1.00  0.00    -0.504 OA
ATOM     22  H   UNL     1      33.153 169.279 166.225  1.00  0.00     0.293 HD
ENDBRANCH  18  21
ENDBRANCH   3  13
BRANCH  10  23
ATOM     23  O   UNL     1      30.192 169.398 155.967  1.00  0.00    -0.507 OA
ATOM     24  H   UNL     1      29.232 169.604 156.193  1.00  0.00     0.293 HD
ENDBRANCH  10  23
BRANCH  11  25
ATOM     25  O   UNL     1      34.265 166.878 156.282  1.00  0.00    -0.508 OA
ATOM     26  H   UNL     1      34.267 165.893 156.047  1.00  0.00     0.293 HD
ENDBRANCH  11  25
ENDBRANCH   1   2
BRANCH   1  27
ATOM     27  C   UNL     1      28.960 170.977 161.686  1.00  0.00     0.339 C 
ATOM     28  C   UNL     1      28.316 172.040 160.770  1.00  0.00     0.214 C 
ATOM     29  O   UNL     1      28.440 170.929 163.012  1.00  0.00    -0.332 OA
ATOM     30  C   UNL     1      26.773 171.872 160.710  1.00  0.00     0.180 C 
ATOM     31  C   UNL     1      27.119 171.433 163.171  1.00  0.00     0.179 C 
ATOM     32  C   UNL     1      26.206 171.147 161.954  1.00  0.00     0.177 C 
BRANCH  28  33
ATOM     33  O   UNL     1      28.650 173.316 161.257  1.00  0.00    -0.384 OA
ATOM     34  H   UNL     1      29.288 173.713 160.608  1.00  0.00     0.211 HD
ENDBRANCH  28  33
BRANCH  30  35
ATOM     35  O   UNL     1      26.366 171.241 159.520  1.00  0.00    -0.387 OA
ATOM     36  H   UNL     1      25.803 171.881 159.010  1.00  0.00     0.211 HD
ENDBRANCH  30  35
BRANCH  31  37
ATOM     37  C   UNL     1      26.539 170.853 164.469  1.00  0.00     0.191 C 
BRANCH  37  38
ATOM     38  O   UNL     1      26.892 169.503 164.615  1.00  0.00    -0.394 OA
ATOM     39  H   UNL     1      26.685 169.056 163.753  1.00  0.00     0.210 HD
ENDBRANCH  37  38
ENDBRANCH  31  37
BRANCH  32  40
ATOM     40  O   UNL     1      26.124 169.760 161.725  1.00  0.00    -0.387 OA
ATOM     41  H   UNL     1      26.993 169.474 161.338  1.00  0.00     0.211 HD
ENDBRANCH  32  40
ENDBRANCH   1  27
TORSDOF 12
ENDMDL
MODEL 8
REMARK VINA RESULT:    -4.358      1.884      5.505
REMARK INTER + INTRA:          -8.173
REMARK INTER:                  -6.374
REMARK INTRA:                  -1.798
REMARK UNBOUND:                -1.777
REMARK SMILES O=c1c(O[C@@H]2O[C@H](CO)[C@H](O)[C@H](O)[C@H]2O)c(-c2ccc(O)c(O)c2)oc2cc(O)cc(O)c12
REMARK SMILES IDX 4 1 3 2 16 3 25 4 2 5 26 6 1 7 33 8 27 9 31 10 28 11 30 12
REMARK SMILES IDX 17 13 18 14 19 15 20 16 24 17 22 18 21 19 23 21 32 23 29 25
REMARK SMILES IDX 5 27 14 28 6 29 12 30 7 31 10 32 15 33 13 35 8 37 9 38 11 40
REMARK H PARENT 21 20 23 22 32 24 29 26 15 34 13 36 9 39 11 41
REMARK Flexibility Score: inf
ROOT
ATOM      1  O   UNL     1      31.270 177.125 171.593  1.00  0.00    -0.454 OA
ENDROOT
BRANCH   1   2
ATOM      2  C   UNL     1      31.674 175.826 171.259  1.00  0.00     0.214 A 
ATOM      3  C   UNL     1      30.769 174.880 170.745  1.00  0.00     0.180 A 
ATOM      4  O   UNL     1      31.175 173.638 170.513  1.00  0.00    -0.452 OA
ATOM      5  C   UNL     1      33.007 175.453 171.455  1.00  0.00     0.239 A 
ATOM      6  C   UNL     1      32.421 173.227 170.720  1.00  0.00     0.146 A 
ATOM      7  O   UNL     1      33.824 176.335 171.828  1.00  0.00    -0.285 OA
ATOM      8  C   UNL     1      33.409 174.115 171.222  1.00  0.00     0.111 A 
ATOM      9  C   UNL     1      32.744 171.903 170.414  1.00  0.00     0.094 A 
ATOM     10  C   UNL     1      34.727 173.611 171.440  1.00  0.00     0.134 A 
ATOM     11  C   UNL     1      34.044 171.436 170.584  1.00  0.00     0.123 A 
ATOM     12  C   UNL     1      35.028 172.290 171.089  1.00  0.00     0.093 A 
BRANCH   3  13
ATOM     13  C   UNL     1      29.372 175.230 170.421  1.00  0.00     0.025 A 
ATOM     14  C   UNL     1      28.390 175.266 171.423  1.00  0.00     0.016 A 
ATOM     15  C   UNL     1      27.075 175.618 171.109  1.00  0.00     0.051 A 
ATOM     16  C   UNL     1      26.727 175.949 169.795  1.00  0.00     0.157 A 
ATOM     17  C   UNL     1      29.030 175.588 169.108  1.00  0.00     0.062 A 
ATOM     18  C   UNL     1      27.709 175.938 168.789  1.00  0.00     0.158 A 
BRANCH  16  19
ATOM     19  O   UNL     1      25.405 176.288 169.509  1.00  0.00    -0.504 OA
ATOM     20  H   UNL     1      24.623 175.761 169.879  1.00  0.00     0.293 HD
ENDBRANCH  16  19
BRANCH  18  21
ATOM     21  O   UNL     1      27.371 176.276 167.479  1.00  0.00    -0.504 OA
ATOM     22  H   UNL     1      26.496 176.737 167.260  1.00  0.00     0.293 HD
ENDBRANCH  18  21
ENDBRANCH   3  13
BRANCH  10  23
ATOM     23  O   UNL     1      35.765 174.352 172.016  1.00  0.00    -0.507 OA
ATOM     24  H   UNL     1      35.811 175.358 172.049  1.00  0.00     0.293 HD
ENDBRANCH  10  23
BRANCH  11  25
ATOM     25  O   UNL     1      34.350 170.117 170.254  1.00  0.00    -0.508 OA
ATOM     26  H   UNL     1      35.291 169.753 170.342  1.00  0.00     0.293 HD
ENDBRANCH  11  25
ENDBRANCH   1   2
BRANCH   1  27
ATOM     27  C   UNL     1      31.089 178.152 170.614  1.00  0.00     0.339 C 
ATOM     28  C   UNL     1      30.009 179.142 171.101  1.00  0.00     0.214 C 
ATOM     29  O   UNL     1      32.350 178.740 170.306  1.00  0.00    -0.332 OA
ATOM     30  C   UNL     1      30.505 179.962 172.323  1.00  0.00     0.180 C 
ATOM     31  C   UNL     1      32.627 179.976 170.956  1.00  0.00     0.179 C 
ATOM     32  C   UNL     1      32.048 180.053 172.390  1.00  0.00     0.177 C 
BRANCH  28  33
ATOM     33  O   UNL     1      29.675 180.001 170.040  1.00  0.00    -0.384 OA
ATOM     34  H   UNL     1      30.367 180.712 170.016  1.00  0.00     0.211 HD
ENDBRANCH  28  33
BRANCH  30  35
ATOM     35  O   UNL     1      29.968 179.473 173.529  1.00  0.00    -0.387 OA
ATOM     36  H   UNL     1      29.091 179.056 173.327  1.00  0.00     0.211 HD
ENDBRANCH  30  35
BRANCH  31  37
ATOM     37  C   UNL     1      34.146 180.196 170.939  1.00  0.00     0.191 C 
BRANCH  37  38
ATOM     38  O   UNL     1      34.815 179.104 171.514  1.00  0.00    -0.394 OA
ATOM     39  H   UNL     1      35.632 178.949 170.973  1.00  0.00     0.210 HD
ENDBRANCH  37  38
ENDBRANCH  31  37
BRANCH  32  40
ATOM     40  O   UNL     1      32.572 179.012 173.181  1.00  0.00    -0.387 OA
ATOM     41  H   UNL     1      31.986 178.221 173.051  1.00  0.00     0.211 HD
ENDBRANCH  32  40
ENDBRANCH   1  27
TORSDOF 12
ENDMDL
MODEL 9
REMARK VINA RESULT:    -4.336      2.798      9.178
REMARK INTER + INTRA:          -8.141
REMARK INTER:                  -6.396
REMARK INTRA:                  -1.745
REMARK UNBOUND:                -1.777
REMARK SMILES O=c1c(O[C@@H]2O[C@H](CO)[C@H](O)[C@H](O)[C@H]2O)c(-c2ccc(O)c(O)c2)oc2cc(O)cc(O)c12
REMARK SMILES IDX 4 1 3 2 16 3 25 4 2 5 26 6 1 7 33 8 27 9 31 10 28 11 30 12
REMARK SMILES IDX 17 13 18 14 19 15 20 16 24 17 22 18 21 19 23 21 32 23 29 25
REMARK SMILES IDX 5 27 14 28 6 29 12 30 7 31 10 32 15 33 13 35 8 37 9 38 11 40
REMARK H PARENT 21 20 23 22 32 24 29 26 15 34 13 36 9 39 11 41
REMARK Flexibility Score: inf
ROOT
ATOM      1  O   UNL     1      33.806 172.533 171.635  1.00  0.00    -0.454 OA
ENDROOT
BRANCH   1   2
ATOM      2  C   UNL     1      32.952 173.600 171.327  1.00  0.00     0.214 A 
ATOM      3  C   UNL     1      31.708 173.396 170.706  1.00  0.00     0.180 A 
ATOM      4  O   UNL     1      30.964 174.440 170.363  1.00  0.00    -0.452 OA
ATOM      5  C   UNL     1      33.353 174.905 171.633  1.00  0.00     0.239 A 
ATOM      6  C   UNL     1      31.319 175.698 170.597  1.00  0.00     0.146 A 
ATOM      7  O   UNL     1      34.425 175.064 172.271  1.00  0.00    -0.285 OA
ATOM      8  C   UNL     1      32.551 176.002 171.235  1.00  0.00     0.111 A 
ATOM      9  C   UNL     1      30.443 176.718 170.218  1.00  0.00     0.094 A 
ATOM     10  C   UNL     1      32.886 177.374 171.444  1.00  0.00     0.134 A 
ATOM     11  C   UNL     1      30.759 178.050 170.472  1.00  0.00     0.123 A 
ATOM     12  C   UNL     1      31.972 178.371 171.087  1.00  0.00     0.093 A 
BRANCH   3  13
ATOM     13  C   UNL     1      31.177 172.044 170.442  1.00  0.00     0.025 A 
ATOM     14  C   UNL     1      30.524 171.319 171.452  1.00  0.00     0.016 A 
ATOM     15  C   UNL     1      30.008 170.049 171.186  1.00  0.00     0.051 A 
ATOM     16  C   UNL     1      30.125 169.492 169.908  1.00  0.00     0.157 A 
ATOM     17  C   UNL     1      31.270 171.497 169.154  1.00  0.00     0.062 A 
ATOM     18  C   UNL     1      30.755 170.220 168.885  1.00  0.00     0.158 A 
BRANCH  16  19
ATOM     19  O   UNL     1      29.606 168.219 169.675  1.00  0.00    -0.504 OA
ATOM     20  H   UNL     1      30.201 167.402 169.603  1.00  0.00     0.293 HD
ENDBRANCH  16  19
BRANCH  18  21
ATOM     21  O   UNL     1      30.868 169.674 167.607  1.00  0.00    -0.504 OA
ATOM     22  H   UNL     1      30.613 168.712 167.417  1.00  0.00     0.293 HD
ENDBRANCH  18  21
ENDBRANCH   3  13
BRANCH  10  23
ATOM     23  O   UNL     1      34.105 177.812 171.975  1.00  0.00    -0.507 OA
ATOM     24  H   UNL     1      34.229 178.209 172.892  1.00  0.00     0.293 HD
ENDBRANCH  10  23
BRANCH  11  25
ATOM     25  O   UNL     1      29.862 179.051 170.104  1.00  0.00    -0.508 OA
ATOM     26  H   UNL     1      29.061 179.284 170.679  1.00  0.00     0.293 HD
ENDBRANCH  11  25
ENDBRANCH   1   2
BRANCH   1  27
ATOM     27  C   UNL     1      34.579 171.853 170.643  1.00  0.00     0.339 C 
ATOM     28  C   UNL     1      35.941 172.561 170.477  1.00  0.00     0.214 C 
ATOM     29  O   UNL     1      34.655 170.468 170.969  1.00  0.00    -0.332 OA
ATOM     30  C   UNL     1      36.829 172.380 171.739  1.00  0.00     0.180 C 
ATOM     31  C   UNL     1      35.860 170.053 171.605  1.00  0.00     0.179 C 
ATOM     32  C   UNL     1      36.447 171.123 172.557  1.00  0.00     0.177 C 
BRANCH  28  33
ATOM     33  O   UNL     1      36.588 172.033 169.346  1.00  0.00    -0.384 OA
ATOM     34  H   UNL     1      37.094 172.779 168.930  1.00  0.00     0.211 HD
ENDBRANCH  28  33
BRANCH  30  35
ATOM     35  O   UNL     1      36.827 173.534 172.544  1.00  0.00    -0.387 OA
ATOM     36  H   UNL     1      37.173 173.284 173.441  1.00  0.00     0.211 HD
ENDBRANCH  30  35
BRANCH  31  37
ATOM     37  C   UNL     1      35.585 168.729 172.332  1.00  0.00     0.191 C 
BRANCH  37  38
ATOM     38  O   UNL     1      34.374 168.789 173.038  1.00  0.00    -0.394 OA
ATOM     39  H   UNL     1      33.824 169.495 172.609  1.00  0.00     0.210 HD
ENDBRANCH  37  38
ENDBRANCH  31  37
BRANCH  32  40
ATOM     40  O   UNL     1      35.510 171.448 173.557  1.00  0.00    -0.387 OA
ATOM     41  H   UNL     1      34.993 170.623 173.755  1.00  0.00     0.211 HD
ENDBRANCH  32  40
ENDBRANCH   1  27
TORSDOF 12
ENDMDL
