MODEL 1
REMARK VINA RESULT:    -5.453      0.000      0.000
REMARK INTER + INTRA:          -6.891
REMARK INTER:                  -6.569
REMARK INTRA:                  -0.322
REMARK UNBOUND:                -0.322
REMARK SMILES O=c1c(O)c(-c2ccc(O)c(O)c2)oc2cc(O)cc(O)c12
REMARK SMILES IDX 5 1 3 2 2 3 1 4 22 5 20 6 19 7 17 8 16 9 15 10 14 11 6 12
REMARK SMILES IDX 7 13 8 14 9 15 13 16 11 17 10 18 12 20 4 22 21 24 18 26
REMARK H PARENT 10 19 12 21 4 23 21 25 18 27
REMARK Flexibility Score: inf
ROOT
ATOM      1  C   UNL     1     128.348 127.300 132.690  1.00  0.00     0.180 A 
ATOM      2  C   UNL     1     128.989 126.161 132.173  1.00  0.00     0.208 A 
ATOM      3  C   UNL     1     128.275 124.953 132.095  1.00  0.00     0.238 A 
ATOM      4  O   UNL     1     128.838 123.951 131.581  1.00  0.00    -0.285 OA
ATOM      5  C   UNL     1     126.937 124.896 132.551  1.00  0.00     0.111 A 
ATOM      6  C   UNL     1     126.132 123.717 132.557  1.00  0.00     0.134 A 
ATOM      7  C   UNL     1     124.780 123.805 132.908  1.00  0.00     0.093 A 
ATOM      8  C   UNL     1     124.219 125.018 133.316  1.00  0.00     0.123 A 
ATOM      9  C   UNL     1     125.011 126.162 133.371  1.00  0.00     0.094 A 
ATOM     10  C   UNL     1     126.355 126.113 132.991  1.00  0.00     0.146 A 
ATOM     11  O   UNL     1     127.071 127.230 133.048  1.00  0.00    -0.452 OA
ENDROOT
BRANCH   1  12
ATOM     12  C   UNL     1     129.042 128.601 132.826  1.00  0.00     0.025 A 
ATOM     13  C   UNL     1     129.788 128.867 133.984  1.00  0.00     0.016 A 
ATOM     14  C   UNL     1     130.468 130.079 134.125  1.00  0.00     0.051 A 
ATOM     15  C   UNL     1     130.426 131.036 133.105  1.00  0.00     0.157 A 
ATOM     16  C   UNL     1     129.019 129.555 131.793  1.00  0.00     0.062 A 
ATOM     17  C   UNL     1     129.702 130.772 131.931  1.00  0.00     0.158 A 
BRANCH  15  18
ATOM     18  O   UNL     1     131.113 132.238 133.275  1.00  0.00    -0.504 OA
ATOM     19  H   UNL     1     130.649 133.083 133.586  1.00  0.00     0.293 HD
ENDBRANCH  15  18
BRANCH  17  20
ATOM     20  O   UNL     1     129.668 131.715 130.905  1.00  0.00    -0.504 OA
ATOM     21  H   UNL     1     128.822 132.224 130.680  1.00  0.00     0.293 HD
ENDBRANCH  17  20
ENDBRANCH   1  12
BRANCH   2  22
ATOM     22  O   UNL     1     130.304 126.245 131.708  1.00  0.00    -0.502 OA
ATOM     23  H   UNL     1     130.686 125.593 131.033  1.00  0.00     0.293 HD
ENDBRANCH   2  22
BRANCH   6  24
ATOM     24  O   UNL     1     126.617 122.440 132.255  1.00  0.00    -0.507 OA
ATOM     25  H   UNL     1     126.109 121.582 132.407  1.00  0.00     0.293 HD
ENDBRANCH   6  24
BRANCH   8  26
ATOM     26  O   UNL     1     122.876 125.094 133.680  1.00  0.00    -0.508 OA
ATOM     27  H   UNL     1     122.527 125.845 134.263  1.00  0.00     0.293 HD
ENDBRANCH   8  26
TORSDOF 6
ENDMDL
MODEL 2
REMARK VINA RESULT:    -5.434      3.648      9.775
REMARK INTER + INTRA:          -6.868
REMARK INTER:                  -6.552
REMARK INTRA:                  -0.316
REMARK UNBOUND:                -0.322
REMARK SMILES O=c1c(O)c(-c2ccc(O)c(O)c2)oc2cc(O)cc(O)c12
REMARK SMILES IDX 5 1 3 2 2 3 1 4 22 5 20 6 19 7 17 8 16 9 15 10 14 11 6 12
REMARK SMILES IDX 7 13 8 14 9 15 13 16 11 17 10 18 12 20 4 22 21 24 18 26
REMARK H PARENT 10 19 12 21 4 23 21 25 18 27
REMARK Flexibility Score: inf
ROOT
ATOM      1  C   UNL     1     131.277 132.342 132.684  1.00  0.00     0.180 A 
ATOM      2  C   UNL     1     130.633 133.481 132.172  1.00  0.00     0.208 A 
ATOM      3  C   UNL     1     131.339 134.695 132.112  1.00  0.00     0.238 A 
ATOM      4  O   UNL     1     130.775 135.697 131.601  1.00  0.00    -0.285 OA
ATOM      5  C   UNL     1     132.673 134.756 132.581  1.00  0.00     0.111 A 
ATOM      6  C   UNL     1     133.469 135.941 132.606  1.00  0.00     0.134 A 
ATOM      7  C   UNL     1     134.819 135.859 132.968  1.00  0.00     0.093 A 
ATOM      8  C   UNL     1     135.384 134.646 133.371  1.00  0.00     0.123 A 
ATOM      9  C   UNL     1     134.599 133.495 133.407  1.00  0.00     0.094 A 
ATOM     10  C   UNL     1     133.259 133.539 133.015  1.00  0.00     0.146 A 
ATOM     11  O   UNL     1     132.550 132.417 133.054  1.00  0.00    -0.452 OA
ENDROOT
BRANCH   1  12
ATOM     12  C   UNL     1     130.590 131.036 132.801  1.00  0.00     0.025 A 
ATOM     13  C   UNL     1     129.933 130.706 133.997  1.00  0.00     0.016 A 
ATOM     14  C   UNL     1     129.261 129.487 134.123  1.00  0.00     0.051 A 
ATOM     15  C   UNL     1     129.222 128.588 133.053  1.00  0.00     0.157 A 
ATOM     16  C   UNL     1     130.531 130.139 131.719  1.00  0.00     0.062 A 
ATOM     17  C   UNL     1     129.856 128.917 131.843  1.00  0.00     0.158 A 
BRANCH  15  18
ATOM     18  O   UNL     1     128.545 127.378 133.208  1.00  0.00    -0.504 OA
ATOM     19  H   UNL     1     127.903 127.028 132.508  1.00  0.00     0.293 HD
ENDBRANCH  15  18
BRANCH  17  20
ATOM     20  O   UNL     1     129.808 128.031 130.767  1.00  0.00    -0.504 OA
ATOM     21  H   UNL     1     129.095 127.314 130.701  1.00  0.00     0.293 HD
ENDBRANCH  17  20
ENDBRANCH   1  12
BRANCH   2  22
ATOM     22  O   UNL     1     129.322 133.394 131.694  1.00  0.00    -0.502 OA
ATOM     23  H   UNL     1     128.515 133.564 132.282  1.00  0.00     0.293 HD
ENDBRANCH   2  22
BRANCH   6  24
ATOM     24  O   UNL     1     132.979 137.217 132.311  1.00  0.00    -0.507 OA
ATOM     25  H   UNL     1     133.541 137.985 131.977  1.00  0.00     0.293 HD
ENDBRANCH   6  24
BRANCH   8  26
ATOM     26  O   UNL     1     136.724 134.575 133.746  1.00  0.00    -0.508 OA
ATOM     27  H   UNL     1     137.454 134.380 133.070  1.00  0.00     0.293 HD
ENDBRANCH   8  26
TORSDOF 6
ENDMDL
MODEL 3
REMARK VINA RESULT:    -5.432      3.473      6.304
REMARK INTER + INTRA:          -6.866
REMARK INTER:                  -6.558
REMARK INTRA:                  -0.308
REMARK UNBOUND:                -0.322
REMARK SMILES O=c1c(O)c(-c2ccc(O)c(O)c2)oc2cc(O)cc(O)c12
REMARK SMILES IDX 5 1 3 2 2 3 1 4 22 5 20 6 19 7 17 8 16 9 15 10 14 11 6 12
REMARK SMILES IDX 7 13 8 14 9 15 13 16 11 17 10 18 12 20 4 22 21 24 18 26
REMARK H PARENT 10 19 12 21 4 23 21 25 18 27
REMARK Flexibility Score: inf
ROOT
ATOM      1  C   UNL     1     131.398 132.067 132.935  1.00  0.00     0.180 A 
ATOM      2  C   UNL     1     130.012 132.296 132.945  1.00  0.00     0.208 A 
ATOM      3  C   UNL     1     129.139 131.195 132.926  1.00  0.00     0.238 A 
ATOM      4  O   UNL     1     127.900 131.405 132.990  1.00  0.00    -0.285 OA
ATOM      5  C   UNL     1     129.664 129.882 132.879  1.00  0.00     0.111 A 
ATOM      6  C   UNL     1     128.873 128.694 132.816  1.00  0.00     0.134 A 
ATOM      7  C   UNL     1     129.496 127.444 132.907  1.00  0.00     0.093 A 
ATOM      8  C   UNL     1     130.886 127.336 132.993  1.00  0.00     0.123 A 
ATOM      9  C   UNL     1     131.670 128.487 132.995  1.00  0.00     0.094 A 
ATOM     10  C   UNL     1     131.075 129.750 132.943  1.00  0.00     0.146 A 
ATOM     11  O   UNL     1     131.859 130.822 132.958  1.00  0.00    -0.452 OA
ENDROOT
BRANCH   1  12
ATOM     12  C   UNL     1     132.379 133.176 132.929  1.00  0.00     0.025 A 
ATOM     13  C   UNL     1     133.059 133.503 134.112  1.00  0.00     0.016 A 
ATOM     14  C   UNL     1     134.005 134.532 134.125  1.00  0.00     0.051 A 
ATOM     15  C   UNL     1     134.296 135.238 132.953  1.00  0.00     0.157 A 
ATOM     16  C   UNL     1     132.690 133.873 131.747  1.00  0.00     0.062 A 
ATOM     17  C   UNL     1     133.639 134.904 131.757  1.00  0.00     0.158 A 
BRANCH  15  18
ATOM     18  O   UNL     1     135.243 136.261 132.996  1.00  0.00    -0.504 OA
ATOM     19  H   UNL     1     135.786 136.525 132.184  1.00  0.00     0.293 HD
ENDBRANCH  15  18
BRANCH  17  20
ATOM     20  O   UNL     1     133.936 135.594 130.582  1.00  0.00    -0.504 OA
ATOM     21  H   UNL     1     134.735 135.348 130.010  1.00  0.00     0.293 HD
ENDBRANCH  17  20
ENDBRANCH   1  12
BRANCH   2  22
ATOM     22  O   UNL     1     129.515 133.600 133.012  1.00  0.00    -0.502 OA
ATOM     23  H   UNL     1     130.119 134.413 133.030  1.00  0.00     0.293 HD
ENDBRANCH   2  22
BRANCH   6  24
ATOM     24  O   UNL     1     127.486 128.690 132.639  1.00  0.00    -0.507 OA
ATOM     25  H   UNL     1     126.985 128.047 132.045  1.00  0.00     0.293 HD
ENDBRANCH   6  24
BRANCH   8  26
ATOM     26  O   UNL     1     131.500 126.087 133.067  1.00  0.00    -0.508 OA
ATOM     27  H   UNL     1     131.039 125.295 133.501  1.00  0.00     0.293 HD
ENDBRANCH   8  26
TORSDOF 6
ENDMDL
MODEL 4
REMARK VINA RESULT:    -5.432      1.715      6.756
REMARK INTER + INTRA:          -6.865
REMARK INTER:                  -6.560
REMARK INTRA:                  -0.305
REMARK UNBOUND:                -0.322
REMARK SMILES O=c1c(O)c(-c2ccc(O)c(O)c2)oc2cc(O)cc(O)c12
REMARK SMILES IDX 5 1 3 2 2 3 1 4 22 5 20 6 19 7 17 8 16 9 15 10 14 11 6 12
REMARK SMILES IDX 7 13 8 14 9 15 13 16 11 17 10 18 12 20 4 22 21 24 18 26
REMARK H PARENT 10 19 12 21 4 23 21 25 18 27
REMARK Flexibility Score: inf
ROOT
ATOM      1  C   UNL     1     128.219 127.672 132.934  1.00  0.00     0.180 A 
ATOM      2  C   UNL     1     129.607 127.450 132.944  1.00  0.00     0.208 A 
ATOM      3  C   UNL     1     130.475 128.555 132.923  1.00  0.00     0.238 A 
ATOM      4  O   UNL     1     131.715 128.350 132.988  1.00  0.00    -0.285 OA
ATOM      5  C   UNL     1     129.943 129.866 132.875  1.00  0.00     0.111 A 
ATOM      6  C   UNL     1     130.729 131.056 132.810  1.00  0.00     0.134 A 
ATOM      7  C   UNL     1     130.101 132.304 132.898  1.00  0.00     0.093 A 
ATOM      8  C   UNL     1     128.710 132.406 132.984  1.00  0.00     0.123 A 
ATOM      9  C   UNL     1     127.931 131.251 132.988  1.00  0.00     0.094 A 
ATOM     10  C   UNL     1     128.531 129.991 132.938  1.00  0.00     0.146 A 
ATOM     11  O   UNL     1     127.752 128.916 132.955  1.00  0.00    -0.452 OA
ENDROOT
BRANCH   1  12
ATOM     12  C   UNL     1     127.243 126.559 132.929  1.00  0.00     0.025 A 
ATOM     13  C   UNL     1     126.556 126.238 134.110  1.00  0.00     0.016 A 
ATOM     14  C   UNL     1     125.615 125.206 134.124  1.00  0.00     0.051 A 
ATOM     15  C   UNL     1     125.335 124.489 132.956  1.00  0.00     0.157 A 
ATOM     16  C   UNL     1     126.944 125.851 131.751  1.00  0.00     0.062 A 
ATOM     17  C   UNL     1     126.000 124.815 131.762  1.00  0.00     0.158 A 
BRANCH  15  18
ATOM     18  O   UNL     1     124.393 123.462 133.001  1.00  0.00    -0.504 OA
ATOM     19  H   UNL     1     124.653 122.489 132.895  1.00  0.00     0.293 HD
ENDBRANCH  15  18
BRANCH  17  20
ATOM     20  O   UNL     1     125.714 124.115 130.591  1.00  0.00    -0.504 OA
ATOM     21  H   UNL     1     125.414 123.148 130.611  1.00  0.00     0.293 HD
ENDBRANCH  17  20
ENDBRANCH   1  12
BRANCH   2  22
ATOM     22  O   UNL     1     130.110 126.148 133.013  1.00  0.00    -0.502 OA
ATOM     23  H   UNL     1     130.417 125.728 133.883  1.00  0.00     0.293 HD
ENDBRANCH   2  22
BRANCH   6  24
ATOM     24  O   UNL     1     132.116 131.067 132.632  1.00  0.00    -0.507 OA
ATOM     25  H   UNL     1     132.657 130.291 132.282  1.00  0.00     0.293 HD
ENDBRANCH   6  24
BRANCH   8  26
ATOM     26  O   UNL     1     128.091 133.652 133.055  1.00  0.00    -0.508 OA
ATOM     27  H   UNL     1     127.116 133.745 133.317  1.00  0.00     0.293 HD
ENDBRANCH   8  26
TORSDOF 6
ENDMDL
MODEL 5
REMARK VINA RESULT:    -5.279      1.728      2.991
REMARK INTER + INTRA:          -6.681
REMARK INTER:                  -6.347
REMARK INTRA:                  -0.334
REMARK UNBOUND:                -0.322
REMARK SMILES O=c1c(O)c(-c2ccc(O)c(O)c2)oc2cc(O)cc(O)c12
REMARK SMILES IDX 5 1 3 2 2 3 1 4 22 5 20 6 19 7 17 8 16 9 15 10 14 11 6 12
REMARK SMILES IDX 7 13 8 14 9 15 13 16 11 17 10 18 12 20 4 22 21 24 18 26
REMARK H PARENT 10 19 12 21 4 23 21 25 18 27
REMARK Flexibility Score: inf
ROOT
ATOM      1  C   UNL     1     128.624 126.878 132.993  1.00  0.00     0.180 A 
ATOM      2  C   UNL     1     127.229 126.971 132.844  1.00  0.00     0.208 A 
ATOM      3  C   UNL     1     126.455 125.802 132.932  1.00  0.00     0.238 A 
ATOM      4  O   UNL     1     125.203 125.899 132.852  1.00  0.00    -0.285 OA
ATOM      5  C   UNL     1     127.087 124.554 133.150  1.00  0.00     0.111 A 
ATOM      6  C   UNL     1     126.405 123.302 133.217  1.00  0.00     0.134 A 
ATOM      7  C   UNL     1     127.114 122.147 133.568  1.00  0.00     0.093 A 
ATOM      8  C   UNL     1     128.493 122.188 133.792  1.00  0.00     0.123 A 
ATOM      9  C   UNL     1     129.177 123.396 133.670  1.00  0.00     0.094 A 
ATOM     10  C   UNL     1     128.490 124.571 133.357  1.00  0.00     0.146 A 
ATOM     11  O   UNL     1     129.180 125.702 133.263  1.00  0.00    -0.452 OA
ENDROOT
BRANCH   1  12
ATOM     12  C   UNL     1     129.507 128.061 132.888  1.00  0.00     0.025 A 
ATOM     13  C   UNL     1     129.892 128.742 134.054  1.00  0.00     0.016 A 
ATOM     14  C   UNL     1     130.742 129.848 133.980  1.00  0.00     0.051 A 
ATOM     15  C   UNL     1     131.233 130.282 132.744  1.00  0.00     0.157 A 
ATOM     16  C   UNL     1     130.020 128.486 131.648  1.00  0.00     0.062 A 
ATOM     17  C   UNL     1     130.874 129.595 131.573  1.00  0.00     0.158 A 
BRANCH  15  18
ATOM     18  O   UNL     1     132.077 131.390 132.702  1.00  0.00    -0.504 OA
ATOM     19  H   UNL     1     131.899 132.178 132.091  1.00  0.00     0.293 HD
ENDBRANCH  15  18
BRANCH  17  20
ATOM     20  O   UNL     1     131.372 130.012 130.339  1.00  0.00    -0.504 OA
ATOM     21  H   UNL     1     131.902 130.870 130.243  1.00  0.00     0.293 HD
ENDBRANCH  17  20
ENDBRANCH   1  12
BRANCH   2  22
ATOM     22  O   UNL     1     126.624 128.215 132.650  1.00  0.00    -0.502 OA
ATOM     23  H   UNL     1     125.701 128.434 133.006  1.00  0.00     0.293 HD
ENDBRANCH   2  22
BRANCH   6  24
ATOM     24  O   UNL     1     125.048 123.135 132.923  1.00  0.00    -0.507 OA
ATOM     25  H   UNL     1     124.299 123.242 133.589  1.00  0.00     0.293 HD
ENDBRANCH   6  24
BRANCH   8  26
ATOM     26  O   UNL     1     129.195 121.031 134.125  1.00  0.00    -0.508 OA
ATOM     27  H   UNL     1     129.932 120.669 133.531  1.00  0.00     0.293 HD
ENDBRANCH   8  26
TORSDOF 6
ENDMDL
MODEL 6
REMARK VINA RESULT:    -5.153      3.904      9.545
REMARK INTER + INTRA:          -6.529
REMARK INTER:                  -6.310
REMARK INTRA:                  -0.219
REMARK UNBOUND:                -0.322
REMARK SMILES O=c1c(O)c(-c2ccc(O)c(O)c2)oc2cc(O)cc(O)c12
REMARK SMILES IDX 5 1 3 2 2 3 1 4 22 5 20 6 19 7 17 8 16 9 15 10 14 11 6 12
REMARK SMILES IDX 7 13 8 14 9 15 13 16 11 17 10 18 12 20 4 22 21 24 18 26
REMARK H PARENT 10 19 12 21 4 23 21 25 18 27
REMARK Flexibility Score: inf
ROOT
ATOM      1  C   UNL     1     130.703 132.947 132.974  1.00  0.00     0.180 A 
ATOM      2  C   UNL     1     132.103 133.033 132.899  1.00  0.00     0.208 A 
ATOM      3  C   UNL     1     132.709 134.300 132.887  1.00  0.00     0.238 A 
ATOM      4  O   UNL     1     133.966 134.369 132.876  1.00  0.00    -0.285 OA
ATOM      5  C   UNL     1     131.906 135.464 132.932  1.00  0.00     0.111 A 
ATOM      6  C   UNL     1     132.410 136.799 132.883  1.00  0.00     0.134 A 
ATOM      7  C   UNL     1     131.534 137.876 133.067  1.00  0.00     0.093 A 
ATOM      8  C   UNL     1     130.162 137.668 133.231  1.00  0.00     0.123 A 
ATOM      9  C   UNL     1     129.653 136.371 133.219  1.00  0.00     0.094 A 
ATOM     10  C   UNL     1     130.507 135.276 133.075  1.00  0.00     0.146 A 
ATOM     11  O   UNL     1     129.981 134.056 133.081  1.00  0.00    -0.452 OA
ENDROOT
BRANCH   1  12
ATOM     12  C   UNL     1     129.992 131.648 132.967  1.00  0.00     0.025 A 
ATOM     13  C   UNL     1     130.047 130.824 134.101  1.00  0.00     0.016 A 
ATOM     14  C   UNL     1     129.367 129.604 134.125  1.00  0.00     0.051 A 
ATOM     15  C   UNL     1     128.608 129.196 133.022  1.00  0.00     0.157 A 
ATOM     16  C   UNL     1     129.211 131.246 131.867  1.00  0.00     0.062 A 
ATOM     17  C   UNL     1     128.527 130.023 131.889  1.00  0.00     0.158 A 
BRANCH  15  18
ATOM     18  O   UNL     1     127.942 127.973 133.073  1.00  0.00    -0.504 OA
ATOM     19  H   UNL     1     128.169 127.211 132.446  1.00  0.00     0.293 HD
ENDBRANCH  15  18
BRANCH  17  20
ATOM     20  O   UNL     1     127.761 129.630 130.793  1.00  0.00    -0.504 OA
ATOM     21  H   UNL     1     126.756 129.524 130.857  1.00  0.00     0.293 HD
ENDBRANCH  17  20
ENDBRANCH   1  12
BRANCH   2  22
ATOM     22  O   UNL     1     132.879 131.870 132.878  1.00  0.00    -0.502 OA
ATOM     23  H   UNL     1     132.755 131.120 133.547  1.00  0.00     0.293 HD
ENDBRANCH   2  22
BRANCH   6  24
ATOM     24  O   UNL     1     133.749 137.119 132.634  1.00  0.00    -0.507 OA
ATOM     25  H   UNL     1     134.425 137.354 133.344  1.00  0.00     0.293 HD
ENDBRANCH   6  24
BRANCH   8  26
ATOM     26  O   UNL     1     129.294 138.746 133.397  1.00  0.00    -0.508 OA
ATOM     27  H   UNL     1     129.569 139.572 133.914  1.00  0.00     0.293 HD
ENDBRANCH   8  26
TORSDOF 6
ENDMDL
MODEL 7
REMARK VINA RESULT:    -5.136     14.556     17.777
REMARK INTER + INTRA:          -6.509
REMARK INTER:                  -6.224
REMARK INTRA:                  -0.285
REMARK UNBOUND:                -0.322
REMARK SMILES O=c1c(O)c(-c2ccc(O)c(O)c2)oc2cc(O)cc(O)c12
REMARK SMILES IDX 5 1 3 2 2 3 1 4 22 5 20 6 19 7 17 8 16 9 15 10 14 11 6 12
REMARK SMILES IDX 7 13 8 14 9 15 13 16 11 17 10 18 12 20 4 22 21 24 18 26
REMARK H PARENT 10 19 12 21 4 23 21 25 18 27
REMARK Flexibility Score: inf
ROOT
ATOM      1  C   UNL     1     138.277 136.106 121.008  1.00  0.00     0.180 A 
ATOM      2  C   UNL     1     138.990 134.899 121.111  1.00  0.00     0.208 A 
ATOM      3  C   UNL     1     138.613 133.967 122.092  1.00  0.00     0.238 A 
ATOM      4  O   UNL     1     139.220 132.865 122.142  1.00  0.00    -0.285 OA
ATOM      5  C   UNL     1     137.541 134.261 122.967  1.00  0.00     0.111 A 
ATOM      6  C   UNL     1     137.099 133.407 124.023  1.00  0.00     0.134 A 
ATOM      7  C   UNL     1     135.945 133.739 124.742  1.00  0.00     0.093 A 
ATOM      8  C   UNL     1     135.254 134.926 124.488  1.00  0.00     0.123 A 
ATOM      9  C   UNL     1     135.712 135.794 123.500  1.00  0.00     0.094 A 
ATOM     10  C   UNL     1     136.839 135.473 122.740  1.00  0.00     0.146 A 
ATOM     11  O   UNL     1     137.234 136.324 121.800  1.00  0.00    -0.452 OA
ENDROOT
BRANCH   1  12
ATOM     12  C   UNL     1     138.631 137.148 120.017  1.00  0.00     0.025 A 
ATOM     13  C   UNL     1     139.400 138.251 120.419  1.00  0.00     0.016 A 
ATOM     14  C   UNL     1     139.763 139.235 119.496  1.00  0.00     0.051 A 
ATOM     15  C   UNL     1     139.378 139.124 118.156  1.00  0.00     0.157 A 
ATOM     16  C   UNL     1     138.264 137.027 118.664  1.00  0.00     0.062 A 
ATOM     17  C   UNL     1     138.629 138.013 117.736  1.00  0.00     0.158 A 
BRANCH  15  18
ATOM     18  O   UNL     1     139.753 140.123 117.258  1.00  0.00    -0.504 OA
ATOM     19  H   UNL     1     139.155 140.411 116.494  1.00  0.00     0.293 HD
ENDBRANCH  15  18
BRANCH  17  20
ATOM     20  O   UNL     1     138.255 137.888 116.399  1.00  0.00    -0.504 OA
ATOM     21  H   UNL     1     138.301 136.999 115.915  1.00  0.00     0.293 HD
ENDBRANCH  17  20
ENDBRANCH   1  12
BRANCH   2  22
ATOM     22  O   UNL     1     140.032 134.620 120.223  1.00  0.00    -0.502 OA
ATOM     23  H   UNL     1     140.887 135.163 120.197  1.00  0.00     0.293 HD
ENDBRANCH   2  22
BRANCH   6  24
ATOM     24  O   UNL     1     137.770 132.245 124.419  1.00  0.00    -0.507 OA
ATOM     25  H   UNL     1     137.510 131.673 125.207  1.00  0.00     0.293 HD
ENDBRANCH   6  24
BRANCH   8  26
ATOM     26  O   UNL     1     134.115 135.257 125.220  1.00  0.00    -0.508 OA
ATOM     27  H   UNL     1     134.068 136.106 125.770  1.00  0.00     0.293 HD
ENDBRANCH   8  26
TORSDOF 6
ENDMDL
MODEL 8
REMARK VINA RESULT:    -5.091      7.584      9.454
REMARK INTER + INTRA:          -6.455
REMARK INTER:                  -6.122
REMARK INTRA:                  -0.333
REMARK UNBOUND:                -0.322
REMARK SMILES O=c1c(O)c(-c2ccc(O)c(O)c2)oc2cc(O)cc(O)c12
REMARK SMILES IDX 5 1 3 2 2 3 1 4 22 5 20 6 19 7 17 8 16 9 15 10 14 11 6 12
REMARK SMILES IDX 7 13 8 14 9 15 13 16 11 17 10 18 12 20 4 22 21 24 18 26
REMARK H PARENT 10 19 12 21 4 23 21 25 18 27
REMARK Flexibility Score: inf
ROOT
ATOM      1  C   UNL     1     124.686 125.716 125.504  1.00  0.00     0.180 A 
ATOM      2  C   UNL     1     125.847 126.476 125.284  1.00  0.00     0.208 A 
ATOM      3  C   UNL     1     126.802 126.574 126.311  1.00  0.00     0.238 A 
ATOM      4  O   UNL     1     127.864 127.210 126.089  1.00  0.00    -0.285 OA
ATOM      5  C   UNL     1     126.573 125.927 127.548  1.00  0.00     0.111 A 
ATOM      6  C   UNL     1     127.451 125.992 128.672  1.00  0.00     0.134 A 
ATOM      7  C   UNL     1     127.190 125.206 129.800  1.00  0.00     0.093 A 
ATOM      8  C   UNL     1     126.046 124.406 129.872  1.00  0.00     0.123 A 
ATOM      9  C   UNL     1     125.152 124.382 128.804  1.00  0.00     0.094 A 
ATOM     10  C   UNL     1     125.405 125.127 127.650  1.00  0.00     0.146 A 
ATOM     11  O   UNL     1     124.532 125.066 126.652  1.00  0.00    -0.452 OA
ENDROOT
BRANCH   1  12
ATOM     12  C   UNL     1     123.625 125.586 124.479  1.00  0.00     0.025 A 
ATOM     13  C   UNL     1     123.622 124.472 123.625  1.00  0.00     0.016 A 
ATOM     14  C   UNL     1     122.619 124.318 122.665  1.00  0.00     0.051 A 
ATOM     15  C   UNL     1     121.595 125.265 122.554  1.00  0.00     0.157 A 
ATOM     16  C   UNL     1     122.583 126.526 124.380  1.00  0.00     0.062 A 
ATOM     17  C   UNL     1     121.574 126.372 123.418  1.00  0.00     0.158 A 
BRANCH  15  18
ATOM     18  O   UNL     1     120.609 125.087 121.585  1.00  0.00    -0.504 OA
ATOM     19  H   UNL     1     120.309 124.167 121.286  1.00  0.00     0.293 HD
ENDBRANCH  15  18
BRANCH  17  20
ATOM     20  O   UNL     1     120.549 127.312 123.323  1.00  0.00    -0.504 OA
ATOM     21  H   UNL     1     120.653 128.251 123.688  1.00  0.00     0.293 HD
ENDBRANCH  17  20
ENDBRANCH   1  12
BRANCH   2  22
ATOM     22  O   UNL     1     126.063 127.089 124.047  1.00  0.00    -0.502 OA
ATOM     23  H   UNL     1     126.726 127.845 123.923  1.00  0.00     0.293 HD
ENDBRANCH   2  22
BRANCH   6  24
ATOM     24  O   UNL     1     128.571 126.827 128.739  1.00  0.00    -0.507 OA
ATOM     25  H   UNL     1     129.112 126.997 129.573  1.00  0.00     0.293 HD
ENDBRANCH   6  24
BRANCH   8  26
ATOM     26  O   UNL     1     125.785 123.638 131.005  1.00  0.00    -0.508 OA
ATOM     27  H   UNL     1     126.507 123.438 131.687  1.00  0.00     0.293 HD
ENDBRANCH   8  26
TORSDOF 6
ENDMDL
MODEL 9
REMARK VINA RESULT:    -5.074      9.314     12.801
REMARK INTER + INTRA:          -6.434
REMARK INTER:                  -6.103
REMARK INTRA:                  -0.331
REMARK UNBOUND:                -0.322
REMARK SMILES O=c1c(O)c(-c2ccc(O)c(O)c2)oc2cc(O)cc(O)c12
REMARK SMILES IDX 5 1 3 2 2 3 1 4 22 5 20 6 19 7 17 8 16 9 15 10 14 11 6 12
REMARK SMILES IDX 7 13 8 14 9 15 13 16 11 17 10 18 12 20 4 22 21 24 18 26
REMARK H PARENT 10 19 12 21 4 23 21 25 18 27
REMARK Flexibility Score: inf
ROOT
ATOM      1  C   UNL     1     135.141 133.949 125.453  1.00  0.00     0.180 A 
ATOM      2  C   UNL     1     133.974 133.199 125.231  1.00  0.00     0.208 A 
ATOM      3  C   UNL     1     133.020 133.102 126.258  1.00  0.00     0.238 A 
ATOM      4  O   UNL     1     131.953 132.474 126.034  1.00  0.00    -0.285 OA
ATOM      5  C   UNL     1     133.255 133.742 127.499  1.00  0.00     0.111 A 
ATOM      6  C   UNL     1     132.377 133.678 128.623  1.00  0.00     0.134 A 
ATOM      7  C   UNL     1     132.645 134.457 129.754  1.00  0.00     0.093 A 
ATOM      8  C   UNL     1     133.794 135.248 129.829  1.00  0.00     0.123 A 
ATOM      9  C   UNL     1     134.687 135.271 128.760  1.00  0.00     0.094 A 
ATOM     10  C   UNL     1     134.428 134.533 127.603  1.00  0.00     0.146 A 
ATOM     11  O   UNL     1     135.301 134.592 126.604  1.00  0.00    -0.452 OA
ENDROOT
BRANCH   1  12
ATOM     12  C   UNL     1     136.202 134.077 124.428  1.00  0.00     0.025 A 
ATOM     13  C   UNL     1     136.221 135.203 123.590  1.00  0.00     0.016 A 
ATOM     14  C   UNL     1     137.225 135.354 122.630  1.00  0.00     0.051 A 
ATOM     15  C   UNL     1     138.233 134.392 122.503  1.00  0.00     0.157 A 
ATOM     16  C   UNL     1     137.228 133.122 124.313  1.00  0.00     0.062 A 
ATOM     17  C   UNL     1     138.237 133.272 123.351  1.00  0.00     0.158 A 
BRANCH  15  18
ATOM     18  O   UNL     1     139.220 134.569 121.534  1.00  0.00    -0.504 OA
ATOM     19  H   UNL     1     140.182 134.297 121.692  1.00  0.00     0.293 HD
ENDBRANCH  15  18
BRANCH  17  20
ATOM     20  O   UNL     1     139.247 132.317 123.240  1.00  0.00    -0.504 OA
ATOM     21  H   UNL     1     139.247 131.628 122.497  1.00  0.00     0.293 HD
ENDBRANCH  17  20
ENDBRANCH   1  12
BRANCH   2  22
ATOM     22  O   UNL     1     133.753 132.592 123.992  1.00  0.00    -0.502 OA
ATOM     23  H   UNL     1     133.402 133.103 123.190  1.00  0.00     0.293 HD
ENDBRANCH   2  22
BRANCH   6  24
ATOM     24  O   UNL     1     131.251 132.850 128.687  1.00  0.00    -0.507 OA
ATOM     25  H   UNL     1     130.378 133.100 129.125  1.00  0.00     0.293 HD
ENDBRANCH   6  24
BRANCH   8  26
ATOM     26  O   UNL     1     134.062 136.009 130.965  1.00  0.00    -0.508 OA
ATOM     27  H   UNL     1     133.772 136.977 131.034  1.00  0.00     0.293 HD
ENDBRANCH   8  26
TORSDOF 6
ENDMDL
