MODEL 1
REMARK VINA RESULT:    35.109      0.000      0.000
REMARK INTER + INTRA:          42.330
REMARK INTER:                  42.293
REMARK INTRA:                   0.037
REMARK UNBOUND:                 0.037
REMARK SMILES O=c1c(O)c(-c2ccc(O)c(O)c2)oc2cc(O)cc(O)c12
REMARK SMILES IDX 5 1 3 2 2 3 1 4 22 5 20 6 19 7 17 8 16 9 15 10 14 11 6 12
REMARK SMILES IDX 7 13 8 14 9 15 13 16 11 17 10 18 12 20 4 22 21 24 18 26
REMARK H PARENT 10 19 12 21 4 23 21 25 18 27
REMARK Flexibility Score: inf
ROOT
ATOM      1  C   UNL     1      16.392  56.129  22.843  1.00  0.00     0.180 A 
ATOM      2  C   UNL     1      16.454  56.209  24.245  1.00  0.00     0.208 A 
ATOM      3  C   UNL     1      16.107  57.415  24.874  1.00  0.00     0.238 A 
ATOM      4  O   UNL     1      16.216  57.498  26.125  1.00  0.00    -0.285 OA
ATOM      5  C   UNL     1      15.686  58.520  24.096  1.00  0.00     0.111 A 
ATOM      6  C   UNL     1      15.271  59.777  24.630  1.00  0.00     0.134 A 
ATOM      7  C   UNL     1      15.001  60.842  23.761  1.00  0.00     0.093 A 
ATOM      8  C   UNL     1      15.067  60.674  22.375  1.00  0.00     0.123 A 
ATOM      9  C   UNL     1      15.412  59.434  21.843  1.00  0.00     0.094 A 
ATOM     10  C   UNL     1      15.722  58.364  22.686  1.00  0.00     0.146 A 
ATOM     11  O   UNL     1      16.057  57.202  22.137  1.00  0.00    -0.452 OA
ENDROOT
BRANCH   1  12
ATOM     12  C   UNL     1      16.720  54.884  22.110  1.00  0.00     0.025 A 
ATOM     13  C   UNL     1      17.637  54.883  21.045  1.00  0.00     0.016 A 
ATOM     14  C   UNL     1      17.949  53.691  20.384  1.00  0.00     0.051 A 
ATOM     15  C   UNL     1      17.360  52.485  20.784  1.00  0.00     0.157 A 
ATOM     16  C   UNL     1      16.149  53.669  22.523  1.00  0.00     0.062 A 
ATOM     17  C   UNL     1      16.459  52.474  21.861  1.00  0.00     0.158 A 
BRANCH  15  18
ATOM     18  O   UNL     1      17.672  51.299  20.121  1.00  0.00    -0.504 OA
ATOM     19  H   UNL     1      18.505  51.214  19.549  1.00  0.00     0.293 HD
ENDBRANCH  15  18
BRANCH  17  20
ATOM     20  O   UNL     1      15.861  51.289  22.290  1.00  0.00    -0.504 OA
ATOM     21  H   UNL     1      15.945  50.958  23.243  1.00  0.00     0.293 HD
ENDBRANCH  17  20
ENDBRANCH   1  12
BRANCH   2  22
ATOM     22  O   UNL     1      16.893  55.113  24.993  1.00  0.00    -0.502 OA
ATOM     23  H   UNL     1      16.582  54.167  24.806  1.00  0.00     0.293 HD
ENDBRANCH   2  22
BRANCH   6  24
ATOM     24  O   UNL     1      15.085  60.022  25.993  1.00  0.00    -0.507 OA
ATOM     25  H   UNL     1      15.782  60.417  26.606  1.00  0.00     0.293 HD
ENDBRANCH   6  24
BRANCH   8  26
ATOM     26  O   UNL     1      14.780  61.734  21.517  1.00  0.00    -0.508 OA
ATOM     27  H   UNL     1      14.861  62.698  21.819  1.00  0.00     0.293 HD
ENDBRANCH   8  26
TORSDOF 6
ENDMDL
