MODEL 1
REMARK VINA RESULT:    -6.613      0.000      0.000
REMARK INTER + INTRA:         -10.202
REMARK INTER:                  -9.706
REMARK INTRA:                  -0.496
REMARK UNBOUND:                -0.496
REMARK SMILES O=c1c(O[C@@H]2O[C@H](CO)[C@@H](O)[C@@H](O)[C@@H]2O)c(-c2ccc(O)c(O)c2)oc2cc(O)cc(O)c12
REMARK SMILES IDX 4 1 3 2 16 3 25 4 2 5 26 6 1 7 33 8 27 9 31 10 28 11 30 12
REMARK SMILES IDX 17 13 18 14 19 15 20 16 24 17 22 18 21 19 23 21 32 23 29 25
REMARK SMILES IDX 5 27 14 28 6 29 12 30 7 31 10 32 15 33 13 35 8 37 9 38 11 40
REMARK H PARENT 21 20 23 22 32 24 29 26 15 34 13 36 9 39 11 41
REMARK Flexibility Score: inf
ROOT
ATOM      1  O   UNL     1     134.991 142.116 138.358  1.00  0.00    -0.454 OA
ENDROOT
BRANCH   1   2
ATOM      2  C   UNL     1     136.248 142.675 138.052  1.00  0.00     0.214 A 
ATOM      3  C   UNL     1     136.290 143.773 137.169  1.00  0.00     0.180 A 
ATOM      4  O   UNL     1     137.455 144.286 136.791  1.00  0.00    -0.452 OA
ATOM      5  C   UNL     1     137.471 142.186 138.565  1.00  0.00     0.239 A 
ATOM      6  C   UNL     1     138.624 143.839 137.228  1.00  0.00     0.146 A 
ATOM      7  O   UNL     1     137.478 141.241 139.398  1.00  0.00    -0.285 OA
ATOM      8  C   UNL     1     138.687 142.768 138.148  1.00  0.00     0.111 A 
ATOM      9  C   UNL     1     139.798 144.446 136.770  1.00  0.00     0.094 A 
ATOM     10  C   UNL     1     139.953 142.327 138.605  1.00  0.00     0.134 A 
ATOM     11  C   UNL     1     141.044 144.006 137.223  1.00  0.00     0.123 A 
ATOM     12  C   UNL     1     141.119 142.952 138.138  1.00  0.00     0.093 A 
BRANCH   3  13
ATOM     13  C   UNL     1     135.056 144.372 136.613  1.00  0.00     0.025 A 
ATOM     14  C   UNL     1     134.189 145.134 137.415  1.00  0.00     0.016 A 
ATOM     15  C   UNL     1     133.042 145.711 136.865  1.00  0.00     0.051 A 
ATOM     16  C   UNL     1     132.750 145.546 135.505  1.00  0.00     0.157 A 
ATOM     17  C   UNL     1     134.769 144.225 135.246  1.00  0.00     0.062 A 
ATOM     18  C   UNL     1     133.622 144.803 134.691  1.00  0.00     0.158 A 
BRANCH  16  19
ATOM     19  O   UNL     1     131.606 146.125 134.958  1.00  0.00    -0.504 OA
ATOM     20  H   UNL     1     131.651 146.722 134.140  1.00  0.00     0.293 HD
ENDBRANCH  16  19
BRANCH  18  21
ATOM     21  O   UNL     1     133.370 144.635 133.330  1.00  0.00    -0.504 OA
ATOM     22  H   UNL     1     133.940 145.076 132.618  1.00  0.00     0.293 HD
ENDBRANCH  18  21
ENDBRANCH   3  13
BRANCH  10  23
ATOM     23  O   UNL     1     140.064 141.274 139.515  1.00  0.00    -0.507 OA
ATOM     24  H   UNL     1     140.483 140.388 139.257  1.00  0.00     0.293 HD
ENDBRANCH  10  23
BRANCH  11  25
ATOM     25  O   UNL     1     142.217 144.608 136.772  1.00  0.00    -0.508 OA
ATOM     26  H   UNL     1     142.354 145.611 136.828  1.00  0.00     0.293 HD
ENDBRANCH  11  25
ENDBRANCH   1   2
BRANCH   1  27
ATOM     27  C   UNL     1     134.663 141.297 139.481  1.00  0.00     0.339 C 
ATOM     28  C   UNL     1     133.621 142.041 140.373  1.00  0.00     0.214 C 
ATOM     29  O   UNL     1     134.184 140.045 138.998  1.00  0.00    -0.332 OA
ATOM     30  C   UNL     1     132.211 141.474 140.123  1.00  0.00     0.180 C 
ATOM     31  C   UNL     1     133.559 139.301 140.027  1.00  0.00     0.179 C 
ATOM     32  C   UNL     1     132.182 139.941 140.369  1.00  0.00     0.177 C 
BRANCH  28  33
ATOM     33  O   UNL     1     133.623 143.423 140.118  1.00  0.00    -0.384 OA
ATOM     34  H   UNL     1     132.976 143.830 140.752  1.00  0.00     0.211 HD
ENDBRANCH  28  33
BRANCH  30  35
ATOM     35  O   UNL     1     131.227 142.139 140.879  1.00  0.00    -0.387 OA
ATOM     36  H   UNL     1     131.009 142.993 140.420  1.00  0.00     0.211 HD
ENDBRANCH  30  35
BRANCH  31  37
ATOM     37  C   UNL     1     133.409 137.848 139.558  1.00  0.00     0.191 C 
BRANCH  37  38
ATOM     38  O   UNL     1     134.601 137.382 138.984  1.00  0.00    -0.394 OA
ATOM     39  H   UNL     1     134.608 136.396 139.096  1.00  0.00     0.210 HD
ENDBRANCH  37  38
ENDBRANCH  31  37
BRANCH  32  40
ATOM     40  O   UNL     1     131.806 139.630 141.689  1.00  0.00    -0.387 OA
ATOM     41  H   UNL     1     132.282 140.255 142.295  1.00  0.00     0.211 HD
ENDBRANCH  32  40
ENDBRANCH   1  27
TORSDOF 12
ENDMDL
MODEL 2
REMARK VINA RESULT:    -6.540      1.412      2.281
REMARK INTER + INTRA:         -10.094
REMARK INTER:                  -9.117
REMARK INTRA:                  -0.977
REMARK UNBOUND:                -0.496
REMARK SMILES O=c1c(O[C@@H]2O[C@H](CO)[C@@H](O)[C@@H](O)[C@@H]2O)c(-c2ccc(O)c(O)c2)oc2cc(O)cc(O)c12
REMARK SMILES IDX 4 1 3 2 16 3 25 4 2 5 26 6 1 7 33 8 27 9 31 10 28 11 30 12
REMARK SMILES IDX 17 13 18 14 19 15 20 16 24 17 22 18 21 19 23 21 32 23 29 25
REMARK SMILES IDX 5 27 14 28 6 29 12 30 7 31 10 32 15 33 13 35 8 37 9 38 11 40
REMARK H PARENT 21 20 23 22 32 24 29 26 15 34 13 36 9 39 11 41
REMARK Flexibility Score: inf
ROOT
ATOM      1  O   UNL     1     134.927 141.476 138.331  1.00  0.00    -0.454 OA
ENDROOT
BRANCH   1   2
ATOM      2  C   UNL     1     136.171 142.132 138.414  1.00  0.00     0.214 A 
ATOM      3  C   UNL     1     136.287 143.413 137.837  1.00  0.00     0.180 A 
ATOM      4  O   UNL     1     137.458 144.039 137.823  1.00  0.00    -0.452 OA
ATOM      5  C   UNL     1     137.315 141.570 139.027  1.00  0.00     0.239 A 
ATOM      6  C   UNL     1     138.560 143.535 138.363  1.00  0.00     0.146 A 
ATOM      7  O   UNL     1     137.244 140.452 139.602  1.00  0.00    -0.285 OA
ATOM      8  C   UNL     1     138.538 142.275 139.002  1.00  0.00     0.111 A 
ATOM      9  C   UNL     1     139.747 144.272 138.296  1.00  0.00     0.094 A 
ATOM     10  C   UNL     1     139.731 141.776 139.581  1.00  0.00     0.134 A 
ATOM     11  C   UNL     1     140.921 143.774 138.867  1.00  0.00     0.123 A 
ATOM     12  C   UNL     1     140.909 142.532 139.507  1.00  0.00     0.093 A 
BRANCH   3  13
ATOM     13  C   UNL     1     135.132 144.090 137.206  1.00  0.00     0.025 A 
ATOM     14  C   UNL     1     134.175 144.770 137.980  1.00  0.00     0.016 A 
ATOM     15  C   UNL     1     133.105 145.423 137.363  1.00  0.00     0.051 A 
ATOM     16  C   UNL     1     132.981 145.418 135.968  1.00  0.00     0.157 A 
ATOM     17  C   UNL     1     135.015 144.102 135.807  1.00  0.00     0.062 A 
ATOM     18  C   UNL     1     133.945 144.757 135.186  1.00  0.00     0.158 A 
BRANCH  16  19
ATOM     19  O   UNL     1     131.915 146.072 135.356  1.00  0.00    -0.504 OA
ATOM     20  H   UNL     1     132.034 146.594 134.494  1.00  0.00     0.293 HD
ENDBRANCH  16  19
BRANCH  18  21
ATOM     21  O   UNL     1     133.862 144.748 133.795  1.00  0.00    -0.504 OA
ATOM     22  H   UNL     1     134.624 144.425 133.211  1.00  0.00     0.293 HD
ENDBRANCH  18  21
ENDBRANCH   3  13
BRANCH  10  23
ATOM     23  O   UNL     1     139.756 140.537 140.223  1.00  0.00    -0.507 OA
ATOM     24  H   UNL     1     138.919 140.125 140.621  1.00  0.00     0.293 HD
ENDBRANCH  10  23
BRANCH  11  25
ATOM     25  O   UNL     1     142.105 144.505 138.805  1.00  0.00    -0.508 OA
ATOM     26  H   UNL     1     142.883 144.207 138.227  1.00  0.00     0.293 HD
ENDBRANCH  11  25
ENDBRANCH   1   2
BRANCH   1  27
ATOM     27  C   UNL     1     134.003 141.241 139.396  1.00  0.00     0.339 C 
ATOM     28  C   UNL     1     133.479 139.774 139.307  1.00  0.00     0.214 C 
ATOM     29  O   UNL     1     134.660 141.521 140.629  1.00  0.00    -0.332 OA
ATOM     30  C   UNL     1     134.199 138.892 140.344  1.00  0.00     0.180 C 
ATOM     31  C   UNL     1     133.921 141.026 141.729  1.00  0.00     0.179 C 
ATOM     32  C   UNL     1     134.030 139.474 141.774  1.00  0.00     0.177 C 
BRANCH  28  33
ATOM     33  O   UNL     1     133.670 139.239 138.021  1.00  0.00    -0.384 OA
ATOM     34  H   UNL     1     134.265 139.870 137.537  1.00  0.00     0.211 HD
ENDBRANCH  28  33
BRANCH  30  35
ATOM     35  O   UNL     1     133.786 137.548 140.279  1.00  0.00    -0.387 OA
ATOM     36  H   UNL     1     134.553 136.975 140.543  1.00  0.00     0.211 HD
ENDBRANCH  30  35
BRANCH  31  37
ATOM     37  C   UNL     1     134.464 141.670 143.012  1.00  0.00     0.191 C 
BRANCH  37  38
ATOM     38  O   UNL     1     135.777 141.247 143.266  1.00  0.00    -0.394 OA
ATOM     39  H   UNL     1     136.084 140.760 142.457  1.00  0.00     0.210 HD
ENDBRANCH  37  38
ENDBRANCH  31  37
BRANCH  32  40
ATOM     40  O   UNL     1     132.919 138.919 142.436  1.00  0.00    -0.387 OA
ATOM     41  H   UNL     1     132.738 139.472 143.240  1.00  0.00     0.211 HD
ENDBRANCH  32  40
ENDBRANCH   1  27
TORSDOF 12
ENDMDL
MODEL 3
REMARK VINA RESULT:    -6.443      3.117      8.700
REMARK INTER + INTRA:          -9.952
REMARK INTER:                  -9.312
REMARK INTRA:                  -0.640
REMARK UNBOUND:                -0.496
REMARK SMILES O=c1c(O[C@@H]2O[C@H](CO)[C@@H](O)[C@@H](O)[C@@H]2O)c(-c2ccc(O)c(O)c2)oc2cc(O)cc(O)c12
REMARK SMILES IDX 4 1 3 2 16 3 25 4 2 5 26 6 1 7 33 8 27 9 31 10 28 11 30 12
REMARK SMILES IDX 17 13 18 14 19 15 20 16 24 17 22 18 21 19 23 21 32 23 29 25
REMARK SMILES IDX 5 27 14 28 6 29 12 30 7 31 10 32 15 33 13 35 8 37 9 38 11 40
REMARK H PARENT 21 20 23 22 32 24 29 26 15 34 13 36 9 39 11 41
REMARK Flexibility Score: inf
ROOT
ATOM      1  O   UNL     1     134.531 139.880 140.728  1.00  0.00    -0.454 OA
ENDROOT
BRANCH   1   2
ATOM      2  C   UNL     1     133.795 139.573 141.890  1.00  0.00     0.214 A 
ATOM      3  C   UNL     1     133.021 138.395 141.894  1.00  0.00     0.180 A 
ATOM      4  O   UNL     1     132.250 138.101 142.935  1.00  0.00    -0.452 OA
ATOM      5  C   UNL     1     133.773 140.389 143.044  1.00  0.00     0.239 A 
ATOM      6  C   UNL     1     132.181 138.854 144.025  1.00  0.00     0.146 A 
ATOM      7  O   UNL     1     134.490 141.423 143.106  1.00  0.00    -0.285 OA
ATOM      8  C   UNL     1     132.951 140.034 144.135  1.00  0.00     0.111 A 
ATOM      9  C   UNL     1     131.339 138.460 145.070  1.00  0.00     0.094 A 
ATOM     10  C   UNL     1     132.863 140.805 145.321  1.00  0.00     0.134 A 
ATOM     11  C   UNL     1     131.255 139.224 146.236  1.00  0.00     0.123 A 
ATOM     12  C   UNL     1     132.015 140.390 146.359  1.00  0.00     0.093 A 
BRANCH   3  13
ATOM     13  C   UNL     1     133.013 137.465 140.742  1.00  0.00     0.025 A 
ATOM     14  C   UNL     1     133.599 136.190 140.830  1.00  0.00     0.016 A 
ATOM     15  C   UNL     1     133.560 135.319 139.739  1.00  0.00     0.051 A 
ATOM     16  C   UNL     1     132.924 135.701 138.551  1.00  0.00     0.157 A 
ATOM     17  C   UNL     1     132.360 137.837 139.556  1.00  0.00     0.062 A 
ATOM     18  C   UNL     1     132.317 136.965 138.462  1.00  0.00     0.158 A 
BRANCH  16  19
ATOM     19  O   UNL     1     132.884 134.828 137.466  1.00  0.00    -0.504 OA
ATOM     20  H   UNL     1     133.316 133.911 137.504  1.00  0.00     0.293 HD
ENDBRANCH  16  19
BRANCH  18  21
ATOM     21  O   UNL     1     131.660 137.369 137.301  1.00  0.00    -0.504 OA
ATOM     22  H   UNL     1     131.099 136.730 136.749  1.00  0.00     0.293 HD
ENDBRANCH  18  21
ENDBRANCH   3  13
BRANCH  10  23
ATOM     23  O   UNL     1     133.605 141.976 145.475  1.00  0.00    -0.507 OA
ATOM     24  H   UNL     1     134.480 141.991 145.985  1.00  0.00     0.293 HD
ENDBRANCH  10  23
BRANCH  11  25
ATOM     25  O   UNL     1     130.419 138.836 147.281  1.00  0.00    -0.508 OA
ATOM     26  H   UNL     1     130.643 138.045 147.874  1.00  0.00     0.293 HD
ENDBRANCH  11  25
ENDBRANCH   1   2
BRANCH   1  27
ATOM     27  C   UNL     1     135.090 141.146 140.372  1.00  0.00     0.339 C 
ATOM     28  C   UNL     1     136.621 141.135 140.675  1.00  0.00     0.214 C 
ATOM     29  O   UNL     1     134.799 141.394 139.000  1.00  0.00    -0.332 OA
ATOM     30  C   UNL     1     137.415 140.929 139.372  1.00  0.00     0.180 C 
ATOM     31  C   UNL     1     135.570 142.469 138.497  1.00  0.00     0.179 C 
ATOM     32  C   UNL     1     137.048 142.014 138.325  1.00  0.00     0.177 C 
BRANCH  28  33
ATOM     33  O   UNL     1     136.953 140.125 141.594  1.00  0.00    -0.384 OA
ATOM     34  H   UNL     1     137.106 140.575 142.467  1.00  0.00     0.211 HD
ENDBRANCH  28  33
BRANCH  30  35
ATOM     35  O   UNL     1     138.804 140.875 139.598  1.00  0.00    -0.387 OA
ATOM     36  H   UNL     1     138.957 140.843 140.579  1.00  0.00     0.211 HD
ENDBRANCH  30  35
BRANCH  31  37
ATOM     37  C   UNL     1     134.958 142.928 137.166  1.00  0.00     0.191 C 
BRANCH  37  38
ATOM     38  O   UNL     1     135.770 143.891 136.549  1.00  0.00    -0.394 OA
ATOM     39  H   UNL     1     136.496 144.108 137.191  1.00  0.00     0.210 HD
ENDBRANCH  37  38
ENDBRANCH  31  37
BRANCH  32  40
ATOM     40  O   UNL     1     137.917 143.119 138.390  1.00  0.00    -0.387 OA
ATOM     41  H   UNL     1     138.195 143.230 139.336  1.00  0.00     0.211 HD
ENDBRANCH  32  40
ENDBRANCH   1  27
TORSDOF 12
ENDMDL
MODEL 4
REMARK VINA RESULT:    -5.840      3.749      8.786
REMARK INTER + INTRA:          -9.068
REMARK INTER:                  -7.703
REMARK INTRA:                  -1.364
REMARK UNBOUND:                -0.496
REMARK SMILES O=c1c(O[C@@H]2O[C@H](CO)[C@@H](O)[C@@H](O)[C@@H]2O)c(-c2ccc(O)c(O)c2)oc2cc(O)cc(O)c12
REMARK SMILES IDX 4 1 3 2 16 3 25 4 2 5 26 6 1 7 33 8 27 9 31 10 28 11 30 12
REMARK SMILES IDX 17 13 18 14 19 15 20 16 24 17 22 18 21 19 23 21 32 23 29 25
REMARK SMILES IDX 5 27 14 28 6 29 12 30 7 31 10 32 15 33 13 35 8 37 9 38 11 40
REMARK H PARENT 21 20 23 22 32 24 29 26 15 34 13 36 9 39 11 41
REMARK Flexibility Score: inf
ROOT
ATOM      1  O   UNL     1     133.862 139.526 141.015  1.00  0.00    -0.454 OA
ENDROOT
BRANCH   1   2
ATOM      2  C   UNL     1     133.048 138.697 140.217  1.00  0.00     0.214 A 
ATOM      3  C   UNL     1     132.026 137.961 140.850  1.00  0.00     0.180 A 
ATOM      4  O   UNL     1     131.283 137.109 140.154  1.00  0.00    -0.452 OA
ATOM      5  C   UNL     1     133.211 138.546 138.820  1.00  0.00     0.239 A 
ATOM      6  C   UNL     1     131.422 136.919 138.849  1.00  0.00     0.146 A 
ATOM      7  O   UNL     1     134.076 139.224 138.205  1.00  0.00    -0.285 OA
ATOM      8  C   UNL     1     132.391 137.640 138.115  1.00  0.00     0.111 A 
ATOM      9  C   UNL     1     130.589 135.998 138.204  1.00  0.00     0.094 A 
ATOM     10  C   UNL     1     132.500 137.422 136.719  1.00  0.00     0.134 A 
ATOM     11  C   UNL     1     130.702 135.786 136.828  1.00  0.00     0.123 A 
ATOM     12  C   UNL     1     131.653 136.497 136.091  1.00  0.00     0.093 A 
BRANCH   3  13
ATOM     13  C   UNL     1     131.763 138.085 142.302  1.00  0.00     0.025 A 
ATOM     14  C   UNL     1     132.366 137.216 143.228  1.00  0.00     0.016 A 
ATOM     15  C   UNL     1     132.123 137.365 144.596  1.00  0.00     0.051 A 
ATOM     16  C   UNL     1     131.287 138.389 145.059  1.00  0.00     0.157 A 
ATOM     17  C   UNL     1     130.941 139.121 142.771  1.00  0.00     0.062 A 
ATOM     18  C   UNL     1     130.698 139.275 144.140  1.00  0.00     0.158 A 
BRANCH  16  19
ATOM     19  O   UNL     1     131.050 138.537 146.424  1.00  0.00    -0.504 OA
ATOM     20  H   UNL     1     131.760 138.897 147.052  1.00  0.00     0.293 HD
ENDBRANCH  16  19
BRANCH  18  21
ATOM     21  O   UNL     1     129.876 140.316 144.569  1.00  0.00    -0.504 OA
ATOM     22  H   UNL     1     128.894 140.176 144.778  1.00  0.00     0.293 HD
ENDBRANCH  18  21
ENDBRANCH   3  13
BRANCH  10  23
ATOM     23  O   UNL     1     133.441 138.112 135.955  1.00  0.00    -0.507 OA
ATOM     24  H   UNL     1     133.383 138.150 134.943  1.00  0.00     0.293 HD
ENDBRANCH  10  23
BRANCH  11  25
ATOM     25  O   UNL     1     129.875 134.871 136.180  1.00  0.00    -0.508 OA
ATOM     26  H   UNL     1     129.689 133.955 136.571  1.00  0.00     0.293 HD
ENDBRANCH  11  25
ENDBRANCH   1   2
BRANCH   1  27
ATOM     27  C   UNL     1     133.853 140.954 141.062  1.00  0.00     0.339 C 
ATOM     28  C   UNL     1     135.068 141.502 140.250  1.00  0.00     0.214 C 
ATOM     29  O   UNL     1     132.600 141.411 140.561  1.00  0.00    -0.332 OA
ATOM     30  C   UNL     1     134.599 141.998 138.869  1.00  0.00     0.180 C 
ATOM     31  C   UNL     1     132.630 142.800 140.292  1.00  0.00     0.179 C 
ATOM     32  C   UNL     1     133.482 143.066 139.017  1.00  0.00     0.177 C 
BRANCH  28  33
ATOM     33  O   UNL     1     136.059 140.520 140.086  1.00  0.00    -0.384 OA
ATOM     34  H   UNL     1     136.225 140.131 140.985  1.00  0.00     0.211 HD
ENDBRANCH  28  33
BRANCH  30  35
ATOM     35  O   UNL     1     135.667 142.470 138.082  1.00  0.00    -0.387 OA
ATOM     36  H   UNL     1     136.079 143.242 138.551  1.00  0.00     0.211 HD
ENDBRANCH  30  35
BRANCH  31  37
ATOM     37  C   UNL     1     131.187 143.296 140.124  1.00  0.00     0.191 C 
BRANCH  37  38
ATOM     38  O   UNL     1     131.163 144.656 139.783  1.00  0.00    -0.394 OA
ATOM     39  H   UNL     1     131.682 144.750 138.942  1.00  0.00     0.210 HD
ENDBRANCH  37  38
ENDBRANCH  31  37
BRANCH  32  40
ATOM     40  O   UNL     1     134.005 144.372 139.035  1.00  0.00    -0.387 OA
ATOM     41  H   UNL     1     134.482 144.495 139.897  1.00  0.00     0.211 HD
ENDBRANCH  32  40
ENDBRANCH   1  27
TORSDOF 12
ENDMDL
MODEL 5
REMARK VINA RESULT:    -5.832      3.123      6.945
REMARK INTER + INTRA:          -9.055
REMARK INTER:                  -8.285
REMARK INTRA:                  -0.770
REMARK UNBOUND:                -0.496
REMARK SMILES O=c1c(O[C@@H]2O[C@H](CO)[C@@H](O)[C@@H](O)[C@@H]2O)c(-c2ccc(O)c(O)c2)oc2cc(O)cc(O)c12
REMARK SMILES IDX 4 1 3 2 16 3 25 4 2 5 26 6 1 7 33 8 27 9 31 10 28 11 30 12
REMARK SMILES IDX 17 13 18 14 19 15 20 16 24 17 22 18 21 19 23 21 32 23 29 25
REMARK SMILES IDX 5 27 14 28 6 29 12 30 7 31 10 32 15 33 13 35 8 37 9 38 11 40
REMARK H PARENT 21 20 23 22 32 24 29 26 15 34 13 36 9 39 11 41
REMARK Flexibility Score: inf
ROOT
ATOM      1  O   UNL     1     131.610 140.176 141.294  1.00  0.00    -0.454 OA
ENDROOT
BRANCH   1   2
ATOM      2  C   UNL     1     132.465 140.860 140.408  1.00  0.00     0.214 A 
ATOM      3  C   UNL     1     133.414 140.108 139.686  1.00  0.00     0.180 A 
ATOM      4  O   UNL     1     134.293 140.715 138.897  1.00  0.00    -0.452 OA
ATOM      5  C   UNL     1     132.440 142.261 140.217  1.00  0.00     0.239 A 
ATOM      6  C   UNL     1     134.319 142.028 138.711  1.00  0.00     0.146 A 
ATOM      7  O   UNL     1     131.574 142.966 140.800  1.00  0.00    -0.285 OA
ATOM      8  C   UNL     1     133.383 142.866 139.358  1.00  0.00     0.111 A 
ATOM      9  C   UNL     1     135.285 142.574 137.859  1.00  0.00     0.094 A 
ATOM     10  C   UNL     1     133.431 144.263 139.123  1.00  0.00     0.134 A 
ATOM     11  C   UNL     1     135.329 143.952 137.633  1.00  0.00     0.123 A 
ATOM     12  C   UNL     1     134.404 144.790 138.262  1.00  0.00     0.093 A 
BRANCH   3  13
ATOM     13  C   UNL     1     133.488 138.634 139.800  1.00  0.00     0.025 A 
ATOM     14  C   UNL     1     133.567 138.002 141.053  1.00  0.00     0.016 A 
ATOM     15  C   UNL     1     133.611 136.608 141.139  1.00  0.00     0.051 A 
ATOM     16  C   UNL     1     133.564 135.826 139.978  1.00  0.00     0.157 A 
ATOM     17  C   UNL     1     133.422 137.846 138.640  1.00  0.00     0.062 A 
ATOM     18  C   UNL     1     133.463 136.449 138.722  1.00  0.00     0.158 A 
BRANCH  16  19
ATOM     19  O   UNL     1     133.605 134.436 140.067  1.00  0.00    -0.504 OA
ATOM     20  H   UNL     1     134.458 133.917 139.890  1.00  0.00     0.293 HD
ENDBRANCH  16  19
BRANCH  18  21
ATOM     21  O   UNL     1     133.396 135.700 137.549  1.00  0.00    -0.504 OA
ATOM     22  H   UNL     1     134.224 135.446 137.023  1.00  0.00     0.293 HD
ENDBRANCH  18  21
ENDBRANCH   3  13
BRANCH  10  23
ATOM     23  O   UNL     1     132.526 145.128 139.739  1.00  0.00    -0.507 OA
ATOM     24  H   UNL     1     131.646 144.798 140.119  1.00  0.00     0.293 HD
ENDBRANCH  10  23
BRANCH  11  25
ATOM     25  O   UNL     1     136.287 144.502 136.784  1.00  0.00    -0.508 OA
ATOM     26  H   UNL     1     136.319 145.496 136.593  1.00  0.00     0.293 HD
ENDBRANCH  11  25
ENDBRANCH   1   2
BRANCH   1  27
ATOM     27  C   UNL     1     131.312 140.525 142.647  1.00  0.00     0.339 C 
ATOM     28  C   UNL     1     130.482 139.379 143.303  1.00  0.00     0.214 C 
ATOM     29  O   UNL     1     132.540 140.778 143.325  1.00  0.00    -0.332 OA
ATOM     30  C   UNL     1     131.388 138.518 144.203  1.00  0.00     0.180 C 
ATOM     31  C   UNL     1     132.352 140.830 144.727  1.00  0.00     0.179 C 
ATOM     32  C   UNL     1     132.096 139.395 145.272  1.00  0.00     0.177 C 
BRANCH  28  33
ATOM     33  O   UNL     1     129.875 138.565 142.331  1.00  0.00    -0.384 OA
ATOM     34  H   UNL     1     130.537 138.459 141.598  1.00  0.00     0.211 HD
ENDBRANCH  28  33
BRANCH  30  35
ATOM     35  O   UNL     1     130.692 137.445 144.791  1.00  0.00    -0.387 OA
ATOM     36  H   UNL     1     129.871 137.806 145.218  1.00  0.00     0.211 HD
ENDBRANCH  30  35
BRANCH  31  37
ATOM     37  C   UNL     1     133.596 141.465 145.363  1.00  0.00     0.191 C 
BRANCH  37  38
ATOM     38  O   UNL     1     133.246 142.240 146.479  1.00  0.00    -0.394 OA
ATOM     39  H   UNL     1     132.298 142.031 146.687  1.00  0.00     0.210 HD
ENDBRANCH  37  38
ENDBRANCH  31  37
BRANCH  32  40
ATOM     40  O   UNL     1     131.366 139.445 146.474  1.00  0.00    -0.387 OA
ATOM     41  H   UNL     1     130.988 138.541 146.637  1.00  0.00     0.211 HD
ENDBRANCH  32  40
ENDBRANCH   1  27
TORSDOF 12
ENDMDL
MODEL 6
REMARK VINA RESULT:    -5.382      2.945      6.573
REMARK INTER + INTRA:          -8.395
REMARK INTER:                  -7.041
REMARK INTRA:                  -1.355
REMARK UNBOUND:                -0.496
REMARK SMILES O=c1c(O[C@@H]2O[C@H](CO)[C@@H](O)[C@@H](O)[C@@H]2O)c(-c2ccc(O)c(O)c2)oc2cc(O)cc(O)c12
REMARK SMILES IDX 4 1 3 2 16 3 25 4 2 5 26 6 1 7 33 8 27 9 31 10 28 11 30 12
REMARK SMILES IDX 17 13 18 14 19 15 20 16 24 17 22 18 21 19 23 21 32 23 29 25
REMARK SMILES IDX 5 27 14 28 6 29 12 30 7 31 10 32 15 33 13 35 8 37 9 38 11 40
REMARK H PARENT 21 20 23 22 32 24 29 26 15 34 13 36 9 39 11 41
REMARK Flexibility Score: inf
ROOT
ATOM      1  O   UNL     1     134.425 139.189 141.003  1.00  0.00    -0.454 OA
ENDROOT
BRANCH   1   2
ATOM      2  C   UNL     1     134.237 140.481 140.473  1.00  0.00     0.214 A 
ATOM      3  C   UNL     1     133.168 141.254 140.971  1.00  0.00     0.180 A 
ATOM      4  O   UNL     1     132.904 142.447 140.451  1.00  0.00    -0.452 OA
ATOM      5  C   UNL     1     135.048 141.040 139.458  1.00  0.00     0.239 A 
ATOM      6  C   UNL     1     133.623 142.994 139.480  1.00  0.00     0.146 A 
ATOM      7  O   UNL     1     136.046 140.407 139.022  1.00  0.00    -0.285 OA
ATOM      8  C   UNL     1     134.741 142.317 138.942  1.00  0.00     0.111 A 
ATOM      9  C   UNL     1     133.264 144.258 138.999  1.00  0.00     0.094 A 
ATOM     10  C   UNL     1     135.495 142.940 137.917  1.00  0.00     0.134 A 
ATOM     11  C   UNL     1     134.011 144.866 137.986  1.00  0.00     0.123 A 
ATOM     12  C   UNL     1     135.121 144.208 137.451  1.00  0.00     0.093 A 
BRANCH   3  13
ATOM     13  C   UNL     1     132.292 140.762 142.057  1.00  0.00     0.025 A 
ATOM     14  C   UNL     1     131.001 140.274 141.788  1.00  0.00     0.016 A 
ATOM     15  C   UNL     1     130.198 139.792 142.824  1.00  0.00     0.051 A 
ATOM     16  C   UNL     1     130.677 139.777 144.141  1.00  0.00     0.157 A 
ATOM     17  C   UNL     1     132.774 140.727 143.375  1.00  0.00     0.062 A 
ATOM     18  C   UNL     1     131.974 140.243 144.416  1.00  0.00     0.158 A 
BRANCH  16  19
ATOM     19  O   UNL     1     129.875 139.292 145.172  1.00  0.00    -0.504 OA
ATOM     20  H   UNL     1     129.051 138.730 144.987  1.00  0.00     0.293 HD
ENDBRANCH  16  19
BRANCH  18  21
ATOM     21  O   UNL     1     132.487 140.224 145.712  1.00  0.00    -0.504 OA
ATOM     22  H   UNL     1     133.094 140.956 146.061  1.00  0.00     0.293 HD
ENDBRANCH  18  21
ENDBRANCH   3  13
BRANCH  10  23
ATOM     23  O   UNL     1     136.607 142.309 137.358  1.00  0.00    -0.507 OA
ATOM     24  H   UNL     1     136.786 141.321 137.495  1.00  0.00     0.293 HD
ENDBRANCH  10  23
BRANCH  11  25
ATOM     25  O   UNL     1     133.659 146.125 137.504  1.00  0.00    -0.508 OA
ATOM     26  H   UNL     1     134.298 146.909 137.552  1.00  0.00     0.293 HD
ENDBRANCH  11  25
ENDBRANCH   1   2
BRANCH   1  27
ATOM     27  C   UNL     1     134.126 137.945 140.365  1.00  0.00     0.339 C 
ATOM     28  C   UNL     1     133.263 137.070 141.328  1.00  0.00     0.214 C 
ATOM     29  O   UNL     1     133.471 138.221 139.130  1.00  0.00    -0.332 OA
ATOM     30  C   UNL     1     131.783 137.123 140.904  1.00  0.00     0.180 C 
ATOM     31  C   UNL     1     132.877 137.055 138.593  1.00  0.00     0.179 C 
ATOM     32  C   UNL     1     131.616 136.681 139.426  1.00  0.00     0.177 C 
BRANCH  28  33
ATOM     33  O   UNL     1     133.387 137.499 142.660  1.00  0.00    -0.384 OA
ATOM     34  H   UNL     1     132.565 137.202 143.131  1.00  0.00     0.211 HD
ENDBRANCH  28  33
BRANCH  30  35
ATOM     35  O   UNL     1     130.956 136.377 141.765  1.00  0.00    -0.387 OA
ATOM     36  H   UNL     1     131.516 136.034 142.511  1.00  0.00     0.211 HD
ENDBRANCH  30  35
BRANCH  31  37
ATOM     37  C   UNL     1     132.527 137.319 137.122  1.00  0.00     0.191 C 
BRANCH  37  38
ATOM     38  O   UNL     1     133.414 138.246 136.556  1.00  0.00    -0.394 OA
ATOM     39  H   UNL     1     134.094 137.725 136.055  1.00  0.00     0.210 HD
ENDBRANCH  37  38
ENDBRANCH  31  37
BRANCH  32  40
ATOM     40  O   UNL     1     131.343 135.304 139.319  1.00  0.00    -0.387 OA
ATOM     41  H   UNL     1     130.803 135.040 140.109  1.00  0.00     0.211 HD
ENDBRANCH  32  40
ENDBRANCH   1  27
TORSDOF 12
ENDMDL
MODEL 7
REMARK VINA RESULT:    -5.364      2.005      3.723
REMARK INTER + INTRA:          -8.369
REMARK INTER:                  -6.985
REMARK INTRA:                  -1.384
REMARK UNBOUND:                -0.496
REMARK SMILES O=c1c(O[C@@H]2O[C@H](CO)[C@@H](O)[C@@H](O)[C@@H]2O)c(-c2ccc(O)c(O)c2)oc2cc(O)cc(O)c12
REMARK SMILES IDX 4 1 3 2 16 3 25 4 2 5 26 6 1 7 33 8 27 9 31 10 28 11 30 12
REMARK SMILES IDX 17 13 18 14 19 15 20 16 24 17 22 18 21 19 23 21 32 23 29 25
REMARK SMILES IDX 5 27 14 28 6 29 12 30 7 31 10 32 15 33 13 35 8 37 9 38 11 40
REMARK H PARENT 21 20 23 22 32 24 29 26 15 34 13 36 9 39 11 41
REMARK Flexibility Score: inf
ROOT
ATOM      1  O   UNL     1     138.545 143.420 138.788  1.00  0.00    -0.454 OA
ENDROOT
BRANCH   1   2
ATOM      2  C   UNL     1     139.472 143.998 137.898  1.00  0.00     0.214 A 
ATOM      3  C   UNL     1     138.975 144.801 136.851  1.00  0.00     0.180 A 
ATOM      4  O   UNL     1     139.802 145.305 135.942  1.00  0.00    -0.452 OA
ATOM      5  C   UNL     1     140.870 143.804 137.984  1.00  0.00     0.239 A 
ATOM      6  C   UNL     1     141.115 145.124 135.972  1.00  0.00     0.146 A 
ATOM      7  O   UNL     1     141.362 143.139 138.934  1.00  0.00    -0.285 OA
ATOM      8  C   UNL     1     141.715 144.369 137.005  1.00  0.00     0.111 A 
ATOM      9  C   UNL     1     141.903 145.697 134.967  1.00  0.00     0.094 A 
ATOM     10  C   UNL     1     143.123 144.210 137.013  1.00  0.00     0.134 A 
ATOM     11  C   UNL     1     143.290 145.535 134.979  1.00  0.00     0.123 A 
ATOM     12  C   UNL     1     143.895 144.796 135.999  1.00  0.00     0.093 A 
BRANCH   3  13
ATOM     13  C   UNL     1     137.530 145.085 136.707  1.00  0.00     0.025 A 
ATOM     14  C   UNL     1     136.838 145.847 137.665  1.00  0.00     0.016 A 
ATOM     15  C   UNL     1     135.479 146.125 137.498  1.00  0.00     0.051 A 
ATOM     16  C   UNL     1     134.795 145.659 136.368  1.00  0.00     0.157 A 
ATOM     17  C   UNL     1     136.845 144.636 135.567  1.00  0.00     0.062 A 
ATOM     18  C   UNL     1     135.484 144.914 135.395  1.00  0.00     0.158 A 
BRANCH  16  19
ATOM     19  O   UNL     1     133.441 145.940 136.203  1.00  0.00    -0.504 OA
ATOM     20  H   UNL     1     132.910 145.564 135.425  1.00  0.00     0.293 HD
ENDBRANCH  16  19
BRANCH  18  21
ATOM     21  O   UNL     1     134.838 144.451 134.251  1.00  0.00    -0.504 OA
ATOM     22  H   UNL     1     135.142 144.706 133.319  1.00  0.00     0.293 HD
ENDBRANCH  18  21
ENDBRANCH   3  13
BRANCH  10  23
ATOM     23  O   UNL     1     143.758 143.474 138.014  1.00  0.00    -0.507 OA
ATOM     24  H   UNL     1     143.456 142.539 138.263  1.00  0.00     0.293 HD
ENDBRANCH  10  23
BRANCH  11  25
ATOM     25  O   UNL     1     144.080 146.105 133.983  1.00  0.00    -0.508 OA
ATOM     26  H   UNL     1     144.265 147.101 133.957  1.00  0.00     0.293 HD
ENDBRANCH  11  25
ENDBRANCH   1   2
BRANCH   1  27
ATOM     27  C   UNL     1     137.729 142.270 138.555  1.00  0.00     0.339 C 
ATOM     28  C   UNL     1     138.139 141.139 139.550  1.00  0.00     0.214 C 
ATOM     29  O   UNL     1     136.364 142.655 138.687  1.00  0.00    -0.332 OA
ATOM     30  C   UNL     1     137.126 141.062 140.708  1.00  0.00     0.180 C 
ATOM     31  C   UNL     1     135.517 141.525 138.773  1.00  0.00     0.179 C 
ATOM     32  C   UNL     1     135.686 140.852 140.166  1.00  0.00     0.177 C 
BRANCH  28  33
ATOM     33  O   UNL     1     139.428 141.355 140.067  1.00  0.00    -0.384 OA
ATOM     34  H   UNL     1     140.010 140.650 139.680  1.00  0.00     0.211 HD
ENDBRANCH  28  33
BRANCH  30  35
ATOM     35  O   UNL     1     137.473 140.079 141.653  1.00  0.00    -0.387 OA
ATOM     36  H   UNL     1     138.464 140.022 141.692  1.00  0.00     0.211 HD
ENDBRANCH  30  35
BRANCH  31  37
ATOM     37  C   UNL     1     134.070 141.979 138.534  1.00  0.00     0.191 C 
BRANCH  37  38
ATOM     38  O   UNL     1     133.270 141.709 139.654  1.00  0.00    -0.394 OA
ATOM     39  H   UNL     1     132.594 141.040 139.369  1.00  0.00     0.210 HD
ENDBRANCH  37  38
ENDBRANCH  31  37
BRANCH  32  40
ATOM     40  O   UNL     1     135.345 139.488 140.101  1.00  0.00    -0.387 OA
ATOM     41  H   UNL     1     135.825 139.092 139.328  1.00  0.00     0.211 HD
ENDBRANCH  32  40
ENDBRANCH   1  27
TORSDOF 12
ENDMDL
MODEL 8
REMARK VINA RESULT:    -5.101      3.819      7.821
REMARK INTER + INTRA:          -7.982
REMARK INTER:                  -7.154
REMARK INTRA:                  -0.828
REMARK UNBOUND:                -0.496
REMARK SMILES O=c1c(O[C@@H]2O[C@H](CO)[C@@H](O)[C@@H](O)[C@@H]2O)c(-c2ccc(O)c(O)c2)oc2cc(O)cc(O)c12
REMARK SMILES IDX 4 1 3 2 16 3 25 4 2 5 26 6 1 7 33 8 27 9 31 10 28 11 30 12
REMARK SMILES IDX 17 13 18 14 19 15 20 16 24 17 22 18 21 19 23 21 32 23 29 25
REMARK SMILES IDX 5 27 14 28 6 29 12 30 7 31 10 32 15 33 13 35 8 37 9 38 11 40
REMARK H PARENT 21 20 23 22 32 24 29 26 15 34 13 36 9 39 11 41
REMARK Flexibility Score: inf
ROOT
ATOM      1  O   UNL     1     133.719 138.440 140.968  1.00  0.00    -0.454 OA
ENDROOT
BRANCH   1   2
ATOM      2  C   UNL     1     133.598 139.313 142.067  1.00  0.00     0.214 A 
ATOM      3  C   UNL     1     134.444 140.440 142.117  1.00  0.00     0.180 A 
ATOM      4  O   UNL     1     134.421 141.250 143.169  1.00  0.00    -0.452 OA
ATOM      5  C   UNL     1     132.690 139.113 143.133  1.00  0.00     0.239 A 
ATOM      6  C   UNL     1     133.603 141.082 144.200  1.00  0.00     0.146 A 
ATOM      7  O   UNL     1     131.879 138.150 143.104  1.00  0.00    -0.285 OA
ATOM      8  C   UNL     1     132.689 140.005 144.226  1.00  0.00     0.111 A 
ATOM      9  C   UNL     1     133.655 141.991 145.262  1.00  0.00     0.094 A 
ATOM     10  C   UNL     1     131.821 139.867 145.337  1.00  0.00     0.134 A 
ATOM     11  C   UNL     1     132.798 141.848 146.356  1.00  0.00     0.123 A 
ATOM     12  C   UNL     1     131.885 140.791 146.390  1.00  0.00     0.093 A 
BRANCH   3  13
ATOM     13  C   UNL     1     135.399 140.745 141.028  1.00  0.00     0.025 A 
ATOM     14  C   UNL     1     134.958 141.257 139.795  1.00  0.00     0.016 A 
ATOM     15  C   UNL     1     135.878 141.561 138.788  1.00  0.00     0.051 A 
ATOM     16  C   UNL     1     137.249 141.371 139.002  1.00  0.00     0.157 A 
ATOM     17  C   UNL     1     136.775 140.573 141.244  1.00  0.00     0.062 A 
ATOM     18  C   UNL     1     137.700 140.879 140.240  1.00  0.00     0.158 A 
BRANCH  16  19
ATOM     19  O   UNL     1     138.165 141.678 137.997  1.00  0.00    -0.504 OA
ATOM     20  H   UNL     1     138.389 141.017 137.262  1.00  0.00     0.293 HD
ENDBRANCH  16  19
BRANCH  18  21
ATOM     21  O   UNL     1     139.058 140.696 140.491  1.00  0.00    -0.504 OA
ATOM     22  H   UNL     1     139.547 141.211 141.213  1.00  0.00     0.293 HD
ENDBRANCH  18  21
ENDBRANCH   3  13
BRANCH  10  23
ATOM     23  O   UNL     1     130.900 138.820 145.405  1.00  0.00    -0.507 OA
ATOM     24  H   UNL     1     130.668 138.370 146.283  1.00  0.00     0.293 HD
ENDBRANCH  10  23
BRANCH  11  25
ATOM     25  O   UNL     1     132.843 142.751 147.416  1.00  0.00    -0.508 OA
ATOM     26  H   UNL     1     132.073 142.844 148.068  1.00  0.00     0.293 HD
ENDBRANCH  11  25
ENDBRANCH   1   2
BRANCH   1  27
ATOM     27  C   UNL     1     132.718 138.136 139.994  1.00  0.00     0.339 C 
ATOM     28  C   UNL     1     133.410 137.671 138.675  1.00  0.00     0.214 C 
ATOM     29  O   UNL     1     131.846 137.150 140.540  1.00  0.00    -0.332 OA
ATOM     30  C   UNL     1     133.343 136.137 138.557  1.00  0.00     0.180 C 
ATOM     31  C   UNL     1     131.023 136.581 139.539  1.00  0.00     0.179 C 
ATOM     32  C   UNL     1     131.875 135.641 138.637  1.00  0.00     0.177 C 
BRANCH  28  33
ATOM     33  O   UNL     1     134.750 138.089 138.624  1.00  0.00    -0.384 OA
ATOM     34  H   UNL     1     135.250 137.383 138.136  1.00  0.00     0.211 HD
ENDBRANCH  28  33
BRANCH  30  35
ATOM     35  O   UNL     1     133.988 135.664 137.398  1.00  0.00    -0.387 OA
ATOM     36  H   UNL     1     134.450 134.814 137.625  1.00  0.00     0.211 HD
ENDBRANCH  30  35
BRANCH  31  37
ATOM     37  C   UNL     1     129.875 135.826 140.223  1.00  0.00     0.191 C 
BRANCH  37  38
ATOM     38  O   UNL     1     129.914 136.009 141.613  1.00  0.00    -0.394 OA
ATOM     39  H   UNL     1     129.109 136.539 141.855  1.00  0.00     0.210 HD
ENDBRANCH  37  38
ENDBRANCH  31  37
BRANCH  32  40
ATOM     40  O   UNL     1     131.293 135.518 137.362  1.00  0.00    -0.387 OA
ATOM     41  H   UNL     1     132.028 135.467 136.697  1.00  0.00     0.211 HD
ENDBRANCH  32  40
ENDBRANCH   1  27
TORSDOF 12
ENDMDL
MODEL 9
REMARK VINA RESULT:    -5.050      2.082      5.760
REMARK INTER + INTRA:          -7.907
REMARK INTER:                  -7.932
REMARK INTRA:                   0.025
REMARK UNBOUND:                -0.496
REMARK SMILES O=c1c(O[C@@H]2O[C@H](CO)[C@@H](O)[C@@H](O)[C@@H]2O)c(-c2ccc(O)c(O)c2)oc2cc(O)cc(O)c12
REMARK SMILES IDX 4 1 3 2 16 3 25 4 2 5 26 6 1 7 33 8 27 9 31 10 28 11 30 12
REMARK SMILES IDX 17 13 18 14 19 15 20 16 24 17 22 18 21 19 23 21 32 23 29 25
REMARK SMILES IDX 5 27 14 28 6 29 12 30 7 31 10 32 15 33 13 35 8 37 9 38 11 40
REMARK H PARENT 21 20 23 22 32 24 29 26 15 34 13 36 9 39 11 41
REMARK Flexibility Score: inf
ROOT
ATOM      1  O   UNL     1     136.590 144.170 137.299  1.00  0.00    -0.454 OA
ENDROOT
BRANCH   1   2
ATOM      2  C   UNL     1     137.949 143.886 137.062  1.00  0.00     0.214 A 
ATOM      3  C   UNL     1     138.551 142.849 137.803  1.00  0.00     0.180 A 
ATOM      4  O   UNL     1     139.847 142.594 137.672  1.00  0.00    -0.452 OA
ATOM      5  C   UNL     1     138.751 144.596 136.138  1.00  0.00     0.239 A 
ATOM      6  C   UNL     1     140.638 143.255 136.837  1.00  0.00     0.146 A 
ATOM      7  O   UNL     1     138.243 145.495 135.416  1.00  0.00    -0.285 OA
ATOM      8  C   UNL     1     140.122 144.285 136.019  1.00  0.00     0.111 A 
ATOM      9  C   UNL     1     141.993 142.912 136.771  1.00  0.00     0.094 A 
ATOM     10  C   UNL     1     140.994 144.958 135.128  1.00  0.00     0.134 A 
ATOM     11  C   UNL     1     142.848 143.580 135.891  1.00  0.00     0.123 A 
ATOM     12  C   UNL     1     142.348 144.597 135.073  1.00  0.00     0.093 A 
BRANCH   3  13
ATOM     13  C   UNL     1     137.778 142.032 138.766  1.00  0.00     0.025 A 
ATOM     14  C   UNL     1     138.323 141.657 140.006  1.00  0.00     0.016 A 
ATOM     15  C   UNL     1     137.569 140.905 140.911  1.00  0.00     0.051 A 
ATOM     16  C   UNL     1     136.257 140.529 140.596  1.00  0.00     0.157 A 
ATOM     17  C   UNL     1     136.456 141.669 138.463  1.00  0.00     0.062 A 
ATOM     18  C   UNL     1     135.697 140.918 139.367  1.00  0.00     0.158 A 
BRANCH  16  19
ATOM     19  O   UNL     1     135.506 139.783 141.501  1.00  0.00    -0.504 OA
ATOM     20  H   UNL     1     134.723 139.212 141.200  1.00  0.00     0.293 HD
ENDBRANCH  16  19
BRANCH  18  21
ATOM     21  O   UNL     1     134.388 140.576 139.031  1.00  0.00    -0.504 OA
ATOM     22  H   UNL     1     133.757 140.143 139.695  1.00  0.00     0.293 HD
ENDBRANCH  18  21
ENDBRANCH   3  13
BRANCH  10  23
ATOM     23  O   UNL     1     140.528 145.981 134.301  1.00  0.00    -0.507 OA
ATOM     24  H   UNL     1     140.789 146.038 133.323  1.00  0.00     0.293 HD
ENDBRANCH  10  23
BRANCH  11  25
ATOM     25  O   UNL     1     144.198 143.242 135.819  1.00  0.00    -0.508 OA
ATOM     26  H   UNL     1     144.913 143.821 136.244  1.00  0.00     0.293 HD
ENDBRANCH  11  25
ENDBRANCH   1   2
BRANCH   1  27
ATOM     27  C   UNL     1     135.482 143.843 136.456  1.00  0.00     0.339 C 
ATOM     28  C   UNL     1     134.153 144.101 137.232  1.00  0.00     0.214 C 
ATOM     29  O   UNL     1     135.585 144.614 135.262  1.00  0.00    -0.332 OA
ATOM     30  C   UNL     1     133.524 145.430 136.775  1.00  0.00     0.180 C 
ATOM     31  C   UNL     1     134.381 144.575 134.520  1.00  0.00     0.179 C 
ATOM     32  C   UNL     1     133.299 145.434 135.239  1.00  0.00     0.177 C 
BRANCH  28  33
ATOM     33  O   UNL     1     134.369 144.135 138.620  1.00  0.00    -0.384 OA
ATOM     34  H   UNL     1     134.030 145.013 138.938  1.00  0.00     0.211 HD
ENDBRANCH  28  33
BRANCH  30  35
ATOM     35  O   UNL     1     132.339 145.727 137.473  1.00  0.00    -0.387 OA
ATOM     36  H   UNL     1     131.651 145.060 137.212  1.00  0.00     0.211 HD
ENDBRANCH  30  35
BRANCH  31  37
ATOM     37  C   UNL     1     134.664 145.089 133.102  1.00  0.00     0.191 C 
BRANCH  37  38
ATOM     38  O   UNL     1     133.511 145.019 132.306  1.00  0.00    -0.394 OA
ATOM     39  H   UNL     1     133.401 145.910 131.881  1.00  0.00     0.210 HD
ENDBRANCH  37  38
ENDBRANCH  31  37
BRANCH  32  40
ATOM     40  O   UNL     1     132.008 144.990 134.898  1.00  0.00    -0.387 OA
ATOM     41  H   UNL     1     131.466 145.787 134.663  1.00  0.00     0.211 HD
ENDBRANCH  32  40
ENDBRANCH   1  27
TORSDOF 12
ENDMDL
