MODEL 1
REMARK VINA RESULT:    -6.666      0.000      0.000
REMARK INTER + INTRA:          -7.814
REMARK INTER:                  -8.030
REMARK INTRA:                   0.216
REMARK UNBOUND:                 0.216
REMARK SMILES O=c1c(O)c(-c2ccc(O)c(O)c2)oc2cc(O)cc(O)c12
REMARK SMILES IDX 5 1 3 2 2 3 1 4 22 5 20 6 19 7 17 8 16 9 15 10 14 11 6 12
REMARK SMILES IDX 7 13 8 14 9 15 13 16 11 17 10 18 12 20 4 22 21 24 18 26
REMARK H PARENT 10 19 12 21 4 23 21 25 18 27
REMARK Flexibility Score: inf
ROOT
ATOM      1  C   UNL     1      35.017  50.045  16.665  1.00  0.00     0.180 A 
ATOM      2  C   UNL     1      35.571  48.759  16.782  1.00  0.00     0.208 A 
ATOM      3  C   UNL     1      36.776  48.598  17.483  1.00  0.00     0.238 A 
ATOM      4  O   UNL     1      37.239  47.436  17.631  1.00  0.00    -0.285 OA
ATOM      5  C   UNL     1      37.422  49.726  18.045  1.00  0.00     0.111 A 
ATOM      6  C   UNL     1      38.666  49.685  18.742  1.00  0.00     0.134 A 
ATOM      7  C   UNL     1      39.146  50.841  19.368  1.00  0.00     0.093 A 
ATOM      8  C   UNL     1      38.460  52.051  19.269  1.00  0.00     0.123 A 
ATOM      9  C   UNL     1      37.271  52.117  18.541  1.00  0.00     0.094 A 
ATOM     10  C   UNL     1      36.750  50.972  17.935  1.00  0.00     0.146 A 
ATOM     11  O   UNL     1      35.611  51.074  17.259  1.00  0.00    -0.452 OA
ENDROOT
BRANCH   1  12
ATOM     12  C   UNL     1      33.762  50.299  15.921  1.00  0.00     0.025 A 
ATOM     13  C   UNL     1      33.409  49.527  14.800  1.00  0.00     0.016 A 
ATOM     14  C   UNL     1      32.231  49.800  14.098  1.00  0.00     0.051 A 
ATOM     15  C   UNL     1      31.398  50.854  14.495  1.00  0.00     0.157 A 
ATOM     16  C   UNL     1      32.935  51.367  16.303  1.00  0.00     0.062 A 
ATOM     17  C   UNL     1      31.755  51.643  15.602  1.00  0.00     0.158 A 
BRANCH  15  18
ATOM     18  O   UNL     1      30.224  51.122  13.794  1.00  0.00    -0.504 OA
ATOM     19  H   UNL     1      29.370  50.604  13.970  1.00  0.00     0.293 HD
ENDBRANCH  15  18
BRANCH  17  20
ATOM     20  O   UNL     1      30.951  52.704  16.019  1.00  0.00    -0.504 OA
ATOM     21  H   UNL     1      30.617  53.412  15.376  1.00  0.00     0.293 HD
ENDBRANCH  17  20
ENDBRANCH   1  12
BRANCH   2  22
ATOM     22  O   UNL     1      34.907  47.656  16.240  1.00  0.00    -0.502 OA
ATOM     23  H   UNL     1      34.459  47.682  15.332  1.00  0.00     0.293 HD
ENDBRANCH   2  22
BRANCH   6  24
ATOM     24  O   UNL     1      39.478  48.549  18.822  1.00  0.00    -0.507 OA
ATOM     25  H   UNL     1      39.209  47.681  19.259  1.00  0.00     0.293 HD
ENDBRANCH   6  24
BRANCH   8  26
ATOM     26  O   UNL     1      38.974  53.186  19.892  1.00  0.00    -0.508 OA
ATOM     27  H   UNL     1      39.968  53.387  19.893  1.00  0.00     0.293 HD
ENDBRANCH   8  26
TORSDOF 6
ENDMDL
MODEL 2
REMARK VINA RESULT:    -6.253      4.145      7.923
REMARK INTER + INTRA:          -7.317
REMARK INTER:                  -7.016
REMARK INTRA:                  -0.300
REMARK UNBOUND:                 0.216
REMARK SMILES O=c1c(O)c(-c2ccc(O)c(O)c2)oc2cc(O)cc(O)c12
REMARK SMILES IDX 5 1 3 2 2 3 1 4 22 5 20 6 19 7 17 8 16 9 15 10 14 11 6 12
REMARK SMILES IDX 7 13 8 14 9 15 13 16 11 17 10 18 12 20 4 22 21 24 18 26
REMARK H PARENT 10 19 12 21 4 23 21 25 18 27
REMARK Flexibility Score: inf
ROOT
ATOM      1  C   UNL     1      29.572  49.653  12.186  1.00  0.00     0.180 A 
ATOM      2  C   UNL     1      28.909  50.800  12.655  1.00  0.00     0.208 A 
ATOM      3  C   UNL     1      29.497  51.555  13.681  1.00  0.00     0.238 A 
ATOM      4  O   UNL     1      28.925  52.611  14.059  1.00  0.00    -0.285 OA
ATOM      5  C   UNL     1      30.733  51.146  14.239  1.00  0.00     0.111 A 
ATOM      6  C   UNL     1      31.400  51.813  15.309  1.00  0.00     0.134 A 
ATOM      7  C   UNL     1      32.681  51.395  15.691  1.00  0.00     0.093 A 
ATOM      8  C   UNL     1      33.291  50.297  15.087  1.00  0.00     0.123 A 
ATOM      9  C   UNL     1      32.622  49.601  14.079  1.00  0.00     0.094 A 
ATOM     10  C   UNL     1      31.359  50.015  13.652  1.00  0.00     0.146 A 
ATOM     11  O   UNL     1      30.761  49.332  12.682  1.00  0.00    -0.452 OA
ENDROOT
BRANCH   1  12
ATOM     12  C   UNL     1      29.003  48.792  11.124  1.00  0.00     0.025 A 
ATOM     13  C   UNL     1      28.348  47.587  11.432  1.00  0.00     0.016 A 
ATOM     14  C   UNL     1      27.840  46.779  10.411  1.00  0.00     0.051 A 
ATOM     15  C   UNL     1      27.991  47.154   9.070  1.00  0.00     0.157 A 
ATOM     16  C   UNL     1      29.171  49.154   9.777  1.00  0.00     0.062 A 
ATOM     17  C   UNL     1      28.663  48.347   8.752  1.00  0.00     0.158 A 
BRANCH  15  18
ATOM     18  O   UNL     1      27.482  46.347   8.055  1.00  0.00    -0.504 OA
ATOM     19  H   UNL     1      27.466  46.654   7.089  1.00  0.00     0.293 HD
ENDBRANCH  15  18
BRANCH  17  20
ATOM     20  O   UNL     1      28.836  48.745   7.427  1.00  0.00    -0.504 OA
ATOM     21  H   UNL     1      28.311  48.330   6.667  1.00  0.00     0.293 HD
ENDBRANCH  17  20
ENDBRANCH   1  12
BRANCH   2  22
ATOM     22  O   UNL     1      27.701  51.200  12.077  1.00  0.00    -0.502 OA
ATOM     23  H   UNL     1      27.581  51.295  11.076  1.00  0.00     0.293 HD
ENDBRANCH   2  22
BRANCH   6  24
ATOM     24  O   UNL     1      30.842  52.864  16.043  1.00  0.00    -0.507 OA
ATOM     25  H   UNL     1      31.100  53.834  15.945  1.00  0.00     0.293 HD
ENDBRANCH   6  24
BRANCH   8  26
ATOM     26  O   UNL     1      34.559  49.899  15.504  1.00  0.00    -0.508 OA
ATOM     27  H   UNL     1      35.377  50.475  15.337  1.00  0.00     0.293 HD
ENDBRANCH   8  26
TORSDOF 6
ENDMDL
MODEL 3
REMARK VINA RESULT:    -6.225      2.334      8.186
REMARK INTER + INTRA:          -7.283
REMARK INTER:                  -7.292
REMARK INTRA:                   0.010
REMARK UNBOUND:                 0.216
REMARK SMILES O=c1c(O)c(-c2ccc(O)c(O)c2)oc2cc(O)cc(O)c12
REMARK SMILES IDX 5 1 3 2 2 3 1 4 22 5 20 6 19 7 17 8 16 9 15 10 14 11 6 12
REMARK SMILES IDX 7 13 8 14 9 15 13 16 11 17 10 18 12 20 4 22 21 24 18 26
REMARK H PARENT 10 19 12 21 4 23 21 25 18 27
REMARK Flexibility Score: inf
ROOT
ATOM      1  C   UNL     1      32.392  50.458  15.252  1.00  0.00     0.180 A 
ATOM      2  C   UNL     1      31.496  51.266  15.972  1.00  0.00     0.208 A 
ATOM      3  C   UNL     1      30.305  51.680  15.356  1.00  0.00     0.238 A 
ATOM      4  O   UNL     1      29.481  52.358  16.024  1.00  0.00    -0.285 OA
ATOM      5  C   UNL     1      30.031  51.294  14.021  1.00  0.00     0.111 A 
ATOM      6  C   UNL     1      28.874  51.688  13.284  1.00  0.00     0.134 A 
ATOM      7  C   UNL     1      28.643  51.140  12.017  1.00  0.00     0.093 A 
ATOM      8  C   UNL     1      29.557  50.265  11.433  1.00  0.00     0.123 A 
ATOM      9  C   UNL     1      30.721  49.918  12.120  1.00  0.00     0.094 A 
ATOM     10  C   UNL     1      30.962  50.420  13.401  1.00  0.00     0.146 A 
ATOM     11  O   UNL     1      32.077  50.058  14.026  1.00  0.00    -0.452 OA
ENDROOT
BRANCH   1  12
ATOM     12  C   UNL     1      33.679  50.003  15.825  1.00  0.00     0.025 A 
ATOM     13  C   UNL     1      34.543  50.896  16.484  1.00  0.00     0.016 A 
ATOM     14  C   UNL     1      35.763  50.449  16.996  1.00  0.00     0.051 A 
ATOM     15  C   UNL     1      36.146  49.109  16.847  1.00  0.00     0.157 A 
ATOM     16  C   UNL     1      34.076  48.666  15.659  1.00  0.00     0.062 A 
ATOM     17  C   UNL     1      35.298  48.215  16.172  1.00  0.00     0.158 A 
BRANCH  15  18
ATOM     18  O   UNL     1      37.363  48.666  17.361  1.00  0.00    -0.504 OA
ATOM     19  H   UNL     1      38.220  48.727  16.823  1.00  0.00     0.293 HD
ENDBRANCH  15  18
BRANCH  17  20
ATOM     20  O   UNL     1      35.652  46.877  16.000  1.00  0.00    -0.504 OA
ATOM     21  H   UNL     1      35.398  46.355  15.170  1.00  0.00     0.293 HD
ENDBRANCH  17  20
ENDBRANCH   1  12
BRANCH   2  22
ATOM     22  O   UNL     1      31.774  51.618  17.296  1.00  0.00    -0.502 OA
ATOM     23  H   UNL     1      31.247  51.252  18.079  1.00  0.00     0.293 HD
ENDBRANCH   2  22
BRANCH   6  24
ATOM     24  O   UNL     1      27.944  52.628  13.737  1.00  0.00    -0.507 OA
ATOM     25  H   UNL     1      27.180  52.991  13.187  1.00  0.00     0.293 HD
ENDBRANCH   6  24
BRANCH   8  26
ATOM     26  O   UNL     1      29.303  49.751  10.163  1.00  0.00    -0.508 OA
ATOM     27  H   UNL     1      28.821  50.296   9.457  1.00  0.00     0.293 HD
ENDBRANCH   8  26
TORSDOF 6
ENDMDL
MODEL 4
REMARK VINA RESULT:    -5.736      3.827      9.353
REMARK INTER + INTRA:          -6.695
REMARK INTER:                  -6.414
REMARK INTRA:                  -0.280
REMARK UNBOUND:                 0.216
REMARK SMILES O=c1c(O)c(-c2ccc(O)c(O)c2)oc2cc(O)cc(O)c12
REMARK SMILES IDX 5 1 3 2 2 3 1 4 22 5 20 6 19 7 17 8 16 9 15 10 14 11 6 12
REMARK SMILES IDX 7 13 8 14 9 15 13 16 11 17 10 18 12 20 4 22 21 24 18 26
REMARK H PARENT 10 19 12 21 4 23 21 25 18 27
REMARK Flexibility Score: inf
ROOT
ATOM      1  C   UNL     1      30.306  49.462  13.951  1.00  0.00     0.180 A 
ATOM      2  C   UNL     1      30.112  49.563  12.563  1.00  0.00     0.208 A 
ATOM      3  C   UNL     1      28.927  49.064  12.002  1.00  0.00     0.238 A 
ATOM      4  O   UNL     1      28.735  49.207  10.766  1.00  0.00    -0.285 OA
ATOM      5  C   UNL     1      27.956  48.455  12.833  1.00  0.00     0.111 A 
ATOM      6  C   UNL     1      26.736  47.879  12.368  1.00  0.00     0.134 A 
ATOM      7  C   UNL     1      25.790  47.422  13.294  1.00  0.00     0.093 A 
ATOM      8  C   UNL     1      26.047  47.459  14.663  1.00  0.00     0.123 A 
ATOM      9  C   UNL     1      27.262  47.965  15.128  1.00  0.00     0.094 A 
ATOM     10  C   UNL     1      28.210  48.462  14.230  1.00  0.00     0.146 A 
ATOM     11  O   UNL     1      29.349  48.945  14.712  1.00  0.00    -0.452 OA
ENDROOT
BRANCH   1  12
ATOM     12  C   UNL     1      31.541  49.943  14.612  1.00  0.00     0.025 A 
ATOM     13  C   UNL     1      31.579  51.180  15.279  1.00  0.00     0.016 A 
ATOM     14  C   UNL     1      32.762  51.624  15.875  1.00  0.00     0.051 A 
ATOM     15  C   UNL     1      33.926  50.849  15.803  1.00  0.00     0.157 A 
ATOM     16  C   UNL     1      32.716  49.178  14.524  1.00  0.00     0.062 A 
ATOM     17  C   UNL     1      33.902  49.620  15.120  1.00  0.00     0.158 A 
BRANCH  15  18
ATOM     18  O   UNL     1      35.104  51.294  16.400  1.00  0.00    -0.504 OA
ATOM     19  H   UNL     1      35.440  52.242  16.271  1.00  0.00     0.293 HD
ENDBRANCH  15  18
BRANCH  17  20
ATOM     20  O   UNL     1      35.046  48.828  15.024  1.00  0.00    -0.504 OA
ATOM     21  H   UNL     1      35.481  48.410  15.838  1.00  0.00     0.293 HD
ENDBRANCH  17  20
ENDBRANCH   1  12
BRANCH   2  22
ATOM     22  O   UNL     1      31.073  50.188  11.763  1.00  0.00    -0.502 OA
ATOM     23  H   UNL     1      32.054  50.215  12.011  1.00  0.00     0.293 HD
ENDBRANCH   2  22
BRANCH   6  24
ATOM     24  O   UNL     1      26.419  47.709  11.017  1.00  0.00    -0.507 OA
ATOM     25  H   UNL     1      25.492  47.532  10.662  1.00  0.00     0.293 HD
ENDBRANCH   6  24
BRANCH   8  26
ATOM     26  O   UNL     1      25.090  46.980  15.556  1.00  0.00    -0.508 OA
ATOM     27  H   UNL     1      25.226  47.035  16.559  1.00  0.00     0.293 HD
ENDBRANCH   8  26
TORSDOF 6
ENDMDL
MODEL 5
REMARK VINA RESULT:    -5.734      1.880      7.430
REMARK INTER + INTRA:          -6.691
REMARK INTER:                  -6.522
REMARK INTRA:                  -0.169
REMARK UNBOUND:                 0.216
REMARK SMILES O=c1c(O)c(-c2ccc(O)c(O)c2)oc2cc(O)cc(O)c12
REMARK SMILES IDX 5 1 3 2 2 3 1 4 22 5 20 6 19 7 17 8 16 9 15 10 14 11 6 12
REMARK SMILES IDX 7 13 8 14 9 15 13 16 11 17 10 18 12 20 4 22 21 24 18 26
REMARK H PARENT 10 19 12 21 4 23 21 25 18 27
REMARK Flexibility Score: inf
ROOT
ATOM      1  C   UNL     1      33.854  50.117  16.540  1.00  0.00     0.180 A 
ATOM      2  C   UNL     1      32.942  50.771  17.386  1.00  0.00     0.208 A 
ATOM      3  C   UNL     1      31.707  51.186  16.865  1.00  0.00     0.238 A 
ATOM      4  O   UNL     1      30.873  51.722  17.640  1.00  0.00    -0.285 OA
ATOM      5  C   UNL     1      31.405  50.957  15.501  1.00  0.00     0.111 A 
ATOM      6  C   UNL     1      30.200  51.370  14.857  1.00  0.00     0.134 A 
ATOM      7  C   UNL     1      29.952  50.974  13.537  1.00  0.00     0.093 A 
ATOM      8  C   UNL     1      30.891  50.237  12.817  1.00  0.00     0.123 A 
ATOM      9  C   UNL     1      32.098  49.877  13.418  1.00  0.00     0.094 A 
ATOM     10  C   UNL     1      32.359  50.227  14.745  1.00  0.00     0.146 A 
ATOM     11  O   UNL     1      33.516  49.857  15.283  1.00  0.00    -0.452 OA
ENDROOT
BRANCH   1  12
ATOM     12  C   UNL     1      35.186  49.671  17.011  1.00  0.00     0.025 A 
ATOM     13  C   UNL     1      36.145  50.592  17.469  1.00  0.00     0.016 A 
ATOM     14  C   UNL     1      37.404  50.151  17.885  1.00  0.00     0.051 A 
ATOM     15  C   UNL     1      37.729  48.789  17.838  1.00  0.00     0.157 A 
ATOM     16  C   UNL     1      35.523  48.310  16.945  1.00  0.00     0.062 A 
ATOM     17  C   UNL     1      36.783  47.864  17.362  1.00  0.00     0.158 A 
BRANCH  15  18
ATOM     18  O   UNL     1      38.985  48.353  18.255  1.00  0.00    -0.504 OA
ATOM     19  H   UNL     1      39.818  48.528  17.706  1.00  0.00     0.293 HD
ENDBRANCH  15  18
BRANCH  17  20
ATOM     20  O   UNL     1      37.078  46.503  17.295  1.00  0.00    -0.504 OA
ATOM     21  H   UNL     1      37.098  45.999  16.416  1.00  0.00     0.293 HD
ENDBRANCH  17  20
ENDBRANCH   1  12
BRANCH   2  22
ATOM     22  O   UNL     1      33.251  50.968  18.735  1.00  0.00    -0.502 OA
ATOM     23  H   UNL     1      32.898  51.755  19.265  1.00  0.00     0.293 HD
ENDBRANCH   2  22
BRANCH   6  24
ATOM     24  O   UNL     1      29.236  52.187  15.455  1.00  0.00    -0.507 OA
ATOM     25  H   UNL     1      29.190  52.393  16.441  1.00  0.00     0.293 HD
ENDBRANCH   6  24
BRANCH   8  26
ATOM     26  O   UNL     1      30.618  49.874  11.500  1.00  0.00    -0.508 OA
ATOM     27  H   UNL     1      30.028  50.443  10.905  1.00  0.00     0.293 HD
ENDBRANCH   8  26
TORSDOF 6
ENDMDL
MODEL 6
REMARK VINA RESULT:    -5.717      2.782      4.772
REMARK INTER + INTRA:          -6.671
REMARK INTER:                  -6.368
REMARK INTRA:                  -0.303
REMARK UNBOUND:                 0.216
REMARK SMILES O=c1c(O)c(-c2ccc(O)c(O)c2)oc2cc(O)cc(O)c12
REMARK SMILES IDX 5 1 3 2 2 3 1 4 22 5 20 6 19 7 17 8 16 9 15 10 14 11 6 12
REMARK SMILES IDX 7 13 8 14 9 15 13 16 11 17 10 18 12 20 4 22 21 24 18 26
REMARK H PARENT 10 19 12 21 4 23 21 25 18 27
REMARK Flexibility Score: inf
ROOT
ATOM      1  C   UNL     1      35.799  51.329  19.174  1.00  0.00     0.180 A 
ATOM      2  C   UNL     1      34.899  51.606  20.217  1.00  0.00     0.208 A 
ATOM      3  C   UNL     1      35.187  52.655  21.104  1.00  0.00     0.238 A 
ATOM      4  O   UNL     1      34.351  52.933  22.003  1.00  0.00    -0.285 OA
ATOM      5  C   UNL     1      36.378  53.404  20.948  1.00  0.00     0.111 A 
ATOM      6  C   UNL     1      36.790  54.462  21.812  1.00  0.00     0.134 A 
ATOM      7  C   UNL     1      37.921  55.220  21.486  1.00  0.00     0.093 A 
ATOM      8  C   UNL     1      38.692  54.918  20.364  1.00  0.00     0.123 A 
ATOM      9  C   UNL     1      38.332  53.847  19.544  1.00  0.00     0.094 A 
ATOM     10  C   UNL     1      37.188  53.095  19.824  1.00  0.00     0.146 A 
ATOM     11  O   UNL     1      36.874  52.091  19.013  1.00  0.00    -0.452 OA
ENDROOT
BRANCH   1  12
ATOM     12  C   UNL     1      35.577  50.224  18.213  1.00  0.00     0.025 A 
ATOM     13  C   UNL     1      35.865  48.890  18.554  1.00  0.00     0.016 A 
ATOM     14  C   UNL     1      35.670  47.867  17.623  1.00  0.00     0.051 A 
ATOM     15  C   UNL     1      35.200  48.159  16.337  1.00  0.00     0.157 A 
ATOM     16  C   UNL     1      35.127  50.515  16.916  1.00  0.00     0.062 A 
ATOM     17  C   UNL     1      34.930  49.492  15.981  1.00  0.00     0.158 A 
BRANCH  15  18
ATOM     18  O   UNL     1      35.005  47.135  15.412  1.00  0.00    -0.504 OA
ATOM     19  H   UNL     1      35.484  46.246  15.495  1.00  0.00     0.293 HD
ENDBRANCH  15  18
BRANCH  17  20
ATOM     20  O   UNL     1      34.468  49.818  14.706  1.00  0.00    -0.504 OA
ATOM     21  H   UNL     1      35.075  50.211  13.997  1.00  0.00     0.293 HD
ENDBRANCH  17  20
ENDBRANCH   1  12
BRANCH   2  22
ATOM     22  O   UNL     1      33.718  50.869  20.341  1.00  0.00    -0.502 OA
ATOM     23  H   UNL     1      32.879  51.095  19.821  1.00  0.00     0.293 HD
ENDBRANCH   2  22
BRANCH   6  24
ATOM     24  O   UNL     1      36.144  54.789  23.008  1.00  0.00    -0.507 OA
ATOM     25  H   UNL     1      36.591  54.820  23.912  1.00  0.00     0.293 HD
ENDBRANCH   6  24
BRANCH   8  26
ATOM     26  O   UNL     1      39.821  55.683  20.078  1.00  0.00    -0.508 OA
ATOM     27  H   UNL     1      39.805  56.694  20.142  1.00  0.00     0.293 HD
ENDBRANCH   8  26
TORSDOF 6
ENDMDL
MODEL 7
REMARK VINA RESULT:    -5.678      4.251      8.816
REMARK INTER + INTRA:          -6.625
REMARK INTER:                  -6.299
REMARK INTRA:                  -0.326
REMARK UNBOUND:                 0.216
REMARK SMILES O=c1c(O)c(-c2ccc(O)c(O)c2)oc2cc(O)cc(O)c12
REMARK SMILES IDX 5 1 3 2 2 3 1 4 22 5 20 6 19 7 17 8 16 9 15 10 14 11 6 12
REMARK SMILES IDX 7 13 8 14 9 15 13 16 11 17 10 18 12 20 4 22 21 24 18 26
REMARK H PARENT 10 19 12 21 4 23 21 25 18 27
REMARK Flexibility Score: inf
ROOT
ATOM      1  C   UNL     1      29.518  51.469  16.344  1.00  0.00     0.180 A 
ATOM      2  C   UNL     1      28.723  52.452  15.730  1.00  0.00     0.208 A 
ATOM      3  C   UNL     1      27.506  52.814  16.327  1.00  0.00     0.238 A 
ATOM      4  O   UNL     1      26.825  53.734  15.803  1.00  0.00    -0.285 OA
ATOM      5  C   UNL     1      27.089  52.177  17.521  1.00  0.00     0.111 A 
ATOM      6  C   UNL     1      25.856  52.437  18.191  1.00  0.00     0.134 A 
ATOM      7  C   UNL     1      25.607  51.844  19.435  1.00  0.00     0.093 A 
ATOM      8  C   UNL     1      26.516  50.952  20.002  1.00  0.00     0.123 A 
ATOM      9  C   UNL     1      27.699  50.645  19.328  1.00  0.00     0.094 A 
ATOM     10  C   UNL     1      27.991  51.248  18.102  1.00  0.00     0.146 A 
ATOM     11  O   UNL     1      29.132  50.937  17.498  1.00  0.00    -0.452 OA
ENDROOT
BRANCH   1  12
ATOM     12  C   UNL     1      30.802  51.016  15.762  1.00  0.00     0.025 A 
ATOM     13  C   UNL     1      30.844  50.031  14.760  1.00  0.00     0.016 A 
ATOM     14  C   UNL     1      32.069  49.602  14.242  1.00  0.00     0.051 A 
ATOM     15  C   UNL     1      33.270  50.140  14.725  1.00  0.00     0.157 A 
ATOM     16  C   UNL     1      32.008  51.537  16.258  1.00  0.00     0.062 A 
ATOM     17  C   UNL     1      33.237  51.111  15.742  1.00  0.00     0.158 A 
BRANCH  15  18
ATOM     18  O   UNL     1      34.489  49.712  14.206  1.00  0.00    -0.504 OA
ATOM     19  H   UNL     1      35.215  49.329  14.801  1.00  0.00     0.293 HD
ENDBRANCH  15  18
BRANCH  17  20
ATOM     20  O   UNL     1      34.414  51.661  16.250  1.00  0.00    -0.504 OA
ATOM     21  H   UNL     1      34.710  52.603  16.023  1.00  0.00     0.293 HD
ENDBRANCH  17  20
ENDBRANCH   1  12
BRANCH   2  22
ATOM     22  O   UNL     1      29.163  53.085  14.564  1.00  0.00    -0.502 OA
ATOM     23  H   UNL     1      28.968  54.058  14.366  1.00  0.00     0.293 HD
ENDBRANCH   2  22
BRANCH   6  24
ATOM     24  O   UNL     1      24.838  53.241  17.668  1.00  0.00    -0.507 OA
ATOM     25  H   UNL     1      24.778  53.539  16.707  1.00  0.00     0.293 HD
ENDBRANCH   6  24
BRANCH   8  26
ATOM     26  O   UNL     1      26.229  50.367  21.234  1.00  0.00    -0.508 OA
ATOM     27  H   UNL     1      26.202  49.361  21.350  1.00  0.00     0.293 HD
ENDBRANCH   8  26
TORSDOF 6
ENDMDL
MODEL 8
REMARK VINA RESULT:    -5.676      2.153      2.349
REMARK INTER + INTRA:          -6.622
REMARK INTER:                  -6.901
REMARK INTRA:                   0.279
REMARK UNBOUND:                 0.216
REMARK SMILES O=c1c(O)c(-c2ccc(O)c(O)c2)oc2cc(O)cc(O)c12
REMARK SMILES IDX 5 1 3 2 2 3 1 4 22 5 20 6 19 7 17 8 16 9 15 10 14 11 6 12
REMARK SMILES IDX 7 13 8 14 9 15 13 16 11 17 10 18 12 20 4 22 21 24 18 26
REMARK H PARENT 10 19 12 21 4 23 21 25 18 27
REMARK Flexibility Score: inf
ROOT
ATOM      1  C   UNL     1      33.789  50.337  16.561  1.00  0.00     0.180 A 
ATOM      2  C   UNL     1      35.060  49.828  16.243  1.00  0.00     0.208 A 
ATOM      3  C   UNL     1      36.039  49.768  17.245  1.00  0.00     0.238 A 
ATOM      4  O   UNL     1      37.158  49.260  16.968  1.00  0.00    -0.285 OA
ATOM      5  C   UNL     1      35.743  50.231  18.550  1.00  0.00     0.111 A 
ATOM      6  C   UNL     1      36.672  50.253  19.633  1.00  0.00     0.134 A 
ATOM      7  C   UNL     1      36.231  50.610  20.914  1.00  0.00     0.093 A 
ATOM      8  C   UNL     1      34.914  51.007  21.137  1.00  0.00     0.123 A 
ATOM      9  C   UNL     1      34.011  51.046  20.073  1.00  0.00     0.094 A 
ATOM     10  C   UNL     1      34.412  50.661  18.792  1.00  0.00     0.146 A 
ATOM     11  O   UNL     1      33.520  50.702  17.809  1.00  0.00    -0.452 OA
ENDROOT
BRANCH   1  12
ATOM     12  C   UNL     1      32.712  50.456  15.551  1.00  0.00     0.025 A 
ATOM     13  C   UNL     1      32.624  49.565  14.467  1.00  0.00     0.016 A 
ATOM     14  C   UNL     1      31.613  49.711  13.514  1.00  0.00     0.051 A 
ATOM     15  C   UNL     1      30.684  50.754  13.620  1.00  0.00     0.157 A 
ATOM     16  C   UNL     1      31.792  51.513  15.642  1.00  0.00     0.062 A 
ATOM     17  C   UNL     1      30.777  51.662  14.689  1.00  0.00     0.158 A 
BRANCH  15  18
ATOM     18  O   UNL     1      29.677  50.895  12.668  1.00  0.00    -0.504 OA
ATOM     19  H   UNL     1      29.395  51.806  12.324  1.00  0.00     0.293 HD
ENDBRANCH  15  18
BRANCH  17  20
ATOM     20  O   UNL     1      29.874  52.715  14.820  1.00  0.00    -0.504 OA
ATOM     21  H   UNL     1      29.235  52.972  14.077  1.00  0.00     0.293 HD
ENDBRANCH  17  20
ENDBRANCH   1  12
BRANCH   2  22
ATOM     22  O   UNL     1      35.326  49.356  14.954  1.00  0.00    -0.502 OA
ATOM     23  H   UNL     1      36.265  49.166  14.627  1.00  0.00     0.293 HD
ENDBRANCH   2  22
BRANCH   6  24
ATOM     24  O   UNL     1      38.033  49.963  19.500  1.00  0.00    -0.507 OA
ATOM     25  H   UNL     1      38.404  49.146  19.041  1.00  0.00     0.293 HD
ENDBRANCH   6  24
BRANCH   8  26
ATOM     26  O   UNL     1      34.514  51.371  22.421  1.00  0.00    -0.508 OA
ATOM     27  H   UNL     1      33.790  50.863  22.915  1.00  0.00     0.293 HD
ENDBRANCH   8  26
TORSDOF 6
ENDMDL
MODEL 9
REMARK VINA RESULT:    -5.520      3.733      9.490
REMARK INTER + INTRA:          -6.434
REMARK INTER:                  -6.315
REMARK INTRA:                  -0.119
REMARK UNBOUND:                 0.216
REMARK SMILES O=c1c(O)c(-c2ccc(O)c(O)c2)oc2cc(O)cc(O)c12
REMARK SMILES IDX 5 1 3 2 2 3 1 4 22 5 20 6 19 7 17 8 16 9 15 10 14 11 6 12
REMARK SMILES IDX 7 13 8 14 9 15 13 16 11 17 10 18 12 20 4 22 21 24 18 26
REMARK H PARENT 10 19 12 21 4 23 21 25 18 27
REMARK Flexibility Score: inf
ROOT
ATOM      1  C   UNL     1      30.442  49.618  13.580  1.00  0.00     0.180 A 
ATOM      2  C   UNL     1      29.170  49.455  14.156  1.00  0.00     0.208 A 
ATOM      3  C   UNL     1      28.094  49.080  13.337  1.00  0.00     0.238 A 
ATOM      4  O   UNL     1      26.970  48.882  13.868  1.00  0.00    -0.285 OA
ATOM      5  C   UNL     1      28.298  48.890  11.948  1.00  0.00     0.111 A 
ATOM      6  C   UNL     1      27.272  48.548  11.017  1.00  0.00     0.134 A 
ATOM      7  C   UNL     1      27.612  48.256   9.691  1.00  0.00     0.093 A 
ATOM      8  C   UNL     1      28.929  48.356   9.247  1.00  0.00     0.123 A 
ATOM      9  C   UNL     1      29.933  48.747  10.134  1.00  0.00     0.094 A 
ATOM     10  C   UNL     1      29.630  49.010  11.472  1.00  0.00     0.146 A 
ATOM     11  O   UNL     1      30.615  49.368  12.288  1.00  0.00    -0.452 OA
ENDROOT
BRANCH   1  12
ATOM     12  C   UNL     1      31.620  50.035  14.375  1.00  0.00     0.025 A 
ATOM     13  C   UNL     1      31.625  51.242  15.097  1.00  0.00     0.016 A 
ATOM     14  C   UNL     1      32.757  51.626  15.820  1.00  0.00     0.051 A 
ATOM     15  C   UNL     1      33.903  50.822  15.822  1.00  0.00     0.157 A 
ATOM     16  C   UNL     1      32.779  49.242  14.362  1.00  0.00     0.062 A 
ATOM     17  C   UNL     1      33.914  49.624  15.086  1.00  0.00     0.158 A 
BRANCH  15  18
ATOM     18  O   UNL     1      35.030  51.208  16.546  1.00  0.00    -0.504 OA
ATOM     19  H   UNL     1      35.757  50.545  16.791  1.00  0.00     0.293 HD
ENDBRANCH  15  18
BRANCH  17  20
ATOM     20  O   UNL     1      35.042  48.804  15.061  1.00  0.00    -0.504 OA
ATOM     21  H   UNL     1      35.876  49.052  14.543  1.00  0.00     0.293 HD
ENDBRANCH  17  20
ENDBRANCH   1  12
BRANCH   2  22
ATOM     22  O   UNL     1      28.995  49.626  15.532  1.00  0.00    -0.502 OA
ATOM     23  H   UNL     1      29.753  49.524  16.195  1.00  0.00     0.293 HD
ENDBRANCH   2  22
BRANCH   6  24
ATOM     24  O   UNL     1      25.911  48.511  11.336  1.00  0.00    -0.507 OA
ATOM     25  H   UNL     1      25.188  48.991  10.823  1.00  0.00     0.293 HD
ENDBRANCH   6  24
BRANCH   8  26
ATOM     26  O   UNL     1      29.229  48.074   7.915  1.00  0.00    -0.508 OA
ATOM     27  H   UNL     1      29.344  48.811   7.230  1.00  0.00     0.293 HD
ENDBRANCH   8  26
TORSDOF 6
ENDMDL
