MODEL 1
REMARK VINA RESULT:    -4.523      0.000      0.000
REMARK INTER + INTRA:          -9.737
REMARK INTER:                  -7.696
REMARK INTRA:                  -2.041
REMARK UNBOUND:                -2.041
REMARK SMILES CCCCCCCCCCCCCC(=O)[O-]
REMARK SMILES IDX 8 1 9 2 10 3 11 4 12 5 13 6 14 7 15 8 16 9 7 10 6 11 5 12
REMARK SMILES IDX 4 13 3 14 2 15 1 16
REMARK H PARENT
REMARK Flexibility Score: inf
ROOT
ATOM      1  C   UNL     1     120.765 178.725 127.844  1.00  0.00     0.000 C 
ENDROOT
BRANCH   1   2
ATOM      2  C   UNL     1     120.301 177.270 127.659  1.00  0.00     0.000 C 
BRANCH   2   3
ATOM      3  C   UNL     1     118.799 177.094 127.371  1.00  0.00     0.000 C 
BRANCH   3   4
ATOM      4  C   UNL     1     118.505 176.766 125.897  1.00  0.00     0.000 C 
BRANCH   4   5
ATOM      5  C   UNL     1     118.688 177.990 124.975  1.00  0.00     0.006 C 
BRANCH   5   6
ATOM      6  C   UNL     1     117.703 179.133 125.270  1.00  0.00     0.053 C 
BRANCH   6   7
ATOM      7  C   UNL     1     116.278 178.723 125.069  1.00  0.00     0.041 C 
ATOM      8  O   UNL     1     115.504 178.616 126.057  1.00  0.00    -0.550 OA
ATOM      9  O   UNL     1     115.812 178.429 123.794  1.00  0.00    -0.550 OA
ENDBRANCH   6   7
ENDBRANCH   5   6
ENDBRANCH   4   5
ENDBRANCH   3   4
ENDBRANCH   2   3
ENDBRANCH   1   2
BRANCH   1  10
ATOM     10  C   UNL     1     121.772 179.174 126.770  1.00  0.00     0.000 C 
BRANCH  10  11
ATOM     11  C   UNL     1     123.111 178.423 126.868  1.00  0.00    -0.000 C 
BRANCH  11  12
ATOM     12  C   UNL     1     123.519 177.768 125.540  1.00  0.00    -0.000 C 
BRANCH  12  13
ATOM     13  C   UNL     1     122.347 177.762 124.548  1.00  0.00    -0.000 C 
BRANCH  13  14
ATOM     14  C   UNL     1     121.968 176.346 124.083  1.00  0.00    -0.000 C 
BRANCH  14  15
ATOM     15  C   UNL     1     122.271 175.275 125.142  1.00  0.00    -0.003 C 
ATOM     16  C   UNL     1     121.098 174.310 125.295  1.00  0.00     0.004 C 
ENDBRANCH  14  15
ENDBRANCH  13  14
ENDBRANCH  12  13
ENDBRANCH  11  12
ENDBRANCH  10  11
ENDBRANCH   1  10
TORSDOF 12
ENDMDL
MODEL 2
REMARK VINA RESULT:    -4.405      2.456      3.980
REMARK INTER + INTRA:          -9.536
REMARK INTER:                  -7.716
REMARK INTRA:                  -1.820
REMARK UNBOUND:                -2.041
REMARK SMILES CCCCCCCCCCCCCC(=O)[O-]
REMARK SMILES IDX 8 1 9 2 10 3 11 4 12 5 13 6 14 7 15 8 16 9 7 10 6 11 5 12
REMARK SMILES IDX 4 13 3 14 2 15 1 16
REMARK H PARENT
REMARK Flexibility Score: inf
ROOT
ATOM      1  C   UNL     1     121.492 178.184 123.877  1.00  0.00     0.000 C 
ENDROOT
BRANCH   1   2
ATOM      2  C   UNL     1     120.094 178.717 124.238  1.00  0.00     0.000 C 
BRANCH   2   3
ATOM      3  C   UNL     1     120.050 179.672 125.445  1.00  0.00     0.000 C 
BRANCH   3   4
ATOM      4  C   UNL     1     121.178 179.412 126.457  1.00  0.00     0.000 C 
BRANCH   4   5
ATOM      5  C   UNL     1     120.677 178.682 127.721  1.00  0.00     0.006 C 
BRANCH   5   6
ATOM      6  C   UNL     1     120.709 177.150 127.597  1.00  0.00     0.053 C 
BRANCH   6   7
ATOM      7  C   UNL     1     119.345 176.566 127.399  1.00  0.00     0.041 C 
ATOM      8  O   UNL     1     118.444 176.753 128.260  1.00  0.00    -0.550 OA
ATOM      9  O   UNL     1     119.077 175.789 126.279  1.00  0.00    -0.550 OA
ENDBRANCH   6   7
ENDBRANCH   5   6
ENDBRANCH   4   5
ENDBRANCH   3   4
ENDBRANCH   2   3
ENDBRANCH   1   2
BRANCH   1  10
ATOM     10  C   UNL     1     121.605 176.655 124.019  1.00  0.00     0.000 C 
BRANCH  10  11
ATOM     11  C   UNL     1     122.942 176.220 124.643  1.00  0.00    -0.000 C 
BRANCH  11  12
ATOM     12  C   UNL     1     123.849 177.410 124.990  1.00  0.00    -0.000 C 
BRANCH  12  13
ATOM     13  C   UNL     1     125.153 177.361 124.180  1.00  0.00    -0.000 C 
BRANCH  13  14
ATOM     14  C   UNL     1     124.988 176.642 122.833  1.00  0.00    -0.000 C 
BRANCH  14  15
ATOM     15  C   UNL     1     125.056 177.603 121.636  1.00  0.00    -0.003 C 
ATOM     16  C   UNL     1     123.708 177.687 120.925  1.00  0.00     0.004 C 
ENDBRANCH  14  15
ENDBRANCH  13  14
ENDBRANCH  12  13
ENDBRANCH  11  12
ENDBRANCH  10  11
ENDBRANCH   1  10
TORSDOF 12
ENDMDL
MODEL 3
REMARK VINA RESULT:    -4.366      1.248      2.575
REMARK INTER + INTRA:          -9.470
REMARK INTER:                  -7.440
REMARK INTRA:                  -2.030
REMARK UNBOUND:                -2.041
REMARK SMILES CCCCCCCCCCCCCC(=O)[O-]
REMARK SMILES IDX 8 1 9 2 10 3 11 4 12 5 13 6 14 7 15 8 16 9 7 10 6 11 5 12
REMARK SMILES IDX 4 13 3 14 2 15 1 16
REMARK H PARENT
REMARK Flexibility Score: inf
ROOT
ATOM      1  C   UNL     1     121.091 177.489 128.264  1.00  0.00     0.000 C 
ENDROOT
BRANCH   1   2
ATOM      2  C   UNL     1     120.725 178.876 127.708  1.00  0.00     0.000 C 
BRANCH   2   3
ATOM      3  C   UNL     1     121.205 179.153 126.272  1.00  0.00     0.000 C 
BRANCH   3   4
ATOM      4  C   UNL     1     120.093 179.703 125.363  1.00  0.00     0.000 C 
BRANCH   4   5
ATOM      5  C   UNL     1     119.363 178.587 124.586  1.00  0.00     0.006 C 
BRANCH   5   6
ATOM      6  C   UNL     1     118.016 178.187 125.209  1.00  0.00     0.053 C 
BRANCH   6   7
ATOM      7  C   UNL     1     116.868 178.944 124.619  1.00  0.00     0.041 C 
ATOM      8  O   UNL     1     116.358 179.911 125.244  1.00  0.00    -0.550 OA
ATOM      9  O   UNL     1     116.340 178.562 123.391  1.00  0.00    -0.550 OA
ENDBRANCH   6   7
ENDBRANCH   5   6
ENDBRANCH   4   5
ENDBRANCH   3   4
ENDBRANCH   2   3
ENDBRANCH   1   2
BRANCH   1  10
ATOM     10  C   UNL     1     120.211 176.363 127.692  1.00  0.00     0.000 C 
BRANCH  10  11
ATOM     11  C   UNL     1     121.033 175.278 126.977  1.00  0.00    -0.000 C 
BRANCH  11  12
ATOM     12  C   UNL     1     120.509 174.971 125.567  1.00  0.00    -0.000 C 
BRANCH  12  13
ATOM     13  C   UNL     1     121.372 175.659 124.499  1.00  0.00    -0.000 C 
BRANCH  13  14
ATOM     14  C   UNL     1     122.810 175.920 124.974  1.00  0.00    -0.000 C 
BRANCH  14  15
ATOM     15  C   UNL     1     123.574 176.879 124.049  1.00  0.00    -0.003 C 
ATOM     16  C   UNL     1     122.628 177.564 123.067  1.00  0.00     0.004 C 
ENDBRANCH  14  15
ENDBRANCH  13  14
ENDBRANCH  12  13
ENDBRANCH  11  12
ENDBRANCH  10  11
ENDBRANCH   1  10
TORSDOF 12
ENDMDL
MODEL 4
REMARK VINA RESULT:    -4.359      1.344      2.684
REMARK INTER + INTRA:          -9.457
REMARK INTER:                  -7.289
REMARK INTRA:                  -2.168
REMARK UNBOUND:                -2.041
REMARK SMILES CCCCCCCCCCCCCC(=O)[O-]
REMARK SMILES IDX 8 1 9 2 10 3 11 4 12 5 13 6 14 7 15 8 16 9 7 10 6 11 5 12
REMARK SMILES IDX 4 13 3 14 2 15 1 16
REMARK H PARENT
REMARK Flexibility Score: inf
ROOT
ATOM      1  C   UNL     1     120.990 179.354 126.060  1.00  0.00     0.000 C 
ENDROOT
BRANCH   1   2
ATOM      2  C   UNL     1     120.813 178.875 124.608  1.00  0.00     0.000 C 
BRANCH   2   3
ATOM      3  C   UNL     1     119.383 178.449 124.230  1.00  0.00     0.000 C 
BRANCH   3   4
ATOM      4  C   UNL     1     118.347 178.795 125.313  1.00  0.00     0.000 C 
BRANCH   4   5
ATOM      5  C   UNL     1     117.334 177.654 125.544  1.00  0.00     0.006 C 
BRANCH   5   6
ATOM      6  C   UNL     1     116.162 178.050 126.457  1.00  0.00     0.053 C 
BRANCH   6   7
ATOM      7  C   UNL     1     115.309 179.123 125.857  1.00  0.00     0.041 C 
ATOM      8  O   UNL     1     114.923 179.031 124.661  1.00  0.00    -0.550 OA
ATOM      9  O   UNL     1     114.965 180.240 126.608  1.00  0.00    -0.550 OA
ENDBRANCH   6   7
ENDBRANCH   5   6
ENDBRANCH   4   5
ENDBRANCH   3   4
ENDBRANCH   2   3
ENDBRANCH   1   2
BRANCH   1  10
ATOM     10  C   UNL     1     122.230 178.752 126.743  1.00  0.00     0.000 C 
BRANCH  10  11
ATOM     11  C   UNL     1     121.865 177.833 127.921  1.00  0.00    -0.000 C 
BRANCH  11  12
ATOM     12  C   UNL     1     120.357 177.813 128.210  1.00  0.00    -0.000 C 
BRANCH  12  13
ATOM     13  C   UNL     1     119.788 176.394 128.057  1.00  0.00    -0.000 C 
BRANCH  13  14
ATOM     14  C   UNL     1     120.694 175.478 127.221  1.00  0.00    -0.000 C 
BRANCH  14  15
ATOM     15  C   UNL     1     120.120 175.191 125.825  1.00  0.00    -0.003 C 
ATOM     16  C   UNL     1     121.221 175.204 124.767  1.00  0.00     0.004 C 
ENDBRANCH  14  15
ENDBRANCH  13  14
ENDBRANCH  12  13
ENDBRANCH  11  12
ENDBRANCH  10  11
ENDBRANCH   1  10
TORSDOF 12
ENDMDL
MODEL 5
REMARK VINA RESULT:    -4.347      1.582      3.035
REMARK INTER + INTRA:          -9.437
REMARK INTER:                  -7.908
REMARK INTRA:                  -1.529
REMARK UNBOUND:                -2.041
REMARK SMILES CCCCCCCCCCCCCC(=O)[O-]
REMARK SMILES IDX 8 1 9 2 10 3 11 4 12 5 13 6 14 7 15 8 16 9 7 10 6 11 5 12
REMARK SMILES IDX 4 13 3 14 2 15 1 16
REMARK H PARENT
REMARK Flexibility Score: inf
ROOT
ATOM      1  C   UNL     1     120.097 178.568 123.874  1.00  0.00     0.000 C 
ENDROOT
BRANCH   1   2
ATOM      2  C   UNL     1     120.064 179.319 125.217  1.00  0.00     0.000 C 
BRANCH   2   3
ATOM      3  C   UNL     1     119.627 178.475 126.428  1.00  0.00     0.000 C 
BRANCH   3   4
ATOM      4  C   UNL     1     118.636 177.359 126.055  1.00  0.00     0.000 C 
BRANCH   4   5
ATOM      5  C   UNL     1     117.203 177.658 126.545  1.00  0.00     0.006 C 
BRANCH   5   6
ATOM      6  C   UNL     1     116.165 177.703 125.411  1.00  0.00     0.053 C 
BRANCH   6   7
ATOM      7  C   UNL     1     116.355 178.883 124.511  1.00  0.00     0.041 C 
ATOM      8  O   UNL     1     116.546 178.714 123.277  1.00  0.00    -0.550 OA
ATOM      9  O   UNL     1     116.353 180.168 125.039  1.00  0.00    -0.550 OA
ENDBRANCH   6   7
ENDBRANCH   5   6
ENDBRANCH   4   5
ENDBRANCH   3   4
ENDBRANCH   2   3
ENDBRANCH   1   2
BRANCH   1  10
ATOM     10  C   UNL     1     121.524 178.373 123.332  1.00  0.00     0.000 C 
BRANCH  10  11
ATOM     11  C   UNL     1     122.180 177.083 123.853  1.00  0.00    -0.000 C 
BRANCH  11  12
ATOM     12  C   UNL     1     123.713 177.114 123.746  1.00  0.00    -0.000 C 
BRANCH  12  13
ATOM     13  C   UNL     1     124.344 177.593 125.062  1.00  0.00    -0.000 C 
BRANCH  13  14
ATOM     14  C   UNL     1     123.313 177.760 126.190  1.00  0.00    -0.000 C 
BRANCH  14  15
ATOM     15  C   UNL     1     123.504 179.065 126.978  1.00  0.00    -0.003 C 
ATOM     16  C   UNL     1     122.827 178.983 128.344  1.00  0.00     0.004 C 
ENDBRANCH  14  15
ENDBRANCH  13  14
ENDBRANCH  12  13
ENDBRANCH  11  12
ENDBRANCH  10  11
ENDBRANCH   1  10
TORSDOF 12
ENDMDL
MODEL 6
REMARK VINA RESULT:    -4.343      2.171      3.244
REMARK INTER + INTRA:          -9.430
REMARK INTER:                  -7.991
REMARK INTRA:                  -1.439
REMARK UNBOUND:                -2.041
REMARK SMILES CCCCCCCCCCCCCC(=O)[O-]
REMARK SMILES IDX 8 1 9 2 10 3 11 4 12 5 13 6 14 7 15 8 16 9 7 10 6 11 5 12
REMARK SMILES IDX 4 13 3 14 2 15 1 16
REMARK H PARENT
REMARK Flexibility Score: inf
ROOT
ATOM      1  C   UNL     1     123.271 178.452 126.712  1.00  0.00     0.000 C 
ENDROOT
BRANCH   1   2
ATOM      2  C   UNL     1     122.070 177.763 127.382  1.00  0.00     0.000 C 
BRANCH   2   3
ATOM      3  C   UNL     1     120.725 178.496 127.226  1.00  0.00     0.000 C 
BRANCH   3   4
ATOM      4  C   UNL     1     120.744 179.553 126.108  1.00  0.00     0.000 C 
BRANCH   4   5
ATOM      5  C   UNL     1     119.935 179.112 124.870  1.00  0.00     0.006 C 
BRANCH   5   6
ATOM      6  C   UNL     1     119.150 177.807 125.083  1.00  0.00     0.053 C 
BRANCH   6   7
ATOM      7  C   UNL     1     117.671 178.030 125.104  1.00  0.00     0.041 C 
ATOM      8  O   UNL     1     116.967 177.527 126.021  1.00  0.00    -0.550 OA
ATOM      9  O   UNL     1     117.063 178.766 124.095  1.00  0.00    -0.550 OA
ENDBRANCH   6   7
ENDBRANCH   5   6
ENDBRANCH   4   5
ENDBRANCH   3   4
ENDBRANCH   2   3
ENDBRANCH   1   2
BRANCH   1  10
ATOM     10  C   UNL     1     123.763 177.711 125.456  1.00  0.00     0.000 C 
BRANCH  10  11
ATOM     11  C   UNL     1     122.899 176.485 125.120  1.00  0.00    -0.000 C 
BRANCH  11  12
ATOM     12  C   UNL     1     122.350 176.523 123.685  1.00  0.00    -0.000 C 
BRANCH  12  13
ATOM     13  C   UNL     1     122.947 177.700 122.901  1.00  0.00    -0.000 C 
BRANCH  13  14
ATOM     14  C   UNL     1     124.022 177.260 121.895  1.00  0.00    -0.000 C 
BRANCH  14  15
ATOM     15  C   UNL     1     123.678 177.655 120.450  1.00  0.00    -0.003 C 
ATOM     16  C   UNL     1     124.846 178.382 119.789  1.00  0.00     0.004 C 
ENDBRANCH  14  15
ENDBRANCH  13  14
ENDBRANCH  12  13
ENDBRANCH  11  12
ENDBRANCH  10  11
ENDBRANCH   1  10
TORSDOF 12
ENDMDL
MODEL 7
REMARK VINA RESULT:    -4.327      1.062      2.214
REMARK INTER + INTRA:          -9.404
REMARK INTER:                  -7.151
REMARK INTRA:                  -2.253
REMARK UNBOUND:                -2.041
REMARK SMILES CCCCCCCCCCCCCC(=O)[O-]
REMARK SMILES IDX 8 1 9 2 10 3 11 4 12 5 13 6 14 7 15 8 16 9 7 10 6 11 5 12
REMARK SMILES IDX 4 13 3 14 2 15 1 16
REMARK H PARENT
REMARK Flexibility Score: inf
ROOT
ATOM      1  C   UNL     1     123.235 178.656 126.722  1.00  0.00     0.000 C 
ENDROOT
BRANCH   1   2
ATOM      2  C   UNL     1     121.821 179.247 126.856  1.00  0.00     0.000 C 
BRANCH   2   3
ATOM      3  C   UNL     1     120.846 178.423 127.717  1.00  0.00     0.000 C 
BRANCH   3   4
ATOM      4  C   UNL     1     119.605 177.956 126.938  1.00  0.00     0.000 C 
BRANCH   4   5
ATOM      5  C   UNL     1     119.319 178.839 125.705  1.00  0.00     0.006 C 
BRANCH   5   6
ATOM      6  C   UNL     1     118.499 178.127 124.617  1.00  0.00     0.053 C 
BRANCH   6   7
ATOM      7  C   UNL     1     117.139 178.726 124.445  1.00  0.00     0.041 C 
ATOM      8  O   UNL     1     116.626 179.411 125.369  1.00  0.00    -0.550 OA
ATOM      9  O   UNL     1     116.424 178.504 123.274  1.00  0.00    -0.550 OA
ENDBRANCH   6   7
ENDBRANCH   5   6
ENDBRANCH   4   5
ENDBRANCH   3   4
ENDBRANCH   2   3
ENDBRANCH   1   2
BRANCH   1  10
ATOM     10  C   UNL     1     123.290 177.443 125.776  1.00  0.00     0.000 C 
BRANCH  10  11
ATOM     11  C   UNL     1     122.561 177.700 124.446  1.00  0.00    -0.000 C 
BRANCH  11  12
ATOM     12  C   UNL     1     121.730 176.494 123.984  1.00  0.00    -0.000 C 
BRANCH  12  13
ATOM     13  C   UNL     1     121.777 175.365 125.024  1.00  0.00    -0.000 C 
BRANCH  13  14
ATOM     14  C   UNL     1     120.381 174.855 125.413  1.00  0.00    -0.000 C 
BRANCH  14  15
ATOM     15  C   UNL     1     120.330 174.299 126.844  1.00  0.00    -0.003 C 
ATOM     16  C   UNL     1     121.551 174.740 127.647  1.00  0.00     0.004 C 
ENDBRANCH  14  15
ENDBRANCH  13  14
ENDBRANCH  12  13
ENDBRANCH  11  12
ENDBRANCH  10  11
ENDBRANCH   1  10
TORSDOF 12
ENDMDL
MODEL 8
REMARK VINA RESULT:    -4.314      1.838      3.224
REMARK INTER + INTRA:          -9.382
REMARK INTER:                  -7.291
REMARK INTRA:                  -2.091
REMARK UNBOUND:                -2.041
REMARK SMILES CCCCCCCCCCCCCC(=O)[O-]
REMARK SMILES IDX 8 1 9 2 10 3 11 4 12 5 13 6 14 7 15 8 16 9 7 10 6 11 5 12
REMARK SMILES IDX 4 13 3 14 2 15 1 16
REMARK H PARENT
REMARK Flexibility Score: inf
ROOT
ATOM      1  C   UNL     1     119.784 175.291 128.169  1.00  0.00     0.000 C 
ENDROOT
BRANCH   1   2
ATOM      2  C   UNL     1     119.595 175.253 126.642  1.00  0.00     0.000 C 
BRANCH   2   3
ATOM      3  C   UNL     1     118.522 176.211 126.093  1.00  0.00     0.000 C 
BRANCH   3   4
ATOM      4  C   UNL     1     117.816 177.018 127.196  1.00  0.00     0.000 C 
BRANCH   4   5
ATOM      5  C   UNL     1     116.700 177.926 126.638  1.00  0.00     0.006 C 
BRANCH   5   6
ATOM      6  C   UNL     1     116.281 177.570 125.203  1.00  0.00     0.053 C 
BRANCH   6   7
ATOM      7  C   UNL     1     116.387 178.737 124.272  1.00  0.00     0.041 C 
ATOM      8  O   UNL     1     116.869 178.585 123.118  1.00  0.00    -0.550 OA
ATOM      9  O   UNL     1     115.983 179.999 124.690  1.00  0.00    -0.550 OA
ENDBRANCH   6   7
ENDBRANCH   5   6
ENDBRANCH   4   5
ENDBRANCH   3   4
ENDBRANCH   2   3
ENDBRANCH   1   2
BRANCH   1  10
ATOM     10  C   UNL     1     121.265 175.281 128.589  1.00  0.00     0.000 C 
BRANCH  10  11
ATOM     11  C   UNL     1     121.927 176.661 128.441  1.00  0.00    -0.000 C 
BRANCH  11  12
ATOM     12  C   UNL     1     121.018 177.808 128.907  1.00  0.00    -0.000 C 
BRANCH  12  13
ATOM     13  C   UNL     1     120.898 178.888 127.822  1.00  0.00    -0.000 C 
BRANCH  13  14
ATOM     14  C   UNL     1     121.561 178.477 126.498  1.00  0.00    -0.000 C 
BRANCH  14  15
ATOM     15  C   UNL     1     120.755 178.923 125.268  1.00  0.00    -0.003 C 
ATOM     16  C   UNL     1     119.693 179.950 125.653  1.00  0.00     0.004 C 
ENDBRANCH  14  15
ENDBRANCH  13  14
ENDBRANCH  12  13
ENDBRANCH  11  12
ENDBRANCH  10  11
ENDBRANCH   1  10
TORSDOF 12
ENDMDL
MODEL 9
REMARK VINA RESULT:    -4.303      3.177      5.152
REMARK INTER + INTRA:          -9.362
REMARK INTER:                  -7.560
REMARK INTRA:                  -1.803
REMARK UNBOUND:                -2.041
REMARK SMILES CCCCCCCCCCCCCC(=O)[O-]
REMARK SMILES IDX 8 1 9 2 10 3 11 4 12 5 13 6 14 7 15 8 16 9 7 10 6 11 5 12
REMARK SMILES IDX 4 13 3 14 2 15 1 16
REMARK H PARENT
REMARK Flexibility Score: inf
ROOT
ATOM      1  C   UNL     1     123.782 178.111 125.773  1.00  0.00     0.000 C 
ENDROOT
BRANCH   1   2
ATOM      2  C   UNL     1     123.591 176.887 124.860  1.00  0.00     0.000 C 
BRANCH   2   3
ATOM      3  C   UNL     1     122.400 176.975 123.887  1.00  0.00     0.000 C 
BRANCH   3   4
ATOM      4  C   UNL     1     121.216 176.088 124.307  1.00  0.00     0.000 C 
BRANCH   4   5
ATOM      5  C   UNL     1     121.662 174.869 125.142  1.00  0.00     0.006 C 
BRANCH   5   6
ATOM      6  C   UNL     1     120.906 174.728 126.473  1.00  0.00     0.053 C 
BRANCH   6   7
ATOM      7  C   UNL     1     121.798 174.291 127.592  1.00  0.00     0.041 C 
ATOM      8  O   UNL     1     122.036 175.068 128.554  1.00  0.00    -0.550 OA
ATOM      9  O   UNL     1     122.391 173.035 127.558  1.00  0.00    -0.550 OA
ENDBRANCH   6   7
ENDBRANCH   5   6
ENDBRANCH   4   5
ENDBRANCH   3   4
ENDBRANCH   2   3
ENDBRANCH   1   2
BRANCH   1  10
ATOM     10  C   UNL     1     122.817 178.122 126.971  1.00  0.00     0.000 C 
BRANCH  10  11
ATOM     11  C   UNL     1     121.800 179.273 126.898  1.00  0.00    -0.000 C 
BRANCH  11  12
ATOM     12  C   UNL     1     120.362 178.780 126.677  1.00  0.00    -0.000 C 
BRANCH  12  13
ATOM     13  C   UNL     1     119.722 179.478 125.468  1.00  0.00    -0.000 C 
BRANCH  13  14
ATOM     14  C   UNL     1     118.604 178.644 124.823  1.00  0.00    -0.000 C 
BRANCH  14  15
ATOM     15  C   UNL     1     118.024 177.591 125.780  1.00  0.00    -0.003 C 
ATOM     16  C   UNL     1     116.540 177.840 126.033  1.00  0.00     0.004 C 
ENDBRANCH  14  15
ENDBRANCH  13  14
ENDBRANCH  12  13
ENDBRANCH  11  12
ENDBRANCH  10  11
ENDBRANCH   1  10
TORSDOF 12
ENDMDL
