MODEL 1
REMARK VINA RESULT:    -3.820      0.000      0.000
REMARK INTER + INTRA:          -7.864
REMARK INTER:                  -6.946
REMARK INTRA:                  -0.918
REMARK UNBOUND:                -0.918
REMARK SMILES CCCCCCCCCCCCCCCC(=O)[O-]
REMARK SMILES IDX 9 1 10 2 11 3 12 4 13 5 14 6 15 7 16 8 17 9 18 10 8 11 7 12
REMARK SMILES IDX 6 13 5 14 4 15 3 16 2 17 1 18
REMARK H PARENT
REMARK Flexibility Score: inf
ROOT
ATOM      1  C   UNL     1       7.229   7.442  33.920  1.00  0.00     0.000 C 
ENDROOT
BRANCH   1   2
ATOM      2  C   UNL     1       6.058   6.858  33.116  1.00  0.00     0.000 C 
BRANCH   2   3
ATOM      3  C   UNL     1       5.566   5.509  33.671  1.00  0.00     0.000 C 
BRANCH   3   4
ATOM      4  C   UNL     1       5.975   5.215  35.129  1.00  0.00     0.000 C 
BRANCH   4   5
ATOM      5  C   UNL     1       6.264   3.734  35.444  1.00  0.00     0.000 C 
BRANCH   5   6
ATOM      6  C   UNL     1       7.360   3.497  36.499  1.00  0.00     0.006 C 
BRANCH   6   7
ATOM      7  C   UNL     1       8.302   4.698  36.657  1.00  0.00     0.053 C 
BRANCH   7   8
ATOM      8  C   UNL     1       9.536   4.503  35.835  1.00  0.00     0.041 C 
ATOM      9  O   UNL     1       9.884   5.376  34.997  1.00  0.00    -0.550 OA
ATOM     10  O   UNL     1      10.276   3.334  35.958  1.00  0.00    -0.550 OA
ENDBRANCH   7   8
ENDBRANCH   6   7
ENDBRANCH   5   6
ENDBRANCH   4   5
ENDBRANCH   3   4
ENDBRANCH   2   3
ENDBRANCH   1   2
BRANCH   1  11
ATOM     11  C   UNL     1       7.640   8.817  33.371  1.00  0.00     0.000 C 
BRANCH  11  12
ATOM     12  C   UNL     1       6.429   9.723  33.100  1.00  0.00    -0.000 C 
BRANCH  12  13
ATOM     13  C   UNL     1       5.735  10.182  34.396  1.00  0.00    -0.000 C 
BRANCH  13  14
ATOM     14  C   UNL     1       5.202  11.626  34.289  1.00  0.00    -0.000 C 
BRANCH  14  15
ATOM     15  C   UNL     1       4.896  12.269  35.653  1.00  0.00    -0.000 C 
BRANCH  15  16
ATOM     16  C   UNL     1       5.626  13.603  35.862  1.00  0.00    -0.000 C 
BRANCH  16  17
ATOM     17  C   UNL     1       5.741  14.380  34.546  1.00  0.00    -0.003 C 
ATOM     18  C   UNL     1       6.418  15.731  34.760  1.00  0.00     0.004 C 
ENDBRANCH  16  17
ENDBRANCH  15  16
ENDBRANCH  14  15
ENDBRANCH  13  14
ENDBRANCH  12  13
ENDBRANCH  11  12
ENDBRANCH   1  11
TORSDOF 14
ENDMDL
MODEL 2
REMARK VINA RESULT:    -3.626      3.593      7.826
REMARK INTER + INTRA:          -7.511
REMARK INTER:                  -6.028
REMARK INTRA:                  -1.483
REMARK UNBOUND:                -0.918
REMARK SMILES CCCCCCCCCCCCCCCC(=O)[O-]
REMARK SMILES IDX 9 1 10 2 11 3 12 4 13 5 14 6 15 7 16 8 17 9 18 10 8 11 7 12
REMARK SMILES IDX 6 13 5 14 4 15 3 16 2 17 1 18
REMARK H PARENT
REMARK Flexibility Score: inf
ROOT
ATOM      1  C   UNL     1       8.922   5.898  36.419  1.00  0.00     0.000 C 
ENDROOT
BRANCH   1   2
ATOM      2  C   UNL     1       7.819   6.612  35.627  1.00  0.00     0.000 C 
BRANCH   2   3
ATOM      3  C   UNL     1       8.214   6.887  34.165  1.00  0.00     0.000 C 
BRANCH   3   4
ATOM      4  C   UNL     1       7.427   8.022  33.479  1.00  0.00     0.000 C 
BRANCH   4   5
ATOM      5  C   UNL     1       6.972   9.163  34.412  1.00  0.00     0.000 C 
BRANCH   5   6
ATOM      6  C   UNL     1       5.631   9.815  34.031  1.00  0.00     0.006 C 
BRANCH   6   7
ATOM      7  C   UNL     1       5.324  11.071  34.857  1.00  0.00     0.053 C 
BRANCH   7   8
ATOM      8  C   UNL     1       5.145  12.254  33.960  1.00  0.00     0.041 C 
ATOM      9  O   UNL     1       5.176  13.420  34.433  1.00  0.00    -0.550 OA
ATOM     10  O   UNL     1       4.891  12.068  32.607  1.00  0.00    -0.550 OA
ENDBRANCH   7   8
ENDBRANCH   6   7
ENDBRANCH   5   6
ENDBRANCH   4   5
ENDBRANCH   3   4
ENDBRANCH   2   3
ENDBRANCH   1   2
BRANCH   1  11
ATOM     11  C   UNL     1       9.503   4.723  35.616  1.00  0.00     0.000 C 
BRANCH  11  12
ATOM     12  C   UNL     1       9.367   3.385  36.359  1.00  0.00    -0.000 C 
BRANCH  12  13
ATOM     13  C   UNL     1       7.953   3.167  36.928  1.00  0.00    -0.000 C 
BRANCH  13  14
ATOM     14  C   UNL     1       7.056   2.364  35.963  1.00  0.00    -0.000 C 
BRANCH  14  15
ATOM     15  C   UNL     1       5.579   2.793  35.998  1.00  0.00    -0.000 C 
BRANCH  15  16
ATOM     16  C   UNL     1       5.333   4.145  35.316  1.00  0.00    -0.000 C 
BRANCH  16  17
ATOM     17  C   UNL     1       5.132   3.971  33.806  1.00  0.00    -0.003 C 
ATOM     18  C   UNL     1       4.915   5.317  33.120  1.00  0.00     0.004 C 
ENDBRANCH  16  17
ENDBRANCH  15  16
ENDBRANCH  14  15
ENDBRANCH  13  14
ENDBRANCH  12  13
ENDBRANCH  11  12
ENDBRANCH   1  11
TORSDOF 14
ENDMDL
MODEL 3
REMARK VINA RESULT:    -3.570      4.141      8.878
REMARK INTER + INTRA:          -7.410
REMARK INTER:                  -6.754
REMARK INTRA:                  -0.656
REMARK UNBOUND:                -0.918
REMARK SMILES CCCCCCCCCCCCCCCC(=O)[O-]
REMARK SMILES IDX 9 1 10 2 11 3 12 4 13 5 14 6 15 7 16 8 17 9 18 10 8 11 7 12
REMARK SMILES IDX 6 13 5 14 4 15 3 16 2 17 1 18
REMARK H PARENT
REMARK Flexibility Score: inf
ROOT
ATOM      1  C   UNL     1       7.886   8.544  33.361  1.00  0.00     0.000 C 
ENDROOT
BRANCH   1   2
ATOM      2  C   UNL     1       6.467   9.079  33.601  1.00  0.00     0.000 C 
BRANCH   2   3
ATOM      3  C   UNL     1       6.247  10.481  33.005  1.00  0.00     0.000 C 
BRANCH   3   4
ATOM      4  C   UNL     1       4.967  11.198  33.479  1.00  0.00     0.000 C 
BRANCH   4   5
ATOM      5  C   UNL     1       5.096  11.959  34.814  1.00  0.00     0.000 C 
BRANCH   5   6
ATOM      6  C   UNL     1       5.168  13.491  34.682  1.00  0.00     0.006 C 
BRANCH   6   7
ATOM      7  C   UNL     1       5.477  14.189  36.013  1.00  0.00     0.053 C 
BRANCH   7   8
ATOM      8  C   UNL     1       6.058  15.545  35.767  1.00  0.00     0.041 C 
ATOM      9  O   UNL     1       5.976  16.439  36.650  1.00  0.00    -0.550 OA
ATOM     10  O   UNL     1       6.645  15.839  34.543  1.00  0.00    -0.550 OA
ENDBRANCH   7   8
ENDBRANCH   6   7
ENDBRANCH   5   6
ENDBRANCH   4   5
ENDBRANCH   3   4
ENDBRANCH   2   3
ENDBRANCH   1   2
BRANCH   1  11
ATOM     11  C   UNL     1       8.045   7.130  33.940  1.00  0.00     0.000 C 
BRANCH  11  12
ATOM     12  C   UNL     1       6.695   6.494  34.306  1.00  0.00    -0.000 C 
BRANCH  12  13
ATOM     13  C   UNL     1       6.698   5.878  35.717  1.00  0.00    -0.000 C 
BRANCH  13  14
ATOM     14  C   UNL     1       6.059   4.473  35.738  1.00  0.00    -0.000 C 
BRANCH  14  15
ATOM     15  C   UNL     1       7.069   3.344  36.009  1.00  0.00    -0.000 C 
BRANCH  15  16
ATOM     16  C   UNL     1       8.511   3.853  36.148  1.00  0.00    -0.000 C 
BRANCH  16  17
ATOM     17  C   UNL     1       9.391   2.822  36.865  1.00  0.00    -0.003 C 
ATOM     18  C   UNL     1      10.670   2.548  36.081  1.00  0.00     0.004 C 
ENDBRANCH  16  17
ENDBRANCH  15  16
ENDBRANCH  14  15
ENDBRANCH  13  14
ENDBRANCH  12  13
ENDBRANCH  11  12
ENDBRANCH   1  11
TORSDOF 14
ENDMDL
MODEL 4
REMARK VINA RESULT:    -3.433      1.648      2.663
REMARK INTER + INTRA:          -7.161
REMARK INTER:                  -5.923
REMARK INTRA:                  -1.239
REMARK UNBOUND:                -0.918
REMARK SMILES CCCCCCCCCCCCCCCC(=O)[O-]
REMARK SMILES IDX 9 1 10 2 11 3 12 4 13 5 14 6 15 7 16 8 17 9 18 10 8 11 7 12
REMARK SMILES IDX 6 13 5 14 4 15 3 16 2 17 1 18
REMARK H PARENT
REMARK Flexibility Score: inf
ROOT
ATOM      1  C   UNL     1       6.157   6.521  34.397  1.00  0.00     0.000 C 
ENDROOT
BRANCH   1   2
ATOM      2  C   UNL     1       6.146   5.115  35.014  1.00  0.00     0.000 C 
BRANCH   2   3
ATOM      3  C   UNL     1       6.735   5.082  36.435  1.00  0.00     0.000 C 
BRANCH   3   4
ATOM      4  C   UNL     1       7.874   6.090  36.694  1.00  0.00     0.000 C 
BRANCH   4   5
ATOM      5  C   UNL     1       9.279   5.472  36.831  1.00  0.00     0.000 C 
BRANCH   5   6
ATOM      6  C   UNL     1       9.794   4.747  35.574  1.00  0.00     0.006 C 
BRANCH   6   7
ATOM      7  C   UNL     1      10.099   5.706  34.417  1.00  0.00     0.053 C 
BRANCH   7   8
ATOM      8  C   UNL     1      11.441   5.407  33.831  1.00  0.00     0.041 C 
ATOM      9  O   UNL     1      11.583   4.449  33.025  1.00  0.00    -0.550 OA
ATOM     10  O   UNL     1      12.549   6.153  34.213  1.00  0.00    -0.550 OA
ENDBRANCH   7   8
ENDBRANCH   6   7
ENDBRANCH   5   6
ENDBRANCH   4   5
ENDBRANCH   3   4
ENDBRANCH   2   3
ENDBRANCH   1   2
BRANCH   1  11
ATOM     11  C   UNL     1       4.954   7.344  34.883  1.00  0.00     0.000 C 
BRANCH  11  12
ATOM     12  C   UNL     1       5.268   8.846  34.961  1.00  0.00    -0.000 C 
BRANCH  12  13
ATOM     13  C   UNL     1       6.529   9.227  34.164  1.00  0.00    -0.000 C 
BRANCH  13  14
ATOM     14  C   UNL     1       6.242  10.313  33.107  1.00  0.00    -0.000 C 
BRANCH  14  15
ATOM     15  C   UNL     1       5.047  11.214  33.462  1.00  0.00    -0.000 C 
BRANCH  15  16
ATOM     16  C   UNL     1       5.437  12.690  33.620  1.00  0.00    -0.000 C 
BRANCH  16  17
ATOM     17  C   UNL     1       5.279  13.148  35.075  1.00  0.00    -0.003 C 
ATOM     18  C   UNL     1       5.782  14.577  35.260  1.00  0.00     0.004 C 
ENDBRANCH  16  17
ENDBRANCH  15  16
ENDBRANCH  14  15
ENDBRANCH  13  14
ENDBRANCH  12  13
ENDBRANCH  11  12
ENDBRANCH   1  11
TORSDOF 14
ENDMDL
MODEL 5
REMARK VINA RESULT:    -3.380      3.519      7.833
REMARK INTER + INTRA:          -7.065
REMARK INTER:                  -5.735
REMARK INTRA:                  -1.329
REMARK UNBOUND:                -0.918
REMARK SMILES CCCCCCCCCCCCCCCC(=O)[O-]
REMARK SMILES IDX 9 1 10 2 11 3 12 4 13 5 14 6 15 7 16 8 17 9 18 10 8 11 7 12
REMARK SMILES IDX 6 13 5 14 4 15 3 16 2 17 1 18
REMARK H PARENT
REMARK Flexibility Score: inf
ROOT
ATOM      1  C   UNL     1       5.041   5.419  33.508  1.00  0.00     0.000 C 
ENDROOT
BRANCH   1   2
ATOM      2  C   UNL     1       5.332   6.734  34.245  1.00  0.00     0.000 C 
BRANCH   2   3
ATOM      3  C   UNL     1       6.374   7.606  33.522  1.00  0.00     0.000 C 
BRANCH   3   4
ATOM      4  C   UNL     1       6.510   9.044  34.063  1.00  0.00     0.000 C 
BRANCH   4   5
ATOM      5  C   UNL     1       6.396  10.157  33.003  1.00  0.00     0.000 C 
BRANCH   5   6
ATOM      6  C   UNL     1       5.292  11.196  33.270  1.00  0.00     0.006 C 
BRANCH   6   7
ATOM      7  C   UNL     1       5.041  11.426  34.766  1.00  0.00     0.053 C 
BRANCH   7   8
ATOM      8  C   UNL     1       5.306  12.853  35.125  1.00  0.00     0.041 C 
ATOM      9  O   UNL     1       5.756  13.148  36.264  1.00  0.00    -0.550 OA
ATOM     10  O   UNL     1       5.009  13.865  34.221  1.00  0.00    -0.550 OA
ENDBRANCH   7   8
ENDBRANCH   6   7
ENDBRANCH   5   6
ENDBRANCH   4   5
ENDBRANCH   3   4
ENDBRANCH   2   3
ENDBRANCH   1   2
BRANCH   1  11
ATOM     11  C   UNL     1       5.804   4.249  34.150  1.00  0.00     0.000 C 
BRANCH  11  12
ATOM     12  C   UNL     1       4.880   3.321  34.955  1.00  0.00    -0.000 C 
BRANCH  12  13
ATOM     13  C   UNL     1       5.185   3.351  36.464  1.00  0.00    -0.000 C 
BRANCH  13  14
ATOM     14  C   UNL     1       6.497   4.101  36.776  1.00  0.00    -0.000 C 
BRANCH  14  15
ATOM     15  C   UNL     1       7.741   3.195  36.751  1.00  0.00    -0.000 C 
BRANCH  15  16
ATOM     16  C   UNL     1       9.046   3.977  36.547  1.00  0.00    -0.000 C 
BRANCH  16  17
ATOM     17  C   UNL     1       8.760   5.441  36.192  1.00  0.00    -0.003 C 
ATOM     18  C   UNL     1       9.253   5.774  34.787  1.00  0.00     0.004 C 
ENDBRANCH  16  17
ENDBRANCH  15  16
ENDBRANCH  14  15
ENDBRANCH  13  14
ENDBRANCH  12  13
ENDBRANCH  11  12
ENDBRANCH   1  11
TORSDOF 14
ENDMDL
MODEL 6
REMARK VINA RESULT:    -3.296      3.732      8.879
REMARK INTER + INTRA:          -6.911
REMARK INTER:                  -6.175
REMARK INTRA:                  -0.736
REMARK UNBOUND:                -0.918
REMARK SMILES CCCCCCCCCCCCCCCC(=O)[O-]
REMARK SMILES IDX 9 1 10 2 11 3 12 4 13 5 14 6 15 7 16 8 17 9 18 10 8 11 7 12
REMARK SMILES IDX 6 13 5 14 4 15 3 16 2 17 1 18
REMARK H PARENT
REMARK Flexibility Score: inf
ROOT
ATOM      1  C   UNL     1       7.309   7.616  34.282  1.00  0.00     0.000 C 
ENDROOT
BRANCH   1   2
ATOM      2  C   UNL     1       6.874   8.798  35.159  1.00  0.00     0.000 C 
BRANCH   2   3
ATOM      3  C   UNL     1       5.629   9.521  34.615  1.00  0.00     0.000 C 
BRANCH   3   4
ATOM      4  C   UNL     1       5.894  10.481  33.437  1.00  0.00     0.000 C 
BRANCH   4   5
ATOM      5  C   UNL     1       4.876  11.628  33.283  1.00  0.00     0.000 C 
BRANCH   5   6
ATOM      6  C   UNL     1       5.365  13.000  33.779  1.00  0.00     0.006 C 
BRANCH   6   7
ATOM      7  C   UNL     1       5.286  13.144  35.305  1.00  0.00     0.053 C 
BRANCH   7   8
ATOM      8  C   UNL     1       6.075  14.330  35.758  1.00  0.00     0.041 C 
ATOM      9  O   UNL     1       6.621  14.333  36.893  1.00  0.00    -0.550 OA
ATOM     10  O   UNL     1       6.167  15.455  34.949  1.00  0.00    -0.550 OA
ENDBRANCH   7   8
ENDBRANCH   6   7
ENDBRANCH   5   6
ENDBRANCH   4   5
ENDBRANCH   3   4
ENDBRANCH   2   3
ENDBRANCH   1   2
BRANCH   1  11
ATOM     11  C   UNL     1       7.137   6.285  35.030  1.00  0.00     0.000 C 
BRANCH  11  12
ATOM     12  C   UNL     1       6.028   5.413  34.422  1.00  0.00    -0.000 C 
BRANCH  12  13
ATOM     13  C   UNL     1       5.985   4.001  35.036  1.00  0.00    -0.000 C 
BRANCH  13  14
ATOM     14  C   UNL     1       6.765   3.922  36.365  1.00  0.00    -0.000 C 
BRANCH  14  15
ATOM     15  C   UNL     1       7.892   2.874  36.354  1.00  0.00    -0.000 C 
BRANCH  15  16
ATOM     16  C   UNL     1       9.289   3.499  36.235  1.00  0.00    -0.000 C 
BRANCH  16  17
ATOM     17  C   UNL     1      10.369   2.529  36.727  1.00  0.00    -0.003 C 
ATOM     18  C   UNL     1      10.314   1.210  35.962  1.00  0.00     0.004 C 
ENDBRANCH  16  17
ENDBRANCH  15  16
ENDBRANCH  14  15
ENDBRANCH  13  14
ENDBRANCH  12  13
ENDBRANCH  11  12
ENDBRANCH   1  11
TORSDOF 14
ENDMDL
MODEL 7
REMARK VINA RESULT:    -3.201      1.642      2.480
REMARK INTER + INTRA:          -6.739
REMARK INTER:                  -5.536
REMARK INTRA:                  -1.202
REMARK UNBOUND:                -0.918
REMARK SMILES CCCCCCCCCCCCCCCC(=O)[O-]
REMARK SMILES IDX 9 1 10 2 11 3 12 4 13 5 14 6 15 7 16 8 17 9 18 10 8 11 7 12
REMARK SMILES IDX 6 13 5 14 4 15 3 16 2 17 1 18
REMARK H PARENT
REMARK Flexibility Score: inf
ROOT
ATOM      1  C   UNL     1       7.871   7.688  36.771  1.00  0.00     0.000 C 
ENDROOT
BRANCH   1   2
ATOM      2  C   UNL     1       7.880   6.296  36.122  1.00  0.00     0.000 C 
BRANCH   2   3
ATOM      3  C   UNL     1       6.608   5.486  36.427  1.00  0.00     0.000 C 
BRANCH   3   4
ATOM      4  C   UNL     1       6.451   4.187  35.611  1.00  0.00     0.000 C 
BRANCH   4   5
ATOM      5  C   UNL     1       6.355   2.894  36.446  1.00  0.00     0.000 C 
BRANCH   5   6
ATOM      6  C   UNL     1       7.595   1.983  36.374  1.00  0.00     0.006 C 
BRANCH   6   7
ATOM      7  C   UNL     1       8.842   2.626  36.993  1.00  0.00     0.053 C 
BRANCH   7   8
ATOM      8  C   UNL     1       9.971   2.622  36.013  1.00  0.00     0.041 C 
ATOM      9  O   UNL     1      10.504   1.536  35.663  1.00  0.00    -0.550 OA
ATOM     10  O   UNL     1      10.471   3.822  35.523  1.00  0.00    -0.550 OA
ENDBRANCH   7   8
ENDBRANCH   6   7
ENDBRANCH   5   6
ENDBRANCH   4   5
ENDBRANCH   3   4
ENDBRANCH   2   3
ENDBRANCH   1   2
BRANCH   1  11
ATOM     11  C   UNL     1       7.354   8.749  35.787  1.00  0.00     0.000 C 
BRANCH  11  12
ATOM     12  C   UNL     1       7.674   8.395  34.326  1.00  0.00    -0.000 C 
BRANCH  12  13
ATOM     13  C   UNL     1       6.855   9.230  33.325  1.00  0.00    -0.000 C 
BRANCH  13  14
ATOM     14  C   UNL     1       5.625   9.886  33.986  1.00  0.00    -0.000 C 
BRANCH  14  15
ATOM     15  C   UNL     1       5.253  11.248  33.375  1.00  0.00    -0.000 C 
BRANCH  15  16
ATOM     16  C   UNL     1       5.251  12.386  34.405  1.00  0.00    -0.000 C 
BRANCH  16  17
ATOM     17  C   UNL     1       4.944  11.854  35.810  1.00  0.00    -0.003 C 
ATOM     18  C   UNL     1       5.719  12.627  36.873  1.00  0.00     0.004 C 
ENDBRANCH  16  17
ENDBRANCH  15  16
ENDBRANCH  14  15
ENDBRANCH  13  14
ENDBRANCH  12  13
ENDBRANCH  11  12
ENDBRANCH   1  11
TORSDOF 14
ENDMDL
MODEL 8
REMARK VINA RESULT:    -3.142      2.677      7.208
REMARK INTER + INTRA:          -6.632
REMARK INTER:                  -5.223
REMARK INTRA:                  -1.408
REMARK UNBOUND:                -0.918
REMARK SMILES CCCCCCCCCCCCCCCC(=O)[O-]
REMARK SMILES IDX 9 1 10 2 11 3 12 4 13 5 14 6 15 7 16 8 17 9 18 10 8 11 7 12
REMARK SMILES IDX 6 13 5 14 4 15 3 16 2 17 1 18
REMARK H PARENT
REMARK Flexibility Score: inf
ROOT
ATOM      1  C   UNL     1       7.786   8.785  37.004  1.00  0.00     0.000 C 
ENDROOT
BRANCH   1   2
ATOM      2  C   UNL     1       6.277   9.063  37.028  1.00  0.00     0.000 C 
BRANCH   2   3
ATOM      3  C   UNL     1       5.946  10.563  37.123  1.00  0.00     0.000 C 
BRANCH   3   4
ATOM      4  C   UNL     1       4.954  11.081  36.062  1.00  0.00     0.000 C 
BRANCH   4   5
ATOM      5  C   UNL     1       5.021  10.367  34.697  1.00  0.00     0.000 C 
BRANCH   5   6
ATOM      6  C   UNL     1       6.095  10.907  33.735  1.00  0.00     0.006 C 
BRANCH   6   7
ATOM      7  C   UNL     1       6.456   9.909  32.627  1.00  0.00     0.053 C 
BRANCH   7   8
ATOM      8  C   UNL     1       7.113   8.699  33.210  1.00  0.00     0.041 C 
ATOM      9  O   UNL     1       6.466   7.627  33.340  1.00  0.00    -0.550 OA
ATOM     10  O   UNL     1       8.426   8.768  33.657  1.00  0.00    -0.550 OA
ENDBRANCH   7   8
ENDBRANCH   6   7
ENDBRANCH   5   6
ENDBRANCH   4   5
ENDBRANCH   3   4
ENDBRANCH   2   3
ENDBRANCH   1   2
BRANCH   1  11
ATOM     11  C   UNL     1       8.069   7.277  37.099  1.00  0.00     0.000 C 
BRANCH  11  12
ATOM     12  C   UNL     1       6.982   6.436  36.411  1.00  0.00    -0.000 C 
BRANCH  12  13
ATOM     13  C   UNL     1       6.962   4.979  36.910  1.00  0.00    -0.000 C 
BRANCH  13  14
ATOM     14  C   UNL     1       7.799   4.046  36.011  1.00  0.00    -0.000 C 
BRANCH  14  15
ATOM     15  C   UNL     1       9.174   3.694  36.604  1.00  0.00    -0.000 C 
BRANCH  15  16
ATOM     16  C   UNL     1      10.325   3.902  35.611  1.00  0.00    -0.000 C 
BRANCH  16  17
ATOM     17  C   UNL     1      10.180   5.238  34.872  1.00  0.00    -0.003 C 
ATOM     18  C   UNL     1      11.219   5.370  33.762  1.00  0.00     0.004 C 
ENDBRANCH  16  17
ENDBRANCH  15  16
ENDBRANCH  14  15
ENDBRANCH  13  14
ENDBRANCH  12  13
ENDBRANCH  11  12
ENDBRANCH   1  11
TORSDOF 14
ENDMDL
