MODEL 1
REMARK VINA RESULT:    -4.175      0.000      0.000
REMARK INTER + INTRA:          -8.525
REMARK INTER:                  -7.103
REMARK INTRA:                  -1.421
REMARK UNBOUND:                -1.421
REMARK SMILES CCCCCCCCCCCCCC(=O)[O-]
REMARK SMILES IDX 8 1 9 2 10 3 11 4 12 5 13 6 14 7 15 8 16 9 7 10 6 11 5 12
REMARK SMILES IDX 4 13 3 14 2 15 1 16
REMARK H PARENT
REMARK Flexibility Score: inf
ROOT
ATOM      1  C   UNL     1     174.877 171.022 150.135  1.00  0.00     0.000 C 
ENDROOT
BRANCH   1   2
ATOM      2  C   UNL     1     173.344 170.908 150.205  1.00  0.00     0.000 C 
BRANCH   2   3
ATOM      3  C   UNL     1     172.645 172.271 150.079  1.00  0.00     0.000 C 
BRANCH   3   4
ATOM      4  C   UNL     1     173.637 173.436 149.943  1.00  0.00     0.000 C 
BRANCH   4   5
ATOM      5  C   UNL     1     173.693 174.262 151.234  1.00  0.00     0.006 C 
BRANCH   5   6
ATOM      6  C   UNL     1     175.071 174.162 151.892  1.00  0.00     0.053 C 
BRANCH   6   7
ATOM      7  C   UNL     1     174.941 173.738 153.321  1.00  0.00     0.041 C 
ATOM      8  O   UNL     1     174.038 174.229 154.047  1.00  0.00    -0.550 OA
ATOM      9  O   UNL     1     175.786 172.762 153.836  1.00  0.00    -0.550 OA
ENDBRANCH   6   7
ENDBRANCH   5   6
ENDBRANCH   4   5
ENDBRANCH   3   4
ENDBRANCH   2   3
ENDBRANCH   1   2
BRANCH   1  10
ATOM     10  C   UNL     1     175.590 169.883 150.883  1.00  0.00     0.000 C 
BRANCH  10  11
ATOM     11  C   UNL     1     174.818 169.412 152.129  1.00  0.00    -0.000 C 
BRANCH  11  12
ATOM     12  C   UNL     1     174.732 167.873 152.217  1.00  0.00    -0.000 C 
BRANCH  12  13
ATOM     13  C   UNL     1     173.819 167.242 151.149  1.00  0.00    -0.000 C 
BRANCH  13  14
ATOM     14  C   UNL     1     174.555 166.639 149.937  1.00  0.00    -0.000 C 
BRANCH  14  15
ATOM     15  C   UNL     1     174.267 167.339 148.596  1.00  0.00    -0.003 C 
ATOM     16  C   UNL     1     172.791 167.682 148.406  1.00  0.00     0.004 C 
ENDBRANCH  14  15
ENDBRANCH  13  14
ENDBRANCH  12  13
ENDBRANCH  11  12
ENDBRANCH  10  11
ENDBRANCH   1  10
TORSDOF 12
ENDMDL
MODEL 2
REMARK VINA RESULT:    -4.104      2.926      6.091
REMARK INTER + INTRA:          -8.405
REMARK INTER:                  -6.608
REMARK INTRA:                  -1.797
REMARK UNBOUND:                -1.421
REMARK SMILES CCCCCCCCCCCCCC(=O)[O-]
REMARK SMILES IDX 8 1 9 2 10 3 11 4 12 5 13 6 14 7 15 8 16 9 7 10 6 11 5 12
REMARK SMILES IDX 4 13 3 14 2 15 1 16
REMARK H PARENT
REMARK Flexibility Score: inf
ROOT
ATOM      1  C   UNL     1     173.590 170.319 152.276  1.00  0.00     0.000 C 
ENDROOT
BRANCH   1   2
ATOM      2  C   UNL     1     175.011 170.142 151.713  1.00  0.00     0.000 C 
BRANCH   2   3
ATOM      3  C   UNL     1     175.012 169.788 150.218  1.00  0.00     0.000 C 
BRANCH   3   4
ATOM      4  C   UNL     1     173.807 168.928 149.810  1.00  0.00     0.000 C 
BRANCH   4   5
ATOM      5  C   UNL     1     174.254 167.523 149.384  1.00  0.00     0.006 C 
BRANCH   5   6
ATOM      6  C   UNL     1     173.650 166.453 150.296  1.00  0.00     0.053 C 
BRANCH   6   7
ATOM      7  C   UNL     1     174.686 165.916 151.232  1.00  0.00     0.041 C 
ATOM      8  O   UNL     1     175.300 164.853 150.953  1.00  0.00    -0.550 OA
ATOM      9  O   UNL     1     175.008 166.615 152.388  1.00  0.00    -0.550 OA
ENDBRANCH   6   7
ENDBRANCH   5   6
ENDBRANCH   4   5
ENDBRANCH   3   4
ENDBRANCH   2   3
ENDBRANCH   1   2
BRANCH   1  10
ATOM     10  C   UNL     1     173.474 171.524 153.224  1.00  0.00     0.000 C 
BRANCH  10  11
ATOM     11  C   UNL     1     174.833 171.966 153.796  1.00  0.00    -0.000 C 
BRANCH  11  12
ATOM     12  C   UNL     1     175.162 173.436 153.455  1.00  0.00    -0.000 C 
BRANCH  12  13
ATOM     13  C   UNL     1     174.347 173.993 152.272  1.00  0.00    -0.000 C 
BRANCH  13  14
ATOM     14  C   UNL     1     175.140 174.168 150.962  1.00  0.00    -0.000 C 
BRANCH  14  15
ATOM     15  C   UNL     1     174.529 173.457 149.741  1.00  0.00    -0.003 C 
ATOM     16  C   UNL     1     173.043 173.147 149.911  1.00  0.00     0.004 C 
ENDBRANCH  14  15
ENDBRANCH  13  14
ENDBRANCH  12  13
ENDBRANCH  11  12
ENDBRANCH  10  11
ENDBRANCH   1  10
TORSDOF 12
ENDMDL
MODEL 3
REMARK VINA RESULT:    -4.085      2.731      5.898
REMARK INTER + INTRA:          -8.371
REMARK INTER:                  -6.756
REMARK INTRA:                  -1.615
REMARK UNBOUND:                -1.421
REMARK SMILES CCCCCCCCCCCCCC(=O)[O-]
REMARK SMILES IDX 8 1 9 2 10 3 11 4 12 5 13 6 14 7 15 8 16 9 7 10 6 11 5 12
REMARK SMILES IDX 4 13 3 14 2 15 1 16
REMARK H PARENT
REMARK Flexibility Score: inf
ROOT
ATOM      1  C   UNL     1     173.280 172.743 150.154  1.00  0.00     0.000 C 
ENDROOT
BRANCH   1   2
ATOM      2  C   UNL     1     173.512 171.222 150.123  1.00  0.00     0.000 C 
BRANCH   2   3
ATOM      3  C   UNL     1     175.003 170.855 150.049  1.00  0.00     0.000 C 
BRANCH   3   4
ATOM      4  C   UNL     1     175.276 169.400 150.461  1.00  0.00     0.000 C 
BRANCH   4   5
ATOM      5  C   UNL     1     174.059 168.511 150.176  1.00  0.00     0.006 C 
BRANCH   5   6
ATOM      6  C   UNL     1     173.637 167.739 151.428  1.00  0.00     0.053 C 
BRANCH   6   7
ATOM      7  C   UNL     1     174.653 166.696 151.769  1.00  0.00     0.041 C 
ATOM      8  O   UNL     1     175.213 166.702 152.897  1.00  0.00    -0.550 OA
ATOM      9  O   UNL     1     174.946 165.687 150.860  1.00  0.00    -0.550 OA
ENDBRANCH   6   7
ENDBRANCH   5   6
ENDBRANCH   4   5
ENDBRANCH   3   4
ENDBRANCH   2   3
ENDBRANCH   1   2
BRANCH   1  10
ATOM     10  C   UNL     1     174.508 173.539 149.681  1.00  0.00     0.000 C 
BRANCH  10  11
ATOM     11  C   UNL     1     175.180 174.328 150.818  1.00  0.00    -0.000 C 
BRANCH  11  12
ATOM     12  C   UNL     1     174.521 174.057 152.188  1.00  0.00    -0.000 C 
BRANCH  12  13
ATOM     13  C   UNL     1     175.531 173.899 153.341  1.00  0.00    -0.000 C 
BRANCH  13  14
ATOM     14  C   UNL     1     175.271 172.702 154.274  1.00  0.00    -0.000 C 
BRANCH  14  15
ATOM     15  C   UNL     1     174.475 171.549 153.635  1.00  0.00    -0.003 C 
ATOM     16  C   UNL     1     174.888 170.175 154.160  1.00  0.00     0.004 C 
ENDBRANCH  14  15
ENDBRANCH  13  14
ENDBRANCH  12  13
ENDBRANCH  11  12
ENDBRANCH  10  11
ENDBRANCH   1  10
TORSDOF 12
ENDMDL
MODEL 4
REMARK VINA RESULT:    -4.078      1.368      2.416
REMARK INTER + INTRA:          -8.360
REMARK INTER:                  -6.954
REMARK INTRA:                  -1.406
REMARK UNBOUND:                -1.421
REMARK SMILES CCCCCCCCCCCCCC(=O)[O-]
REMARK SMILES IDX 8 1 9 2 10 3 11 4 12 5 13 6 14 7 15 8 16 9 7 10 6 11 5 12
REMARK SMILES IDX 4 13 3 14 2 15 1 16
REMARK H PARENT
REMARK Flexibility Score: inf
ROOT
ATOM      1  C   UNL     1     172.770 172.686 150.320  1.00  0.00     0.000 C 
ENDROOT
BRANCH   1   2
ATOM      2  C   UNL     1     173.882 173.524 149.666  1.00  0.00     0.000 C 
BRANCH   2   3
ATOM      3  C   UNL     1     174.976 173.934 150.665  1.00  0.00     0.000 C 
BRANCH   3   4
ATOM      4  C   UNL     1     174.428 174.178 152.079  1.00  0.00     0.000 C 
BRANCH   4   5
ATOM      5  C   UNL     1     175.387 173.626 153.142  1.00  0.00     0.006 C 
BRANCH   5   6
ATOM      6  C   UNL     1     174.667 173.416 154.476  1.00  0.00     0.053 C 
BRANCH   6   7
ATOM      7  C   UNL     1     174.862 172.014 154.962  1.00  0.00     0.041 C 
ATOM      8  O   UNL     1     174.377 171.654 156.067  1.00  0.00    -0.550 OA
ATOM      9  O   UNL     1     175.537 171.092 154.172  1.00  0.00    -0.550 OA
ENDBRANCH   6   7
ENDBRANCH   5   6
ENDBRANCH   4   5
ENDBRANCH   3   4
ENDBRANCH   2   3
ENDBRANCH   1   2
BRANCH   1  10
ATOM     10  C   UNL     1     172.914 171.183 150.031  1.00  0.00     0.000 C 
BRANCH  10  11
ATOM     11  C   UNL     1     173.634 170.424 151.160  1.00  0.00    -0.000 C 
BRANCH  11  12
ATOM     12  C   UNL     1     175.142 170.246 150.876  1.00  0.00    -0.000 C 
BRANCH  12  13
ATOM     13  C   UNL     1     175.451 169.144 149.846  1.00  0.00    -0.000 C 
BRANCH  13  14
ATOM     14  C   UNL     1     174.590 167.873 149.974  1.00  0.00    -0.000 C 
BRANCH  14  15
ATOM     15  C   UNL     1     173.870 167.451 148.680  1.00  0.00    -0.003 C 
ATOM     16  C   UNL     1     172.350 167.406 148.829  1.00  0.00     0.004 C 
ENDBRANCH  14  15
ENDBRANCH  13  14
ENDBRANCH  12  13
ENDBRANCH  11  12
ENDBRANCH  10  11
ENDBRANCH   1  10
TORSDOF 12
ENDMDL
MODEL 5
REMARK VINA RESULT:    -4.076      1.623      3.166
REMARK INTER + INTRA:          -8.356
REMARK INTER:                  -6.817
REMARK INTRA:                  -1.539
REMARK UNBOUND:                -1.421
REMARK SMILES CCCCCCCCCCCCCC(=O)[O-]
REMARK SMILES IDX 8 1 9 2 10 3 11 4 12 5 13 6 14 7 15 8 16 9 7 10 6 11 5 12
REMARK SMILES IDX 4 13 3 14 2 15 1 16
REMARK H PARENT
REMARK Flexibility Score: inf
ROOT
ATOM      1  C   UNL     1     171.895 173.245 150.750  1.00  0.00     0.000 C 
ENDROOT
BRANCH   1   2
ATOM      2  C   UNL     1     172.384 174.456 151.563  1.00  0.00     0.000 C 
BRANCH   2   3
ATOM      3  C   UNL     1     173.134 174.045 152.840  1.00  0.00     0.000 C 
BRANCH   3   4
ATOM      4  C   UNL     1     174.660 174.151 152.693  1.00  0.00     0.000 C 
BRANCH   4   5
ATOM      5  C   UNL     1     175.365 173.031 153.469  1.00  0.00     0.006 C 
BRANCH   5   6
ATOM      6  C   UNL     1     174.360 171.987 153.962  1.00  0.00     0.053 C 
BRANCH   6   7
ATOM      7  C   UNL     1     175.064 170.881 154.683  1.00  0.00     0.041 C 
ATOM      8  O   UNL     1     175.183 170.918 155.936  1.00  0.00    -0.550 OA
ATOM      9  O   UNL     1     175.545 169.786 153.977  1.00  0.00    -0.550 OA
ENDBRANCH   6   7
ENDBRANCH   5   6
ENDBRANCH   4   5
ENDBRANCH   3   4
ENDBRANCH   2   3
ENDBRANCH   1   2
BRANCH   1  10
ATOM     10  C   UNL     1     172.974 172.693 149.804  1.00  0.00     0.000 C 
BRANCH  10  11
ATOM     11  C   UNL     1     173.522 171.328 150.256  1.00  0.00    -0.000 C 
BRANCH  11  12
ATOM     12  C   UNL     1     175.066 171.292 150.268  1.00  0.00    -0.000 C 
BRANCH  12  13
ATOM     13  C   UNL     1     175.651 169.876 150.425  1.00  0.00    -0.000 C 
BRANCH  13  14
ATOM     14  C   UNL     1     174.607 168.747 150.515  1.00  0.00    -0.000 C 
BRANCH  14  15
ATOM     15  C   UNL     1     174.557 167.817 149.288  1.00  0.00    -0.003 C 
ATOM     16  C   UNL     1     173.143 167.621 148.745  1.00  0.00     0.004 C 
ENDBRANCH  14  15
ENDBRANCH  13  14
ENDBRANCH  12  13
ENDBRANCH  11  12
ENDBRANCH  10  11
ENDBRANCH   1  10
TORSDOF 12
ENDMDL
MODEL 6
REMARK VINA RESULT:    -4.047      3.132      6.271
REMARK INTER + INTRA:          -8.307
REMARK INTER:                  -6.713
REMARK INTRA:                  -1.594
REMARK UNBOUND:                -1.421
REMARK SMILES CCCCCCCCCCCCCC(=O)[O-]
REMARK SMILES IDX 8 1 9 2 10 3 11 4 12 5 13 6 14 7 15 8 16 9 7 10 6 11 5 12
REMARK SMILES IDX 4 13 3 14 2 15 1 16
REMARK H PARENT
REMARK Flexibility Score: inf
ROOT
ATOM      1  C   UNL     1     173.684 171.509 150.121  1.00  0.00     0.000 C 
ENDROOT
BRANCH   1   2
ATOM      2  C   UNL     1     175.121 171.038 150.406  1.00  0.00     0.000 C 
BRANCH   2   3
ATOM      3  C   UNL     1     175.344 169.564 150.032  1.00  0.00     0.000 C 
BRANCH   3   4
ATOM      4  C   UNL     1     174.894 168.597 151.137  1.00  0.00     0.000 C 
BRANCH   4   5
ATOM      5  C   UNL     1     174.190 167.371 150.540  1.00  0.00     0.006 C 
BRANCH   5   6
ATOM      6  C   UNL     1     173.874 167.587 149.058  1.00  0.00     0.053 C 
BRANCH   6   7
ATOM      7  C   UNL     1     172.395 167.660 148.843  1.00  0.00     0.041 C 
ATOM      8  O   UNL     1     171.658 166.697 149.181  1.00  0.00    -0.550 OA
ATOM      9  O   UNL     1     171.826 168.812 148.315  1.00  0.00    -0.550 OA
ENDBRANCH   6   7
ENDBRANCH   5   6
ENDBRANCH   4   5
ENDBRANCH   3   4
ENDBRANCH   2   3
ENDBRANCH   1   2
BRANCH   1  10
ATOM     10  C   UNL     1     173.599 173.019 149.846  1.00  0.00     0.000 C 
BRANCH  10  11
ATOM     11  C   UNL     1     174.709 173.817 150.553  1.00  0.00    -0.000 C 
BRANCH  11  12
ATOM     12  C   UNL     1     174.298 174.255 151.977  1.00  0.00    -0.000 C 
BRANCH  12  13
ATOM     13  C   UNL     1     175.366 173.959 153.047  1.00  0.00    -0.000 C 
BRANCH  13  14
ATOM     14  C   UNL     1     175.162 172.644 153.823  1.00  0.00    -0.000 C 
BRANCH  14  15
ATOM     15  C   UNL     1     173.734 172.071 153.753  1.00  0.00    -0.003 C 
ATOM     16  C   UNL     1     173.672 170.580 154.081  1.00  0.00     0.004 C 
ENDBRANCH  14  15
ENDBRANCH  13  14
ENDBRANCH  12  13
ENDBRANCH  11  12
ENDBRANCH  10  11
ENDBRANCH   1  10
TORSDOF 12
ENDMDL
MODEL 7
REMARK VINA RESULT:    -4.006      2.123      5.532
REMARK INTER + INTRA:          -8.238
REMARK INTER:                  -6.404
REMARK INTRA:                  -1.833
REMARK UNBOUND:                -1.421
REMARK SMILES CCCCCCCCCCCCCC(=O)[O-]
REMARK SMILES IDX 8 1 9 2 10 3 11 4 12 5 13 6 14 7 15 8 16 9 7 10 6 11 5 12
REMARK SMILES IDX 4 13 3 14 2 15 1 16
REMARK H PARENT
REMARK Flexibility Score: inf
ROOT
ATOM      1  C   UNL     1     171.461 172.803 150.877  1.00  0.00     0.000 C 
ENDROOT
BRANCH   1   2
ATOM      2  C   UNL     1     172.184 171.529 151.348  1.00  0.00     0.000 C 
BRANCH   2   3
ATOM      3  C   UNL     1     171.855 170.307 150.475  1.00  0.00     0.000 C 
BRANCH   3   4
ATOM      4  C   UNL     1     173.107 169.515 150.068  1.00  0.00     0.000 C 
BRANCH   4   5
ATOM      5  C   UNL     1     174.384 170.297 150.403  1.00  0.00     0.006 C 
BRANCH   5   6
ATOM      6  C   UNL     1     175.522 169.350 150.793  1.00  0.00     0.053 C 
BRANCH   6   7
ATOM      7  C   UNL     1     175.342 168.865 152.197  1.00  0.00     0.041 C 
ATOM      8  O   UNL     1     175.185 169.689 153.136  1.00  0.00    -0.550 OA
ATOM      9  O   UNL     1     175.297 167.502 152.461  1.00  0.00    -0.550 OA
ENDBRANCH   6   7
ENDBRANCH   5   6
ENDBRANCH   4   5
ENDBRANCH   3   4
ENDBRANCH   2   3
ENDBRANCH   1   2
BRANCH   1  10
ATOM     10  C   UNL     1     172.396 174.022 150.805  1.00  0.00     0.000 C 
BRANCH  10  11
ATOM     11  C   UNL     1     173.627 173.777 149.915  1.00  0.00    -0.000 C 
BRANCH  11  12
ATOM     12  C   UNL     1     174.950 173.871 150.707  1.00  0.00    -0.000 C 
BRANCH  12  13
ATOM     13  C   UNL     1     174.758 174.251 152.188  1.00  0.00    -0.000 C 
BRANCH  13  14
ATOM     14  C   UNL     1     175.357 173.253 153.198  1.00  0.00    -0.000 C 
BRANCH  14  15
ATOM     15  C   UNL     1     174.395 172.818 154.319  1.00  0.00    -0.003 C 
ATOM     16  C   UNL     1     173.134 173.677 154.391  1.00  0.00     0.004 C 
ENDBRANCH  14  15
ENDBRANCH  13  14
ENDBRANCH  12  13
ENDBRANCH  11  12
ENDBRANCH  10  11
ENDBRANCH   1  10
TORSDOF 12
ENDMDL
MODEL 8
REMARK VINA RESULT:    -3.928      2.457      5.240
REMARK INTER + INTRA:          -8.105
REMARK INTER:                  -6.418
REMARK INTRA:                  -1.687
REMARK UNBOUND:                -1.421
REMARK SMILES CCCCCCCCCCCCCC(=O)[O-]
REMARK SMILES IDX 8 1 9 2 10 3 11 4 12 5 13 6 14 7 15 8 16 9 7 10 6 11 5 12
REMARK SMILES IDX 4 13 3 14 2 15 1 16
REMARK H PARENT
REMARK Flexibility Score: inf
ROOT
ATOM      1  C   UNL     1     175.078 174.165 150.772  1.00  0.00     0.000 C 
ENDROOT
BRANCH   1   2
ATOM      2  C   UNL     1     174.408 173.344 149.657  1.00  0.00     0.000 C 
BRANCH   2   3
ATOM      3  C   UNL     1     173.130 172.635 150.133  1.00  0.00     0.000 C 
BRANCH   3   4
ATOM      4  C   UNL     1     173.286 171.108 150.195  1.00  0.00     0.000 C 
BRANCH   4   5
ATOM      5  C   UNL     1     174.766 170.710 150.265  1.00  0.00     0.006 C 
BRANCH   5   6
ATOM      6  C   UNL     1     174.928 169.188 150.236  1.00  0.00     0.053 C 
BRANCH   6   7
ATOM      7  C   UNL     1     175.055 168.648 151.625  1.00  0.00     0.041 C 
ATOM      8  O   UNL     1     176.009 169.012 152.361  1.00  0.00    -0.550 OA
ATOM      9  O   UNL     1     174.091 167.782 152.125  1.00  0.00    -0.550 OA
ENDBRANCH   6   7
ENDBRANCH   5   6
ENDBRANCH   4   5
ENDBRANCH   3   4
ENDBRANCH   2   3
ENDBRANCH   1   2
BRANCH   1  10
ATOM     10  C   UNL     1     174.238 174.212 152.059  1.00  0.00     0.000 C 
BRANCH  10  11
ATOM     11  C   UNL     1     175.098 174.159 153.334  1.00  0.00    -0.000 C 
BRANCH  11  12
ATOM     12  C   UNL     1     175.325 172.714 153.827  1.00  0.00    -0.000 C 
BRANCH  12  13
ATOM     13  C   UNL     1     174.063 171.833 153.765  1.00  0.00    -0.000 C 
BRANCH  13  14
ATOM     14  C   UNL     1     173.007 172.133 154.846  1.00  0.00    -0.000 C 
BRANCH  14  15
ATOM     15  C   UNL     1     171.547 171.992 154.376  1.00  0.00    -0.003 C 
ATOM     16  C   UNL     1     171.049 173.211 153.601  1.00  0.00     0.004 C 
ENDBRANCH  14  15
ENDBRANCH  13  14
ENDBRANCH  12  13
ENDBRANCH  11  12
ENDBRANCH  10  11
ENDBRANCH   1  10
TORSDOF 12
ENDMDL
MODEL 9
REMARK VINA RESULT:    -3.913      2.354      5.664
REMARK INTER + INTRA:          -8.079
REMARK INTER:                  -6.154
REMARK INTRA:                  -1.925
REMARK UNBOUND:                -1.421
REMARK SMILES CCCCCCCCCCCCCC(=O)[O-]
REMARK SMILES IDX 8 1 9 2 10 3 11 4 12 5 13 6 14 7 15 8 16 9 7 10 6 11 5 12
REMARK SMILES IDX 4 13 3 14 2 15 1 16
REMARK H PARENT
REMARK Flexibility Score: inf
ROOT
ATOM      1  C   UNL     1     172.988 173.879 150.125  1.00  0.00     0.000 C 
ENDROOT
BRANCH   1   2
ATOM      2  C   UNL     1     173.237 172.362 150.182  1.00  0.00     0.000 C 
BRANCH   2   3
ATOM      3  C   UNL     1     174.733 172.009 150.185  1.00  0.00     0.000 C 
BRANCH   3   4
ATOM      4  C   UNL     1     174.986 170.495 150.141  1.00  0.00     0.000 C 
BRANCH   4   5
ATOM      5  C   UNL     1     174.149 169.767 151.201  1.00  0.00     0.006 C 
BRANCH   5   6
ATOM      6  C   UNL     1     174.460 168.269 151.214  1.00  0.00     0.053 C 
BRANCH   6   7
ATOM      7  C   UNL     1     175.242 167.907 152.437  1.00  0.00     0.041 C 
ATOM      8  O   UNL     1     176.125 168.689 152.878  1.00  0.00    -0.550 OA
ATOM      9  O   UNL     1     174.963 166.728 153.117  1.00  0.00    -0.550 OA
ENDBRANCH   6   7
ENDBRANCH   5   6
ENDBRANCH   4   5
ENDBRANCH   3   4
ENDBRANCH   2   3
ENDBRANCH   1   2
BRANCH   1  10
ATOM     10  C   UNL     1     172.141 174.385 151.304  1.00  0.00     0.000 C 
BRANCH  10  11
ATOM     11  C   UNL     1     171.552 173.242 152.149  1.00  0.00    -0.000 C 
BRANCH  11  12
ATOM     12  C   UNL     1     172.071 173.262 153.603  1.00  0.00    -0.000 C 
BRANCH  12  13
ATOM     13  C   UNL     1     173.004 172.084 153.944  1.00  0.00    -0.000 C 
BRANCH  13  14
ATOM     14  C   UNL     1     174.509 172.389 153.819  1.00  0.00    -0.000 C 
BRANCH  14  15
ATOM     15  C   UNL     1     174.873 173.882 153.920  1.00  0.00    -0.003 C 
ATOM     16  C   UNL     1     175.752 174.362 152.766  1.00  0.00     0.004 C 
ENDBRANCH  14  15
ENDBRANCH  13  14
ENDBRANCH  12  13
ENDBRANCH  11  12
ENDBRANCH  10  11
ENDBRANCH   1  10
TORSDOF 12
ENDMDL
