MODEL 1
REMARK VINA RESULT:    -4.334      0.000      0.000
REMARK INTER + INTRA:         -11.594
REMARK INTER:                  -9.402
REMARK INTRA:                  -2.192
REMARK UNBOUND:                -2.192
REMARK SMILES CCCCCCCCCCCCCCCCCCCCCC(=O)[O-]
REMARK SMILES IDX 12 1 11 2 10 3 9 4 8 5 7 6 6 7 5 8 4 9 3 10 2 11 1 12 13 13
REMARK SMILES IDX 14 14 15 15 16 16 17 17 18 18 19 19 20 20 21 21 22 22 23 23
REMARK SMILES IDX 24 24
REMARK H PARENT
REMARK Flexibility Score: inf
ROOT
ATOM      1  C   UNL     1      -3.728 -11.375   6.876  1.00  0.00     0.000 C 
ENDROOT
BRANCH   1   2
ATOM      2  C   UNL     1      -3.434 -10.749   8.248  1.00  0.00     0.000 C 
BRANCH   2   3
ATOM      3  C   UNL     1      -2.818  -9.345   8.141  1.00  0.00     0.000 C 
BRANCH   3   4
ATOM      4  C   UNL     1      -2.618  -8.898   6.681  1.00  0.00    -0.000 C 
BRANCH   4   5
ATOM      5  C   UNL     1      -1.205  -8.341   6.426  1.00  0.00    -0.000 C 
BRANCH   5   6
ATOM      6  C   UNL     1      -0.225  -8.559   7.595  1.00  0.00    -0.000 C 
BRANCH   6   7
ATOM      7  C   UNL     1       0.872  -9.584   7.257  1.00  0.00    -0.000 C 
BRANCH   7   8
ATOM      8  C   UNL     1       0.856 -10.801   8.195  1.00  0.00    -0.000 C 
BRANCH   8   9
ATOM      9  C   UNL     1      -0.014 -11.950   7.663  1.00  0.00    -0.000 C 
BRANCH   9  10
ATOM     10  C   UNL     1      -0.026 -11.963   6.127  1.00  0.00    -0.000 C 
BRANCH  10  11
ATOM     11  C   UNL     1       0.476 -13.291   5.541  1.00  0.00    -0.003 C 
ATOM     12  C   UNL     1       1.906 -13.625   5.970  1.00  0.00     0.004 C 
ENDBRANCH  10  11
ENDBRANCH   9  10
ENDBRANCH   8   9
ENDBRANCH   7   8
ENDBRANCH   6   7
ENDBRANCH   5   6
ENDBRANCH   4   5
ENDBRANCH   3   4
ENDBRANCH   2   3
ENDBRANCH   1   2
BRANCH   1  13
ATOM     13  C   UNL     1      -4.766 -12.501   6.996  1.00  0.00     0.000 C 
BRANCH  13  14
ATOM     14  C   UNL     1      -6.071 -12.020   7.666  1.00  0.00     0.000 C 
BRANCH  14  15
ATOM     15  C   UNL     1      -7.199 -11.712   6.667  1.00  0.00     0.000 C 
BRANCH  15  16
ATOM     16  C   UNL     1      -8.570 -11.560   7.345  1.00  0.00     0.000 C 
BRANCH  16  17
ATOM     17  C   UNL     1      -9.700 -11.254   6.345  1.00  0.00     0.000 C 
BRANCH  17  18
ATOM     18  C   UNL     1      -9.678  -9.833   5.752  1.00  0.00     0.000 C 
BRANCH  18  19
ATOM     19  C   UNL     1      -9.488  -9.765   4.224  1.00  0.00     0.000 C 
BRANCH  19  20
ATOM     20  C   UNL     1      -9.908 -11.055   3.488  1.00  0.00     0.006 C 
BRANCH  20  21
ATOM     21  C   UNL     1      -9.455 -11.065   2.023  1.00  0.00     0.053 C 
BRANCH  21  22
ATOM     22  C   UNL     1     -10.372 -11.908   1.193  1.00  0.00     0.041 C 
ATOM     23  O   UNL     1     -11.566 -11.554   1.014  1.00  0.00    -0.550 OA
ATOM     24  O   UNL     1      -9.918 -13.104   0.652  1.00  0.00    -0.550 OA
ENDBRANCH  21  22
ENDBRANCH  20  21
ENDBRANCH  19  20
ENDBRANCH  18  19
ENDBRANCH  17  18
ENDBRANCH  16  17
ENDBRANCH  15  16
ENDBRANCH  14  15
ENDBRANCH  13  14
ENDBRANCH   1  13
TORSDOF 20
ENDMDL
MODEL 2
REMARK VINA RESULT:    -4.278     12.277     15.526
REMARK INTER + INTRA:         -11.473
REMARK INTER:                  -7.983
REMARK INTRA:                  -3.491
REMARK UNBOUND:                -2.192
REMARK SMILES CCCCCCCCCCCCCCCCCCCCCC(=O)[O-]
REMARK SMILES IDX 12 1 11 2 10 3 9 4 8 5 7 6 6 7 5 8 4 9 3 10 2 11 1 12 13 13
REMARK SMILES IDX 14 14 15 15 16 16 17 17 18 18 19 19 20 20 21 21 22 22 23 23
REMARK SMILES IDX 24 24
REMARK H PARENT
REMARK Flexibility Score: inf
ROOT
ATOM      1  C   UNL     1      -8.513  -0.142   3.629  1.00  0.00     0.000 C 
ENDROOT
BRANCH   1   2
ATOM      2  C   UNL     1      -8.695   1.200   4.353  1.00  0.00     0.000 C 
BRANCH   2   3
ATOM      3  C   UNL     1      -7.362   1.814   4.810  1.00  0.00     0.000 C 
BRANCH   3   4
ATOM      4  C   UNL     1      -7.537   3.209   5.436  1.00  0.00    -0.000 C 
BRANCH   4   5
ATOM      5  C   UNL     1      -9.017   3.566   5.670  1.00  0.00    -0.000 C 
BRANCH   5   6
ATOM      6  C   UNL     1      -9.235   4.689   6.702  1.00  0.00    -0.000 C 
BRANCH   6   7
ATOM      7  C   UNL     1     -10.581   4.559   7.436  1.00  0.00    -0.000 C 
BRANCH   7   8
ATOM      8  C   UNL     1     -11.314   3.250   7.103  1.00  0.00    -0.000 C 
BRANCH   8   9
ATOM      9  C   UNL     1     -12.435   2.925   8.102  1.00  0.00    -0.000 C 
BRANCH   9  10
ATOM     10  C   UNL     1     -13.678   2.387   7.376  1.00  0.00    -0.000 C 
BRANCH  10  11
ATOM     11  C   UNL     1     -13.337   1.305   6.341  1.00  0.00    -0.003 C 
ATOM     12  C   UNL     1     -13.731  -0.100   6.800  1.00  0.00     0.004 C 
ENDBRANCH  10  11
ENDBRANCH   9  10
ENDBRANCH   8   9
ENDBRANCH   7   8
ENDBRANCH   6   7
ENDBRANCH   5   6
ENDBRANCH   4   5
ENDBRANCH   3   4
ENDBRANCH   2   3
ENDBRANCH   1   2
BRANCH   1  13
ATOM     13  C   UNL     1      -9.279  -1.263   4.348  1.00  0.00     0.000 C 
BRANCH  13  14
ATOM     14  C   UNL     1     -10.203  -0.716   5.458  1.00  0.00     0.000 C 
BRANCH  14  15
ATOM     15  C   UNL     1      -9.641  -0.911   6.877  1.00  0.00     0.000 C 
BRANCH  15  16
ATOM     16  C   UNL     1      -9.759   0.353   7.743  1.00  0.00     0.000 C 
BRANCH  16  17
ATOM     17  C   UNL     1      -8.592   0.506   8.737  1.00  0.00     0.000 C 
BRANCH  17  18
ATOM     18  C   UNL     1      -8.482   1.891   9.403  1.00  0.00     0.000 C 
BRANCH  18  19
ATOM     19  C   UNL     1      -7.204   2.681   9.060  1.00  0.00     0.000 C 
BRANCH  19  20
ATOM     20  C   UNL     1      -5.998   1.787   8.702  1.00  0.00     0.006 C 
BRANCH  20  21
ATOM     21  C   UNL     1      -4.854   2.580   8.058  1.00  0.00     0.053 C 
BRANCH  21  22
ATOM     22  C   UNL     1      -3.630   1.729   7.930  1.00  0.00     0.041 C 
ATOM     23  O   UNL     1      -2.592   2.013   8.583  1.00  0.00    -0.550 OA
ATOM     24  O   UNL     1      -3.622   0.647   7.060  1.00  0.00    -0.550 OA
ENDBRANCH  21  22
ENDBRANCH  20  21
ENDBRANCH  19  20
ENDBRANCH  18  19
ENDBRANCH  17  18
ENDBRANCH  16  17
ENDBRANCH  15  16
ENDBRANCH  14  15
ENDBRANCH  13  14
ENDBRANCH   1  13
TORSDOF 20
ENDMDL
MODEL 3
REMARK VINA RESULT:    -4.249      1.305      2.785
REMARK INTER + INTRA:         -11.409
REMARK INTER:                  -8.377
REMARK INTRA:                  -3.032
REMARK UNBOUND:                -2.192
REMARK SMILES CCCCCCCCCCCCCCCCCCCCCC(=O)[O-]
REMARK SMILES IDX 12 1 11 2 10 3 9 4 8 5 7 6 6 7 5 8 4 9 3 10 2 11 1 12 13 13
REMARK SMILES IDX 14 14 15 15 16 16 17 17 18 18 19 19 20 20 21 21 22 22 23 23
REMARK SMILES IDX 24 24
REMARK H PARENT
REMARK Flexibility Score: inf
ROOT
ATOM      1  C   UNL     1      -2.839  -9.550   7.002  1.00  0.00     0.000 C 
ENDROOT
BRANCH   1   2
ATOM      2  C   UNL     1      -1.822  -8.427   7.255  1.00  0.00     0.000 C 
BRANCH   2   3
ATOM      3  C   UNL     1      -0.512  -8.625   6.475  1.00  0.00     0.000 C 
BRANCH   3   4
ATOM      4  C   UNL     1       0.726  -8.623   7.390  1.00  0.00    -0.000 C 
BRANCH   4   5
ATOM      5  C   UNL     1       0.486  -9.389   8.704  1.00  0.00    -0.000 C 
BRANCH   5   6
ATOM      6  C   UNL     1       0.961 -10.855   8.671  1.00  0.00    -0.000 C 
BRANCH   6   7
ATOM      7  C   UNL     1      -0.197 -11.850   8.861  1.00  0.00    -0.000 C 
BRANCH   7   8
ATOM      8  C   UNL     1      -0.387 -12.778   7.651  1.00  0.00    -0.000 C 
BRANCH   8   9
ATOM      9  C   UNL     1       0.318 -12.258   6.388  1.00  0.00    -0.000 C 
BRANCH   9  10
ATOM     10  C   UNL     1      -0.676 -12.118   5.224  1.00  0.00    -0.000 C 
BRANCH  10  11
ATOM     11  C   UNL     1      -0.798 -13.403   4.391  1.00  0.00    -0.003 C 
ATOM     12  C   UNL     1      -2.183 -14.044   4.490  1.00  0.00     0.004 C 
ENDBRANCH  10  11
ENDBRANCH   9  10
ENDBRANCH   8   9
ENDBRANCH   7   8
ENDBRANCH   6   7
ENDBRANCH   5   6
ENDBRANCH   4   5
ENDBRANCH   3   4
ENDBRANCH   2   3
ENDBRANCH   1   2
BRANCH   1  13
ATOM     13  C   UNL     1      -3.280 -10.200   8.323  1.00  0.00     0.000 C 
BRANCH  13  14
ATOM     14  C   UNL     1      -3.903 -11.596   8.103  1.00  0.00     0.000 C 
BRANCH  14  15
ATOM     15  C   UNL     1      -4.167 -11.927   6.624  1.00  0.00     0.000 C 
BRANCH  15  16
ATOM     16  C   UNL     1      -5.607 -12.401   6.368  1.00  0.00     0.000 C 
BRANCH  16  17
ATOM     17  C   UNL     1      -6.529 -12.190   7.584  1.00  0.00     0.000 C 
BRANCH  17  18
ATOM     18  C   UNL     1      -7.904 -11.577   7.259  1.00  0.00     0.000 C 
BRANCH  18  19
ATOM     19  C   UNL     1      -8.170 -11.323   5.763  1.00  0.00     0.000 C 
BRANCH  19  20
ATOM     20  C   UNL     1      -9.418 -10.458   5.492  1.00  0.00     0.006 C 
BRANCH  20  21
ATOM     21  C   UNL     1      -9.340  -9.727   4.145  1.00  0.00     0.053 C 
BRANCH  21  22
ATOM     22  C   UNL     1      -9.720 -10.643   3.025  1.00  0.00     0.041 C 
ATOM     23  O   UNL     1      -8.992 -10.728   2.002  1.00  0.00    -0.550 OA
ATOM     24  O   UNL     1     -10.901 -11.373   3.093  1.00  0.00    -0.550 OA
ENDBRANCH  21  22
ENDBRANCH  20  21
ENDBRANCH  19  20
ENDBRANCH  18  19
ENDBRANCH  17  18
ENDBRANCH  16  17
ENDBRANCH  15  16
ENDBRANCH  14  15
ENDBRANCH  13  14
ENDBRANCH   1  13
TORSDOF 20
ENDMDL
MODEL 4
REMARK VINA RESULT:    -4.202      1.603      3.885
REMARK INTER + INTRA:         -11.307
REMARK INTER:                  -8.208
REMARK INTRA:                  -3.099
REMARK UNBOUND:                -2.192
REMARK SMILES CCCCCCCCCCCCCCCCCCCCCC(=O)[O-]
REMARK SMILES IDX 12 1 11 2 10 3 9 4 8 5 7 6 6 7 5 8 4 9 3 10 2 11 1 12 13 13
REMARK SMILES IDX 14 14 15 15 16 16 17 17 18 18 19 19 20 20 21 21 22 22 23 23
REMARK SMILES IDX 24 24
REMARK H PARENT
REMARK Flexibility Score: inf
ROOT
ATOM      1  C   UNL     1      -0.981 -12.338   5.285  1.00  0.00     0.000 C 
ENDROOT
BRANCH   1   2
ATOM      2  C   UNL     1       0.142 -12.632   6.291  1.00  0.00     0.000 C 
BRANCH   2   3
ATOM      3  C   UNL     1      -0.262 -12.320   7.741  1.00  0.00     0.000 C 
BRANCH   3   4
ATOM      4  C   UNL     1      -1.789 -12.304   7.938  1.00  0.00    -0.000 C 
BRANCH   4   5
ATOM      5  C   UNL     1      -2.235 -11.268   8.986  1.00  0.00    -0.000 C 
BRANCH   5   6
ATOM      6  C   UNL     1      -3.209 -10.206   8.443  1.00  0.00    -0.000 C 
BRANCH   6   7
ATOM      7  C   UNL     1      -2.752  -9.627   7.093  1.00  0.00    -0.000 C 
BRANCH   7   8
ATOM      8  C   UNL     1      -1.762  -8.462   7.252  1.00  0.00    -0.000 C 
BRANCH   8   9
ATOM      9  C   UNL     1      -0.392  -8.755   6.620  1.00  0.00    -0.000 C 
BRANCH   9  10
ATOM     10  C   UNL     1       0.719  -8.729   7.681  1.00  0.00    -0.000 C 
BRANCH  10  11
ATOM     11  C   UNL     1       0.172  -8.566   9.107  1.00  0.00    -0.003 C 
ATOM     12  C   UNL     1       0.794  -9.551  10.097  1.00  0.00     0.004 C 
ENDBRANCH  10  11
ENDBRANCH   9  10
ENDBRANCH   8   9
ENDBRANCH   7   8
ENDBRANCH   6   7
ENDBRANCH   5   6
ENDBRANCH   4   5
ENDBRANCH   3   4
ENDBRANCH   2   3
ENDBRANCH   1   2
BRANCH   1  13
ATOM     13  C   UNL     1      -1.395 -13.612   4.534  1.00  0.00     0.000 C 
BRANCH  13  14
ATOM     14  C   UNL     1      -2.895 -13.932   4.715  1.00  0.00     0.000 C 
BRANCH  14  15
ATOM     15  C   UNL     1      -3.714 -12.752   5.265  1.00  0.00     0.000 C 
BRANCH  15  16
ATOM     16  C   UNL     1      -5.063 -13.189   5.859  1.00  0.00     0.000 C 
BRANCH  16  17
ATOM     17  C   UNL     1      -5.704 -12.104   6.745  1.00  0.00     0.000 C 
BRANCH  17  18
ATOM     18  C   UNL     1      -7.243 -12.072   6.724  1.00  0.00     0.000 C 
BRANCH  18  19
ATOM     19  C   UNL     1      -7.864 -11.214   5.605  1.00  0.00     0.000 C 
BRANCH  19  20
ATOM     20  C   UNL     1      -9.233 -10.606   5.975  1.00  0.00     0.006 C 
BRANCH  20  21
ATOM     21  C   UNL     1      -9.810  -9.737   4.850  1.00  0.00     0.053 C 
BRANCH  21  22
ATOM     22  C   UNL     1     -10.040 -10.554   3.618  1.00  0.00     0.041 C 
ATOM     23  O   UNL     1     -10.941 -11.432   3.601  1.00  0.00    -0.550 OA
ATOM     24  O   UNL     1      -9.232 -10.373   2.502  1.00  0.00    -0.550 OA
ENDBRANCH  21  22
ENDBRANCH  20  21
ENDBRANCH  19  20
ENDBRANCH  18  19
ENDBRANCH  17  18
ENDBRANCH  16  17
ENDBRANCH  15  16
ENDBRANCH  14  15
ENDBRANCH  13  14
ENDBRANCH   1  13
TORSDOF 20
ENDMDL
MODEL 5
REMARK VINA RESULT:    -4.173      0.984      2.910
REMARK INTER + INTRA:         -11.244
REMARK INTER:                  -8.964
REMARK INTRA:                  -2.280
REMARK UNBOUND:                -2.192
REMARK SMILES CCCCCCCCCCCCCCCCCCCCCC(=O)[O-]
REMARK SMILES IDX 12 1 11 2 10 3 9 4 8 5 7 6 6 7 5 8 4 9 3 10 2 11 1 12 13 13
REMARK SMILES IDX 14 14 15 15 16 16 17 17 18 18 19 19 20 20 21 21 22 22 23 23
REMARK SMILES IDX 24 24
REMARK H PARENT
REMARK Flexibility Score: inf
ROOT
ATOM      1  C   UNL     1      -5.320 -12.881   5.873  1.00  0.00     0.000 C 
ENDROOT
BRANCH   1   2
ATOM      2  C   UNL     1      -3.846 -13.022   5.462  1.00  0.00     0.000 C 
BRANCH   2   3
ATOM      3  C   UNL     1      -2.972 -11.869   5.981  1.00  0.00     0.000 C 
BRANCH   3   4
ATOM      4  C   UNL     1      -1.635 -12.357   6.566  1.00  0.00    -0.000 C 
BRANCH   4   5
ATOM      5  C   UNL     1      -0.439 -12.025   5.654  1.00  0.00    -0.000 C 
BRANCH   5   6
ATOM      6  C   UNL     1       0.915 -11.984   6.387  1.00  0.00    -0.000 C 
BRANCH   6   7
ATOM      7  C   UNL     1       0.869 -11.116   7.657  1.00  0.00    -0.000 C 
BRANCH   7   8
ATOM      8  C   UNL     1       1.106  -9.626   7.366  1.00  0.00    -0.000 C 
BRANCH   8   9
ATOM      9  C   UNL     1      -0.133  -8.760   7.644  1.00  0.00    -0.000 C 
BRANCH   9  10
ATOM     10  C   UNL     1      -0.827  -8.360   6.333  1.00  0.00    -0.000 C 
BRANCH  10  11
ATOM     11  C   UNL     1      -2.356  -8.296   6.469  1.00  0.00    -0.003 C 
ATOM     12  C   UNL     1      -2.849  -8.741   7.846  1.00  0.00     0.004 C 
ENDBRANCH  10  11
ENDBRANCH   9  10
ENDBRANCH   8   9
ENDBRANCH   7   8
ENDBRANCH   6   7
ENDBRANCH   5   6
ENDBRANCH   4   5
ENDBRANCH   3   4
ENDBRANCH   2   3
ENDBRANCH   1   2
BRANCH   1  13
ATOM     13  C   UNL     1      -5.487 -11.806   6.958  1.00  0.00     0.000 C 
BRANCH  13  14
ATOM     14  C   UNL     1      -6.761 -12.028   7.804  1.00  0.00     0.000 C 
BRANCH  14  15
ATOM     15  C   UNL     1      -7.750 -13.026   7.177  1.00  0.00     0.000 C 
BRANCH  15  16
ATOM     16  C   UNL     1      -9.164 -12.443   7.020  1.00  0.00     0.000 C 
BRANCH  16  17
ATOM     17  C   UNL     1      -9.194 -10.909   7.148  1.00  0.00     0.000 C 
BRANCH  17  18
ATOM     18  C   UNL     1      -9.238 -10.145   5.811  1.00  0.00     0.000 C 
BRANCH  18  19
ATOM     19  C   UNL     1      -8.972 -11.004   4.559  1.00  0.00     0.000 C 
BRANCH  19  20
ATOM     20  C   UNL     1     -10.070 -10.888   3.482  1.00  0.00     0.006 C 
BRANCH  20  21
ATOM     21  C   UNL     1      -9.511 -11.026   2.060  1.00  0.00     0.053 C 
BRANCH  21  22
ATOM     22  C   UNL     1     -10.347 -11.969   1.254  1.00  0.00     0.041 C 
ATOM     23  O   UNL     1      -9.858 -13.054   0.843  1.00  0.00    -0.550 OA
ATOM     24  O   UNL     1     -11.653 -11.632   0.923  1.00  0.00    -0.550 OA
ENDBRANCH  21  22
ENDBRANCH  20  21
ENDBRANCH  19  20
ENDBRANCH  18  19
ENDBRANCH  17  18
ENDBRANCH  16  17
ENDBRANCH  15  16
ENDBRANCH  14  15
ENDBRANCH  13  14
ENDBRANCH   1  13
TORSDOF 20
ENDMDL
MODEL 6
REMARK VINA RESULT:    -4.168      1.476      3.326
REMARK INTER + INTRA:         -11.234
REMARK INTER:                  -8.161
REMARK INTRA:                  -3.073
REMARK UNBOUND:                -2.192
REMARK SMILES CCCCCCCCCCCCCCCCCCCCCC(=O)[O-]
REMARK SMILES IDX 12 1 11 2 10 3 9 4 8 5 7 6 6 7 5 8 4 9 3 10 2 11 1 12 13 13
REMARK SMILES IDX 14 14 15 15 16 16 17 17 18 18 19 19 20 20 21 21 22 22 23 23
REMARK SMILES IDX 24 24
REMARK H PARENT
REMARK Flexibility Score: inf
ROOT
ATOM      1  C   UNL     1      -1.649  -8.193   7.134  1.00  0.00     0.000 C 
ENDROOT
BRANCH   1   2
ATOM      2  C   UNL     1      -0.503  -9.028   6.543  1.00  0.00     0.000 C 
BRANCH   2   3
ATOM      3  C   UNL     1       0.797  -8.911   7.355  1.00  0.00     0.000 C 
BRANCH   3   4
ATOM      4  C   UNL     1       0.543  -8.851   8.871  1.00  0.00    -0.000 C 
BRANCH   4   5
ATOM      5  C   UNL     1       0.526 -10.248   9.520  1.00  0.00    -0.000 C 
BRANCH   5   6
ATOM      6  C   UNL     1      -0.883 -10.756   9.878  1.00  0.00    -0.000 C 
BRANCH   6   7
ATOM      7  C   UNL     1      -1.133 -12.192   9.384  1.00  0.00    -0.000 C 
BRANCH   7   8
ATOM      8  C   UNL     1       0.006 -12.720   8.499  1.00  0.00    -0.000 C 
BRANCH   8   9
ATOM      9  C   UNL     1      -0.417 -12.903   7.033  1.00  0.00    -0.000 C 
BRANCH   9  10
ATOM     10  C   UNL     1       0.765 -12.648   6.085  1.00  0.00    -0.000 C 
BRANCH  10  11
ATOM     11  C   UNL     1       2.078 -12.376   6.835  1.00  0.00    -0.003 C 
ATOM     12  C   UNL     1       3.194 -13.348   6.449  1.00  0.00     0.004 C 
ENDBRANCH  10  11
ENDBRANCH   9  10
ENDBRANCH   8   9
ENDBRANCH   7   8
ENDBRANCH   6   7
ENDBRANCH   5   6
ENDBRANCH   4   5
ENDBRANCH   3   4
ENDBRANCH   2   3
ENDBRANCH   1   2
BRANCH   1  13
ATOM     13  C   UNL     1      -2.995  -8.917   6.976  1.00  0.00     0.000 C 
BRANCH  13  14
ATOM     14  C   UNL     1      -2.814 -10.407   6.614  1.00  0.00     0.000 C 
BRANCH  14  15
ATOM     15  C   UNL     1      -3.942 -11.310   7.142  1.00  0.00     0.000 C 
BRANCH  15  16
ATOM     16  C   UNL     1      -4.232 -12.503   6.218  1.00  0.00     0.000 C 
BRANCH  16  17
ATOM     17  C   UNL     1      -5.728 -12.866   6.162  1.00  0.00     0.000 C 
BRANCH  17  18
ATOM     18  C   UNL     1      -6.692 -11.693   6.417  1.00  0.00     0.000 C 
BRANCH  18  19
ATOM     19  C   UNL     1      -8.122 -12.098   6.823  1.00  0.00     0.000 C 
BRANCH  19  20
ATOM     20  C   UNL     1      -9.186 -11.778   5.752  1.00  0.00     0.006 C 
BRANCH  20  21
ATOM     21  C   UNL     1      -8.809 -10.558   4.902  1.00  0.00     0.053 C 
BRANCH  21  22
ATOM     22  C   UNL     1      -9.707 -10.448   3.710  1.00  0.00     0.041 C 
ATOM     23  O   UNL     1     -10.941 -10.250   3.863  1.00  0.00    -0.550 OA
ATOM     24  O   UNL     1      -9.188 -10.606   2.431  1.00  0.00    -0.550 OA
ENDBRANCH  21  22
ENDBRANCH  20  21
ENDBRANCH  19  20
ENDBRANCH  18  19
ENDBRANCH  17  18
ENDBRANCH  16  17
ENDBRANCH  15  16
ENDBRANCH  14  15
ENDBRANCH  13  14
ENDBRANCH   1  13
TORSDOF 20
ENDMDL
MODEL 7
REMARK VINA RESULT:    -4.080     12.323     15.753
REMARK INTER + INTRA:         -11.043
REMARK INTER:                  -7.126
REMARK INTRA:                  -3.917
REMARK UNBOUND:                -2.192
REMARK SMILES CCCCCCCCCCCCCCCCCCCCCC(=O)[O-]
REMARK SMILES IDX 12 1 11 2 10 3 9 4 8 5 7 6 6 7 5 8 4 9 3 10 2 11 1 12 13 13
REMARK SMILES IDX 14 14 15 15 16 16 17 17 18 18 19 19 20 20 21 21 22 22 23 23
REMARK SMILES IDX 24 24
REMARK H PARENT
REMARK Flexibility Score: inf
ROOT
ATOM      1  C   UNL     1      -9.391   0.586   4.279  1.00  0.00     0.000 C 
ENDROOT
BRANCH   1   2
ATOM      2  C   UNL     1      -9.542  -0.831   4.853  1.00  0.00     0.000 C 
BRANCH   2   3
ATOM      3  C   UNL     1     -10.193  -0.841   6.245  1.00  0.00     0.000 C 
BRANCH   3   4
ATOM      4  C   UNL     1      -9.169  -0.641   7.377  1.00  0.00    -0.000 C 
BRANCH   4   5
ATOM      5  C   UNL     1      -9.836  -0.247   8.709  1.00  0.00    -0.000 C 
BRANCH   5   6
ATOM      6  C   UNL     1      -9.099   0.870   9.472  1.00  0.00    -0.000 C 
BRANCH   6   7
ATOM      7  C   UNL     1     -10.028   2.041   9.839  1.00  0.00    -0.000 C 
BRANCH   7   8
ATOM      8  C   UNL     1     -11.505   1.742   9.538  1.00  0.00    -0.000 C 
BRANCH   8   9
ATOM      9  C   UNL     1     -12.256   2.962   8.979  1.00  0.00    -0.000 C 
BRANCH   9  10
ATOM     10  C   UNL     1     -13.009   2.599   7.690  1.00  0.00    -0.000 C 
BRANCH  10  11
ATOM     11  C   UNL     1     -13.007   1.089   7.408  1.00  0.00    -0.003 C 
ATOM     12  C   UNL     1     -13.884   0.707   6.215  1.00  0.00     0.004 C 
ENDBRANCH  10  11
ENDBRANCH   9  10
ENDBRANCH   8   9
ENDBRANCH   7   8
ENDBRANCH   6   7
ENDBRANCH   5   6
ENDBRANCH   4   5
ENDBRANCH   3   4
ENDBRANCH   2   3
ENDBRANCH   1   2
BRANCH   1  13
ATOM     13  C   UNL     1     -10.725   1.346   4.335  1.00  0.00     0.000 C 
BRANCH  13  14
ATOM     14  C   UNL     1     -10.580   2.724   5.018  1.00  0.00     0.000 C 
BRANCH  14  15
ATOM     15  C   UNL     1      -9.431   2.786   6.040  1.00  0.00     0.000 C 
BRANCH  15  16
ATOM     16  C   UNL     1      -9.405   4.108   6.825  1.00  0.00     0.000 C 
BRANCH  16  17
ATOM     17  C   UNL     1      -8.149   4.254   7.705  1.00  0.00     0.000 C 
BRANCH  17  18
ATOM     18  C   UNL     1      -6.868   4.653   6.949  1.00  0.00     0.000 C 
BRANCH  18  19
ATOM     19  C   UNL     1      -5.852   3.514   6.736  1.00  0.00     0.000 C 
BRANCH  19  20
ATOM     20  C   UNL     1      -6.185   2.230   7.524  1.00  0.00     0.006 C 
BRANCH  20  21
ATOM     21  C   UNL     1      -5.157   1.937   8.625  1.00  0.00     0.053 C 
BRANCH  21  22
ATOM     22  C   UNL     1      -3.865   1.474   8.030  1.00  0.00     0.041 C 
ATOM     23  O   UNL     1      -3.864   0.797   6.969  1.00  0.00    -0.550 OA
ATOM     24  O   UNL     1      -2.664   1.756   8.669  1.00  0.00    -0.550 OA
ENDBRANCH  21  22
ENDBRANCH  20  21
ENDBRANCH  19  20
ENDBRANCH  18  19
ENDBRANCH  17  18
ENDBRANCH  16  17
ENDBRANCH  15  16
ENDBRANCH  14  15
ENDBRANCH  13  14
ENDBRANCH   1  13
TORSDOF 20
ENDMDL
MODEL 8
REMARK VINA RESULT:    -4.067     12.387     14.314
REMARK INTER + INTRA:         -11.015
REMARK INTER:                  -6.521
REMARK INTRA:                  -4.494
REMARK UNBOUND:                -2.192
REMARK SMILES CCCCCCCCCCCCCCCCCCCCCC(=O)[O-]
REMARK SMILES IDX 12 1 11 2 10 3 9 4 8 5 7 6 6 7 5 8 4 9 3 10 2 11 1 12 13 13
REMARK SMILES IDX 14 14 15 15 16 16 17 17 18 18 19 19 20 20 21 21 22 22 23 23
REMARK SMILES IDX 24 24
REMARK H PARENT
REMARK Flexibility Score: inf
ROOT
ATOM      1  C   UNL     1      -8.963   1.118   8.354  1.00  0.00     0.000 C 
ENDROOT
BRANCH   1   2
ATOM      2  C   UNL     1      -8.779   2.247   9.379  1.00  0.00     0.000 C 
BRANCH   2   3
ATOM      3  C   UNL     1      -9.301   3.601   8.871  1.00  0.00     0.000 C 
BRANCH   3   4
ATOM      4  C   UNL     1     -10.145   3.465   7.590  1.00  0.00    -0.000 C 
BRANCH   4   5
ATOM      5  C   UNL     1      -9.808   4.548   6.548  1.00  0.00    -0.000 C 
BRANCH   5   6
ATOM      6  C   UNL     1      -9.456   3.989   5.156  1.00  0.00    -0.000 C 
BRANCH   6   7
ATOM      7  C   UNL     1      -7.937   3.870   4.938  1.00  0.00    -0.000 C 
BRANCH   7   8
ATOM      8  C   UNL     1      -7.369   2.532   5.437  1.00  0.00    -0.000 C 
BRANCH   8   9
ATOM      9  C   UNL     1      -6.161   2.710   6.369  1.00  0.00    -0.000 C 
BRANCH   9  10
ATOM     10  C   UNL     1      -6.154   4.112   6.997  1.00  0.00    -0.000 C 
BRANCH  10  11
ATOM     11  C   UNL     1      -5.690   4.103   8.462  1.00  0.00    -0.003 C 
ATOM     12  C   UNL     1      -4.382   3.337   8.665  1.00  0.00     0.004 C 
ENDBRANCH  10  11
ENDBRANCH   9  10
ENDBRANCH   8   9
ENDBRANCH   7   8
ENDBRANCH   6   7
ENDBRANCH   5   6
ENDBRANCH   4   5
ENDBRANCH   3   4
ENDBRANCH   2   3
ENDBRANCH   1   2
BRANCH   1  13
ATOM     13  C   UNL     1      -9.583  -0.126   9.010  1.00  0.00     0.000 C 
BRANCH  13  14
ATOM     14  C   UNL     1     -10.443   0.235  10.241  1.00  0.00     0.000 C 
BRANCH  14  15
ATOM     15  C   UNL     1     -11.957   0.184   9.970  1.00  0.00     0.000 C 
BRANCH  15  16
ATOM     16  C   UNL     1     -12.595   1.581   9.896  1.00  0.00     0.000 C 
BRANCH  16  17
ATOM     17  C   UNL     1     -13.311   1.839   8.557  1.00  0.00     0.000 C 
BRANCH  17  18
ATOM     18  C   UNL     1     -13.185   0.706   7.522  1.00  0.00     0.000 C 
BRANCH  18  19
ATOM     19  C   UNL     1     -12.316   1.036   6.293  1.00  0.00     0.000 C 
BRANCH  19  20
ATOM     20  C   UNL     1     -11.432  -0.138   5.823  1.00  0.00     0.006 C 
BRANCH  20  21
ATOM     21  C   UNL     1     -10.307   0.316   4.885  1.00  0.00     0.053 C 
BRANCH  21  22
ATOM     22  C   UNL     1      -9.218  -0.708   4.833  1.00  0.00     0.041 C 
ATOM     23  O   UNL     1      -9.120  -1.573   5.741  1.00  0.00    -0.550 OA
ATOM     24  O   UNL     1      -8.286  -0.681   3.802  1.00  0.00    -0.550 OA
ENDBRANCH  21  22
ENDBRANCH  20  21
ENDBRANCH  19  20
ENDBRANCH  18  19
ENDBRANCH  17  18
ENDBRANCH  16  17
ENDBRANCH  15  16
ENDBRANCH  14  15
ENDBRANCH  13  14
ENDBRANCH   1  13
TORSDOF 20
ENDMDL
MODEL 9
REMARK VINA RESULT:    -4.060      1.486      3.732
REMARK INTER + INTRA:         -10.999
REMARK INTER:                  -8.099
REMARK INTRA:                  -2.900
REMARK UNBOUND:                -2.192
REMARK SMILES CCCCCCCCCCCCCCCCCCCCCC(=O)[O-]
REMARK SMILES IDX 12 1 11 2 10 3 9 4 8 5 7 6 6 7 5 8 4 9 3 10 2 11 1 12 13 13
REMARK SMILES IDX 14 14 15 15 16 16 17 17 18 18 19 19 20 20 21 21 22 22 23 23
REMARK SMILES IDX 24 24
REMARK H PARENT
REMARK Flexibility Score: inf
ROOT
ATOM      1  C   UNL     1      -0.971 -12.514   4.763  1.00  0.00     0.000 C 
ENDROOT
BRANCH   1   2
ATOM      2  C   UNL     1      -0.326 -12.309   6.142  1.00  0.00     0.000 C 
BRANCH   2   3
ATOM      3  C   UNL     1       0.423 -10.972   6.254  1.00  0.00     0.000 C 
BRANCH   3   4
ATOM      4  C   UNL     1       0.814 -10.634   7.704  1.00  0.00    -0.000 C 
BRANCH   4   5
ATOM      5  C   UNL     1       0.774  -9.120   7.986  1.00  0.00    -0.000 C 
BRANCH   5   6
ATOM      6  C   UNL     1       0.064  -8.746   9.301  1.00  0.00    -0.000 C 
BRANCH   6   7
ATOM      7  C   UNL     1      -0.924  -9.831   9.763  1.00  0.00    -0.000 C 
BRANCH   7   8
ATOM      8  C   UNL     1      -2.381  -9.497   9.407  1.00  0.00    -0.000 C 
BRANCH   8   9
ATOM      9  C   UNL     1      -2.998 -10.501   8.422  1.00  0.00    -0.000 C 
BRANCH   9  10
ATOM     10  C   UNL     1      -3.022  -9.928   6.997  1.00  0.00    -0.000 C 
BRANCH  10  11
ATOM     11  C   UNL     1      -2.877  -8.399   6.971  1.00  0.00    -0.003 C 
ATOM     12  C   UNL     1      -2.016  -7.905   5.807  1.00  0.00     0.004 C 
ENDBRANCH  10  11
ENDBRANCH   9  10
ENDBRANCH   8   9
ENDBRANCH   7   8
ENDBRANCH   6   7
ENDBRANCH   5   6
ENDBRANCH   4   5
ENDBRANCH   3   4
ENDBRANCH   2   3
ENDBRANCH   1   2
BRANCH   1  13
ATOM     13  C   UNL     1      -2.053 -13.604   4.818  1.00  0.00     0.000 C 
BRANCH  13  14
ATOM     14  C   UNL     1      -3.457 -13.016   5.077  1.00  0.00     0.000 C 
BRANCH  14  15
ATOM     15  C   UNL     1      -4.141 -13.586   6.332  1.00  0.00     0.000 C 
BRANCH  15  16
ATOM     16  C   UNL     1      -5.675 -13.525   6.254  1.00  0.00     0.000 C 
BRANCH  16  17
ATOM     17  C   UNL     1      -6.267 -12.351   7.057  1.00  0.00     0.000 C 
BRANCH  17  18
ATOM     18  C   UNL     1      -7.162 -11.395   6.247  1.00  0.00     0.000 C 
BRANCH  18  19
ATOM     19  C   UNL     1      -8.560 -11.146   6.845  1.00  0.00     0.000 C 
BRANCH  19  20
ATOM     20  C   UNL     1      -9.659 -10.925   5.785  1.00  0.00     0.006 C 
BRANCH  20  21
ATOM     21  C   UNL     1      -9.136 -10.187   4.546  1.00  0.00     0.053 C 
BRANCH  21  22
ATOM     22  C   UNL     1      -9.882 -10.615   3.323  1.00  0.00     0.041 C 
ATOM     23  O   UNL     1      -9.256 -10.928   2.277  1.00  0.00    -0.550 OA
ATOM     24  O   UNL     1     -11.272 -10.629   3.325  1.00  0.00    -0.550 OA
ENDBRANCH  21  22
ENDBRANCH  20  21
ENDBRANCH  19  20
ENDBRANCH  18  19
ENDBRANCH  17  18
ENDBRANCH  16  17
ENDBRANCH  15  16
ENDBRANCH  14  15
ENDBRANCH  13  14
ENDBRANCH   1  13
TORSDOF 20
ENDMDL
