MODEL 1
REMARK VINA RESULT:    -5.872      0.000      0.000
REMARK INTER + INTRA:         -10.184
REMARK INTER:                  -8.619
REMARK INTRA:                  -1.565
REMARK UNBOUND:                -1.565
REMARK SMILES O=c1c(O[C@H]2O[C@H](CO)[C@@H](O)[C@@H](O)[C@@H]2O)c(-c2ccc(O)c(O)c2)oc2cc(O)cc(O)c12
REMARK SMILES IDX 4 1 3 2 16 3 25 4 2 5 26 6 1 7 33 8 27 9 31 10 28 11 30 12
REMARK SMILES IDX 17 13 18 14 19 15 20 16 24 17 22 18 21 19 23 21 32 23 29 25
REMARK SMILES IDX 5 27 14 28 6 29 12 30 7 31 10 32 15 33 13 35 8 37 9 38 11 40
REMARK H PARENT 21 20 23 22 32 24 29 26 15 34 13 36 9 39 11 41
REMARK Flexibility Score: inf
ROOT
ATOM      1  O   UNL     1       7.687 -33.677  15.637  1.00  0.00    -0.454 OA
ENDROOT
BRANCH   1   2
ATOM      2  C   UNL     1       7.466 -34.879  16.344  1.00  0.00     0.214 A 
ATOM      3  C   UNL     1       6.748 -34.816  17.551  1.00  0.00     0.180 A 
ATOM      4  O   UNL     1       6.585 -35.902  18.293  1.00  0.00    -0.452 OA
ATOM      5  C   UNL     1       7.949 -36.139  15.920  1.00  0.00     0.239 A 
ATOM      6  C   UNL     1       7.027 -37.101  17.938  1.00  0.00     0.146 A 
ATOM      7  O   UNL     1       8.605 -36.225  14.851  1.00  0.00    -0.285 OA
ATOM      8  C   UNL     1       7.703 -37.292  16.707  1.00  0.00     0.111 A 
ATOM      9  C   UNL     1       6.813 -38.172  18.809  1.00  0.00     0.094 A 
ATOM     10  C   UNL     1       8.111 -38.617  16.357  1.00  0.00     0.134 A 
ATOM     11  C   UNL     1       7.268 -39.449  18.484  1.00  0.00     0.123 A 
ATOM     12  C   UNL     1       7.913 -39.664  17.266  1.00  0.00     0.093 A 
BRANCH   3  13
ATOM     13  C   UNL     1       6.190 -33.549  18.057  1.00  0.00     0.025 A 
ATOM     14  C   UNL     1       7.017 -32.588  18.652  1.00  0.00     0.016 A 
ATOM     15  C   UNL     1       6.482 -31.376  19.101  1.00  0.00     0.051 A 
ATOM     16  C   UNL     1       5.116 -31.108  18.943  1.00  0.00     0.157 A 
ATOM     17  C   UNL     1       4.826 -33.272  17.881  1.00  0.00     0.062 A 
ATOM     18  C   UNL     1       4.286 -32.056  18.326  1.00  0.00     0.158 A 
BRANCH  16  19
ATOM     19  O   UNL     1       4.578 -29.903  19.388  1.00  0.00    -0.504 OA
ATOM     20  H   UNL     1       4.523 -29.092  18.783  1.00  0.00     0.293 HD
ENDBRANCH  16  19
BRANCH  18  21
ATOM     21  O   UNL     1       2.929 -31.782  18.157  1.00  0.00    -0.504 OA
ATOM     22  H   UNL     1       2.530 -30.888  18.419  1.00  0.00     0.293 HD
ENDBRANCH  18  21
ENDBRANCH   3  13
BRANCH  10  23
ATOM     23  O   UNL     1       8.696 -38.963  15.135  1.00  0.00    -0.507 OA
ATOM     24  H   UNL     1       9.618 -39.357  15.023  1.00  0.00     0.293 HD
ENDBRANCH  10  23
BRANCH  11  25
ATOM     25  O   UNL     1       7.087 -40.515  19.365  1.00  0.00    -0.508 OA
ATOM     26  H   UNL     1       6.168 -40.757  19.720  1.00  0.00     0.293 HD
ENDBRANCH  11  25
ENDBRANCH   1   2
BRANCH   1  27
ATOM     27  C   UNL     1       7.005 -33.243  14.455  1.00  0.00     0.339 C 
ATOM     28  C   UNL     1       8.014 -32.779  13.392  1.00  0.00     0.214 C 
ATOM     29  O   UNL     1       5.993 -32.295  14.772  1.00  0.00    -0.332 OA
ATOM     30  C   UNL     1       8.700 -31.445  13.782  1.00  0.00     0.180 C 
ATOM     31  C   UNL     1       6.341 -30.914  14.700  1.00  0.00     0.179 C 
ATOM     32  C   UNL     1       7.858 -30.582  14.753  1.00  0.00     0.177 C 
BRANCH  28  33
ATOM     33  O   UNL     1       7.348 -32.655  12.162  1.00  0.00    -0.384 OA
ATOM     34  H   UNL     1       7.775 -33.300  11.538  1.00  0.00     0.211 HD
ENDBRANCH  28  33
BRANCH  30  35
ATOM     35  O   UNL     1       9.995 -31.664  14.290  1.00  0.00    -0.387 OA
ATOM     36  H   UNL     1       9.948 -31.600  15.279  1.00  0.00     0.211 HD
ENDBRANCH  30  35
BRANCH  31  37
ATOM     37  C   UNL     1       5.652 -30.253  13.491  1.00  0.00     0.191 C 
BRANCH  37  38
ATOM     38  O   UNL     1       4.824 -31.166  12.819  1.00  0.00    -0.394 OA
ATOM     39  H   UNL     1       5.311 -32.034  12.789  1.00  0.00     0.210 HD
ENDBRANCH  37  38
ENDBRANCH  31  37
BRANCH  32  40
ATOM     40  O   UNL     1       8.353 -30.627  16.071  1.00  0.00    -0.387 OA
ATOM     41  H   UNL     1       9.295 -30.938  16.042  1.00  0.00     0.211 HD
ENDBRANCH  32  40
ENDBRANCH   1  27
TORSDOF 12
ENDMDL
MODEL 2
REMARK VINA RESULT:    -5.828      2.024      6.130
REMARK INTER + INTRA:         -10.119
REMARK INTER:                  -8.392
REMARK INTRA:                  -1.728
REMARK UNBOUND:                -1.565
REMARK SMILES O=c1c(O[C@H]2O[C@H](CO)[C@@H](O)[C@@H](O)[C@@H]2O)c(-c2ccc(O)c(O)c2)oc2cc(O)cc(O)c12
REMARK SMILES IDX 4 1 3 2 16 3 25 4 2 5 26 6 1 7 33 8 27 9 31 10 28 11 30 12
REMARK SMILES IDX 17 13 18 14 19 15 20 16 24 17 22 18 21 19 23 21 32 23 29 25
REMARK SMILES IDX 5 27 14 28 6 29 12 30 7 31 10 32 15 33 13 35 8 37 9 38 11 40
REMARK H PARENT 21 20 23 22 32 24 29 26 15 34 13 36 9 39 11 41
REMARK Flexibility Score: inf
ROOT
ATOM      1  O   UNL     1       7.564 -34.013  17.398  1.00  0.00    -0.454 OA
ENDROOT
BRANCH   1   2
ATOM      2  C   UNL     1       6.191 -33.787  17.631  1.00  0.00     0.214 A 
ATOM      3  C   UNL     1       5.346 -34.905  17.756  1.00  0.00     0.180 A 
ATOM      4  O   UNL     1       4.038 -34.746  17.894  1.00  0.00    -0.452 OA
ATOM      5  C   UNL     1       5.610 -32.500  17.718  1.00  0.00     0.239 A 
ATOM      6  C   UNL     1       3.451 -33.560  17.972  1.00  0.00     0.146 A 
ATOM      7  O   UNL     1       6.337 -31.481  17.596  1.00  0.00    -0.285 OA
ATOM      8  C   UNL     1       4.215 -32.367  17.928  1.00  0.00     0.111 A 
ATOM      9  C   UNL     1       2.060 -33.514  18.098  1.00  0.00     0.094 A 
ATOM     10  C   UNL     1       3.530 -31.119  18.068  1.00  0.00     0.134 A 
ATOM     11  C   UNL     1       1.398 -32.290  18.175  1.00  0.00     0.123 A 
ATOM     12  C   UNL     1       2.132 -31.105  18.158  1.00  0.00     0.093 A 
BRANCH   3  13
ATOM     13  C   UNL     1       5.870 -36.282  17.701  1.00  0.00     0.025 A 
ATOM     14  C   UNL     1       5.979 -36.959  16.479  1.00  0.00     0.016 A 
ATOM     15  C   UNL     1       6.504 -38.254  16.433  1.00  0.00     0.051 A 
ATOM     16  C   UNL     1       6.941 -38.878  17.609  1.00  0.00     0.157 A 
ATOM     17  C   UNL     1       6.326 -36.900  18.875  1.00  0.00     0.062 A 
ATOM     18  C   UNL     1       6.858 -38.198  18.832  1.00  0.00     0.158 A 
BRANCH  16  19
ATOM     19  O   UNL     1       7.466 -40.168  17.568  1.00  0.00    -0.504 OA
ATOM     20  H   UNL     1       8.079 -40.467  16.820  1.00  0.00     0.293 HD
ENDBRANCH  16  19
BRANCH  18  21
ATOM     21  O   UNL     1       7.306 -38.815  20.000  1.00  0.00    -0.504 OA
ATOM     22  H   UNL     1       6.660 -39.203  20.678  1.00  0.00     0.293 HD
ENDBRANCH  18  21
ENDBRANCH   3  13
BRANCH  10  23
ATOM     23  O   UNL     1       4.166 -29.877  18.141  1.00  0.00    -0.507 OA
ATOM     24  H   UNL     1       4.731 -29.557  18.913  1.00  0.00     0.293 HD
ENDBRANCH  10  23
BRANCH  11  25
ATOM     25  O   UNL     1       0.008 -32.238  18.267  1.00  0.00    -0.508 OA
ATOM     26  H   UNL     1      -0.454 -31.765  19.037  1.00  0.00     0.293 HD
ENDBRANCH  11  25
ENDBRANCH   1   2
BRANCH   1  27
ATOM     27  C   UNL     1       8.203 -34.159  16.126  1.00  0.00     0.339 C 
ATOM     28  C   UNL     1       9.674 -34.571  16.306  1.00  0.00     0.214 C 
ATOM     29  O   UNL     1       8.001 -33.004  15.320  1.00  0.00    -0.332 OA
ATOM     30  C   UNL     1      10.535 -33.418  16.881  1.00  0.00     0.180 C 
ATOM     31  C   UNL     1       9.007 -31.994  15.357  1.00  0.00     0.179 C 
ATOM     32  C   UNL     1       9.958 -32.012  16.585  1.00  0.00     0.177 C 
BRANCH  28  33
ATOM     33  O   UNL     1      10.177 -35.000  15.068  1.00  0.00    -0.384 OA
ATOM     34  H   UNL     1      11.130 -35.241  15.213  1.00  0.00     0.211 HD
ENDBRANCH  28  33
BRANCH  30  35
ATOM     35  O   UNL     1      10.770 -33.591  18.258  1.00  0.00    -0.387 OA
ATOM     36  H   UNL     1      11.316 -32.825  18.572  1.00  0.00     0.211 HD
ENDBRANCH  30  35
BRANCH  31  37
ATOM     37  C   UNL     1       9.787 -31.969  14.028  1.00  0.00     0.191 C 
BRANCH  37  38
ATOM     38  O   UNL     1       9.276 -32.914  13.124  1.00  0.00    -0.394 OA
ATOM     39  H   UNL     1       9.462 -32.572  12.208  1.00  0.00     0.210 HD
ENDBRANCH  37  38
ENDBRANCH  31  37
BRANCH  32  40
ATOM     40  O   UNL     1       9.352 -31.437  17.719  1.00  0.00    -0.387 OA
ATOM     41  H   UNL     1       9.427 -32.076  18.474  1.00  0.00     0.211 HD
ENDBRANCH  32  40
ENDBRANCH   1  27
TORSDOF 12
ENDMDL
MODEL 3
REMARK VINA RESULT:    -5.727      0.982      2.085
REMARK INTER + INTRA:          -9.971
REMARK INTER:                  -8.592
REMARK INTRA:                  -1.379
REMARK UNBOUND:                -1.565
REMARK SMILES O=c1c(O[C@H]2O[C@H](CO)[C@@H](O)[C@@H](O)[C@@H]2O)c(-c2ccc(O)c(O)c2)oc2cc(O)cc(O)c12
REMARK SMILES IDX 4 1 3 2 16 3 25 4 2 5 26 6 1 7 33 8 27 9 31 10 28 11 30 12
REMARK SMILES IDX 17 13 18 14 19 15 20 16 24 17 22 18 21 19 23 21 32 23 29 25
REMARK SMILES IDX 5 27 14 28 6 29 12 30 7 31 10 32 15 33 13 35 8 37 9 38 11 40
REMARK H PARENT 21 20 23 22 32 24 29 26 15 34 13 36 9 39 11 41
REMARK Flexibility Score: inf
ROOT
ATOM      1  O   UNL     1       7.647 -33.712  15.657  1.00  0.00    -0.454 OA
ENDROOT
BRANCH   1   2
ATOM      2  C   UNL     1       7.431 -34.902  16.384  1.00  0.00     0.214 A 
ATOM      3  C   UNL     1       6.714 -34.822  17.592  1.00  0.00     0.180 A 
ATOM      4  O   UNL     1       6.555 -35.896  18.351  1.00  0.00    -0.452 OA
ATOM      5  C   UNL     1       7.917 -36.168  15.981  1.00  0.00     0.239 A 
ATOM      6  C   UNL     1       7.000 -37.099  18.016  1.00  0.00     0.146 A 
ATOM      7  O   UNL     1       8.573 -36.270  14.913  1.00  0.00    -0.285 OA
ATOM      8  C   UNL     1       7.675 -37.308  16.787  1.00  0.00     0.111 A 
ATOM      9  C   UNL     1       6.790 -38.156  18.905  1.00  0.00     0.094 A 
ATOM     10  C   UNL     1       8.086 -38.638  16.459  1.00  0.00     0.134 A 
ATOM     11  C   UNL     1       7.248 -39.437  18.600  1.00  0.00     0.123 A 
ATOM     12  C   UNL     1       7.892 -39.670  17.386  1.00  0.00     0.093 A 
BRANCH   3  13
ATOM     13  C   UNL     1       6.152 -33.548  18.076  1.00  0.00     0.025 A 
ATOM     14  C   UNL     1       6.915 -32.684  18.872  1.00  0.00     0.016 A 
ATOM     15  C   UNL     1       6.383 -31.465  19.302  1.00  0.00     0.051 A 
ATOM     16  C   UNL     1       5.087 -31.090  18.925  1.00  0.00     0.157 A 
ATOM     17  C   UNL     1       4.861 -33.163  17.682  1.00  0.00     0.062 A 
ATOM     18  C   UNL     1       4.326 -31.939  18.108  1.00  0.00     0.158 A 
BRANCH  16  19
ATOM     19  O   UNL     1       4.553 -29.876  19.350  1.00  0.00    -0.504 OA
ATOM     20  H   UNL     1       5.148 -29.101  19.618  1.00  0.00     0.293 HD
ENDBRANCH  16  19
BRANCH  18  21
ATOM     21  O   UNL     1       3.040 -31.558  17.722  1.00  0.00    -0.504 OA
ATOM     22  H   UNL     1       2.876 -30.723  17.173  1.00  0.00     0.293 HD
ENDBRANCH  18  21
ENDBRANCH   3  13
BRANCH  10  23
ATOM     23  O   UNL     1       8.672 -39.002  15.243  1.00  0.00    -0.507 OA
ATOM     24  H   UNL     1       8.707 -39.940  14.873  1.00  0.00     0.293 HD
ENDBRANCH  10  23
BRANCH  11  25
ATOM     25  O   UNL     1       7.070 -40.489  19.498  1.00  0.00    -0.508 OA
ATOM     26  H   UNL     1       6.448 -41.262  19.291  1.00  0.00     0.293 HD
ENDBRANCH  11  25
ENDBRANCH   1   2
BRANCH   1  27
ATOM     27  C   UNL     1       8.892 -33.026  15.492  1.00  0.00     0.339 C 
ATOM     28  C   UNL     1       8.797 -31.597  16.054  1.00  0.00     0.214 C 
ATOM     29  O   UNL     1       9.343 -33.109  14.146  1.00  0.00    -0.332 OA
ATOM     30  C   UNL     1       7.899 -30.686  15.180  1.00  0.00     0.180 C 
ATOM     31  C   UNL     1       8.997 -32.039  13.269  1.00  0.00     0.179 C 
ATOM     32  C   UNL     1       7.800 -31.150  13.706  1.00  0.00     0.177 C 
BRANCH  28  33
ATOM     33  O   UNL     1      10.093 -31.066  16.158  1.00  0.00    -0.384 OA
ATOM     34  H   UNL     1      10.116 -30.525  16.990  1.00  0.00     0.211 HD
ENDBRANCH  28  33
BRANCH  30  35
ATOM     35  O   UNL     1       6.620 -30.529  15.749  1.00  0.00    -0.387 OA
ATOM     36  H   UNL     1       6.676 -30.800  16.702  1.00  0.00     0.211 HD
ENDBRANCH  30  35
BRANCH  31  37
ATOM     37  C   UNL     1      10.244 -31.197  12.936  1.00  0.00     0.191 C 
BRANCH  37  38
ATOM     38  O   UNL     1       9.885 -29.971  12.354  1.00  0.00    -0.394 OA
ATOM     39  H   UNL     1      10.095 -29.260  13.018  1.00  0.00     0.210 HD
ENDBRANCH  37  38
ENDBRANCH  31  37
BRANCH  32  40
ATOM     40  O   UNL     1       6.566 -31.768  13.425  1.00  0.00    -0.387 OA
ATOM     41  H   UNL     1       6.506 -32.606  13.952  1.00  0.00     0.211 HD
ENDBRANCH  32  40
ENDBRANCH   1  27
TORSDOF 12
ENDMDL
MODEL 4
REMARK VINA RESULT:    -5.636      2.537      6.656
REMARK INTER + INTRA:          -9.837
REMARK INTER:                  -8.510
REMARK INTRA:                  -1.327
REMARK UNBOUND:                -1.565
REMARK SMILES O=c1c(O[C@H]2O[C@H](CO)[C@@H](O)[C@@H](O)[C@@H]2O)c(-c2ccc(O)c(O)c2)oc2cc(O)cc(O)c12
REMARK SMILES IDX 4 1 3 2 16 3 25 4 2 5 26 6 1 7 33 8 27 9 31 10 28 11 30 12
REMARK SMILES IDX 17 13 18 14 19 15 20 16 24 17 22 18 21 19 23 21 32 23 29 25
REMARK SMILES IDX 5 27 14 28 6 29 12 30 7 31 10 32 15 33 13 35 8 37 9 38 11 40
REMARK H PARENT 21 20 23 22 32 24 29 26 15 34 13 36 9 39 11 41
REMARK Flexibility Score: inf
ROOT
ATOM      1  O   UNL     1       6.250 -33.159  16.931  1.00  0.00    -0.454 OA
ENDROOT
BRANCH   1   2
ATOM      2  C   UNL     1       4.914 -33.242  17.379  1.00  0.00     0.214 A 
ATOM      3  C   UNL     1       4.376 -34.517  17.630  1.00  0.00     0.180 A 
ATOM      4  O   UNL     1       3.103 -34.654  17.973  1.00  0.00    -0.452 OA
ATOM      5  C   UNL     1       4.077 -32.117  17.565  1.00  0.00     0.239 A 
ATOM      6  C   UNL     1       2.282 -33.628  18.151  1.00  0.00     0.146 A 
ATOM      7  O   UNL     1       4.525 -30.965  17.336  1.00  0.00    -0.285 OA
ATOM      8  C   UNL     1       2.738 -32.295  17.993  1.00  0.00     0.111 A 
ATOM      9  C   UNL     1       0.954 -33.893  18.495  1.00  0.00     0.094 A 
ATOM     10  C   UNL     1       1.818 -31.231  18.248  1.00  0.00     0.134 A 
ATOM     11  C   UNL     1       0.051 -32.848  18.683  1.00  0.00     0.123 A 
ATOM     12  C   UNL     1       0.484 -31.529  18.558  1.00  0.00     0.093 A 
BRANCH   3  13
ATOM     13  C   UNL     1       5.183 -35.742  17.483  1.00  0.00     0.025 A 
ATOM     14  C   UNL     1       6.069 -36.142  18.492  1.00  0.00     0.016 A 
ATOM     15  C   UNL     1       6.809 -37.321  18.356  1.00  0.00     0.051 A 
ATOM     16  C   UNL     1       6.655 -38.121  17.216  1.00  0.00     0.157 A 
ATOM     17  C   UNL     1       5.015 -36.554  16.351  1.00  0.00     0.062 A 
ATOM     18  C   UNL     1       5.752 -37.740  16.213  1.00  0.00     0.158 A 
BRANCH  16  19
ATOM     19  O   UNL     1       7.389 -39.297  17.077  1.00  0.00    -0.504 OA
ATOM     20  H   UNL     1       7.201 -40.109  17.653  1.00  0.00     0.293 HD
ENDBRANCH  16  19
BRANCH  18  21
ATOM     21  O   UNL     1       5.589 -38.544  15.086  1.00  0.00    -0.504 OA
ATOM     22  H   UNL     1       6.382 -38.856  14.537  1.00  0.00     0.293 HD
ENDBRANCH  18  21
ENDBRANCH   3  13
BRANCH  10  23
ATOM     23  O   UNL     1       2.158 -29.875  18.226  1.00  0.00    -0.507 OA
ATOM     24  H   UNL     1       3.038 -29.502  17.904  1.00  0.00     0.293 HD
ENDBRANCH  10  23
BRANCH  11  25
ATOM     25  O   UNL     1      -1.284 -33.108  18.994  1.00  0.00    -0.508 OA
ATOM     26  H   UNL     1      -1.932 -33.453  18.295  1.00  0.00     0.293 HD
ENDBRANCH  11  25
ENDBRANCH   1   2
BRANCH   1  27
ATOM     27  C   UNL     1       7.339 -32.522  17.605  1.00  0.00     0.339 C 
ATOM     28  C   UNL     1       8.265 -31.825  16.593  1.00  0.00     0.214 C 
ATOM     29  O   UNL     1       7.993 -33.429  18.485  1.00  0.00    -0.332 OA
ATOM     30  C   UNL     1       9.066 -32.841  15.741  1.00  0.00     0.180 C 
ATOM     31  C   UNL     1       9.126 -34.132  17.981  1.00  0.00     0.179 C 
ATOM     32  C   UNL     1       9.256 -34.212  16.435  1.00  0.00     0.177 C 
BRANCH  28  33
ATOM     33  O   UNL     1       9.131 -30.967  17.290  1.00  0.00    -0.384 OA
ATOM     34  H   UNL     1       9.381 -31.433  18.131  1.00  0.00     0.211 HD
ENDBRANCH  28  33
BRANCH  30  35
ATOM     35  O   UNL     1       8.500 -32.995  14.460  1.00  0.00    -0.387 OA
ATOM     36  H   UNL     1       9.148 -33.494  13.899  1.00  0.00     0.211 HD
ENDBRANCH  30  35
BRANCH  31  37
ATOM     37  C   UNL     1      10.417 -33.603  18.637  1.00  0.00     0.191 C 
BRANCH  37  38
ATOM     38  O   UNL     1      10.502 -34.004  19.980  1.00  0.00    -0.394 OA
ATOM     39  H   UNL     1      11.233 -34.677  20.037  1.00  0.00     0.210 HD
ENDBRANCH  37  38
ENDBRANCH  31  37
BRANCH  32  40
ATOM     40  O   UNL     1       8.414 -35.203  15.895  1.00  0.00    -0.387 OA
ATOM     41  H   UNL     1       7.472 -34.905  15.995  1.00  0.00     0.211 HD
ENDBRANCH  32  40
ENDBRANCH   1  27
TORSDOF 12
ENDMDL
MODEL 5
REMARK VINA RESULT:    -5.516      1.764      4.464
REMARK INTER + INTRA:          -9.661
REMARK INTER:                  -8.056
REMARK INTRA:                  -1.605
REMARK UNBOUND:                -1.565
REMARK SMILES O=c1c(O[C@H]2O[C@H](CO)[C@@H](O)[C@@H](O)[C@@H]2O)c(-c2ccc(O)c(O)c2)oc2cc(O)cc(O)c12
REMARK SMILES IDX 4 1 3 2 16 3 25 4 2 5 26 6 1 7 33 8 27 9 31 10 28 11 30 12
REMARK SMILES IDX 17 13 18 14 19 15 20 16 24 17 22 18 21 19 23 21 32 23 29 25
REMARK SMILES IDX 5 27 14 28 6 29 12 30 7 31 10 32 15 33 13 35 8 37 9 38 11 40
REMARK H PARENT 21 20 23 22 32 24 29 26 15 34 13 36 9 39 11 41
REMARK Flexibility Score: inf
ROOT
ATOM      1  O   UNL     1       6.385 -33.779  17.353  1.00  0.00    -0.454 OA
ENDROOT
BRANCH   1   2
ATOM      2  C   UNL     1       6.684 -35.155  17.444  1.00  0.00     0.214 A 
ATOM      3  C   UNL     1       7.017 -35.842  16.263  1.00  0.00     0.180 A 
ATOM      4  O   UNL     1       7.226 -37.151  16.283  1.00  0.00    -0.452 OA
ATOM      5  C   UNL     1       6.641 -35.890  18.653  1.00  0.00     0.239 A 
ATOM      6  C   UNL     1       7.189 -37.879  17.390  1.00  0.00     0.146 A 
ATOM      7  O   UNL     1       6.334 -35.307  19.723  1.00  0.00    -0.285 OA
ATOM      8  C   UNL     1       6.931 -37.277  18.647  1.00  0.00     0.111 A 
ATOM      9  C   UNL     1       7.407 -39.255  17.288  1.00  0.00     0.094 A 
ATOM     10  C   UNL     1       6.954 -38.107  19.812  1.00  0.00     0.134 A 
ATOM     11  C   UNL     1       7.369 -40.063  18.423  1.00  0.00     0.123 A 
ATOM     12  C   UNL     1       7.142 -39.488  19.673  1.00  0.00     0.093 A 
BRANCH   3  13
ATOM     13  C   UNL     1       7.107 -35.151  14.963  1.00  0.00     0.025 A 
ATOM     14  C   UNL     1       8.258 -34.437  14.609  1.00  0.00     0.016 A 
ATOM     15  C   UNL     1       8.344 -33.810  13.362  1.00  0.00     0.051 A 
ATOM     16  C   UNL     1       7.285 -33.907  12.450  1.00  0.00     0.157 A 
ATOM     17  C   UNL     1       6.055 -35.266  14.042  1.00  0.00     0.062 A 
ATOM     18  C   UNL     1       6.139 -34.642  12.788  1.00  0.00     0.158 A 
BRANCH  16  19
ATOM     19  O   UNL     1       7.367 -33.285  11.207  1.00  0.00    -0.504 OA
ATOM     20  H   UNL     1       8.012 -32.522  11.037  1.00  0.00     0.293 HD
ENDBRANCH  16  19
BRANCH  18  21
ATOM     21  O   UNL     1       5.091 -34.750  11.874  1.00  0.00    -0.504 OA
ATOM     22  H   UNL     1       4.862 -35.631  11.431  1.00  0.00     0.293 HD
ENDBRANCH  18  21
ENDBRANCH   3  13
BRANCH  10  23
ATOM     23  O   UNL     1       6.815 -37.631  21.119  1.00  0.00    -0.507 OA
ATOM     24  H   UNL     1       6.910 -36.667  21.400  1.00  0.00     0.293 HD
ENDBRANCH  10  23
BRANCH  11  25
ATOM     25  O   UNL     1       7.553 -41.441  18.322  1.00  0.00    -0.508 OA
ATOM     26  H   UNL     1       7.466 -41.923  17.434  1.00  0.00     0.293 HD
ENDBRANCH  11  25
ENDBRANCH   1   2
BRANCH   1  27
ATOM     27  C   UNL     1       5.083 -33.190  17.282  1.00  0.00     0.339 C 
ATOM     28  C   UNL     1       4.969 -32.284  16.044  1.00  0.00     0.214 C 
ATOM     29  O   UNL     1       4.740 -32.565  18.513  1.00  0.00    -0.332 OA
ATOM     30  C   UNL     1       5.813 -30.993  16.188  1.00  0.00     0.180 C 
ATOM     31  C   UNL     1       5.019 -31.172  18.643  1.00  0.00     0.179 C 
ATOM     32  C   UNL     1       6.069 -30.585  17.660  1.00  0.00     0.177 C 
BRANCH  28  33
ATOM     33  O   UNL     1       3.615 -31.974  15.835  1.00  0.00    -0.384 OA
ATOM     34  H   UNL     1       3.379 -31.263  16.488  1.00  0.00     0.211 HD
ENDBRANCH  28  33
BRANCH  30  35
ATOM     35  O   UNL     1       7.021 -31.087  15.470  1.00  0.00    -0.387 OA
ATOM     36  H   UNL     1       7.540 -31.844  15.847  1.00  0.00     0.211 HD
ENDBRANCH  30  35
BRANCH  31  37
ATOM     37  C   UNL     1       3.708 -30.363  18.630  1.00  0.00     0.191 C 
BRANCH  37  38
ATOM     38  O   UNL     1       2.591 -31.210  18.569  1.00  0.00    -0.394 OA
ATOM     39  H   UNL     1       2.690 -31.764  17.748  1.00  0.00     0.210 HD
ENDBRANCH  37  38
ENDBRANCH  31  37
BRANCH  32  40
ATOM     40  O   UNL     1       7.384 -30.877  18.071  1.00  0.00    -0.387 OA
ATOM     41  H   UNL     1       7.889 -30.025  18.139  1.00  0.00     0.211 HD
ENDBRANCH  32  40
ENDBRANCH   1  27
TORSDOF 12
ENDMDL
MODEL 6
REMARK VINA RESULT:    -5.478     13.739     16.432
REMARK INTER + INTRA:          -9.606
REMARK INTER:                  -8.018
REMARK INTRA:                  -1.587
REMARK UNBOUND:                -1.565
REMARK SMILES O=c1c(O[C@H]2O[C@H](CO)[C@@H](O)[C@@H](O)[C@@H]2O)c(-c2ccc(O)c(O)c2)oc2cc(O)cc(O)c12
REMARK SMILES IDX 4 1 3 2 16 3 25 4 2 5 26 6 1 7 33 8 27 9 31 10 28 11 30 12
REMARK SMILES IDX 17 13 18 14 19 15 20 16 24 17 22 18 21 19 23 21 32 23 29 25
REMARK SMILES IDX 5 27 14 28 6 29 12 30 7 31 10 32 15 33 13 35 8 37 9 38 11 40
REMARK H PARENT 21 20 23 22 32 24 29 26 15 34 13 36 9 39 11 41
REMARK Flexibility Score: inf
ROOT
ATOM      1  O   UNL     1      -6.035 -44.278  15.963  1.00  0.00    -0.454 OA
ENDROOT
BRANCH   1   2
ATOM      2  C   UNL     1      -4.970 -45.187  16.139  1.00  0.00     0.214 A 
ATOM      3  C   UNL     1      -3.880 -45.113  15.253  1.00  0.00     0.180 A 
ATOM      4  O   UNL     1      -2.895 -45.996  15.325  1.00  0.00    -0.452 OA
ATOM      5  C   UNL     1      -4.949 -46.186  17.141  1.00  0.00     0.239 A 
ATOM      6  C   UNL     1      -2.838 -46.953  16.242  1.00  0.00     0.146 A 
ATOM      7  O   UNL     1      -5.914 -46.286  17.940  1.00  0.00    -0.285 OA
ATOM      8  C   UNL     1      -3.848 -47.075  17.228  1.00  0.00     0.111 A 
ATOM      9  C   UNL     1      -1.759 -47.839  16.210  1.00  0.00     0.094 A 
ATOM     10  C   UNL     1      -3.705 -48.095  18.220  1.00  0.00     0.134 A 
ATOM     11  C   UNL     1      -1.661 -48.867  17.147  1.00  0.00     0.123 A 
ATOM     12  C   UNL     1      -2.630 -48.990  18.142  1.00  0.00     0.093 A 
BRANCH   3  13
ATOM     13  C   UNL     1      -3.810 -44.089  14.194  1.00  0.00     0.025 A 
ATOM     14  C   UNL     1      -4.653 -44.153  13.078  1.00  0.00     0.016 A 
ATOM     15  C   UNL     1      -4.598 -43.161  12.094  1.00  0.00     0.051 A 
ATOM     16  C   UNL     1      -3.710 -42.085  12.227  1.00  0.00     0.157 A 
ATOM     17  C   UNL     1      -2.935 -43.001  14.338  1.00  0.00     0.062 A 
ATOM     18  C   UNL     1      -2.881 -42.002  13.355  1.00  0.00     0.158 A 
BRANCH  16  19
ATOM     19  O   UNL     1      -3.653 -41.094  11.251  1.00  0.00    -0.504 OA
ATOM     20  H   UNL     1      -3.979 -41.262  10.306  1.00  0.00     0.293 HD
ENDBRANCH  16  19
BRANCH  18  21
ATOM     21  O   UNL     1      -2.008 -40.923  13.494  1.00  0.00    -0.504 OA
ATOM     22  H   UNL     1      -1.020 -41.059  13.677  1.00  0.00     0.293 HD
ENDBRANCH  18  21
ENDBRANCH   3  13
BRANCH  10  23
ATOM     23  O   UNL     1      -4.572 -48.265  19.304  1.00  0.00    -0.507 OA
ATOM     24  H   UNL     1      -5.496 -47.869  19.377  1.00  0.00     0.293 HD
ENDBRANCH  10  23
BRANCH  11  25
ATOM     25  O   UNL     1      -0.604 -49.775  17.100  1.00  0.00    -0.508 OA
ATOM     26  H   UNL     1      -0.136 -49.997  16.228  1.00  0.00     0.293 HD
ENDBRANCH  11  25
ENDBRANCH   1   2
BRANCH   1  27
ATOM     27  C   UNL     1      -6.054 -42.899  16.347  1.00  0.00     0.339 C 
ATOM     28  C   UNL     1      -6.232 -42.766  17.869  1.00  0.00     0.214 C 
ATOM     29  O   UNL     1      -6.996 -42.168  15.570  1.00  0.00    -0.332 OA
ATOM     30  C   UNL     1      -7.657 -43.167  18.326  1.00  0.00     0.180 C 
ATOM     31  C   UNL     1      -8.308 -42.011  16.106  1.00  0.00     0.179 C 
ATOM     32  C   UNL     1      -8.725 -43.016  17.214  1.00  0.00     0.177 C 
BRANCH  28  33
ATOM     33  O   UNL     1      -5.942 -41.445  18.244  1.00  0.00    -0.384 OA
ATOM     34  H   UNL     1      -6.107 -41.380  19.221  1.00  0.00     0.211 HD
ENDBRANCH  28  33
BRANCH  30  35
ATOM     35  O   UNL     1      -7.675 -44.464  18.874  1.00  0.00    -0.387 OA
ATOM     36  H   UNL     1      -7.093 -45.039  18.312  1.00  0.00     0.211 HD
ENDBRANCH  30  35
BRANCH  31  37
ATOM     37  C   UNL     1      -8.534 -40.551  16.542  1.00  0.00     0.191 C 
BRANCH  37  38
ATOM     38  O   UNL     1      -7.403 -39.763  16.278  1.00  0.00    -0.394 OA
ATOM     39  H   UNL     1      -7.298 -39.137  17.045  1.00  0.00     0.210 HD
ENDBRANCH  37  38
ENDBRANCH  31  37
BRANCH  32  40
ATOM     40  O   UNL     1      -9.106 -44.259  16.671  1.00  0.00    -0.387 OA
ATOM     41  H   UNL     1      -8.931 -44.242  15.694  1.00  0.00     0.211 HD
ENDBRANCH  32  40
ENDBRANCH   1  27
TORSDOF 12
ENDMDL
MODEL 7
REMARK VINA RESULT:    -5.399      2.977      6.903
REMARK INTER + INTRA:          -9.490
REMARK INTER:                  -8.188
REMARK INTRA:                  -1.301
REMARK UNBOUND:                -1.565
REMARK SMILES O=c1c(O[C@H]2O[C@H](CO)[C@@H](O)[C@@H](O)[C@@H]2O)c(-c2ccc(O)c(O)c2)oc2cc(O)cc(O)c12
REMARK SMILES IDX 4 1 3 2 16 3 25 4 2 5 26 6 1 7 33 8 27 9 31 10 28 11 30 12
REMARK SMILES IDX 17 13 18 14 19 15 20 16 24 17 22 18 21 19 23 21 32 23 29 25
REMARK SMILES IDX 5 27 14 28 6 29 12 30 7 31 10 32 15 33 13 35 8 37 9 38 11 40
REMARK H PARENT 21 20 23 22 32 24 29 26 15 34 13 36 9 39 11 41
REMARK Flexibility Score: inf
ROOT
ATOM      1  O   UNL     1       5.298 -34.882  18.018  1.00  0.00    -0.454 OA
ENDROOT
BRANCH   1   2
ATOM      2  C   UNL     1       4.341 -34.924  16.982  1.00  0.00     0.214 A 
ATOM      3  C   UNL     1       4.549 -35.823  15.921  1.00  0.00     0.180 A 
ATOM      4  O   UNL     1       3.723 -35.843  14.885  1.00  0.00    -0.452 OA
ATOM      5  C   UNL     1       3.196 -34.093  16.937  1.00  0.00     0.239 A 
ATOM      6  C   UNL     1       2.644 -35.077  14.798  1.00  0.00     0.146 A 
ATOM      7  O   UNL     1       2.990 -33.270  17.865  1.00  0.00    -0.285 OA
ATOM      8  C   UNL     1       2.299 -34.184  15.844  1.00  0.00     0.111 A 
ATOM      9  C   UNL     1       1.855 -35.170  13.649  1.00  0.00     0.094 A 
ATOM     10  C   UNL     1       1.096 -33.422  15.714  1.00  0.00     0.134 A 
ATOM     11  C   UNL     1       0.716 -34.379  13.508  1.00  0.00     0.123 A 
ATOM     12  C   UNL     1       0.345 -33.512  14.535  1.00  0.00     0.093 A 
BRANCH   3  13
ATOM     13  C   UNL     1       5.703 -36.741  15.898  1.00  0.00     0.025 A 
ATOM     14  C   UNL     1       6.754 -36.549  14.992  1.00  0.00     0.016 A 
ATOM     15  C   UNL     1       7.857 -37.408  14.998  1.00  0.00     0.051 A 
ATOM     16  C   UNL     1       7.927 -38.458  15.922  1.00  0.00     0.157 A 
ATOM     17  C   UNL     1       5.783 -37.780  16.837  1.00  0.00     0.062 A 
ATOM     18  C   UNL     1       6.890 -38.641  16.849  1.00  0.00     0.158 A 
BRANCH  16  19
ATOM     19  O   UNL     1       9.025 -39.315  15.933  1.00  0.00    -0.504 OA
ATOM     20  H   UNL     1       9.924 -39.020  16.295  1.00  0.00     0.293 HD
ENDBRANCH  16  19
BRANCH  18  21
ATOM     21  O   UNL     1       6.967 -39.679  17.778  1.00  0.00    -0.504 OA
ATOM     22  H   UNL     1       6.193 -39.900  18.393  1.00  0.00     0.293 HD
ENDBRANCH  18  21
ENDBRANCH   3  13
BRANCH  10  23
ATOM     23  O   UNL     1       0.588 -32.581  16.708  1.00  0.00    -0.507 OA
ATOM     24  H   UNL     1       0.975 -32.474  17.633  1.00  0.00     0.293 HD
ENDBRANCH  10  23
BRANCH  11  25
ATOM     25  O   UNL     1      -0.057 -34.444  12.349  1.00  0.00    -0.508 OA
ATOM     26  H   UNL     1       0.280 -34.911  11.514  1.00  0.00     0.293 HD
ENDBRANCH  11  25
ENDBRANCH   1   2
BRANCH   1  27
ATOM     27  C   UNL     1       6.675 -34.510  17.895  1.00  0.00     0.339 C 
ATOM     28  C   UNL     1       7.336 -34.427  19.281  1.00  0.00     0.214 C 
ATOM     29  O   UNL     1       6.815 -33.341  17.097  1.00  0.00    -0.332 OA
ATOM     30  C   UNL     1       6.826 -33.213  20.099  1.00  0.00     0.180 C 
ATOM     31  C   UNL     1       6.861 -32.085  17.771  1.00  0.00     0.179 C 
ATOM     32  C   UNL     1       6.291 -32.058  19.216  1.00  0.00     0.177 C 
BRANCH  28  33
ATOM     33  O   UNL     1       8.729 -34.366  19.114  1.00  0.00    -0.384 OA
ATOM     34  H   UNL     1       9.080 -33.788  19.841  1.00  0.00     0.211 HD
ENDBRANCH  28  33
BRANCH  30  35
ATOM     35  O   UNL     1       5.871 -33.604  21.057  1.00  0.00    -0.387 OA
ATOM     36  H   UNL     1       4.987 -33.266  20.761  1.00  0.00     0.211 HD
ENDBRANCH  30  35
BRANCH  31  37
ATOM     37  C   UNL     1       8.283 -31.496  17.706  1.00  0.00     0.191 C 
BRANCH  37  38
ATOM     38  O   UNL     1       9.149 -32.344  16.999  1.00  0.00    -0.394 OA
ATOM     39  H   UNL     1      10.043 -32.277  17.433  1.00  0.00     0.210 HD
ENDBRANCH  37  38
ENDBRANCH  31  37
BRANCH  32  40
ATOM     40  O   UNL     1       4.884 -31.997  19.218  1.00  0.00    -0.387 OA
ATOM     41  H   UNL     1       4.564 -32.092  18.283  1.00  0.00     0.211 HD
ENDBRANCH  32  40
ENDBRANCH   1  27
TORSDOF 12
ENDMDL
MODEL 8
REMARK VINA RESULT:    -5.386     15.064     17.812
REMARK INTER + INTRA:          -9.470
REMARK INTER:                  -7.791
REMARK INTRA:                  -1.680
REMARK UNBOUND:                -1.565
REMARK SMILES O=c1c(O[C@H]2O[C@H](CO)[C@@H](O)[C@@H](O)[C@@H]2O)c(-c2ccc(O)c(O)c2)oc2cc(O)cc(O)c12
REMARK SMILES IDX 4 1 3 2 16 3 25 4 2 5 26 6 1 7 33 8 27 9 31 10 28 11 30 12
REMARK SMILES IDX 17 13 18 14 19 15 20 16 24 17 22 18 21 19 23 21 32 23 29 25
REMARK SMILES IDX 5 27 14 28 6 29 12 30 7 31 10 32 15 33 13 35 8 37 9 38 11 40
REMARK H PARENT 21 20 23 22 32 24 29 26 15 34 13 36 9 39 11 41
REMARK Flexibility Score: inf
ROOT
ATOM      1  O   UNL     1      -5.627 -44.841  14.720  1.00  0.00    -0.454 OA
ENDROOT
BRANCH   1   2
ATOM      2  C   UNL     1      -5.111 -45.827  13.852  1.00  0.00     0.214 A 
ATOM      3  C   UNL     1      -4.024 -46.601  14.297  1.00  0.00     0.180 A 
ATOM      4  O   UNL     1      -3.452 -47.482  13.490  1.00  0.00    -0.452 OA
ATOM      5  C   UNL     1      -5.608 -46.062  12.549  1.00  0.00     0.239 A 
ATOM      6  C   UNL     1      -3.880 -47.730  12.260  1.00  0.00     0.146 A 
ATOM      7  O   UNL     1      -6.570 -45.378  12.117  1.00  0.00    -0.285 OA
ATOM      8  C   UNL     1      -5.011 -47.057  11.734  1.00  0.00     0.111 A 
ATOM      9  C   UNL     1      -3.186 -48.669  11.492  1.00  0.00     0.094 A 
ATOM     10  C   UNL     1      -5.455 -47.404  10.420  1.00  0.00     0.134 A 
ATOM     11  C   UNL     1      -3.593 -48.956  10.190  1.00  0.00     0.123 A 
ATOM     12  C   UNL     1      -4.718 -48.324   9.662  1.00  0.00     0.093 A 
BRANCH   3  13
ATOM     13  C   UNL     1      -3.458 -46.437  15.649  1.00  0.00     0.025 A 
ATOM     14  C   UNL     1      -2.504 -45.446  15.911  1.00  0.00     0.016 A 
ATOM     15  C   UNL     1      -1.994 -45.280  17.203  1.00  0.00     0.051 A 
ATOM     16  C   UNL     1      -2.449 -46.094  18.249  1.00  0.00     0.157 A 
ATOM     17  C   UNL     1      -3.927 -47.238  16.700  1.00  0.00     0.062 A 
ATOM     18  C   UNL     1      -3.422 -47.072  17.999  1.00  0.00     0.158 A 
BRANCH  16  19
ATOM     19  O   UNL     1      -1.945 -45.931  19.537  1.00  0.00    -0.504 OA
ATOM     20  H   UNL     1      -1.469 -46.684  20.018  1.00  0.00     0.293 HD
ENDBRANCH  16  19
BRANCH  18  21
ATOM     21  O   UNL     1      -3.884 -47.873  19.043  1.00  0.00    -0.504 OA
ATOM     22  H   UNL     1      -4.757 -48.382  18.976  1.00  0.00     0.293 HD
ENDBRANCH  18  21
ENDBRANCH   3  13
BRANCH  10  23
ATOM     23  O   UNL     1      -6.609 -46.893   9.818  1.00  0.00    -0.507 OA
ATOM     24  H   UNL     1      -7.229 -47.413   9.215  1.00  0.00     0.293 HD
ENDBRANCH  10  23
BRANCH  11  25
ATOM     25  O   UNL     1      -2.885 -49.867   9.408  1.00  0.00    -0.508 OA
ATOM     26  H   UNL     1      -2.525 -50.732   9.798  1.00  0.00     0.293 HD
ENDBRANCH  11  25
ENDBRANCH   1   2
BRANCH   1  27
ATOM     27  C   UNL     1      -6.558 -45.044  15.788  1.00  0.00     0.339 C 
ATOM     28  C   UNL     1      -7.998 -45.073  15.248  1.00  0.00     0.214 C 
ATOM     29  O   UNL     1      -6.335 -44.114  16.841  1.00  0.00    -0.332 OA
ATOM     30  C   UNL     1      -8.471 -43.676  14.774  1.00  0.00     0.180 C 
ATOM     31  C   UNL     1      -7.096 -42.909  16.826  1.00  0.00     0.179 C 
ATOM     32  C   UNL     1      -7.724 -42.507  15.463  1.00  0.00     0.177 C 
BRANCH  28  33
ATOM     33  O   UNL     1      -8.845 -45.573  16.250  1.00  0.00    -0.384 OA
ATOM     34  H   UNL     1      -8.346 -46.295  16.715  1.00  0.00     0.211 HD
ENDBRANCH  28  33
BRANCH  30  35
ATOM     35  O   UNL     1      -8.409 -43.562  13.372  1.00  0.00    -0.387 OA
ATOM     36  H   UNL     1      -9.085 -44.178  12.987  1.00  0.00     0.211 HD
ENDBRANCH  30  35
BRANCH  31  37
ATOM     37  C   UNL     1      -8.143 -42.925  17.956  1.00  0.00     0.191 C 
BRANCH  37  38
ATOM     38  O   UNL     1      -7.992 -44.060  18.769  1.00  0.00    -0.394 OA
ATOM     39  H   UNL     1      -7.039 -44.087  19.057  1.00  0.00     0.210 HD
ENDBRANCH  37  38
ENDBRANCH  31  37
BRANCH  32  40
ATOM     40  O   UNL     1      -6.776 -41.908  14.611  1.00  0.00    -0.387 OA
ATOM     41  H   UNL     1      -5.868 -42.110  14.959  1.00  0.00     0.211 HD
ENDBRANCH  32  40
ENDBRANCH   1  27
TORSDOF 12
ENDMDL
MODEL 9
REMARK VINA RESULT:    -5.187      3.284      4.910
REMARK INTER + INTRA:          -9.177
REMARK INTER:                  -7.594
REMARK INTRA:                  -1.583
REMARK UNBOUND:                -1.565
REMARK SMILES O=c1c(O[C@H]2O[C@H](CO)[C@@H](O)[C@@H](O)[C@@H]2O)c(-c2ccc(O)c(O)c2)oc2cc(O)cc(O)c12
REMARK SMILES IDX 4 1 3 2 16 3 25 4 2 5 26 6 1 7 33 8 27 9 31 10 28 11 30 12
REMARK SMILES IDX 17 13 18 14 19 15 20 16 24 17 22 18 21 19 23 21 32 23 29 25
REMARK SMILES IDX 5 27 14 28 6 29 12 30 7 31 10 32 15 33 13 35 8 37 9 38 11 40
REMARK H PARENT 21 20 23 22 32 24 29 26 15 34 13 36 9 39 11 41
REMARK Flexibility Score: inf
ROOT
ATOM      1  O   UNL     1       5.930 -35.308  16.892  1.00  0.00    -0.454 OA
ENDROOT
BRANCH   1   2
ATOM      2  C   UNL     1       5.318 -35.895  15.765  1.00  0.00     0.214 A 
ATOM      3  C   UNL     1       3.962 -35.611  15.521  1.00  0.00     0.180 A 
ATOM      4  O   UNL     1       3.321 -36.201  14.524  1.00  0.00    -0.452 OA
ATOM      5  C   UNL     1       5.984 -36.775  14.879  1.00  0.00     0.239 A 
ATOM      6  C   UNL     1       3.903 -37.037  13.675  1.00  0.00     0.146 A 
ATOM      7  O   UNL     1       7.193 -37.059  15.077  1.00  0.00    -0.285 OA
ATOM      8  C   UNL     1       5.283 -37.340  13.784  1.00  0.00     0.111 A 
ATOM      9  C   UNL     1       3.121 -37.615  12.671  1.00  0.00     0.094 A 
ATOM     10  C   UNL     1       5.864 -38.210  12.809  1.00  0.00     0.134 A 
ATOM     11  C   UNL     1       3.687 -38.507  11.761  1.00  0.00     0.123 A 
ATOM     12  C   UNL     1       5.048 -38.800  11.835  1.00  0.00     0.093 A 
BRANCH   3  13
ATOM     13  C   UNL     1       3.198 -34.687  16.380  1.00  0.00     0.025 A 
ATOM     14  C   UNL     1       2.393 -35.174  17.418  1.00  0.00     0.016 A 
ATOM     15  C   UNL     1       1.695 -34.289  18.245  1.00  0.00     0.051 A 
ATOM     16  C   UNL     1       1.810 -32.906  18.052  1.00  0.00     0.157 A 
ATOM     17  C   UNL     1       3.328 -33.302  16.199  1.00  0.00     0.062 A 
ATOM     18  C   UNL     1       2.633 -32.410  17.030  1.00  0.00     0.158 A 
BRANCH  16  19
ATOM     19  O   UNL     1       1.118 -32.020  18.874  1.00  0.00    -0.504 OA
ATOM     20  H   UNL     1       0.218 -32.260  19.272  1.00  0.00     0.293 HD
ENDBRANCH  16  19
BRANCH  18  21
ATOM     21  O   UNL     1       2.757 -31.033  16.847  1.00  0.00    -0.504 OA
ATOM     22  H   UNL     1       3.433 -30.487  17.368  1.00  0.00     0.293 HD
ENDBRANCH  18  21
ENDBRANCH   3  13
BRANCH  10  23
ATOM     23  O   UNL     1       7.227 -38.514  12.740  1.00  0.00    -0.507 OA
ATOM     24  H   UNL     1       7.713 -38.817  11.909  1.00  0.00     0.293 HD
ENDBRANCH  10  23
BRANCH  11  25
ATOM     25  O   UNL     1       2.905 -39.112  10.778  1.00  0.00    -0.508 OA
ATOM     26  H   UNL     1       1.896 -39.005  10.765  1.00  0.00     0.293 HD
ENDBRANCH  11  25
ENDBRANCH   1   2
BRANCH   1  27
ATOM     27  C   UNL     1       7.051 -34.418  16.890  1.00  0.00     0.339 C 
ATOM     28  C   UNL     1       7.983 -34.722  18.075  1.00  0.00     0.214 C 
ATOM     29  O   UNL     1       6.624 -33.063  16.801  1.00  0.00    -0.332 OA
ATOM     30  C   UNL     1       7.353 -34.318  19.431  1.00  0.00     0.180 C 
ATOM     31  C   UNL     1       6.455 -32.345  18.021  1.00  0.00     0.179 C 
ATOM     32  C   UNL     1       6.288 -33.201  19.306  1.00  0.00     0.177 C 
BRANCH  28  33
ATOM     33  O   UNL     1       9.202 -34.055  17.873  1.00  0.00    -0.384 OA
ATOM     34  H   UNL     1       9.396 -33.553  18.707  1.00  0.00     0.211 HD
ENDBRANCH  28  33
BRANCH  30  35
ATOM     35  O   UNL     1       6.836 -35.438  20.111  1.00  0.00    -0.387 OA
ATOM     36  H   UNL     1       6.882 -36.215  19.495  1.00  0.00     0.211 HD
ENDBRANCH  30  35
BRANCH  31  37
ATOM     37  C   UNL     1       7.567 -31.289  18.176  1.00  0.00     0.191 C 
BRANCH  37  38
ATOM     38  O   UNL     1       8.327 -31.180  17.002  1.00  0.00    -0.394 OA
ATOM     39  H   UNL     1       9.078 -30.555  17.197  1.00  0.00     0.210 HD
ENDBRANCH  37  38
ENDBRANCH  31  37
BRANCH  32  40
ATOM     40  O   UNL     1       4.977 -33.700  19.430  1.00  0.00    -0.387 OA
ATOM     41  H   UNL     1       4.889 -34.136  20.318  1.00  0.00     0.211 HD
ENDBRANCH  32  40
ENDBRANCH   1  27
TORSDOF 12
ENDMDL
