MODEL 1
REMARK VINA RESULT:    -6.277      0.000      0.000
REMARK INTER + INTRA:          -7.750
REMARK INTER:                  -7.561
REMARK INTRA:                  -0.189
REMARK UNBOUND:                -0.189
REMARK SMILES O=c1c(O)c(-c2ccc(O)c(O)c2)oc2cc(O)cc(O)c12
REMARK SMILES IDX 5 1 3 2 2 3 1 4 22 5 20 6 19 7 17 8 16 9 15 10 14 11 6 12
REMARK SMILES IDX 7 13 8 14 9 15 13 16 11 17 10 18 12 20 4 22 21 24 18 26
REMARK H PARENT 10 19 12 21 4 23 21 25 18 27
REMARK Flexibility Score: inf
ROOT
ATOM      1  C   UNL     1      55.883 -40.644 -25.867  1.00  0.00     0.180 A 
ATOM      2  C   UNL     1      56.187 -42.016 -25.900  1.00  0.00     0.208 A 
ATOM      3  C   UNL     1      56.401 -42.636 -27.141  1.00  0.00     0.238 A 
ATOM      4  O   UNL     1      56.727 -43.852 -27.159  1.00  0.00    -0.285 OA
ATOM      5  C   UNL     1      56.291 -41.883 -28.333  1.00  0.00     0.111 A 
ATOM      6  C   UNL     1      56.448 -42.418 -29.648  1.00  0.00     0.134 A 
ATOM      7  C   UNL     1      56.448 -41.556 -30.750  1.00  0.00     0.093 A 
ATOM      8  C   UNL     1      56.232 -40.186 -30.593  1.00  0.00     0.123 A 
ATOM      9  C   UNL     1      56.018 -39.661 -29.318  1.00  0.00     0.094 A 
ATOM     10  C   UNL     1      56.049 -40.492 -28.196  1.00  0.00     0.146 A 
ATOM     11  O   UNL     1      55.851 -39.950 -27.000  1.00  0.00    -0.452 OA
ENDROOT
BRANCH   1  12
ATOM     12  C   UNL     1      55.620 -39.924 -24.600  1.00  0.00     0.025 A 
ATOM     13  C   UNL     1      56.520 -38.966 -24.105  1.00  0.00     0.016 A 
ATOM     14  C   UNL     1      56.263 -38.318 -22.896  1.00  0.00     0.051 A 
ATOM     15  C   UNL     1      55.116 -38.618 -22.153  1.00  0.00     0.157 A 
ATOM     16  C   UNL     1      54.481 -40.243 -23.846  1.00  0.00     0.062 A 
ATOM     17  C   UNL     1      54.216 -39.598 -22.632  1.00  0.00     0.158 A 
BRANCH  15  18
ATOM     18  O   UNL     1      54.916 -37.930 -20.953  1.00  0.00    -0.504 OA
ATOM     19  H   UNL     1      54.422 -38.311 -20.160  1.00  0.00     0.293 HD
ENDBRANCH  15  18
BRANCH  17  20
ATOM     20  O   UNL     1      53.056 -39.958 -21.941  1.00  0.00    -0.504 OA
ATOM     21  H   UNL     1      52.121 -39.785 -22.278  1.00  0.00     0.293 HD
ENDBRANCH  17  20
ENDBRANCH   1  12
BRANCH   2  22
ATOM     22  O   UNL     1      56.312 -42.736 -24.709  1.00  0.00    -0.502 OA
ATOM     23  H   UNL     1      56.174 -43.738 -24.662  1.00  0.00     0.293 HD
ENDBRANCH   2  22
BRANCH   6  24
ATOM     24  O   UNL     1      56.578 -43.783 -29.924  1.00  0.00    -0.507 OA
ATOM     25  H   UNL     1      57.457 -44.273 -29.997  1.00  0.00     0.293 HD
ENDBRANCH   6  24
BRANCH   8  26
ATOM     26  O   UNL     1      56.222 -39.359 -31.714  1.00  0.00    -0.508 OA
ATOM     27  H   UNL     1      55.864 -39.681 -32.606  1.00  0.00     0.293 HD
ENDBRANCH   8  26
TORSDOF 6
ENDMDL
MODEL 2
REMARK VINA RESULT:    -6.205     13.264     15.399
REMARK INTER + INTRA:          -7.664
REMARK INTER:                  -7.349
REMARK INTRA:                  -0.315
REMARK UNBOUND:                -0.189
REMARK SMILES O=c1c(O)c(-c2ccc(O)c(O)c2)oc2cc(O)cc(O)c12
REMARK SMILES IDX 5 1 3 2 2 3 1 4 22 5 20 6 19 7 17 8 16 9 15 10 14 11 6 12
REMARK SMILES IDX 7 13 8 14 9 15 13 16 11 17 10 18 12 20 4 22 21 24 18 26
REMARK H PARENT 10 19 12 21 4 23 21 25 18 27
REMARK Flexibility Score: inf
ROOT
ATOM      1  C   UNL     1      52.034 -27.839 -30.999  1.00  0.00     0.180 A 
ATOM      2  C   UNL     1      51.334 -28.270 -32.140  1.00  0.00     0.208 A 
ATOM      3  C   UNL     1      50.021 -27.817 -32.345  1.00  0.00     0.238 A 
ATOM      4  O   UNL     1      49.421 -28.163 -33.395  1.00  0.00    -0.285 OA
ATOM      5  C   UNL     1      49.419 -26.953 -31.400  1.00  0.00     0.111 A 
ATOM      6  C   UNL     1      48.080 -26.465 -31.486  1.00  0.00     0.134 A 
ATOM      7  C   UNL     1      47.631 -25.512 -30.564  1.00  0.00     0.093 A 
ATOM      8  C   UNL     1      48.449 -25.078 -29.521  1.00  0.00     0.123 A 
ATOM      9  C   UNL     1      49.739 -25.594 -29.392  1.00  0.00     0.094 A 
ATOM     10  C   UNL     1      50.228 -26.519 -30.318  1.00  0.00     0.146 A 
ATOM     11  O   UNL     1      51.464 -26.977 -30.165  1.00  0.00    -0.452 OA
ENDROOT
BRANCH   1  12
ATOM     12  C   UNL     1      53.412 -28.292 -30.702  1.00  0.00     0.025 A 
ATOM     13  C   UNL     1      54.530 -27.546 -31.108  1.00  0.00     0.016 A 
ATOM     14  C   UNL     1      55.820 -28.005 -30.837  1.00  0.00     0.051 A 
ATOM     15  C   UNL     1      56.022 -29.218 -30.170  1.00  0.00     0.157 A 
ATOM     16  C   UNL     1      53.612 -29.520 -30.053  1.00  0.00     0.062 A 
ATOM     17  C   UNL     1      54.903 -29.988 -29.777  1.00  0.00     0.158 A 
BRANCH  15  18
ATOM     18  O   UNL     1      57.338 -29.618 -29.926  1.00  0.00    -0.504 OA
ATOM     19  H   UNL     1      57.828 -30.309 -30.473  1.00  0.00     0.293 HD
ENDBRANCH  15  18
BRANCH  17  20
ATOM     20  O   UNL     1      55.025 -31.214 -29.117  1.00  0.00    -0.504 OA
ATOM     21  H   UNL     1      54.602 -32.072 -29.437  1.00  0.00     0.293 HD
ENDBRANCH  17  20
ENDBRANCH   1  12
BRANCH   2  22
ATOM     22  O   UNL     1      51.956 -29.106 -33.072  1.00  0.00    -0.502 OA
ATOM     23  H   UNL     1      51.717 -30.085 -33.170  1.00  0.00     0.293 HD
ENDBRANCH   2  22
BRANCH   6  24
ATOM     24  O   UNL     1      47.150 -26.901 -32.435  1.00  0.00    -0.507 OA
ATOM     25  H   UNL     1      46.361 -27.497 -32.234  1.00  0.00     0.293 HD
ENDBRANCH   6  24
BRANCH   8  26
ATOM     26  O   UNL     1      47.964 -24.141 -28.612  1.00  0.00    -0.508 OA
ATOM     27  H   UNL     1      48.056 -23.145 -28.778  1.00  0.00     0.293 HD
ENDBRANCH   8  26
TORSDOF 6
ENDMDL
MODEL 3
REMARK VINA RESULT:    -5.921     13.956     15.507
REMARK INTER + INTRA:          -7.322
REMARK INTER:                  -7.010
REMARK INTRA:                  -0.312
REMARK UNBOUND:                -0.189
REMARK SMILES O=c1c(O)c(-c2ccc(O)c(O)c2)oc2cc(O)cc(O)c12
REMARK SMILES IDX 5 1 3 2 2 3 1 4 22 5 20 6 19 7 17 8 16 9 15 10 14 11 6 12
REMARK SMILES IDX 7 13 8 14 9 15 13 16 11 17 10 18 12 20 4 22 21 24 18 26
REMARK H PARENT 10 19 12 21 4 23 21 25 18 27
REMARK Flexibility Score: inf
ROOT
ATOM      1  C   UNL     1      47.235 -28.678 -30.489  1.00  0.00     0.180 A 
ATOM      2  C   UNL     1      47.523 -28.112 -31.743  1.00  0.00     0.208 A 
ATOM      3  C   UNL     1      48.842 -28.153 -32.221  1.00  0.00     0.238 A 
ATOM      4  O   UNL     1      49.083 -27.694 -33.368  1.00  0.00    -0.285 OA
ATOM      5  C   UNL     1      49.859 -28.745 -31.434  1.00  0.00     0.111 A 
ATOM      6  C   UNL     1      51.237 -28.806 -31.802  1.00  0.00     0.134 A 
ATOM      7  C   UNL     1      52.133 -29.530 -31.007  1.00  0.00     0.093 A 
ATOM      8  C   UNL     1      51.716 -30.140 -29.824  1.00  0.00     0.123 A 
ATOM      9  C   UNL     1      50.383 -30.035 -29.423  1.00  0.00     0.094 A 
ATOM     10  C   UNL     1      49.458 -29.350 -30.215  1.00  0.00     0.146 A 
ATOM     11  O   UNL     1      48.198 -29.284 -29.803  1.00  0.00    -0.452 OA
ENDROOT
BRANCH   1  12
ATOM     12  C   UNL     1      45.873 -28.652 -29.906  1.00  0.00     0.025 A 
ATOM     13  C   UNL     1      45.376 -27.507 -29.264  1.00  0.00     0.016 A 
ATOM     14  C   UNL     1      44.099 -27.514 -28.701  1.00  0.00     0.051 A 
ATOM     15  C   UNL     1      43.299 -28.661 -28.755  1.00  0.00     0.157 A 
ATOM     16  C   UNL     1      45.083 -29.811 -29.942  1.00  0.00     0.062 A 
ATOM     17  C   UNL     1      43.800 -29.827 -29.380  1.00  0.00     0.158 A 
BRANCH  15  18
ATOM     18  O   UNL     1      42.029 -28.601 -28.177  1.00  0.00    -0.504 OA
ATOM     19  H   UNL     1      41.411 -27.807 -28.252  1.00  0.00     0.293 HD
ENDBRANCH  15  18
BRANCH  17  20
ATOM     20  O   UNL     1      43.066 -31.012 -29.464  1.00  0.00    -0.504 OA
ATOM     21  H   UNL     1      42.274 -31.228 -28.877  1.00  0.00     0.293 HD
ENDBRANCH  17  20
ENDBRANCH   1  12
BRANCH   2  22
ATOM     22  O   UNL     1      46.500 -27.553 -32.514  1.00  0.00    -0.502 OA
ATOM     23  H   UNL     1      45.520 -27.679 -32.290  1.00  0.00     0.293 HD
ENDBRANCH   2  22
BRANCH   6  24
ATOM     24  O   UNL     1      51.777 -28.155 -32.916  1.00  0.00    -0.507 OA
ATOM     25  H   UNL     1      52.713 -28.294 -33.264  1.00  0.00     0.293 HD
ENDBRANCH   6  24
BRANCH   8  26
ATOM     26  O   UNL     1      52.639 -30.838 -29.048  1.00  0.00    -0.508 OA
ATOM     27  H   UNL     1      52.468 -31.031 -28.068  1.00  0.00     0.293 HD
ENDBRANCH   8  26
TORSDOF 6
ENDMDL
MODEL 4
REMARK VINA RESULT:    -5.921     14.693     16.511
REMARK INTER + INTRA:          -7.321
REMARK INTER:                  -7.167
REMARK INTRA:                  -0.155
REMARK UNBOUND:                -0.189
REMARK SMILES O=c1c(O)c(-c2ccc(O)c(O)c2)oc2cc(O)cc(O)c12
REMARK SMILES IDX 5 1 3 2 2 3 1 4 22 5 20 6 19 7 17 8 16 9 15 10 14 11 6 12
REMARK SMILES IDX 7 13 8 14 9 15 13 16 11 17 10 18 12 20 4 22 21 24 18 26
REMARK H PARENT 10 19 12 21 4 23 21 25 18 27
REMARK Flexibility Score: inf
ROOT
ATOM      1  C   UNL     1      46.991 -29.036 -30.467  1.00  0.00     0.180 A 
ATOM      2  C   UNL     1      46.948 -30.039 -29.483  1.00  0.00     0.208 A 
ATOM      3  C   UNL     1      45.699 -30.487 -29.022  1.00  0.00     0.238 A 
ATOM      4  O   UNL     1      45.667 -31.423 -28.182  1.00  0.00    -0.285 OA
ATOM      5  C   UNL     1      44.512 -29.915 -29.536  1.00  0.00     0.111 A 
ATOM      6  C   UNL     1      43.193 -30.264 -29.112  1.00  0.00     0.134 A 
ATOM      7  C   UNL     1      42.088 -29.729 -29.782  1.00  0.00     0.093 A 
ATOM      8  C   UNL     1      42.249 -28.808 -30.817  1.00  0.00     0.123 A 
ATOM      9  C   UNL     1      43.532 -28.414 -31.200  1.00  0.00     0.094 A 
ATOM     10  C   UNL     1      44.655 -28.959 -30.575  1.00  0.00     0.146 A 
ATOM     11  O   UNL     1      45.858 -28.565 -30.977  1.00  0.00    -0.452 OA
ENDROOT
BRANCH   1  12
ATOM     12  C   UNL     1      48.268 -28.495 -30.986  1.00  0.00     0.025 A 
ATOM     13  C   UNL     1      49.186 -27.851 -30.140  1.00  0.00     0.016 A 
ATOM     14  C   UNL     1      50.372 -27.328 -30.656  1.00  0.00     0.051 A 
ATOM     15  C   UNL     1      50.661 -27.423 -32.021  1.00  0.00     0.157 A 
ATOM     16  C   UNL     1      48.545 -28.571 -32.359  1.00  0.00     0.062 A 
ATOM     17  C   UNL     1      49.733 -28.049 -32.885  1.00  0.00     0.158 A 
BRANCH  15  18
ATOM     18  O   UNL     1      51.868 -26.883 -32.474  1.00  0.00    -0.504 OA
ATOM     19  H   UNL     1      51.961 -26.337 -33.317  1.00  0.00     0.293 HD
ENDBRANCH  15  18
BRANCH  17  20
ATOM     20  O   UNL     1      49.947 -28.173 -34.261  1.00  0.00    -0.504 OA
ATOM     21  H   UNL     1      50.773 -28.584 -34.668  1.00  0.00     0.293 HD
ENDBRANCH  17  20
ENDBRANCH   1  12
BRANCH   2  22
ATOM     22  O   UNL     1      48.132 -30.606 -29.005  1.00  0.00    -0.502 OA
ATOM     23  H   UNL     1      48.681 -31.261 -29.550  1.00  0.00     0.293 HD
ENDBRANCH   2  22
BRANCH   6  24
ATOM     24  O   UNL     1      42.920 -31.104 -28.028  1.00  0.00    -0.507 OA
ATOM     25  H   UNL     1      42.578 -30.792 -27.132  1.00  0.00     0.293 HD
ENDBRANCH   6  24
BRANCH   8  26
ATOM     26  O   UNL     1      41.125 -28.283 -31.451  1.00  0.00    -0.508 OA
ATOM     27  H   UNL     1      40.283 -28.054 -30.934  1.00  0.00     0.293 HD
ENDBRANCH   8  26
TORSDOF 6
ENDMDL
MODEL 5
REMARK VINA RESULT:    -5.843     15.769     17.112
REMARK INTER + INTRA:          -7.229
REMARK INTER:                  -6.961
REMARK INTRA:                  -0.267
REMARK UNBOUND:                -0.189
REMARK SMILES O=c1c(O)c(-c2ccc(O)c(O)c2)oc2cc(O)cc(O)c12
REMARK SMILES IDX 5 1 3 2 2 3 1 4 22 5 20 6 19 7 17 8 16 9 15 10 14 11 6 12
REMARK SMILES IDX 7 13 8 14 9 15 13 16 11 17 10 18 12 20 4 22 21 24 18 26
REMARK H PARENT 10 19 12 21 4 23 21 25 18 27
REMARK Flexibility Score: inf
ROOT
ATOM      1  C   UNL     1      45.487 -28.080 -30.337  1.00  0.00     0.180 A 
ATOM      2  C   UNL     1      45.970 -27.147 -29.403  1.00  0.00     0.208 A 
ATOM      3  C   UNL     1      47.284 -26.670 -29.535  1.00  0.00     0.238 A 
ATOM      4  O   UNL     1      47.692 -25.794 -28.728  1.00  0.00    -0.285 OA
ATOM      5  C   UNL     1      48.103 -27.142 -30.588  1.00  0.00     0.111 A 
ATOM      6  C   UNL     1      49.462 -26.756 -30.793  1.00  0.00     0.134 A 
ATOM      7  C   UNL     1      50.136 -27.186 -31.942  1.00  0.00     0.093 A 
ATOM      8  C   UNL     1      49.523 -28.039 -32.861  1.00  0.00     0.123 A 
ATOM      9  C   UNL     1      48.214 -28.470 -32.639  1.00  0.00     0.094 A 
ATOM     10  C   UNL     1      47.504 -28.029 -31.520  1.00  0.00     0.146 A 
ATOM     11  O   UNL     1      46.258 -28.454 -31.352  1.00  0.00    -0.452 OA
ENDROOT
BRANCH   1  12
ATOM     12  C   UNL     1      44.122 -28.648 -30.250  1.00  0.00     0.025 A 
ATOM     13  C   UNL     1      43.087 -28.193 -31.084  1.00  0.00     0.016 A 
ATOM     14  C   UNL     1      41.803 -28.727 -30.968  1.00  0.00     0.051 A 
ATOM     15  C   UNL     1      41.521 -29.710 -30.014  1.00  0.00     0.157 A 
ATOM     16  C   UNL     1      43.837 -29.617 -29.277  1.00  0.00     0.062 A 
ATOM     17  C   UNL     1      42.550 -30.158 -29.153  1.00  0.00     0.158 A 
BRANCH  15  18
ATOM     18  O   UNL     1      40.216 -30.206 -29.951  1.00  0.00    -0.504 OA
ATOM     19  H   UNL     1      39.400 -29.683 -30.229  1.00  0.00     0.293 HD
ENDBRANCH  15  18
BRANCH  17  20
ATOM     20  O   UNL     1      42.343 -31.129 -28.170  1.00  0.00    -0.504 OA
ATOM     21  H   UNL     1      41.994 -32.057 -28.358  1.00  0.00     0.293 HD
ENDBRANCH  17  20
ENDBRANCH   1  12
BRANCH   2  22
ATOM     22  O   UNL     1      45.137 -26.677 -28.384  1.00  0.00    -0.502 OA
ATOM     23  H   UNL     1      44.131 -26.622 -28.486  1.00  0.00     0.293 HD
ENDBRANCH   2  22
BRANCH   6  24
ATOM     24  O   UNL     1      50.198 -25.982 -29.891  1.00  0.00    -0.507 OA
ATOM     25  H   UNL     1      49.826 -25.575 -29.047  1.00  0.00     0.293 HD
ENDBRANCH   6  24
BRANCH   8  26
ATOM     26  O   UNL     1      50.229 -28.460 -33.986  1.00  0.00    -0.508 OA
ATOM     27  H   UNL     1      50.384 -29.443 -34.176  1.00  0.00     0.293 HD
ENDBRANCH   8  26
TORSDOF 6
ENDMDL
MODEL 6
REMARK VINA RESULT:    -5.730      4.137      5.757
REMARK INTER + INTRA:          -7.092
REMARK INTER:                  -7.050
REMARK INTRA:                  -0.042
REMARK UNBOUND:                -0.189
REMARK SMILES O=c1c(O)c(-c2ccc(O)c(O)c2)oc2cc(O)cc(O)c12
REMARK SMILES IDX 5 1 3 2 2 3 1 4 22 5 20 6 19 7 17 8 16 9 15 10 14 11 6 12
REMARK SMILES IDX 7 13 8 14 9 15 13 16 11 17 10 18 12 20 4 22 21 24 18 26
REMARK H PARENT 10 19 12 21 4 23 21 25 18 27
REMARK Flexibility Score: inf
ROOT
ATOM      1  C   UNL     1      54.618 -38.022 -22.297  1.00  0.00     0.180 A 
ATOM      2  C   UNL     1      55.122 -39.185 -22.905  1.00  0.00     0.208 A 
ATOM      3  C   UNL     1      56.135 -39.064 -23.870  1.00  0.00     0.238 A 
ATOM      4  O   UNL     1      56.619 -40.112 -24.371  1.00  0.00    -0.285 OA
ATOM      5  C   UNL     1      56.619 -37.784 -24.227  1.00  0.00     0.111 A 
ATOM      6  C   UNL     1      57.615 -37.541 -25.221  1.00  0.00     0.134 A 
ATOM      7  C   UNL     1      58.112 -36.245 -25.399  1.00  0.00     0.093 A 
ATOM      8  C   UNL     1      57.605 -35.171 -24.666  1.00  0.00     0.123 A 
ATOM      9  C   UNL     1      56.589 -35.388 -23.734  1.00  0.00     0.094 A 
ATOM     10  C   UNL     1      56.098 -36.676 -23.508  1.00  0.00     0.146 A 
ATOM     11  O   UNL     1      55.139 -36.840 -22.606  1.00  0.00    -0.452 OA
ENDROOT
BRANCH   1  12
ATOM     12  C   UNL     1      53.534 -38.066 -21.289  1.00  0.00     0.025 A 
ATOM     13  C   UNL     1      52.333 -38.751 -21.538  1.00  0.00     0.016 A 
ATOM     14  C   UNL     1      51.316 -38.758 -20.583  1.00  0.00     0.051 A 
ATOM     15  C   UNL     1      51.467 -38.076 -19.371  1.00  0.00     0.157 A 
ATOM     16  C   UNL     1      53.679 -37.362 -20.085  1.00  0.00     0.062 A 
ATOM     17  C   UNL     1      52.664 -37.364 -19.121  1.00  0.00     0.158 A 
BRANCH  15  18
ATOM     18  O   UNL     1      50.413 -38.126 -18.456  1.00  0.00    -0.504 OA
ATOM     19  H   UNL     1      49.715 -38.853 -18.438  1.00  0.00     0.293 HD
ENDBRANCH  15  18
BRANCH  17  20
ATOM     20  O   UNL     1      52.884 -36.650 -17.940  1.00  0.00    -0.504 OA
ATOM     21  H   UNL     1      53.621 -36.859 -17.283  1.00  0.00     0.293 HD
ENDBRANCH  17  20
ENDBRANCH   1  12
BRANCH   2  22
ATOM     22  O   UNL     1      54.645 -40.441 -22.522  1.00  0.00    -0.502 OA
ATOM     23  H   UNL     1      54.550 -40.715 -21.551  1.00  0.00     0.293 HD
ENDBRANCH   2  22
BRANCH   6  24
ATOM     24  O   UNL     1      58.125 -38.527 -26.071  1.00  0.00    -0.507 OA
ATOM     25  H   UNL     1      59.052 -38.919 -26.006  1.00  0.00     0.293 HD
ENDBRANCH   6  24
BRANCH   8  26
ATOM     26  O   UNL     1      58.112 -33.892 -24.881  1.00  0.00    -0.508 OA
ATOM     27  H   UNL     1      57.626 -33.067 -24.548  1.00  0.00     0.293 HD
ENDBRANCH   8  26
TORSDOF 6
ENDMDL
MODEL 7
REMARK VINA RESULT:    -5.724     14.887     16.148
REMARK INTER + INTRA:          -7.085
REMARK INTER:                  -7.181
REMARK INTRA:                   0.096
REMARK UNBOUND:                -0.189
REMARK SMILES O=c1c(O)c(-c2ccc(O)c(O)c2)oc2cc(O)cc(O)c12
REMARK SMILES IDX 5 1 3 2 2 3 1 4 22 5 20 6 19 7 17 8 16 9 15 10 14 11 6 12
REMARK SMILES IDX 7 13 8 14 9 15 13 16 11 17 10 18 12 20 4 22 21 24 18 26
REMARK H PARENT 10 19 12 21 4 23 21 25 18 27
REMARK Flexibility Score: inf
ROOT
ATOM      1  C   UNL     1      45.574 -29.145 -30.012  1.00  0.00     0.180 A 
ATOM      2  C   UNL     1      46.356 -29.547 -28.916  1.00  0.00     0.208 A 
ATOM      3  C   UNL     1      47.755 -29.542 -29.039  1.00  0.00     0.238 A 
ATOM      4  O   UNL     1      48.450 -29.850 -28.036  1.00  0.00    -0.285 OA
ATOM      5  C   UNL     1      48.353 -29.153 -30.261  1.00  0.00     0.111 A 
ATOM      6  C   UNL     1      49.759 -29.150 -30.511  1.00  0.00     0.134 A 
ATOM      7  C   UNL     1      50.246 -28.622 -31.712  1.00  0.00     0.093 A 
ATOM      8  C   UNL     1      49.377 -28.157 -32.700  1.00  0.00     0.123 A 
ATOM      9  C   UNL     1      47.998 -28.211 -32.490  1.00  0.00     0.094 A 
ATOM     10  C   UNL     1      47.484 -28.699 -31.287  1.00  0.00     0.146 A 
ATOM     11  O   UNL     1      46.167 -28.723 -31.124  1.00  0.00    -0.452 OA
ENDROOT
BRANCH   1  12
ATOM     12  C   UNL     1      44.094 -29.146 -29.967  1.00  0.00     0.025 A 
ATOM     13  C   UNL     1      43.349 -28.044 -30.418  1.00  0.00     0.016 A 
ATOM     14  C   UNL     1      41.956 -28.058 -30.343  1.00  0.00     0.051 A 
ATOM     15  C   UNL     1      41.279 -29.159 -29.809  1.00  0.00     0.157 A 
ATOM     16  C   UNL     1      43.419 -30.242 -29.410  1.00  0.00     0.062 A 
ATOM     17  C   UNL     1      42.021 -30.265 -29.332  1.00  0.00     0.158 A 
BRANCH  15  18
ATOM     18  O   UNL     1      39.883 -29.112 -29.767  1.00  0.00    -0.504 OA
ATOM     19  H   UNL     1      39.343 -29.138 -28.916  1.00  0.00     0.293 HD
ENDBRANCH  15  18
BRANCH  17  20
ATOM     20  O   UNL     1      41.417 -31.395 -28.776  1.00  0.00    -0.504 OA
ATOM     21  H   UNL     1      41.244 -31.515 -27.789  1.00  0.00     0.293 HD
ENDBRANCH  17  20
ENDBRANCH   1  12
BRANCH   2  22
ATOM     22  O   UNL     1      45.746 -29.906 -27.711  1.00  0.00    -0.502 OA
ATOM     23  H   UNL     1      44.760 -29.752 -27.533  1.00  0.00     0.293 HD
ENDBRANCH   2  22
BRANCH   6  24
ATOM     24  O   UNL     1      50.709 -29.675 -29.630  1.00  0.00    -0.507 OA
ATOM     25  H   UNL     1      50.596 -30.529 -29.105  1.00  0.00     0.293 HD
ENDBRANCH   6  24
BRANCH   8  26
ATOM     26  O   UNL     1      49.897 -27.652 -33.890  1.00  0.00    -0.508 OA
ATOM     27  H   UNL     1      50.198 -28.266 -34.638  1.00  0.00     0.293 HD
ENDBRANCH   8  26
TORSDOF 6
ENDMDL
MODEL 8
REMARK VINA RESULT:    -5.707      4.949      6.073
REMARK INTER + INTRA:          -7.064
REMARK INTER:                  -6.746
REMARK INTRA:                  -0.319
REMARK UNBOUND:                -0.189
REMARK SMILES O=c1c(O)c(-c2ccc(O)c(O)c2)oc2cc(O)cc(O)c12
REMARK SMILES IDX 5 1 3 2 2 3 1 4 22 5 20 6 19 7 17 8 16 9 15 10 14 11 6 12
REMARK SMILES IDX 7 13 8 14 9 15 13 16 11 17 10 18 12 20 4 22 21 24 18 26
REMARK H PARENT 10 19 12 21 4 23 21 25 18 27
REMARK Flexibility Score: inf
ROOT
ATOM      1  C   UNL     1      52.077 -41.778 -29.246  1.00  0.00     0.180 A 
ATOM      2  C   UNL     1      53.242 -41.744 -28.461  1.00  0.00     0.208 A 
ATOM      3  C   UNL     1      54.464 -41.416 -29.069  1.00  0.00     0.238 A 
ATOM      4  O   UNL     1      55.494 -41.334 -28.351  1.00  0.00    -0.285 OA
ATOM      5  C   UNL     1      54.509 -41.143 -30.457  1.00  0.00     0.111 A 
ATOM      6  C   UNL     1      55.699 -40.840 -31.186  1.00  0.00     0.134 A 
ATOM      7  C   UNL     1      55.608 -40.459 -32.530  1.00  0.00     0.093 A 
ATOM      8  C   UNL     1      54.379 -40.432 -33.189  1.00  0.00     0.123 A 
ATOM      9  C   UNL     1      53.216 -40.785 -32.502  1.00  0.00     0.094 A 
ATOM     10  C   UNL     1      53.271 -41.134 -31.151  1.00  0.00     0.146 A 
ATOM     11  O   UNL     1      52.141 -41.453 -30.532  1.00  0.00    -0.452 OA
ENDROOT
BRANCH   1  12
ATOM     12  C   UNL     1      50.756 -42.138 -28.682  1.00  0.00     0.025 A 
ATOM     13  C   UNL     1      50.382 -43.479 -28.496  1.00  0.00     0.016 A 
ATOM     14  C   UNL     1      49.122 -43.794 -27.985  1.00  0.00     0.051 A 
ATOM     15  C   UNL     1      48.208 -42.786 -27.662  1.00  0.00     0.157 A 
ATOM     16  C   UNL     1      49.833 -41.125 -28.379  1.00  0.00     0.062 A 
ATOM     17  C   UNL     1      48.567 -41.433 -27.866  1.00  0.00     0.158 A 
BRANCH  15  18
ATOM     18  O   UNL     1      46.966 -43.168 -27.150  1.00  0.00    -0.504 OA
ATOM     19  H   UNL     1      46.324 -43.782 -27.627  1.00  0.00     0.293 HD
ENDBRANCH  15  18
BRANCH  17  20
ATOM     20  O   UNL     1      47.705 -40.372 -27.577  1.00  0.00    -0.504 OA
ATOM     21  H   UNL     1      47.227 -40.258 -26.695  1.00  0.00     0.293 HD
ENDBRANCH  17  20
ENDBRANCH   1  12
BRANCH   2  22
ATOM     22  O   UNL     1      53.172 -41.995 -27.088  1.00  0.00    -0.502 OA
ATOM     23  H   UNL     1      53.726 -41.482 -26.412  1.00  0.00     0.293 HD
ENDBRANCH   2  22
BRANCH   6  24
ATOM     24  O   UNL     1      56.987 -40.925 -30.648  1.00  0.00    -0.507 OA
ATOM     25  H   UNL     1      57.605 -40.140 -30.511  1.00  0.00     0.293 HD
ENDBRANCH   6  24
BRANCH   8  26
ATOM     26  O   UNL     1      54.327 -40.063 -34.532  1.00  0.00    -0.508 OA
ATOM     27  H   UNL     1      53.794 -40.598 -35.208  1.00  0.00     0.293 HD
ENDBRANCH   8  26
TORSDOF 6
ENDMDL
MODEL 9
REMARK VINA RESULT:    -5.617     14.827     16.321
REMARK INTER + INTRA:          -6.956
REMARK INTER:                  -7.077
REMARK INTRA:                   0.121
REMARK UNBOUND:                -0.189
REMARK SMILES O=c1c(O)c(-c2ccc(O)c(O)c2)oc2cc(O)cc(O)c12
REMARK SMILES IDX 5 1 3 2 2 3 1 4 22 5 20 6 19 7 17 8 16 9 15 10 14 11 6 12
REMARK SMILES IDX 7 13 8 14 9 15 13 16 11 17 10 18 12 20 4 22 21 24 18 26
REMARK H PARENT 10 19 12 21 4 23 21 25 18 27
REMARK Flexibility Score: inf
ROOT
ATOM      1  C   UNL     1      45.395 -29.116 -30.352  1.00  0.00     0.180 A 
ATOM      2  C   UNL     1      46.001 -28.547 -31.486  1.00  0.00     0.208 A 
ATOM      3  C   UNL     1      47.400 -28.579 -31.598  1.00  0.00     0.238 A 
ATOM      4  O   UNL     1      47.932 -28.116 -32.640  1.00  0.00    -0.285 OA
ATOM      5  C   UNL     1      48.176 -29.163 -30.569  1.00  0.00     0.111 A 
ATOM      6  C   UNL     1      49.603 -29.215 -30.559  1.00  0.00     0.134 A 
ATOM      7  C   UNL     1      50.262 -29.933 -29.555  1.00  0.00     0.093 A 
ATOM      8  C   UNL     1      49.551 -30.546 -28.523  1.00  0.00     0.123 A 
ATOM      9  C   UNL     1      48.158 -30.451 -28.490  1.00  0.00     0.094 A 
ATOM     10  C   UNL     1      47.471 -29.773 -29.499  1.00  0.00     0.146 A 
ATOM     11  O   UNL     1      46.146 -29.715 -29.435  1.00  0.00    -0.452 OA
ENDROOT
BRANCH   1  12
ATOM     12  C   UNL     1      43.928 -29.100 -30.151  1.00  0.00     0.025 A 
ATOM     13  C   UNL     1      43.156 -27.977 -30.491  1.00  0.00     0.016 A 
ATOM     14  C   UNL     1      41.778 -27.976 -30.270  1.00  0.00     0.051 A 
ATOM     15  C   UNL     1      41.145 -29.084 -29.695  1.00  0.00     0.157 A 
ATOM     16  C   UNL     1      43.299 -30.203 -29.554  1.00  0.00     0.062 A 
ATOM     17  C   UNL     1      41.917 -30.211 -29.328  1.00  0.00     0.158 A 
BRANCH  15  18
ATOM     18  O   UNL     1      39.763 -29.021 -29.504  1.00  0.00    -0.504 OA
ATOM     19  H   UNL     1      39.134 -28.497 -30.094  1.00  0.00     0.293 HD
ENDBRANCH  15  18
BRANCH  17  20
ATOM     20  O   UNL     1      41.358 -31.348 -28.740  1.00  0.00    -0.504 OA
ATOM     21  H   UNL     1      40.366 -31.515 -28.665  1.00  0.00     0.293 HD
ENDBRANCH  17  20
ENDBRANCH   1  12
BRANCH   2  22
ATOM     22  O   UNL     1      45.214 -27.995 -32.500  1.00  0.00    -0.502 OA
ATOM     23  H   UNL     1      45.466 -28.059 -33.480  1.00  0.00     0.293 HD
ENDBRANCH   2  22
BRANCH   6  24
ATOM     24  O   UNL     1      50.414 -28.559 -31.491  1.00  0.00    -0.507 OA
ATOM     25  H   UNL     1      51.396 -28.370 -31.365  1.00  0.00     0.293 HD
ENDBRANCH   6  24
BRANCH   8  26
ATOM     26  O   UNL     1      50.240 -31.239 -27.531  1.00  0.00    -0.508 OA
ATOM     27  H   UNL     1      50.605 -32.171 -27.692  1.00  0.00     0.293 HD
ENDBRANCH   8  26
TORSDOF 6
ENDMDL
