MODEL 1
REMARK VINA RESULT:    -6.460      0.000      0.000
REMARK INTER + INTRA:         -11.520
REMARK INTER:                 -10.992
REMARK INTRA:                  -0.528
REMARK UNBOUND:                -0.528
REMARK SMILES CCCCCCCCCCCCCC(=O)[O-]
REMARK SMILES IDX 8 1 9 2 10 3 11 4 12 5 13 6 14 7 15 8 16 9 7 10 6 11 5 12
REMARK SMILES IDX 4 13 3 14 2 15 1 16
REMARK H PARENT
REMARK Flexibility Score: inf
ROOT
ATOM      1  C   UNL     1      -3.328   9.396 -39.708  1.00  0.00     0.000 C 
ENDROOT
BRANCH   1   2
ATOM      2  C   UNL     1      -4.545   8.948 -38.881  1.00  0.00     0.000 C 
BRANCH   2   3
ATOM      3  C   UNL     1      -5.873   9.102 -39.643  1.00  0.00     0.000 C 
BRANCH   3   4
ATOM      4  C   UNL     1      -6.943   8.052 -39.299  1.00  0.00     0.000 C 
BRANCH   4   5
ATOM      5  C   UNL     1      -7.347   7.189 -40.504  1.00  0.00     0.006 C 
BRANCH   5   6
ATOM      6  C   UNL     1      -7.889   5.831 -40.049  1.00  0.00     0.053 C 
BRANCH   6   7
ATOM      7  C   UNL     1      -8.191   4.965 -41.232  1.00  0.00     0.041 C 
ATOM      8  O   UNL     1      -7.785   5.294 -42.378  1.00  0.00    -0.550 OA
ATOM      9  O   UNL     1      -8.879   3.770 -41.062  1.00  0.00    -0.550 OA
ENDBRANCH   6   7
ENDBRANCH   5   6
ENDBRANCH   4   5
ENDBRANCH   3   4
ENDBRANCH   2   3
ENDBRANCH   1   2
BRANCH   1  10
ATOM     10  C   UNL     1      -2.153   8.409 -39.613  1.00  0.00     0.000 C 
BRANCH  10  11
ATOM     11  C   UNL     1      -1.108   8.835 -38.570  1.00  0.00    -0.000 C 
BRANCH  11  12
ATOM     12  C   UNL     1      -1.093  10.361 -38.399  1.00  0.00    -0.000 C 
BRANCH  12  13
ATOM     13  C   UNL     1       0.332  10.934 -38.331  1.00  0.00    -0.000 C 
BRANCH  13  14
ATOM     14  C   UNL     1       0.400  12.265 -37.563  1.00  0.00    -0.000 C 
BRANCH  14  15
ATOM     15  C   UNL     1      -0.956  12.984 -37.512  1.00  0.00    -0.003 C 
ATOM     16  C   UNL     1      -1.449  13.215 -36.084  1.00  0.00     0.004 C 
ENDBRANCH  14  15
ENDBRANCH  13  14
ENDBRANCH  12  13
ENDBRANCH  11  12
ENDBRANCH  10  11
ENDBRANCH   1  10
TORSDOF 12
ENDMDL
MODEL 2
REMARK VINA RESULT:    -5.816      4.226      8.566
REMARK INTER + INTRA:         -10.425
REMARK INTER:                 -10.039
REMARK INTRA:                  -0.386
REMARK UNBOUND:                -0.528
REMARK SMILES CCCCCCCCCCCCCC(=O)[O-]
REMARK SMILES IDX 8 1 9 2 10 3 11 4 12 5 13 6 14 7 15 8 16 9 7 10 6 11 5 12
REMARK SMILES IDX 4 13 3 14 2 15 1 16
REMARK H PARENT
REMARK Flexibility Score: inf
ROOT
ATOM      1  C   UNL     1      -3.115   9.257 -39.749  1.00  0.00     0.000 C 
ENDROOT
BRANCH   1   2
ATOM      2  C   UNL     1      -1.936   8.316 -39.447  1.00  0.00     0.000 C 
BRANCH   2   3
ATOM      3  C   UNL     1      -0.914   8.933 -38.474  1.00  0.00     0.000 C 
BRANCH   3   4
ATOM      4  C   UNL     1      -1.035  10.456 -38.288  1.00  0.00     0.000 C 
BRANCH   4   5
ATOM      5  C   UNL     1       0.318  11.180 -38.375  1.00  0.00     0.006 C 
BRANCH   5   6
ATOM      6  C   UNL     1       0.437  12.250 -37.286  1.00  0.00     0.053 C 
BRANCH   6   7
ATOM      7  C   UNL     1      -0.886  12.909 -37.052  1.00  0.00     0.041 C 
ATOM      8  O   UNL     1      -1.275  13.836 -37.811  1.00  0.00    -0.550 OA
ATOM      9  O   UNL     1      -1.712  12.467 -36.027  1.00  0.00    -0.550 OA
ENDBRANCH   6   7
ENDBRANCH   5   6
ENDBRANCH   4   5
ENDBRANCH   3   4
ENDBRANCH   2   3
ENDBRANCH   1   2
BRANCH   1  10
ATOM     10  C   UNL     1      -4.389   8.874 -38.977  1.00  0.00     0.000 C 
BRANCH  10  11
ATOM     11  C   UNL     1      -5.671   9.308 -39.704  1.00  0.00    -0.000 C 
BRANCH  11  12
ATOM     12  C   UNL     1      -6.918   8.795 -38.971  1.00  0.00    -0.000 C 
BRANCH  12  13
ATOM     13  C   UNL     1      -7.323   7.379 -39.412  1.00  0.00    -0.000 C 
BRANCH  13  14
ATOM     14  C   UNL     1      -7.400   7.234 -40.942  1.00  0.00    -0.000 C 
BRANCH  14  15
ATOM     15  C   UNL     1      -7.632   5.782 -41.384  1.00  0.00    -0.003 C 
ATOM     16  C   UNL     1      -8.264   4.924 -40.287  1.00  0.00     0.004 C 
ENDBRANCH  14  15
ENDBRANCH  13  14
ENDBRANCH  12  13
ENDBRANCH  11  12
ENDBRANCH  10  11
ENDBRANCH   1  10
TORSDOF 12
ENDMDL
MODEL 3
REMARK VINA RESULT:    -5.802      2.446      4.248
REMARK INTER + INTRA:         -10.400
REMARK INTER:                  -9.960
REMARK INTRA:                  -0.440
REMARK UNBOUND:                -0.528
REMARK SMILES CCCCCCCCCCCCCC(=O)[O-]
REMARK SMILES IDX 8 1 9 2 10 3 11 4 12 5 13 6 14 7 15 8 16 9 7 10 6 11 5 12
REMARK SMILES IDX 4 13 3 14 2 15 1 16
REMARK H PARENT
REMARK Flexibility Score: inf
ROOT
ATOM      1  C   UNL     1      -3.302   8.676 -39.318  1.00  0.00     0.000 C 
ENDROOT
BRANCH   1   2
ATOM      2  C   UNL     1      -4.634   9.178 -38.734  1.00  0.00     0.000 C 
BRANCH   2   3
ATOM      3  C   UNL     1      -5.788   9.127 -39.752  1.00  0.00     0.000 C 
BRANCH   3   4
ATOM      4  C   UNL     1      -6.931   8.164 -39.386  1.00  0.00     0.000 C 
BRANCH   4   5
ATOM      5  C   UNL     1      -7.343   7.252 -40.552  1.00  0.00     0.006 C 
BRANCH   5   6
ATOM      6  C   UNL     1      -7.899   5.921 -40.036  1.00  0.00     0.053 C 
BRANCH   6   7
ATOM      7  C   UNL     1      -8.172   4.991 -41.176  1.00  0.00     0.041 C 
ATOM      8  O   UNL     1      -8.816   3.926 -40.984  1.00  0.00    -0.550 OA
ATOM      9  O   UNL     1      -7.756   5.322 -42.459  1.00  0.00    -0.550 OA
ENDBRANCH   6   7
ENDBRANCH   5   6
ENDBRANCH   4   5
ENDBRANCH   3   4
ENDBRANCH   2   3
ENDBRANCH   1   2
BRANCH   1  10
ATOM     10  C   UNL     1      -2.081   9.341 -38.661  1.00  0.00     0.000 C 
BRANCH  10  11
ATOM     11  C   UNL     1      -0.752   8.844 -39.249  1.00  0.00    -0.000 C 
BRANCH  11  12
ATOM     12  C   UNL     1      -0.938   7.500 -39.969  1.00  0.00    -0.000 C 
BRANCH  12  13
ATOM     13  C   UNL     1      -0.171   7.431 -41.300  1.00  0.00    -0.000 C 
BRANCH  13  14
ATOM     14  C   UNL     1       0.544   6.084 -41.502  1.00  0.00    -0.000 C 
BRANCH  14  15
ATOM     15  C   UNL     1       1.932   6.245 -42.139  1.00  0.00    -0.003 C 
ATOM     16  C   UNL     1       2.937   5.209 -41.635  1.00  0.00     0.004 C 
ENDBRANCH  14  15
ENDBRANCH  13  14
ENDBRANCH  12  13
ENDBRANCH  11  12
ENDBRANCH  10  11
ENDBRANCH   1  10
TORSDOF 12
ENDMDL
MODEL 4
REMARK VINA RESULT:    -5.362      2.735      3.238
REMARK INTER + INTRA:          -9.652
REMARK INTER:                  -8.850
REMARK INTRA:                  -0.801
REMARK UNBOUND:                -0.528
REMARK SMILES CCCCCCCCCCCCCC(=O)[O-]
REMARK SMILES IDX 8 1 9 2 10 3 11 4 12 5 13 6 14 7 15 8 16 9 7 10 6 11 5 12
REMARK SMILES IDX 4 13 3 14 2 15 1 16
REMARK H PARENT
REMARK Flexibility Score: inf
ROOT
ATOM      1  C   UNL     1      -1.911   8.320 -39.493  1.00  0.00     0.000 C 
ENDROOT
BRANCH   1   2
ATOM      2  C   UNL     1      -3.181   9.014 -38.971  1.00  0.00     0.000 C 
BRANCH   2   3
ATOM      3  C   UNL     1      -3.984   9.706 -40.088  1.00  0.00     0.000 C 
BRANCH   3   4
ATOM      4  C   UNL     1      -5.476   9.334 -40.138  1.00  0.00     0.000 C 
BRANCH   4   5
ATOM      5  C   UNL     1      -5.882   8.332 -39.046  1.00  0.00     0.006 C 
BRANCH   5   6
ATOM      6  C   UNL     1      -7.406   8.204 -38.959  1.00  0.00     0.053 C 
BRANCH   6   7
ATOM      7  C   UNL     1      -7.971   9.266 -38.068  1.00  0.00     0.041 C 
ATOM      8  O   UNL     1      -7.945   9.122 -36.817  1.00  0.00    -0.550 OA
ATOM      9  O   UNL     1      -8.481  10.435 -38.617  1.00  0.00    -0.550 OA
ENDBRANCH   6   7
ENDBRANCH   5   6
ENDBRANCH   4   5
ENDBRANCH   3   4
ENDBRANCH   2   3
ENDBRANCH   1   2
BRANCH   1  10
ATOM     10  C   UNL     1      -0.632   8.848 -38.823  1.00  0.00     0.000 C 
BRANCH  10  11
ATOM     11  C   UNL     1      -0.778  10.295 -38.329  1.00  0.00    -0.000 C 
BRANCH  11  12
ATOM     12  C   UNL     1       0.587  10.887 -37.951  1.00  0.00    -0.000 C 
BRANCH  12  13
ATOM     13  C   UNL     1       0.562  12.422 -37.864  1.00  0.00    -0.000 C 
BRANCH  13  14
ATOM     14  C   UNL     1      -0.863  12.984 -37.718  1.00  0.00    -0.000 C 
BRANCH  14  15
ATOM     15  C   UNL     1      -1.221  13.306 -36.260  1.00  0.00    -0.003 C 
ATOM     16  C   UNL     1      -2.302  12.381 -35.700  1.00  0.00     0.004 C 
ENDBRANCH  14  15
ENDBRANCH  13  14
ENDBRANCH  12  13
ENDBRANCH  11  12
ENDBRANCH  10  11
ENDBRANCH   1  10
TORSDOF 12
ENDMDL
MODEL 5
REMARK VINA RESULT:    -5.306      3.932      5.668
REMARK INTER + INTRA:          -9.556
REMARK INTER:                  -8.885
REMARK INTRA:                  -0.671
REMARK UNBOUND:                -0.528
REMARK SMILES CCCCCCCCCCCCCC(=O)[O-]
REMARK SMILES IDX 8 1 9 2 10 3 11 4 12 5 13 6 14 7 15 8 16 9 7 10 6 11 5 12
REMARK SMILES IDX 4 13 3 14 2 15 1 16
REMARK H PARENT
REMARK Flexibility Score: inf
ROOT
ATOM      1  C   UNL     1      -0.992   8.412 -38.661  1.00  0.00     0.000 C 
ENDROOT
BRANCH   1   2
ATOM      2  C   UNL     1      -2.016   9.559 -38.673  1.00  0.00     0.000 C 
BRANCH   2   3
ATOM      3  C   UNL     1      -3.184   9.307 -39.644  1.00  0.00     0.000 C 
BRANCH   3   4
ATOM      4  C   UNL     1      -4.528   8.981 -38.969  1.00  0.00     0.000 C 
BRANCH   4   5
ATOM      5  C   UNL     1      -5.726   9.120 -39.920  1.00  0.00     0.006 C 
BRANCH   5   6
ATOM      6  C   UNL     1      -6.974   8.457 -39.331  1.00  0.00     0.053 C 
BRANCH   6   7
ATOM      7  C   UNL     1      -7.592   9.336 -38.289  1.00  0.00     0.041 C 
ATOM      8  O   UNL     1      -8.318  10.307 -38.630  1.00  0.00    -0.550 OA
ATOM      9  O   UNL     1      -7.406   9.055 -36.942  1.00  0.00    -0.550 OA
ENDBRANCH   6   7
ENDBRANCH   5   6
ENDBRANCH   4   5
ENDBRANCH   3   4
ENDBRANCH   2   3
ENDBRANCH   1   2
BRANCH   1  10
ATOM     10  C   UNL     1      -0.841   7.739 -40.035  1.00  0.00     0.000 C 
BRANCH  10  11
ATOM     11  C   UNL     1      -0.902   6.207 -39.951  1.00  0.00    -0.000 C 
BRANCH  11  12
ATOM     12  C   UNL     1      -0.008   5.562 -41.021  1.00  0.00    -0.000 C 
BRANCH  12  13
ATOM     13  C   UNL     1       0.691   6.601 -41.912  1.00  0.00    -0.000 C 
BRANCH  13  14
ATOM     14  C   UNL     1       2.047   6.108 -42.445  1.00  0.00    -0.000 C 
BRANCH  14  15
ATOM     15  C   UNL     1       2.754   5.159 -41.467  1.00  0.00    -0.003 C 
ATOM     16  C   UNL     1       4.278   5.222 -41.580  1.00  0.00     0.004 C 
ENDBRANCH  14  15
ENDBRANCH  13  14
ENDBRANCH  12  13
ENDBRANCH  11  12
ENDBRANCH  10  11
ENDBRANCH   1  10
TORSDOF 12
ENDMDL
MODEL 6
REMARK VINA RESULT:    -5.181      4.195      8.060
REMARK INTER + INTRA:          -9.344
REMARK INTER:                  -8.861
REMARK INTRA:                  -0.483
REMARK UNBOUND:                -0.528
REMARK SMILES CCCCCCCCCCCCCC(=O)[O-]
REMARK SMILES IDX 8 1 9 2 10 3 11 4 12 5 13 6 14 7 15 8 16 9 7 10 6 11 5 12
REMARK SMILES IDX 4 13 3 14 2 15 1 16
REMARK H PARENT
REMARK Flexibility Score: inf
ROOT
ATOM      1  C   UNL     1      -3.164   9.215 -39.606  1.00  0.00     0.000 C 
ENDROOT
BRANCH   1   2
ATOM      2  C   UNL     1      -1.968   9.402 -38.658  1.00  0.00     0.000 C 
BRANCH   2   3
ATOM      3  C   UNL     1      -0.689   8.711 -39.167  1.00  0.00     0.000 C 
BRANCH   3   4
ATOM      4  C   UNL     1      -0.906   7.315 -39.775  1.00  0.00     0.000 C 
BRANCH   4   5
ATOM      5  C   UNL     1      -0.177   7.123 -41.113  1.00  0.00     0.006 C 
BRANCH   5   6
ATOM      6  C   UNL     1       0.377   5.700 -41.236  1.00  0.00     0.053 C 
BRANCH   6   7
ATOM      7  C   UNL     1       1.698   5.712 -41.940  1.00  0.00     0.041 C 
ATOM      8  O   UNL     1       1.817   6.288 -43.053  1.00  0.00    -0.550 OA
ATOM      9  O   UNL     1       2.808   5.128 -41.344  1.00  0.00    -0.550 OA
ENDBRANCH   6   7
ENDBRANCH   5   6
ENDBRANCH   4   5
ENDBRANCH   3   4
ENDBRANCH   2   3
ENDBRANCH   1   2
BRANCH   1  10
ATOM     10  C   UNL     1      -4.480   8.955 -38.854  1.00  0.00     0.000 C 
BRANCH  10  11
ATOM     11  C   UNL     1      -5.718   9.278 -39.703  1.00  0.00    -0.000 C 
BRANCH  11  12
ATOM     12  C   UNL     1      -6.933   8.463 -39.236  1.00  0.00    -0.000 C 
BRANCH  12  13
ATOM     13  C   UNL     1      -7.388   7.430 -40.279  1.00  0.00    -0.000 C 
BRANCH  13  14
ATOM     14  C   UNL     1      -7.658   6.046 -39.665  1.00  0.00    -0.000 C 
BRANCH  14  15
ATOM     15  C   UNL     1      -8.206   5.043 -40.691  1.00  0.00    -0.003 C 
ATOM     16  C   UNL     1      -7.923   5.462 -42.134  1.00  0.00     0.004 C 
ENDBRANCH  14  15
ENDBRANCH  13  14
ENDBRANCH  12  13
ENDBRANCH  11  12
ENDBRANCH  10  11
ENDBRANCH   1  10
TORSDOF 12
ENDMDL
MODEL 7
REMARK VINA RESULT:    -4.804      5.561      8.399
REMARK INTER + INTRA:          -8.703
REMARK INTER:                  -8.120
REMARK INTRA:                  -0.582
REMARK UNBOUND:                -0.528
REMARK SMILES CCCCCCCCCCCCCC(=O)[O-]
REMARK SMILES IDX 8 1 9 2 10 3 11 4 12 5 13 6 14 7 15 8 16 9 7 10 6 11 5 12
REMARK SMILES IDX 4 13 3 14 2 15 1 16
REMARK H PARENT
REMARK Flexibility Score: inf
ROOT
ATOM      1  C   UNL     1      -1.419   7.784 -38.979  1.00  0.00     0.000 C 
ENDROOT
BRANCH   1   2
ATOM      2  C   UNL     1      -2.052   9.181 -39.106  1.00  0.00     0.000 C 
BRANCH   2   3
ATOM      3  C   UNL     1      -1.406  10.216 -38.166  1.00  0.00     0.000 C 
BRANCH   3   4
ATOM      4  C   UNL     1       0.010  10.661 -38.569  1.00  0.00     0.000 C 
BRANCH   4   5
ATOM      5  C   UNL     1       0.668  11.582 -37.529  1.00  0.00     0.006 C 
BRANCH   5   6
ATOM      6  C   UNL     1       0.436  13.055 -37.877  1.00  0.00     0.053 C 
BRANCH   6   7
ATOM      7  C   UNL     1      -0.916  13.496 -37.410  1.00  0.00     0.041 C 
ATOM      8  O   UNL     1      -1.657  14.176 -38.169  1.00  0.00    -0.550 OA
ATOM      9  O   UNL     1      -1.377  13.116 -36.157  1.00  0.00    -0.550 OA
ENDBRANCH   6   7
ENDBRANCH   5   6
ENDBRANCH   4   5
ENDBRANCH   3   4
ENDBRANCH   2   3
ENDBRANCH   1   2
BRANCH   1  10
ATOM     10  C   UNL     1      -0.758   7.314 -40.285  1.00  0.00     0.000 C 
BRANCH  10  11
ATOM     11  C   UNL     1      -0.478   5.804 -40.294  1.00  0.00    -0.000 C 
BRANCH  11  12
ATOM     12  C   UNL     1       0.158   5.370 -41.622  1.00  0.00    -0.000 C 
BRANCH  12  13
ATOM     13  C   UNL     1       0.883   6.523 -42.335  1.00  0.00    -0.000 C 
BRANCH  13  14
ATOM     14  C   UNL     1       2.385   6.250 -42.528  1.00  0.00    -0.000 C 
BRANCH  14  15
ATOM     15  C   UNL     1       2.907   5.150 -41.592  1.00  0.00    -0.003 C 
ATOM     16  C   UNL     1       4.433   5.132 -41.496  1.00  0.00     0.004 C 
ENDBRANCH  14  15
ENDBRANCH  13  14
ENDBRANCH  12  13
ENDBRANCH  11  12
ENDBRANCH  10  11
ENDBRANCH   1  10
TORSDOF 12
ENDMDL
MODEL 8
REMARK VINA RESULT:    -4.790      5.884      8.953
REMARK INTER + INTRA:          -8.678
REMARK INTER:                  -8.116
REMARK INTRA:                  -0.562
REMARK UNBOUND:                -0.528
REMARK SMILES CCCCCCCCCCCCCC(=O)[O-]
REMARK SMILES IDX 8 1 9 2 10 3 11 4 12 5 13 6 14 7 15 8 16 9 7 10 6 11 5 12
REMARK SMILES IDX 4 13 3 14 2 15 1 16
REMARK H PARENT
REMARK Flexibility Score: inf
ROOT
ATOM      1  C   UNL     1      -0.948   8.968 -38.250  1.00  0.00     0.000 C 
ENDROOT
BRANCH   1   2
ATOM      2  C   UNL     1      -0.928  10.504 -38.156  1.00  0.00     0.000 C 
BRANCH   2   3
ATOM      3  C   UNL     1       0.460  11.062 -37.795  1.00  0.00     0.000 C 
BRANCH   3   4
ATOM      4  C   UNL     1       0.614  12.582 -37.976  1.00  0.00     0.000 C 
BRANCH   4   5
ATOM      5  C   UNL     1       1.370  12.960 -39.260  1.00  0.00     0.006 C 
BRANCH   5   6
ATOM      6  C   UNL     1       1.928  11.715 -39.954  1.00  0.00     0.053 C 
BRANCH   6   7
ATOM      7  C   UNL     1       2.655  12.095 -41.206  1.00  0.00     0.041 C 
ATOM      8  O   UNL     1       2.724  11.286 -42.168  1.00  0.00    -0.550 OA
ATOM      9  O   UNL     1       3.213  13.361 -41.329  1.00  0.00    -0.550 OA
ENDBRANCH   6   7
ENDBRANCH   5   6
ENDBRANCH   4   5
ENDBRANCH   3   4
ENDBRANCH   2   3
ENDBRANCH   1   2
BRANCH   1  10
ATOM     10  C   UNL     1      -1.579   8.464 -39.558  1.00  0.00     0.000 C 
BRANCH  10  11
ATOM     11  C   UNL     1      -0.902   7.191 -40.087  1.00  0.00    -0.000 C 
BRANCH  11  12
ATOM     12  C   UNL     1      -0.041   7.497 -41.321  1.00  0.00    -0.000 C 
BRANCH  12  13
ATOM     13  C   UNL     1       0.589   6.235 -41.931  1.00  0.00    -0.000 C 
BRANCH  13  14
ATOM     14  C   UNL     1       2.117   6.345 -42.073  1.00  0.00    -0.000 C 
BRANCH  14  15
ATOM     15  C   UNL     1       2.838   5.039 -41.706  1.00  0.00    -0.003 C 
ATOM     16  C   UNL     1       4.320   5.250 -41.395  1.00  0.00     0.004 C 
ENDBRANCH  14  15
ENDBRANCH  13  14
ENDBRANCH  12  13
ENDBRANCH  11  12
ENDBRANCH  10  11
ENDBRANCH   1  10
TORSDOF 12
ENDMDL
MODEL 9
REMARK VINA RESULT:    -4.786      5.779      7.616
REMARK INTER + INTRA:          -8.672
REMARK INTER:                  -8.197
REMARK INTRA:                  -0.475
REMARK UNBOUND:                -0.528
REMARK SMILES CCCCCCCCCCCCCC(=O)[O-]
REMARK SMILES IDX 8 1 9 2 10 3 11 4 12 5 13 6 14 7 15 8 16 9 7 10 6 11 5 12
REMARK SMILES IDX 4 13 3 14 2 15 1 16
REMARK H PARENT
REMARK Flexibility Score: inf
ROOT
ATOM      1  C   UNL     1      -0.918   7.465 -40.254  1.00  0.00     0.000 C 
ENDROOT
BRANCH   1   2
ATOM      2  C   UNL     1      -0.494   5.990 -40.147  1.00  0.00     0.000 C 
BRANCH   2   3
ATOM      3  C   UNL     1       0.184   5.469 -41.427  1.00  0.00     0.000 C 
BRANCH   3   4
ATOM      4  C   UNL     1       1.063   6.498 -42.159  1.00  0.00     0.000 C 
BRANCH   4   5
ATOM      5  C   UNL     1       2.458   5.957 -42.506  1.00  0.00     0.006 C 
BRANCH   5   6
ATOM      6  C   UNL     1       3.151   5.389 -41.265  1.00  0.00     0.053 C 
BRANCH   6   7
ATOM      7  C   UNL     1       4.516   4.882 -41.612  1.00  0.00     0.041 C 
ATOM      8  O   UNL     1       4.908   3.769 -41.175  1.00  0.00    -0.550 OA
ATOM      9  O   UNL     1       5.336   5.618 -42.459  1.00  0.00    -0.550 OA
ENDBRANCH   6   7
ENDBRANCH   5   6
ENDBRANCH   4   5
ENDBRANCH   3   4
ENDBRANCH   2   3
ENDBRANCH   1   2
BRANCH   1  10
ATOM     10  C   UNL     1      -1.284   8.075 -38.892  1.00  0.00     0.000 C 
BRANCH  10  11
ATOM     11  C   UNL     1      -2.301   9.220 -39.013  1.00  0.00    -0.000 C 
BRANCH  11  12
ATOM     12  C   UNL     1      -1.760  10.506 -38.370  1.00  0.00    -0.000 C 
BRANCH  12  13
ATOM     13  C   UNL     1      -0.226  10.595 -38.427  1.00  0.00    -0.000 C 
BRANCH  13  14
ATOM     14  C   UNL     1       0.330  11.767 -37.599  1.00  0.00    -0.000 C 
BRANCH  14  15
ATOM     15  C   UNL     1      -0.606  12.984 -37.600  1.00  0.00    -0.003 C 
ATOM     16  C   UNL     1      -1.383  13.132 -36.291  1.00  0.00     0.004 C 
ENDBRANCH  14  15
ENDBRANCH  13  14
ENDBRANCH  12  13
ENDBRANCH  11  12
ENDBRANCH  10  11
ENDBRANCH   1  10
TORSDOF 12
ENDMDL
