MODEL 1
REMARK VINA RESULT:    -9.179      0.000      0.000
REMARK INTER + INTRA:         -12.153
REMARK INTER:                 -12.667
REMARK INTRA:                   0.514
REMARK UNBOUND:                 0.514
REMARK SMILES CC[C@H](CC[C@H](C)[C@H]1CC[C@H]2[C@H]3CC=C4C[C@@H](O)CC[C@]4(C)[C@@H]3CC[C@]12C)C(C)C
REMARK SMILES IDX 5 1 4 2 3 3 2 4 1 5 28 6 29 7 30 8 6 9 7 10 8 11 9 12 26 13
REMARK SMILES IDX 10 14 11 15 25 16 27 17 12 18 24 19 23 20 13 21 21 22 14 23
REMARK SMILES IDX 15 24 20 25 22 26 16 27 19 28 17 29 18 30
REMARK H PARENT 18 31
REMARK Flexibility Score: inf
ROOT
ATOM      1  C   UNL     1       2.231  26.518  43.470  1.00  0.00     0.004 C 
ENDROOT
BRANCH   1   2
ATOM      2  C   UNL     1       1.771  27.849  42.819  1.00  0.00     0.004 C 
BRANCH   2   3
ATOM      3  C   UNL     1       0.278  27.848  42.361  1.00  0.00    -0.009 C 
BRANCH   3   4
ATOM      4  C   UNL     1      -0.601  28.597  43.403  1.00  0.00     0.000 C 
ATOM      5  C   UNL     1      -1.374  27.675  44.352  1.00  0.00     0.004 C 
ENDBRANCH   3   4
BRANCH   3   6
ATOM      6  C   UNL     1       0.097  28.393  40.901  1.00  0.00    -0.014 C 
ATOM      7  C   UNL     1       1.020  29.591  40.611  1.00  0.00     0.007 C 
ATOM      8  C   UNL     1      -1.355  28.815  40.616  1.00  0.00     0.007 C 
ENDBRANCH   3   6
ENDBRANCH   2   3
ENDBRANCH   1   2
BRANCH   1   9
ATOM      9  C   UNL     1       3.618  25.988  43.012  1.00  0.00    -0.011 C 
ATOM     10  C   UNL     1       3.507  25.364  41.608  1.00  0.00     0.008 C 
BRANCH   9  11
ATOM     11  C   UNL     1       4.310  25.004  44.020  1.00  0.00    -0.002 C 
ATOM     12  C   UNL     1       3.283  24.091  44.751  1.00  0.00     0.005 C 
ATOM     13  C   UNL     1       5.373  23.999  43.466  1.00  0.00    -0.026 C 
ATOM     14  C   UNL     1       3.982  22.754  45.041  1.00  0.00     0.005 C 
ATOM     15  C   UNL     1       5.425  23.007  44.644  1.00  0.00    -0.001 C 
ATOM     16  C   UNL     1       6.808  24.599  43.254  1.00  0.00     0.007 C 
ATOM     17  C   UNL     1       4.839  23.340  42.153  1.00  0.00     0.012 C 
ATOM     18  C   UNL     1       6.424  21.822  44.515  1.00  0.00     0.000 C 
ATOM     19  C   UNL     1       7.975  23.693  43.752  1.00  0.00     0.005 C 
ATOM     20  C   UNL     1       7.634  22.187  43.617  1.00  0.00     0.003 C 
ATOM     21  C   UNL     1       5.864  20.479  44.039  1.00  0.00     0.031 C 
ATOM     22  C   UNL     1       8.820  21.173  43.830  1.00  0.00    -0.008 C 
ATOM     23  C   UNL     1       6.958  19.439  44.093  1.00  0.00    -0.027 C 
ATOM     24  C   UNL     1       8.283  19.736  44.017  1.00  0.00    -0.065 C 
ATOM     25  C   UNL     1       9.666  21.538  45.087  1.00  0.00     0.014 C 
ATOM     26  C   UNL     1       9.720  21.205  42.565  1.00  0.00     0.016 C 
ATOM     27  C   UNL     1       9.290  18.661  44.362  1.00  0.00     0.063 C 
ATOM     28  C   UNL     1      10.699  20.456  45.468  1.00  0.00     0.033 C 
ATOM     29  C   UNL     1      10.052  19.071  45.632  1.00  0.00     0.118 C 
BRANCH  29  30
ATOM     30  O   UNL     1      11.054  18.129  45.913  1.00  0.00    -0.393 OA
ATOM     31  H   UNL     1      10.981  17.419  45.223  1.00  0.00     0.210 HD
ENDBRANCH  29  30
ENDBRANCH   9  11
ENDBRANCH   1   9
TORSDOF 7
ENDMDL
MODEL 2
REMARK VINA RESULT:    -9.150      1.352      2.513
REMARK INTER + INTRA:         -12.114
REMARK INTER:                 -10.813
REMARK INTRA:                  -1.301
REMARK UNBOUND:                 0.514
REMARK SMILES CC[C@H](CC[C@H](C)[C@H]1CC[C@H]2[C@H]3CC=C4C[C@@H](O)CC[C@]4(C)[C@@H]3CC[C@]12C)C(C)C
REMARK SMILES IDX 5 1 4 2 3 3 2 4 1 5 28 6 29 7 30 8 6 9 7 10 8 11 9 12 26 13
REMARK SMILES IDX 10 14 11 15 25 16 27 17 12 18 24 19 23 20 13 21 21 22 14 23
REMARK SMILES IDX 15 24 20 25 22 26 16 27 19 28 17 29 18 30
REMARK H PARENT 18 31
REMARK Flexibility Score: inf
ROOT
ATOM      1  C   UNL     1       2.041  28.846  42.945  1.00  0.00     0.004 C 
ENDROOT
BRANCH   1   2
ATOM      2  C   UNL     1       0.798  29.013  43.861  1.00  0.00     0.004 C 
BRANCH   2   3
ATOM      3  C   UNL     1      -0.339  29.879  43.233  1.00  0.00    -0.009 C 
BRANCH   3   4
ATOM      4  C   UNL     1       0.099  30.404  41.836  1.00  0.00     0.000 C 
ATOM      5  C   UNL     1      -0.754  29.886  40.673  1.00  0.00     0.004 C 
ENDBRANCH   3   4
BRANCH   3   6
ATOM      6  C   UNL     1      -1.717  29.129  43.201  1.00  0.00    -0.014 C 
ATOM      7  C   UNL     1      -2.883  30.041  43.624  1.00  0.00     0.007 C 
ATOM      8  C   UNL     1      -1.719  27.882  44.103  1.00  0.00     0.007 C 
ENDBRANCH   3   6
ENDBRANCH   2   3
ENDBRANCH   1   2
BRANCH   1   9
ATOM      9  C   UNL     1       2.281  27.414  42.392  1.00  0.00    -0.011 C 
ATOM     10  C   UNL     1       1.016  26.907  41.674  1.00  0.00     0.008 C 
BRANCH   9  11
ATOM     11  C   UNL     1       2.790  26.377  43.454  1.00  0.00    -0.002 C 
ATOM     12  C   UNL     1       1.666  25.401  43.909  1.00  0.00     0.005 C 
ATOM     13  C   UNL     1       3.969  25.427  43.060  1.00  0.00    -0.026 C 
ATOM     14  C   UNL     1       2.332  24.058  44.248  1.00  0.00     0.005 C 
ATOM     15  C   UNL     1       3.817  24.360  44.161  1.00  0.00    -0.001 C 
ATOM     16  C   UNL     1       5.400  26.063  43.173  1.00  0.00     0.007 C 
ATOM     17  C   UNL     1       3.723  24.849  41.628  1.00  0.00     0.012 C 
ATOM     18  C   UNL     1       4.855  23.202  44.159  1.00  0.00     0.000 C 
ATOM     19  C   UNL     1       6.472  25.144  43.835  1.00  0.00     0.005 C 
ATOM     20  C   UNL     1       6.207  23.645  43.542  1.00  0.00     0.003 C 
ATOM     21  C   UNL     1       4.439  21.886  43.499  1.00  0.00     0.031 C 
ATOM     22  C   UNL     1       7.357  22.638  43.921  1.00  0.00    -0.008 C 
ATOM     23  C   UNL     1       5.530  20.861  43.703  1.00  0.00    -0.027 C 
ATOM     24  C   UNL     1       6.835  21.184  43.909  1.00  0.00    -0.065 C 
ATOM     25  C   UNL     1       7.929  22.932  45.341  1.00  0.00     0.014 C 
ATOM     26  C   UNL     1       8.487  22.769  42.864  1.00  0.00     0.016 C 
ATOM     27  C   UNL     1       7.785  20.104  44.379  1.00  0.00     0.063 C 
ATOM     28  C   UNL     1       8.897  21.844  45.851  1.00  0.00     0.033 C 
ATOM     29  C   UNL     1       8.270  20.441  45.798  1.00  0.00     0.118 C 
BRANCH  29  30
ATOM     30  O   UNL     1       9.224  19.497  46.212  1.00  0.00    -0.393 OA
ATOM     31  H   UNL     1      10.032  20.006  46.485  1.00  0.00     0.210 HD
ENDBRANCH  29  30
ENDBRANCH   9  11
ENDBRANCH   1   9
TORSDOF 7
ENDMDL
MODEL 3
REMARK VINA RESULT:    -9.092      1.266      3.023
REMARK INTER + INTRA:         -12.033
REMARK INTER:                 -12.559
REMARK INTRA:                   0.526
REMARK UNBOUND:                 0.514
REMARK SMILES CC[C@H](CC[C@H](C)[C@H]1CC[C@H]2[C@H]3CC=C4C[C@@H](O)CC[C@]4(C)[C@@H]3CC[C@]12C)C(C)C
REMARK SMILES IDX 5 1 4 2 3 3 2 4 1 5 28 6 29 7 30 8 6 9 7 10 8 11 9 12 26 13
REMARK SMILES IDX 10 14 11 15 25 16 27 17 12 18 24 19 23 20 13 21 21 22 14 23
REMARK SMILES IDX 15 24 20 25 22 26 16 27 19 28 17 29 18 30
REMARK H PARENT 18 31
REMARK Flexibility Score: inf
ROOT
ATOM      1  C   UNL     1       2.057  26.542  43.249  1.00  0.00     0.004 C 
ENDROOT
BRANCH   1   2
ATOM      2  C   UNL     1       0.655  27.102  43.612  1.00  0.00     0.004 C 
BRANCH   2   3
ATOM      3  C   UNL     1       0.565  28.660  43.569  1.00  0.00    -0.009 C 
BRANCH   3   4
ATOM      4  C   UNL     1       0.005  29.125  42.195  1.00  0.00     0.000 C 
ATOM      5  C   UNL     1       1.012  29.894  41.333  1.00  0.00     0.004 C 
ENDBRANCH   3   4
BRANCH   3   6
ATOM      6  C   UNL     1      -0.230  29.249  44.787  1.00  0.00    -0.014 C 
ATOM      7  C   UNL     1      -1.351  28.305  45.259  1.00  0.00     0.007 C 
ATOM      8  C   UNL     1      -0.850  30.620  44.464  1.00  0.00     0.007 C 
ENDBRANCH   3   6
ENDBRANCH   2   3
ENDBRANCH   1   2
BRANCH   1   9
ATOM      9  C   UNL     1       2.524  25.310  44.073  1.00  0.00    -0.011 C 
ATOM     10  C   UNL     1       2.844  25.733  45.518  1.00  0.00     0.008 C 
BRANCH   9  11
ATOM     11  C   UNL     1       3.713  24.508  43.436  1.00  0.00    -0.002 C 
ATOM     12  C   UNL     1       4.720  25.436  42.696  1.00  0.00     0.005 C 
ATOM     13  C   UNL     1       4.622  23.652  44.379  1.00  0.00    -0.026 C 
ATOM     14  C   UNL     1       6.111  24.795  42.817  1.00  0.00     0.005 C 
ATOM     15  C   UNL     1       5.831  23.443  43.448  1.00  0.00    -0.001 C 
ATOM     16  C   UNL     1       4.039  22.246  44.766  1.00  0.00     0.007 C 
ATOM     17  C   UNL     1       4.984  24.480  45.655  1.00  0.00     0.012 C 
ATOM     18  C   UNL     1       6.999  22.579  44.005  1.00  0.00     0.000 C 
ATOM     19  C   UNL     1       5.066  21.074  44.702  1.00  0.00     0.005 C 
ATOM     20  C   UNL     1       6.501  21.545  45.048  1.00  0.00     0.003 C 
ATOM     21  C   UNL     1       8.199  23.319  44.602  1.00  0.00     0.031 C 
ATOM     22  C   UNL     1       7.576  20.419  45.283  1.00  0.00    -0.008 C 
ATOM     23  C   UNL     1       9.265  22.316  44.975  1.00  0.00    -0.027 C 
ATOM     24  C   UNL     1       9.002  21.013  45.265  1.00  0.00    -0.065 C 
ATOM     25  C   UNL     1       7.500  19.318  44.183  1.00  0.00     0.014 C 
ATOM     26  C   UNL     1       7.320  19.785  46.677  1.00  0.00     0.016 C 
ATOM     27  C   UNL     1      10.158  20.041  45.348  1.00  0.00     0.063 C 
ATOM     28  C   UNL     1       8.671  18.313  44.236  1.00  0.00     0.033 C 
ATOM     29  C   UNL     1      10.038  19.016  44.209  1.00  0.00     0.118 C 
BRANCH  29  30
ATOM     30  O   UNL     1      11.051  18.051  44.326  1.00  0.00    -0.393 OA
ATOM     31  H   UNL     1      11.042  17.521  43.487  1.00  0.00     0.210 HD
ENDBRANCH  29  30
ENDBRANCH   9  11
ENDBRANCH   1   9
TORSDOF 7
ENDMDL
MODEL 4
REMARK VINA RESULT:    -9.055      3.468     11.034
REMARK INTER + INTRA:         -11.982
REMARK INTER:                 -12.506
REMARK INTRA:                   0.524
REMARK UNBOUND:                 0.514
REMARK SMILES CC[C@H](CC[C@H](C)[C@H]1CC[C@H]2[C@H]3CC=C4C[C@@H](O)CC[C@]4(C)[C@@H]3CC[C@]12C)C(C)C
REMARK SMILES IDX 5 1 4 2 3 3 2 4 1 5 28 6 29 7 30 8 6 9 7 10 8 11 9 12 26 13
REMARK SMILES IDX 10 14 11 15 25 16 27 17 12 18 24 19 23 20 13 21 21 22 14 23
REMARK SMILES IDX 15 24 20 25 22 26 16 27 19 28 17 29 18 30
REMARK H PARENT 18 31
REMARK Flexibility Score: inf
ROOT
ATOM      1  C   UNL     1      11.101  18.035  45.071  1.00  0.00     0.004 C 
ENDROOT
BRANCH   1   2
ATOM      2  C   UNL     1      12.315  17.518  45.888  1.00  0.00     0.004 C 
BRANCH   2   3
ATOM      3  C   UNL     1      12.383  15.963  46.006  1.00  0.00    -0.009 C 
BRANCH   3   4
ATOM      4  C   UNL     1      13.063  15.361  44.743  1.00  0.00     0.000 C 
ATOM      5  C   UNL     1      14.143  16.256  44.124  1.00  0.00     0.004 C 
ENDBRANCH   3   4
BRANCH   3   6
ATOM      6  C   UNL     1      13.049  15.490  47.345  1.00  0.00    -0.014 C 
ATOM      7  C   UNL     1      14.101  16.491  47.855  1.00  0.00     0.007 C 
ATOM      8  C   UNL     1      13.715  14.110  47.205  1.00  0.00     0.007 C 
ENDBRANCH   3   6
ENDBRANCH   2   3
ENDBRANCH   1   2
BRANCH   1   9
ATOM      9  C   UNL     1      10.415  19.316  45.622  1.00  0.00    -0.011 C 
ATOM     10  C   UNL     1       9.601  18.978  46.885  1.00  0.00     0.008 C 
BRANCH   9  11
ATOM     11  C   UNL     1       9.545  20.097  44.575  1.00  0.00    -0.002 C 
ATOM     12  C   UNL     1       8.851  19.143  43.559  1.00  0.00     0.005 C 
ATOM     13  C   UNL     1       8.376  20.994  45.100  1.00  0.00    -0.026 C 
ATOM     14  C   UNL     1       7.520  19.794  43.153  1.00  0.00     0.005 C 
ATOM     15  C   UNL     1       7.581  21.169  43.793  1.00  0.00    -0.001 C 
ATOM     16  C   UNL     1       8.809  22.412  45.618  1.00  0.00     0.007 C 
ATOM     17  C   UNL     1       7.568  20.220  46.192  1.00  0.00     0.012 C 
ATOM     18  C   UNL     1       6.307  22.060  43.865  1.00  0.00     0.000 C 
ATOM     19  C   UNL     1       7.893  23.584  45.149  1.00  0.00     0.005 C 
ATOM     20  C   UNL     1       6.420  23.133  44.978  1.00  0.00     0.003 C 
ATOM     21  C   UNL     1       4.961  21.350  44.021  1.00  0.00     0.031 C 
ATOM     22  C   UNL     1       5.353  24.272  44.773  1.00  0.00    -0.008 C 
ATOM     23  C   UNL     1       3.850  22.371  43.953  1.00  0.00    -0.027 C 
ATOM     24  C   UNL     1       4.016  23.684  44.270  1.00  0.00    -0.065 C 
ATOM     25  C   UNL     1       5.835  25.328  43.732  1.00  0.00     0.014 C 
ATOM     26  C   UNL     1       5.108  24.962  46.143  1.00  0.00     0.016 C 
ATOM     27  C   UNL     1       2.924  24.663  43.900  1.00  0.00     0.063 C 
ATOM     28  C   UNL     1       4.740  26.339  43.329  1.00  0.00     0.033 C 
ATOM     29  C   UNL     1       3.460  25.641  42.842  1.00  0.00     0.118 C 
BRANCH  29  30
ATOM     30  O   UNL     1       2.489  26.614  42.555  1.00  0.00    -0.393 OA
ATOM     31  H   UNL     1       2.628  27.356  43.200  1.00  0.00     0.210 HD
ENDBRANCH  29  30
ENDBRANCH   9  11
ENDBRANCH   1   9
TORSDOF 7
ENDMDL
MODEL 5
REMARK VINA RESULT:    -8.988      3.467     11.011
REMARK INTER + INTRA:         -11.890
REMARK INTER:                 -12.432
REMARK INTRA:                   0.542
REMARK UNBOUND:                 0.514
REMARK SMILES CC[C@H](CC[C@H](C)[C@H]1CC[C@H]2[C@H]3CC=C4C[C@@H](O)CC[C@]4(C)[C@@H]3CC[C@]12C)C(C)C
REMARK SMILES IDX 5 1 4 2 3 3 2 4 1 5 28 6 29 7 30 8 6 9 7 10 8 11 9 12 26 13
REMARK SMILES IDX 10 14 11 15 25 16 27 17 12 18 24 19 23 20 13 21 21 22 14 23
REMARK SMILES IDX 15 24 20 25 22 26 16 27 19 28 17 29 18 30
REMARK H PARENT 18 31
REMARK Flexibility Score: inf
ROOT
ATOM      1  C   UNL     1      11.171  18.010  45.175  1.00  0.00     0.004 C 
ENDROOT
BRANCH   1   2
ATOM      2  C   UNL     1      11.877  16.697  44.743  1.00  0.00     0.004 C 
BRANCH   2   3
ATOM      3  C   UNL     1      13.403  16.661  45.072  1.00  0.00    -0.009 C 
BRANCH   3   4
ATOM      4  C   UNL     1      13.645  15.880  46.395  1.00  0.00     0.000 C 
ATOM      5  C   UNL     1      14.116  16.754  47.563  1.00  0.00     0.004 C 
ENDBRANCH   3   4
BRANCH   3   6
ATOM      6  C   UNL     1      14.263  16.121  43.875  1.00  0.00    -0.014 C 
ATOM      7  C   UNL     1      13.464  15.162  42.973  1.00  0.00     0.007 C 
ATOM      8  C   UNL     1      15.532  15.395  44.356  1.00  0.00     0.007 C 
ENDBRANCH   3   6
ENDBRANCH   2   3
ENDBRANCH   1   2
BRANCH   1   9
ATOM      9  C   UNL     1      10.011  18.484  44.256  1.00  0.00    -0.011 C 
ATOM     10  C   UNL     1      10.578  19.067  42.949  1.00  0.00     0.008 C 
BRANCH   9  11
ATOM     11  C   UNL     1       9.002  19.477  44.934  1.00  0.00    -0.002 C 
ATOM     12  C   UNL     1       9.700  20.416  45.961  1.00  0.00     0.005 C 
ATOM     13  C   UNL     1       8.198  20.459  44.019  1.00  0.00    -0.026 C 
ATOM     14  C   UNL     1       8.936  21.750  45.957  1.00  0.00     0.005 C 
ATOM     15  C   UNL     1       7.728  21.471  45.082  1.00  0.00    -0.001 C 
ATOM     16  C   UNL     1       6.933  19.837  43.326  1.00  0.00     0.007 C 
ATOM     17  C   UNL     1       9.158  21.101  42.965  1.00  0.00     0.012 C 
ATOM     18  C   UNL     1       6.833  22.641  44.583  1.00  0.00     0.000 C 
ATOM     19  C   UNL     1       5.661  20.737  43.361  1.00  0.00     0.005 C 
ATOM     20  C   UNL     1       6.020  22.245  43.323  1.00  0.00     0.003 C 
ATOM     21  C   UNL     1       7.517  23.982  44.307  1.00  0.00     0.031 C 
ATOM     22  C   UNL     1       4.830  23.248  43.082  1.00  0.00    -0.008 C 
ATOM     23  C   UNL     1       6.470  25.010  43.949  1.00  0.00    -0.027 C 
ATOM     24  C   UNL     1       5.258  24.694  43.416  1.00  0.00    -0.065 C 
ATOM     25  C   UNL     1       3.596  22.894  43.966  1.00  0.00     0.014 C 
ATOM     26  C   UNL     1       4.435  23.181  41.581  1.00  0.00     0.016 C 
ATOM     27  C   UNL     1       4.189  25.763  43.360  1.00  0.00     0.063 C 
ATOM     28  C   UNL     1       2.490  23.970  43.935  1.00  0.00     0.033 C 
ATOM     29  C   UNL     1       3.029  25.366  44.288  1.00  0.00     0.118 C 
BRANCH  29  30
ATOM     30  O   UNL     1       1.988  26.301  44.177  1.00  0.00    -0.393 OA
ATOM     31  H   UNL     1       2.072  26.918  44.950  1.00  0.00     0.210 HD
ENDBRANCH  29  30
ENDBRANCH   9  11
ENDBRANCH   1   9
TORSDOF 7
ENDMDL
MODEL 6
REMARK VINA RESULT:    -8.965      1.223      2.577
REMARK INTER + INTRA:         -11.857
REMARK INTER:                 -12.295
REMARK INTRA:                   0.438
REMARK UNBOUND:                 0.514
REMARK SMILES CC[C@H](CC[C@H](C)[C@H]1CC[C@H]2[C@H]3CC=C4C[C@@H](O)CC[C@]4(C)[C@@H]3CC[C@]12C)C(C)C
REMARK SMILES IDX 5 1 4 2 3 3 2 4 1 5 28 6 29 7 30 8 6 9 7 10 8 11 9 12 26 13
REMARK SMILES IDX 10 14 11 15 25 16 27 17 12 18 24 19 23 20 13 21 21 22 14 23
REMARK SMILES IDX 15 24 20 25 22 26 16 27 19 28 17 29 18 30
REMARK H PARENT 18 31
REMARK Flexibility Score: inf
ROOT
ATOM      1  C   UNL     1       2.005  26.510  43.209  1.00  0.00     0.004 C 
ENDROOT
BRANCH   1   2
ATOM      2  C   UNL     1       1.022  27.475  43.925  1.00  0.00     0.004 C 
BRANCH   2   3
ATOM      3  C   UNL     1      -0.404  27.510  43.291  1.00  0.00    -0.009 C 
BRANCH   3   4
ATOM      4  C   UNL     1      -1.469  27.796  44.388  1.00  0.00     0.000 C 
ATOM      5  C   UNL     1      -0.962  28.666  45.544  1.00  0.00     0.004 C 
ENDBRANCH   3   4
BRANCH   3   6
ATOM      6  C   UNL     1      -0.497  28.496  42.074  1.00  0.00    -0.014 C 
ATOM      7  C   UNL     1       0.490  29.670  42.203  1.00  0.00     0.007 C 
ATOM      8  C   UNL     1      -1.915  29.067  41.899  1.00  0.00     0.007 C 
ENDBRANCH   3   6
ENDBRANCH   2   3
ENDBRANCH   1   2
BRANCH   1   9
ATOM      9  C   UNL     1       2.507  25.308  44.058  1.00  0.00    -0.011 C 
ATOM     10  C   UNL     1       2.846  25.776  45.485  1.00  0.00     0.008 C 
BRANCH   9  11
ATOM     11  C   UNL     1       3.696  24.506  43.421  1.00  0.00    -0.002 C 
ATOM     12  C   UNL     1       4.701  25.435  42.679  1.00  0.00     0.005 C 
ATOM     13  C   UNL     1       4.606  23.653  44.365  1.00  0.00    -0.026 C 
ATOM     14  C   UNL     1       6.093  24.795  42.799  1.00  0.00     0.005 C 
ATOM     15  C   UNL     1       5.815  23.444  43.433  1.00  0.00    -0.001 C 
ATOM     16  C   UNL     1       4.025  22.247  44.754  1.00  0.00     0.007 C 
ATOM     17  C   UNL     1       4.969  24.483  45.639  1.00  0.00     0.012 C 
ATOM     18  C   UNL     1       6.985  22.582  43.990  1.00  0.00     0.000 C 
ATOM     19  C   UNL     1       5.053  21.076  44.691  1.00  0.00     0.005 C 
ATOM     20  C   UNL     1       6.489  21.550  45.035  1.00  0.00     0.003 C 
ATOM     21  C   UNL     1       8.184  23.324  44.584  1.00  0.00     0.031 C 
ATOM     22  C   UNL     1       7.565  20.425  45.270  1.00  0.00    -0.008 C 
ATOM     23  C   UNL     1       9.251  22.323  44.958  1.00  0.00    -0.027 C 
ATOM     24  C   UNL     1       8.991  21.021  45.251  1.00  0.00    -0.065 C 
ATOM     25  C   UNL     1       7.489  19.321  44.172  1.00  0.00     0.014 C 
ATOM     26  C   UNL     1       7.311  19.792  46.666  1.00  0.00     0.016 C 
ATOM     27  C   UNL     1      10.148  20.049  45.334  1.00  0.00     0.063 C 
ATOM     28  C   UNL     1       8.661  18.318  44.226  1.00  0.00     0.033 C 
ATOM     29  C   UNL     1      10.028  19.023  44.196  1.00  0.00     0.118 C 
BRANCH  29  30
ATOM     30  O   UNL     1      11.042  18.059  44.314  1.00  0.00    -0.393 OA
ATOM     31  H   UNL     1      11.816  18.391  43.790  1.00  0.00     0.210 HD
ENDBRANCH  29  30
ENDBRANCH   9  11
ENDBRANCH   1   9
TORSDOF 7
ENDMDL
MODEL 7
REMARK VINA RESULT:    -8.904      1.276      2.527
REMARK INTER + INTRA:         -11.774
REMARK INTER:                 -10.613
REMARK INTRA:                  -1.161
REMARK UNBOUND:                 0.514
REMARK SMILES CC[C@H](CC[C@H](C)[C@H]1CC[C@H]2[C@H]3CC=C4C[C@@H](O)CC[C@]4(C)[C@@H]3CC[C@]12C)C(C)C
REMARK SMILES IDX 5 1 4 2 3 3 2 4 1 5 28 6 29 7 30 8 6 9 7 10 8 11 9 12 26 13
REMARK SMILES IDX 10 14 11 15 25 16 27 17 12 18 24 19 23 20 13 21 21 22 14 23
REMARK SMILES IDX 15 24 20 25 22 26 16 27 19 28 17 29 18 30
REMARK H PARENT 18 31
REMARK Flexibility Score: inf
ROOT
ATOM      1  C   UNL     1       0.969  26.727  44.006  1.00  0.00     0.004 C 
ENDROOT
BRANCH   1   2
ATOM      2  C   UNL     1      -0.022  27.138  42.884  1.00  0.00     0.004 C 
BRANCH   2   3
ATOM      3  C   UNL     1      -0.885  28.392  43.228  1.00  0.00    -0.009 C 
BRANCH   3   4
ATOM      4  C   UNL     1      -0.313  29.105  44.486  1.00  0.00     0.000 C 
ATOM      5  C   UNL     1      -1.261  29.113  45.690  1.00  0.00     0.004 C 
ENDBRANCH   3   4
BRANCH   3   6
ATOM      6  C   UNL     1      -1.059  29.356  42.002  1.00  0.00    -0.014 C 
ATOM      7  C   UNL     1      -0.435  28.780  40.718  1.00  0.00     0.007 C 
ATOM      8  C   UNL     1      -0.445  30.742  42.265  1.00  0.00     0.007 C 
ENDBRANCH   3   6
ENDBRANCH   2   3
ENDBRANCH   1   2
BRANCH   1   9
ATOM      9  C   UNL     1       2.471  26.715  43.608  1.00  0.00    -0.011 C 
ATOM     10  C   UNL     1       2.739  27.779  42.528  1.00  0.00     0.008 C 
BRANCH   9  11
ATOM     11  C   UNL     1       3.023  25.311  43.177  1.00  0.00    -0.002 C 
ATOM     12  C   UNL     1       3.199  25.196  41.635  1.00  0.00     0.005 C 
ATOM     13  C   UNL     1       4.407  24.851  43.744  1.00  0.00    -0.026 C 
ATOM     14  C   UNL     1       4.384  24.252  41.376  1.00  0.00     0.005 C 
ATOM     15  C   UNL     1       4.723  23.714  42.754  1.00  0.00    -0.001 C 
ATOM     16  C   UNL     1       4.364  24.254  45.196  1.00  0.00     0.007 C 
ATOM     17  C   UNL     1       5.432  26.028  43.651  1.00  0.00     0.012 C 
ATOM     18  C   UNL     1       6.049  22.933  42.988  1.00  0.00     0.000 C 
ATOM     19  C   UNL     1       5.208  22.957  45.393  1.00  0.00     0.005 C 
ATOM     20  C   UNL     1       6.462  22.941  44.482  1.00  0.00     0.003 C 
ATOM     21  C   UNL     1       7.264  23.345  42.154  1.00  0.00     0.031 C 
ATOM     22  C   UNL     1       7.533  21.825  44.776  1.00  0.00    -0.008 C 
ATOM     23  C   UNL     1       8.406  22.400  42.442  1.00  0.00    -0.027 C 
ATOM     24  C   UNL     1       8.530  21.702  43.602  1.00  0.00    -0.065 C 
ATOM     25  C   UNL     1       6.865  20.432  44.988  1.00  0.00     0.014 C 
ATOM     26  C   UNL     1       8.318  22.228  46.054  1.00  0.00     0.016 C 
ATOM     27  C   UNL     1       9.547  20.583  43.672  1.00  0.00     0.063 C 
ATOM     28  C   UNL     1       7.877  19.269  45.057  1.00  0.00     0.033 C 
ATOM     29  C   UNL     1       8.812  19.243  43.837  1.00  0.00     0.118 C 
BRANCH  29  30
ATOM     30  O   UNL     1       9.744  18.205  43.996  1.00  0.00    -0.393 OA
ATOM     31  H   UNL     1      10.642  18.627  44.027  1.00  0.00     0.210 HD
ENDBRANCH  29  30
ENDBRANCH   9  11
ENDBRANCH   1   9
TORSDOF 7
ENDMDL
MODEL 8
REMARK VINA RESULT:    -8.780      3.734     11.319
REMARK INTER + INTRA:         -11.602
REMARK INTER:                 -10.604
REMARK INTRA:                  -0.998
REMARK UNBOUND:                 0.514
REMARK SMILES CC[C@H](CC[C@H](C)[C@H]1CC[C@H]2[C@H]3CC=C4C[C@@H](O)CC[C@]4(C)[C@@H]3CC[C@]12C)C(C)C
REMARK SMILES IDX 5 1 4 2 3 3 2 4 1 5 28 6 29 7 30 8 6 9 7 10 8 11 9 12 26 13
REMARK SMILES IDX 10 14 11 15 25 16 27 17 12 18 24 19 23 20 13 21 21 22 14 23
REMARK SMILES IDX 15 24 20 25 22 26 16 27 19 28 17 29 18 30
REMARK H PARENT 18 31
REMARK Flexibility Score: inf
ROOT
ATOM      1  C   UNL     1      12.043  18.114  46.110  1.00  0.00     0.004 C 
ENDROOT
BRANCH   1   2
ATOM      2  C   UNL     1      13.276  17.482  45.411  1.00  0.00     0.004 C 
BRANCH   2   3
ATOM      3  C   UNL     1      13.977  16.366  46.249  1.00  0.00    -0.009 C 
BRANCH   3   4
ATOM      4  C   UNL     1      12.959  15.717  47.230  1.00  0.00     0.000 C 
ATOM      5  C   UNL     1      13.321  15.879  48.710  1.00  0.00     0.004 C 
ENDBRANCH   3   4
BRANCH   3   6
ATOM      6  C   UNL     1      14.718  15.315  45.350  1.00  0.00    -0.014 C 
ATOM      7  C   UNL     1      13.745  14.299  44.724  1.00  0.00     0.007 C 
ATOM      8  C   UNL     1      15.795  14.542  46.131  1.00  0.00     0.007 C 
ENDBRANCH   3   6
ENDBRANCH   2   3
ENDBRANCH   1   2
BRANCH   1   9
ATOM      9  C   UNL     1      10.718  18.081  45.299  1.00  0.00    -0.011 C 
ATOM     10  C   UNL     1      10.750  16.921  44.285  1.00  0.00     0.008 C 
BRANCH   9  11
ATOM     11  C   UNL     1      10.340  19.436  44.605  1.00  0.00    -0.002 C 
ATOM     12  C   UNL     1      10.701  19.443  43.090  1.00  0.00     0.005 C 
ATOM     13  C   UNL     1       8.844  19.892  44.631  1.00  0.00    -0.026 C 
ATOM     14  C   UNL     1       9.672  20.332  42.376  1.00  0.00     0.005 C 
ATOM     15  C   UNL     1       8.880  20.951  43.513  1.00  0.00    -0.001 C 
ATOM     16  C   UNL     1       8.385  20.586  45.963  1.00  0.00     0.007 C 
ATOM     17  C   UNL     1       7.918  18.682  44.280  1.00  0.00     0.012 C 
ATOM     18  C   UNL     1       7.551  21.707  43.224  1.00  0.00     0.000 C 
ATOM     19  C   UNL     1       7.519  21.867  45.766  1.00  0.00     0.005 C 
ATOM     20  C   UNL     1       6.651  21.787  44.485  1.00  0.00     0.003 C 
ATOM     21  C   UNL     1       6.696  21.205  42.059  1.00  0.00     0.031 C 
ATOM     22  C   UNL     1       5.539  22.888  44.314  1.00  0.00    -0.008 C 
ATOM     23  C   UNL     1       5.519  22.134  41.870  1.00  0.00    -0.027 C 
ATOM     24  C   UNL     1       5.003  22.904  42.866  1.00  0.00    -0.065 C 
ATOM     25  C   UNL     1       6.088  24.310  44.640  1.00  0.00     0.014 C 
ATOM     26  C   UNL     1       4.366  22.548  45.274  1.00  0.00     0.016 C 
ATOM     27  C   UNL     1       4.019  23.994  42.504  1.00  0.00     0.063 C 
ATOM     28  C   UNL     1       5.109  25.446  44.275  1.00  0.00     0.033 C 
ATOM     29  C   UNL     1       4.647  25.364  42.811  1.00  0.00     0.118 C 
BRANCH  29  30
ATOM     30  O   UNL     1       3.712  26.382  42.568  1.00  0.00    -0.393 OA
ATOM     31  H   UNL     1       4.103  26.971  41.871  1.00  0.00     0.210 HD
ENDBRANCH  29  30
ENDBRANCH   9  11
ENDBRANCH   1   9
TORSDOF 7
ENDMDL
MODEL 9
REMARK VINA RESULT:    -8.775      1.388      3.351
REMARK INTER + INTRA:         -11.596
REMARK INTER:                 -10.699
REMARK INTRA:                  -0.897
REMARK UNBOUND:                 0.514
REMARK SMILES CC[C@H](CC[C@H](C)[C@H]1CC[C@H]2[C@H]3CC=C4C[C@@H](O)CC[C@]4(C)[C@@H]3CC[C@]12C)C(C)C
REMARK SMILES IDX 5 1 4 2 3 3 2 4 1 5 28 6 29 7 30 8 6 9 7 10 8 11 9 12 26 13
REMARK SMILES IDX 10 14 11 15 25 16 27 17 12 18 24 19 23 20 13 21 21 22 14 23
REMARK SMILES IDX 15 24 20 25 22 26 16 27 19 28 17 29 18 30
REMARK H PARENT 18 31
REMARK Flexibility Score: inf
ROOT
ATOM      1  C   UNL     1      -0.081  26.516  43.226  1.00  0.00     0.004 C 
ENDROOT
BRANCH   1   2
ATOM      2  C   UNL     1      -0.859  27.856  43.318  1.00  0.00     0.004 C 
BRANCH   2   3
ATOM      3  C   UNL     1      -0.466  28.894  42.221  1.00  0.00    -0.009 C 
BRANCH   3   4
ATOM      4  C   UNL     1       0.047  28.158  40.950  1.00  0.00     0.000 C 
ATOM      5  C   UNL     1       0.980  28.998  40.071  1.00  0.00     0.004 C 
ENDBRANCH   3   4
BRANCH   3   6
ATOM      6  C   UNL     1      -1.620  29.912  41.915  1.00  0.00    -0.014 C 
ATOM      7  C   UNL     1      -1.114  31.365  41.871  1.00  0.00     0.007 C 
ATOM      8  C   UNL     1      -2.759  29.822  42.945  1.00  0.00     0.007 C 
ENDBRANCH   3   6
ENDBRANCH   2   3
ENDBRANCH   1   2
BRANCH   1   9
ATOM      9  C   UNL     1       1.179  26.405  44.128  1.00  0.00    -0.011 C 
ATOM     10  C   UNL     1       1.499  27.774  44.757  1.00  0.00     0.008 C 
BRANCH   9  11
ATOM     11  C   UNL     1       2.439  25.793  43.422  1.00  0.00    -0.002 C 
ATOM     12  C   UNL     1       3.436  26.888  42.941  1.00  0.00     0.005 C 
ATOM     13  C   UNL     1       3.339  24.804  44.234  1.00  0.00    -0.026 C 
ATOM     14  C   UNL     1       4.849  26.291  43.021  1.00  0.00     0.005 C 
ATOM     15  C   UNL     1       4.605  24.831  43.358  1.00  0.00    -0.001 C 
ATOM     16  C   UNL     1       2.809  23.327  44.302  1.00  0.00     0.007 C 
ATOM     17  C   UNL     1       3.591  25.376  45.667  1.00  0.00     0.012 C 
ATOM     18  C   UNL     1       5.785  23.920  43.806  1.00  0.00     0.000 C 
ATOM     19  C   UNL     1       3.896  22.232  44.074  1.00  0.00     0.005 C 
ATOM     20  C   UNL     1       5.285  22.682  44.594  1.00  0.00     0.003 C 
ATOM     21  C   UNL     1       6.911  24.574  44.609  1.00  0.00     0.031 C 
ATOM     22  C   UNL     1       6.402  21.575  44.671  1.00  0.00    -0.008 C 
ATOM     23  C   UNL     1       8.006  23.560  44.845  1.00  0.00    -0.027 C 
ATOM     24  C   UNL     1       7.795  22.216  44.858  1.00  0.00    -0.065 C 
ATOM     25  C   UNL     1       6.441  20.711  43.374  1.00  0.00     0.014 C 
ATOM     26  C   UNL     1       6.104  20.667  45.895  1.00  0.00     0.016 C 
ATOM     27  C   UNL     1       8.993  21.293  44.821  1.00  0.00     0.063 C 
ATOM     28  C   UNL     1       7.657  19.762  43.303  1.00  0.00     0.033 C 
ATOM     29  C   UNL     1       8.986  20.510  43.498  1.00  0.00     0.118 C 
BRANCH  29  30
ATOM     30  O   UNL     1      10.039  19.581  43.488  1.00  0.00    -0.393 OA
ATOM     31  H   UNL     1       9.684  18.741  43.879  1.00  0.00     0.210 HD
ENDBRANCH  29  30
ENDBRANCH   9  11
ENDBRANCH   1   9
TORSDOF 7
ENDMDL
