MODEL 1
REMARK VINA RESULT:    -4.987      0.000      0.000
REMARK INTER + INTRA:         -10.660
REMARK INTER:                  -9.068
REMARK INTRA:                  -1.593
REMARK UNBOUND:                -1.593
REMARK SMILES CCCCCCCCCCCCCCCC(=O)[O-]
REMARK SMILES IDX 9 1 10 2 11 3 12 4 13 5 14 6 15 7 16 8 17 9 18 10 8 11 7 12
REMARK SMILES IDX 6 13 5 14 4 15 3 16 2 17 1 18
REMARK H PARENT
REMARK Flexibility Score: inf
ROOT
ATOM      1  C   UNL     1       6.839 -13.363  -2.962  1.00  0.00     0.000 C 
ENDROOT
BRANCH   1   2
ATOM      2  C   UNL     1       6.537 -13.257  -4.465  1.00  0.00     0.000 C 
BRANCH   2   3
ATOM      3  C   UNL     1       5.030 -13.239  -4.771  1.00  0.00     0.000 C 
BRANCH   3   4
ATOM      4  C   UNL     1       4.653 -12.349  -5.974  1.00  0.00     0.000 C 
BRANCH   4   5
ATOM      5  C   UNL     1       4.676 -10.856  -5.618  1.00  0.00     0.000 C 
BRANCH   5   6
ATOM      6  C   UNL     1       4.778  -9.988  -6.878  1.00  0.00     0.006 C 
BRANCH   6   7
ATOM      7  C   UNL     1       4.812  -8.500  -6.520  1.00  0.00     0.053 C 
BRANCH   7   8
ATOM      8  C   UNL     1       4.648  -7.662  -7.748  1.00  0.00     0.041 C 
ATOM      9  O   UNL     1       4.330  -8.196  -8.843  1.00  0.00    -0.550 OA
ATOM     10  O   UNL     1       4.890  -6.295  -7.694  1.00  0.00    -0.550 OA
ENDBRANCH   7   8
ENDBRANCH   6   7
ENDBRANCH   5   6
ENDBRANCH   4   5
ENDBRANCH   3   4
ENDBRANCH   2   3
ENDBRANCH   1   2
BRANCH   1  11
ATOM     11  C   UNL     1       5.570 -13.335  -2.091  1.00  0.00     0.000 C 
BRANCH  11  12
ATOM     12  C   UNL     1       5.425 -12.102  -1.172  1.00  0.00    -0.000 C 
BRANCH  12  13
ATOM     13  C   UNL     1       5.045 -10.793  -1.889  1.00  0.00    -0.000 C 
BRANCH  13  14
ATOM     14  C   UNL     1       6.045  -9.636  -1.697  1.00  0.00    -0.000 C 
BRANCH  14  15
ATOM     15  C   UNL     1       7.507 -10.102  -1.520  1.00  0.00    -0.000 C 
BRANCH  15  16
ATOM     16  C   UNL     1       8.032  -9.864  -0.094  1.00  0.00    -0.000 C 
BRANCH  16  17
ATOM     17  C   UNL     1       9.164 -10.831   0.286  1.00  0.00    -0.003 C 
ATOM     18  C   UNL     1       8.854 -12.279  -0.094  1.00  0.00     0.004 C 
ENDBRANCH  16  17
ENDBRANCH  15  16
ENDBRANCH  14  15
ENDBRANCH  13  14
ENDBRANCH  12  13
ENDBRANCH  11  12
ENDBRANCH   1  11
TORSDOF 14
ENDMDL
MODEL 2
REMARK VINA RESULT:    -4.977      3.039      5.956
REMARK INTER + INTRA:         -10.643
REMARK INTER:                  -8.739
REMARK INTRA:                  -1.904
REMARK UNBOUND:                -1.593
REMARK SMILES CCCCCCCCCCCCCCCC(=O)[O-]
REMARK SMILES IDX 9 1 10 2 11 3 12 4 13 5 14 6 15 7 16 8 17 9 18 10 8 11 7 12
REMARK SMILES IDX 6 13 5 14 4 15 3 16 2 17 1 18
REMARK H PARENT
REMARK Flexibility Score: inf
ROOT
ATOM      1  C   UNL     1       7.236 -13.300  -3.644  1.00  0.00     0.000 C 
ENDROOT
BRANCH   1   2
ATOM      2  C   UNL     1       7.630 -13.901  -2.285  1.00  0.00     0.000 C 
BRANCH   2   3
ATOM      3  C   UNL     1       7.424 -12.921  -1.117  1.00  0.00     0.000 C 
BRANCH   3   4
ATOM      4  C   UNL     1       8.717 -12.611  -0.334  1.00  0.00     0.000 C 
BRANCH   4   5
ATOM      5  C   UNL     1       8.966 -11.101  -0.204  1.00  0.00     0.000 C 
BRANCH   5   6
ATOM      6  C   UNL     1       7.826 -10.417   0.562  1.00  0.00     0.006 C 
BRANCH   6   7
ATOM      7  C   UNL     1       7.412  -9.111  -0.121  1.00  0.00     0.053 C 
BRANCH   7   8
ATOM      8  C   UNL     1       6.162  -9.311  -0.919  1.00  0.00     0.041 C 
ATOM      9  O   UNL     1       6.000  -8.700  -2.008  1.00  0.00    -0.550 OA
ATOM     10  O   UNL     1       5.155 -10.138  -0.438  1.00  0.00    -0.550 OA
ENDBRANCH   7   8
ENDBRANCH   6   7
ENDBRANCH   5   6
ENDBRANCH   4   5
ENDBRANCH   3   4
ENDBRANCH   2   3
ENDBRANCH   1   2
BRANCH   1  11
ATOM     11  C   UNL     1       6.551 -11.927  -3.518  1.00  0.00     0.000 C 
BRANCH  11  12
ATOM     12  C   UNL     1       5.272 -11.747  -4.365  1.00  0.00    -0.000 C 
BRANCH  12  13
ATOM     13  C   UNL     1       4.990 -12.876  -5.374  1.00  0.00    -0.000 C 
BRANCH  13  14
ATOM     14  C   UNL     1       3.646 -13.602  -5.175  1.00  0.00    -0.000 C 
BRANCH  14  15
ATOM     15  C   UNL     1       3.028 -13.392  -3.774  1.00  0.00    -0.000 C 
BRANCH  15  16
ATOM     16  C   UNL     1       3.270 -14.588  -2.838  1.00  0.00    -0.000 C 
BRANCH  16  17
ATOM     17  C   UNL     1       3.881 -14.169  -1.492  1.00  0.00    -0.003 C 
ATOM     18  C   UNL     1       3.240 -14.888  -0.305  1.00  0.00     0.004 C 
ENDBRANCH  16  17
ENDBRANCH  15  16
ENDBRANCH  14  15
ENDBRANCH  13  14
ENDBRANCH  12  13
ENDBRANCH  11  12
ENDBRANCH   1  11
TORSDOF 14
ENDMDL
MODEL 3
REMARK VINA RESULT:    -4.863      1.151      2.444
REMARK INTER + INTRA:         -10.436
REMARK INTER:                  -9.032
REMARK INTRA:                  -1.403
REMARK UNBOUND:                -1.593
REMARK SMILES CCCCCCCCCCCCCCCC(=O)[O-]
REMARK SMILES IDX 9 1 10 2 11 3 12 4 13 5 14 6 15 7 16 8 17 9 18 10 8 11 7 12
REMARK SMILES IDX 6 13 5 14 4 15 3 16 2 17 1 18
REMARK H PARENT
REMARK Flexibility Score: inf
ROOT
ATOM      1  C   UNL     1       7.193 -13.195  -3.937  1.00  0.00     0.000 C 
ENDROOT
BRANCH   1   2
ATOM      2  C   UNL     1       5.672 -13.000  -4.039  1.00  0.00     0.000 C 
BRANCH   2   3
ATOM      3  C   UNL     1       5.247 -12.301  -5.341  1.00  0.00     0.000 C 
BRANCH   3   4
ATOM      4  C   UNL     1       3.718 -12.150  -5.492  1.00  0.00     0.000 C 
BRANCH   4   5
ATOM      5  C   UNL     1       3.335 -10.848  -6.210  1.00  0.00     0.000 C 
BRANCH   5   6
ATOM      6  C   UNL     1       4.579 -10.113  -6.725  1.00  0.00     0.006 C 
BRANCH   6   7
ATOM      7  C   UNL     1       4.262  -9.322  -7.998  1.00  0.00     0.053 C 
BRANCH   7   8
ATOM      8  C   UNL     1       4.923  -7.981  -7.958  1.00  0.00     0.041 C 
ATOM      9  O   UNL     1       5.377  -7.529  -6.874  1.00  0.00    -0.550 OA
ATOM     10  O   UNL     1       5.000  -7.210  -9.111  1.00  0.00    -0.550 OA
ENDBRANCH   7   8
ENDBRANCH   6   7
ENDBRANCH   5   6
ENDBRANCH   4   5
ENDBRANCH   3   4
ENDBRANCH   2   3
ENDBRANCH   1   2
BRANCH   1  11
ATOM     11  C   UNL     1       7.639 -13.750  -2.572  1.00  0.00     0.000 C 
BRANCH  11  12
ATOM     12  C   UNL     1       7.220 -12.908  -1.348  1.00  0.00    -0.000 C 
BRANCH  12  13
ATOM     13  C   UNL     1       8.376 -12.456  -0.437  1.00  0.00    -0.000 C 
BRANCH  13  14
ATOM     14  C   UNL     1       8.695 -10.949  -0.494  1.00  0.00    -0.000 C 
BRANCH  14  15
ATOM     15  C   UNL     1       7.516 -10.048  -0.064  1.00  0.00    -0.000 C 
BRANCH  15  16
ATOM     16  C   UNL     1       6.878  -9.306  -1.251  1.00  0.00    -0.000 C 
BRANCH  16  17
ATOM     17  C   UNL     1       5.397  -9.665  -1.443  1.00  0.00    -0.003 C 
ATOM     18  C   UNL     1       4.941  -9.525  -2.896  1.00  0.00     0.004 C 
ENDBRANCH  16  17
ENDBRANCH  15  16
ENDBRANCH  14  15
ENDBRANCH  13  14
ENDBRANCH  12  13
ENDBRANCH  11  12
ENDBRANCH   1  11
TORSDOF 14
ENDMDL
MODEL 4
REMARK VINA RESULT:    -4.863      4.180      5.739
REMARK INTER + INTRA:         -10.435
REMARK INTER:                  -8.860
REMARK INTRA:                  -1.575
REMARK UNBOUND:                -1.593
REMARK SMILES CCCCCCCCCCCCCCCC(=O)[O-]
REMARK SMILES IDX 9 1 10 2 11 3 12 4 13 5 14 6 15 7 16 8 17 9 18 10 8 11 7 12
REMARK SMILES IDX 6 13 5 14 4 15 3 16 2 17 1 18
REMARK H PARENT
REMARK Flexibility Score: inf
ROOT
ATOM      1  C   UNL     1       5.801 -12.879  -3.688  1.00  0.00     0.000 C 
ENDROOT
BRANCH   1   2
ATOM      2  C   UNL     1       5.113 -13.081  -5.048  1.00  0.00     0.000 C 
BRANCH   2   3
ATOM      3  C   UNL     1       3.605 -13.352  -4.918  1.00  0.00     0.000 C 
BRANCH   3   4
ATOM      4  C   UNL     1       3.065 -13.179  -3.483  1.00  0.00     0.000 C 
BRANCH   4   5
ATOM      5  C   UNL     1       2.586 -14.508  -2.881  1.00  0.00     0.000 C 
BRANCH   5   6
ATOM      6  C   UNL     1       3.515 -14.971  -1.752  1.00  0.00     0.006 C 
BRANCH   6   7
ATOM      7  C   UNL     1       3.943 -13.791  -0.875  1.00  0.00     0.053 C 
BRANCH   7   8
ATOM      8  C   UNL     1       2.985 -13.608   0.260  1.00  0.00     0.041 C 
ATOM      9  O   UNL     1       2.326 -12.542   0.367  1.00  0.00    -0.550 OA
ATOM     10  O   UNL     1       2.854 -14.599   1.225  1.00  0.00    -0.550 OA
ENDBRANCH   7   8
ENDBRANCH   6   7
ENDBRANCH   5   6
ENDBRANCH   4   5
ENDBRANCH   3   4
ENDBRANCH   2   3
ENDBRANCH   1   2
BRANCH   1  11
ATOM     11  C   UNL     1       7.258 -13.374  -3.671  1.00  0.00     0.000 C 
BRANCH  11  12
ATOM     12  C   UNL     1       7.796 -13.799  -2.288  1.00  0.00    -0.000 C 
BRANCH  12  13
ATOM     13  C   UNL     1       7.495 -12.819  -1.138  1.00  0.00    -0.000 C 
BRANCH  13  14
ATOM     14  C   UNL     1       8.713 -12.441  -0.274  1.00  0.00    -0.000 C 
BRANCH  14  15
ATOM     15  C   UNL     1       8.625 -11.025   0.337  1.00  0.00    -0.000 C 
BRANCH  15  16
ATOM     16  C   UNL     1       7.213 -10.424   0.231  1.00  0.00    -0.000 C 
BRANCH  16  17
ATOM     17  C   UNL     1       7.161  -9.203  -0.699  1.00  0.00    -0.003 C 
ATOM     18  C   UNL     1       6.145  -9.366  -1.830  1.00  0.00     0.004 C 
ENDBRANCH  16  17
ENDBRANCH  15  16
ENDBRANCH  14  15
ENDBRANCH  13  14
ENDBRANCH  12  13
ENDBRANCH  11  12
ENDBRANCH   1  11
TORSDOF 14
ENDMDL
MODEL 5
REMARK VINA RESULT:    -4.832      2.557      3.831
REMARK INTER + INTRA:         -10.380
REMARK INTER:                  -9.524
REMARK INTRA:                  -0.856
REMARK UNBOUND:                -1.593
REMARK SMILES CCCCCCCCCCCCCCCC(=O)[O-]
REMARK SMILES IDX 9 1 10 2 11 3 12 4 13 5 14 6 15 7 16 8 17 9 18 10 8 11 7 12
REMARK SMILES IDX 6 13 5 14 4 15 3 16 2 17 1 18
REMARK H PARENT
REMARK Flexibility Score: inf
ROOT
ATOM      1  C   UNL     1       4.713 -11.830  -6.058  1.00  0.00     0.000 C 
ENDROOT
BRANCH   1   2
ATOM      2  C   UNL     1       4.556 -10.596  -5.155  1.00  0.00     0.000 C 
BRANCH   2   3
ATOM      3  C   UNL     1       4.327  -9.300  -5.951  1.00  0.00     0.000 C 
BRANCH   3   4
ATOM      4  C   UNL     1       4.071  -9.534  -7.455  1.00  0.00     0.000 C 
BRANCH   4   5
ATOM      5  C   UNL     1       3.243  -8.403  -8.083  1.00  0.00     0.000 C 
BRANCH   5   6
ATOM      6  C   UNL     1       2.049  -8.032  -7.195  1.00  0.00     0.006 C 
BRANCH   6   7
ATOM      7  C   UNL     1       0.724  -8.347  -7.895  1.00  0.00     0.053 C 
BRANCH   7   8
ATOM      8  C   UNL     1      -0.009  -9.427  -7.167  1.00  0.00     0.041 C 
ATOM      9  O   UNL     1      -1.268  -9.427  -7.132  1.00  0.00    -0.550 OA
ATOM     10  O   UNL     1       0.697 -10.411  -6.487  1.00  0.00    -0.550 OA
ENDBRANCH   7   8
ENDBRANCH   6   7
ENDBRANCH   5   6
ENDBRANCH   4   5
ENDBRANCH   3   4
ENDBRANCH   2   3
ENDBRANCH   1   2
BRANCH   1  11
ATOM     11  C   UNL     1       4.879 -13.138  -5.265  1.00  0.00     0.000 C 
BRANCH  11  12
ATOM     12  C   UNL     1       5.437 -12.978  -3.835  1.00  0.00    -0.000 C 
BRANCH  12  13
ATOM     13  C   UNL     1       6.947 -13.245  -3.686  1.00  0.00    -0.000 C 
BRANCH  13  14
ATOM     14  C   UNL     1       7.408 -13.581  -2.255  1.00  0.00    -0.000 C 
BRANCH  14  15
ATOM     15  C   UNL     1       7.485 -12.352  -1.323  1.00  0.00    -0.000 C 
BRANCH  15  16
ATOM     16  C   UNL     1       8.645 -12.447  -0.318  1.00  0.00    -0.000 C 
BRANCH  16  17
ATOM     17  C   UNL     1       8.967 -11.096   0.340  1.00  0.00    -0.003 C 
ATOM     18  C   UNL     1       7.998  -9.991  -0.080  1.00  0.00     0.004 C 
ENDBRANCH  16  17
ENDBRANCH  15  16
ENDBRANCH  14  15
ENDBRANCH  13  14
ENDBRANCH  12  13
ENDBRANCH  11  12
ENDBRANCH   1  11
TORSDOF 14
ENDMDL
MODEL 6
REMARK VINA RESULT:    -4.814      4.144      6.642
REMARK INTER + INTRA:         -10.346
REMARK INTER:                  -8.104
REMARK INTRA:                  -2.242
REMARK UNBOUND:                -1.593
REMARK SMILES CCCCCCCCCCCCCCCC(=O)[O-]
REMARK SMILES IDX 9 1 10 2 11 3 12 4 13 5 14 6 15 7 16 8 17 9 18 10 8 11 7 12
REMARK SMILES IDX 6 13 5 14 4 15 3 16 2 17 1 18
REMARK H PARENT
REMARK Flexibility Score: inf
ROOT
ATOM      1  C   UNL     1       8.017 -10.056   0.256  1.00  0.00     0.000 C 
ENDROOT
BRANCH   1   2
ATOM      2  C   UNL     1       6.834  -9.125  -0.052  1.00  0.00     0.000 C 
BRANCH   2   3
ATOM      3  C   UNL     1       6.117  -9.487  -1.364  1.00  0.00     0.000 C 
BRANCH   3   4
ATOM      4  C   UNL     1       4.596  -9.696  -1.202  1.00  0.00     0.000 C 
BRANCH   4   5
ATOM      5  C   UNL     1       4.125 -11.019  -1.825  1.00  0.00     0.000 C 
BRANCH   5   6
ATOM      6  C   UNL     1       4.128 -12.150  -0.789  1.00  0.00     0.006 C 
BRANCH   6   7
ATOM      7  C   UNL     1       3.802 -13.495  -1.443  1.00  0.00     0.053 C 
BRANCH   7   8
ATOM      8  C   UNL     1       3.231 -14.442  -0.437  1.00  0.00     0.041 C 
ATOM      9  O   UNL     1       2.984 -15.635  -0.756  1.00  0.00    -0.550 OA
ATOM     10  O   UNL     1       2.929 -13.997   0.844  1.00  0.00    -0.550 OA
ENDBRANCH   7   8
ENDBRANCH   6   7
ENDBRANCH   5   6
ENDBRANCH   4   5
ENDBRANCH   3   4
ENDBRANCH   2   3
ENDBRANCH   1   2
BRANCH   1  11
ATOM     11  C   UNL     1       8.371 -10.988  -0.917  1.00  0.00     0.000 C 
BRANCH  11  12
ATOM     12  C   UNL     1       8.193 -12.496  -0.641  1.00  0.00    -0.000 C 
BRANCH  12  13
ATOM     13  C   UNL     1       7.474 -13.285  -1.751  1.00  0.00    -0.000 C 
BRANCH  13  14
ATOM     14  C   UNL     1       7.244 -12.501  -3.057  1.00  0.00    -0.000 C 
BRANCH  14  15
ATOM     15  C   UNL     1       6.887 -13.396  -4.264  1.00  0.00    -0.000 C 
BRANCH  15  16
ATOM     16  C   UNL     1       5.446 -13.177  -4.755  1.00  0.00    -0.000 C 
BRANCH  16  17
ATOM     17  C   UNL     1       5.217 -11.758  -5.297  1.00  0.00    -0.003 C 
ATOM     18  C   UNL     1       3.749 -11.479  -5.618  1.00  0.00     0.004 C 
ENDBRANCH  16  17
ENDBRANCH  15  16
ENDBRANCH  14  15
ENDBRANCH  13  14
ENDBRANCH  12  13
ENDBRANCH  11  12
ENDBRANCH   1  11
TORSDOF 14
ENDMDL
MODEL 7
REMARK VINA RESULT:    -4.728      1.678      3.386
REMARK INTER + INTRA:         -10.190
REMARK INTER:                  -7.847
REMARK INTRA:                  -2.344
REMARK UNBOUND:                -1.593
REMARK SMILES CCCCCCCCCCCCCCCC(=O)[O-]
REMARK SMILES IDX 9 1 10 2 11 3 12 4 13 5 14 6 15 7 16 8 17 9 18 10 8 11 7 12
REMARK SMILES IDX 6 13 5 14 4 15 3 16 2 17 1 18
REMARK H PARENT
REMARK Flexibility Score: inf
ROOT
ATOM      1  C   UNL     1       8.192 -12.801  -0.737  1.00  0.00     0.000 C 
ENDROOT
BRANCH   1   2
ATOM      2  C   UNL     1       7.671 -13.568  -1.964  1.00  0.00     0.000 C 
BRANCH   2   3
ATOM      3  C   UNL     1       7.208 -12.636  -3.096  1.00  0.00     0.000 C 
BRANCH   3   4
ATOM      4  C   UNL     1       6.556 -13.378  -4.281  1.00  0.00     0.000 C 
BRANCH   4   5
ATOM      5  C   UNL     1       5.166 -12.819  -4.620  1.00  0.00     0.000 C 
BRANCH   5   6
ATOM      6  C   UNL     1       5.274 -11.573  -5.509  1.00  0.00     0.006 C 
BRANCH   6   7
ATOM      7  C   UNL     1       4.108 -10.614  -5.256  1.00  0.00     0.053 C 
BRANCH   7   8
ATOM      8  C   UNL     1       3.254 -10.494  -6.478  1.00  0.00     0.041 C 
ATOM      9  O   UNL     1       2.365 -11.353  -6.717  1.00  0.00    -0.550 OA
ATOM     10  O   UNL     1       3.468  -9.458  -7.377  1.00  0.00    -0.550 OA
ENDBRANCH   7   8
ENDBRANCH   6   7
ENDBRANCH   5   6
ENDBRANCH   4   5
ENDBRANCH   3   4
ENDBRANCH   2   3
ENDBRANCH   1   2
BRANCH   1  11
ATOM     11  C   UNL     1       8.377 -11.296  -1.003  1.00  0.00     0.000 C 
BRANCH  11  12
ATOM     12  C   UNL     1       8.040 -10.369   0.185  1.00  0.00    -0.000 C 
BRANCH  12  13
ATOM     13  C   UNL     1       6.764  -9.524   0.015  1.00  0.00    -0.000 C 
BRANCH  13  14
ATOM     14  C   UNL     1       6.225  -9.447  -1.426  1.00  0.00    -0.000 C 
BRANCH  14  15
ATOM     15  C   UNL     1       4.847 -10.120  -1.611  1.00  0.00    -0.000 C 
BRANCH  15  16
ATOM     16  C   UNL     1       4.724 -11.436  -0.826  1.00  0.00    -0.000 C 
BRANCH  16  17
ATOM     17  C   UNL     1       3.635 -12.361  -1.392  1.00  0.00    -0.003 C 
ATOM     18  C   UNL     1       3.923 -13.839  -1.130  1.00  0.00     0.004 C 
ENDBRANCH  16  17
ENDBRANCH  15  16
ENDBRANCH  14  15
ENDBRANCH  13  14
ENDBRANCH  12  13
ENDBRANCH  11  12
ENDBRANCH   1  11
TORSDOF 14
ENDMDL
MODEL 8
REMARK VINA RESULT:    -4.717      4.156      5.604
REMARK INTER + INTRA:         -10.170
REMARK INTER:                  -8.036
REMARK INTRA:                  -2.135
REMARK UNBOUND:                -1.593
REMARK SMILES CCCCCCCCCCCCCCCC(=O)[O-]
REMARK SMILES IDX 9 1 10 2 11 3 12 4 13 5 14 6 15 7 16 8 17 9 18 10 8 11 7 12
REMARK SMILES IDX 6 13 5 14 4 15 3 16 2 17 1 18
REMARK H PARENT
REMARK Flexibility Score: inf
ROOT
ATOM      1  C   UNL     1       7.520 -13.757  -2.589  1.00  0.00     0.000 C 
ENDROOT
BRANCH   1   2
ATOM      2  C   UNL     1       7.290 -12.917  -3.856  1.00  0.00     0.000 C 
BRANCH   2   3
ATOM      3  C   UNL     1       5.868 -12.336  -3.935  1.00  0.00     0.000 C 
BRANCH   3   4
ATOM      4  C   UNL     1       4.809 -13.353  -4.410  1.00  0.00     0.000 C 
BRANCH   4   5
ATOM      5  C   UNL     1       3.497 -13.233  -3.619  1.00  0.00     0.000 C 
BRANCH   5   6
ATOM      6  C   UNL     1       3.320 -14.417  -2.660  1.00  0.00     0.006 C 
BRANCH   6   7
ATOM      7  C   UNL     1       3.972 -14.128  -1.305  1.00  0.00     0.053 C 
BRANCH   7   8
ATOM      8  C   UNL     1       2.928 -13.970  -0.245  1.00  0.00     0.041 C 
ATOM      9  O   UNL     1       3.082 -14.507   0.882  1.00  0.00    -0.550 OA
ATOM     10  O   UNL     1       1.762 -13.265  -0.518  1.00  0.00    -0.550 OA
ENDBRANCH   7   8
ENDBRANCH   6   7
ENDBRANCH   5   6
ENDBRANCH   4   5
ENDBRANCH   3   4
ENDBRANCH   2   3
ENDBRANCH   1   2
BRANCH   1  11
ATOM     11  C   UNL     1       7.306 -12.960  -1.291  1.00  0.00     0.000 C 
BRANCH  11  12
ATOM     12  C   UNL     1       8.582 -12.683  -0.466  1.00  0.00    -0.000 C 
BRANCH  12  13
ATOM     13  C   UNL     1       8.806 -11.209  -0.081  1.00  0.00    -0.000 C 
BRANCH  13  14
ATOM     14  C   UNL     1       8.038 -10.190  -0.944  1.00  0.00    -0.000 C 
BRANCH  14  15
ATOM     15  C   UNL     1       6.997  -9.366  -0.155  1.00  0.00    -0.000 C 
BRANCH  15  16
ATOM     16  C   UNL     1       5.688  -9.166  -0.936  1.00  0.00    -0.000 C 
BRANCH  16  17
ATOM     17  C   UNL     1       4.764 -10.391  -0.860  1.00  0.00    -0.003 C 
ATOM     18  C   UNL     1       3.500 -10.228  -1.705  1.00  0.00     0.004 C 
ENDBRANCH  16  17
ENDBRANCH  15  16
ENDBRANCH  14  15
ENDBRANCH  13  14
ENDBRANCH  12  13
ENDBRANCH  11  12
ENDBRANCH   1  11
TORSDOF 14
ENDMDL
MODEL 9
REMARK VINA RESULT:    -4.669      1.743      3.319
REMARK INTER + INTRA:         -10.082
REMARK INTER:                  -8.078
REMARK INTRA:                  -2.005
REMARK UNBOUND:                -1.593
REMARK SMILES CCCCCCCCCCCCCCCC(=O)[O-]
REMARK SMILES IDX 9 1 10 2 11 3 12 4 13 5 14 6 15 7 16 8 17 9 18 10 8 11 7 12
REMARK SMILES IDX 6 13 5 14 4 15 3 16 2 17 1 18
REMARK H PARENT
REMARK Flexibility Score: inf
ROOT
ATOM      1  C   UNL     1       7.626 -13.737  -2.650  1.00  0.00     0.000 C 
ENDROOT
BRANCH   1   2
ATOM      2  C   UNL     1       7.246 -12.773  -3.785  1.00  0.00     0.000 C 
BRANCH   2   3
ATOM      3  C   UNL     1       5.940 -13.173  -4.494  1.00  0.00     0.000 C 
BRANCH   3   4
ATOM      4  C   UNL     1       4.759 -13.405  -3.529  1.00  0.00     0.000 C 
BRANCH   4   5
ATOM      5  C   UNL     1       3.411 -13.041  -4.168  1.00  0.00     0.000 C 
BRANCH   5   6
ATOM      6  C   UNL     1       3.555 -12.833  -5.681  1.00  0.00     0.006 C 
BRANCH   6   7
ATOM      7  C   UNL     1       2.756 -11.613  -6.147  1.00  0.00     0.053 C 
BRANCH   7   8
ATOM      8  C   UNL     1       3.679 -10.506  -6.548  1.00  0.00     0.041 C 
ATOM      9  O   UNL     1       3.256  -9.323  -6.624  1.00  0.00    -0.550 OA
ATOM     10  O   UNL     1       4.998 -10.787  -6.883  1.00  0.00    -0.550 OA
ENDBRANCH   7   8
ENDBRANCH   6   7
ENDBRANCH   5   6
ENDBRANCH   4   5
ENDBRANCH   3   4
ENDBRANCH   2   3
ENDBRANCH   1   2
BRANCH   1  11
ATOM     11  C   UNL     1       7.342 -13.160  -1.251  1.00  0.00     0.000 C 
BRANCH  11  12
ATOM     12  C   UNL     1       8.575 -12.614  -0.498  1.00  0.00    -0.000 C 
BRANCH  12  13
ATOM     13  C   UNL     1       8.535 -11.108  -0.181  1.00  0.00    -0.000 C 
BRANCH  13  14
ATOM     14  C   UNL     1       7.993 -10.221  -1.318  1.00  0.00    -0.000 C 
BRANCH  14  15
ATOM     15  C   UNL     1       6.736  -9.411  -0.929  1.00  0.00    -0.000 C 
BRANCH  15  16
ATOM     16  C   UNL     1       5.433 -10.094  -1.378  1.00  0.00    -0.000 C 
BRANCH  16  17
ATOM     17  C   UNL     1       5.011  -9.684  -2.796  1.00  0.00    -0.003 C 
ATOM     18  C   UNL     1       3.493  -9.612  -2.961  1.00  0.00     0.004 C 
ENDBRANCH  16  17
ENDBRANCH  15  16
ENDBRANCH  14  15
ENDBRANCH  13  14
ENDBRANCH  12  13
ENDBRANCH  11  12
ENDBRANCH   1  11
TORSDOF 14
ENDMDL
