MODEL 1
REMARK VINA RESULT:    -4.850      0.000      0.000
REMARK INTER + INTRA:          -8.664
REMARK INTER:                  -8.252
REMARK INTRA:                  -0.413
REMARK UNBOUND:                -0.413
REMARK SMILES CCCCCCCCCCCCCC(=O)[O-]
REMARK SMILES IDX 8 1 9 2 10 3 11 4 12 5 13 6 14 7 15 8 16 9 7 10 6 11 5 12
REMARK SMILES IDX 4 13 3 14 2 15 1 16
REMARK H PARENT
REMARK Flexibility Score: inf
ROOT
ATOM      1  C   UNL     1      -6.988 -14.138   5.075  1.00  0.00     0.000 C 
ENDROOT
BRANCH   1   2
ATOM      2  C   UNL     1      -8.489 -13.820   4.958  1.00  0.00     0.000 C 
BRANCH   2   3
ATOM      3  C   UNL     1      -9.024 -13.041   6.171  1.00  0.00     0.000 C 
BRANCH   3   4
ATOM      4  C   UNL     1     -10.400 -12.410   5.911  1.00  0.00     0.000 C 
BRANCH   4   5
ATOM      5  C   UNL     1     -10.410 -10.931   6.318  1.00  0.00     0.006 C 
BRANCH   5   6
ATOM      6  C   UNL     1     -11.765 -10.285   6.012  1.00  0.00     0.053 C 
BRANCH   6   7
ATOM      7  C   UNL     1     -12.714 -10.494   7.148  1.00  0.00     0.041 C 
ATOM      8  O   UNL     1     -13.924 -10.761   6.923  1.00  0.00    -0.550 OA
ATOM      9  O   UNL     1     -12.275 -10.345   8.457  1.00  0.00    -0.550 OA
ENDBRANCH   6   7
ENDBRANCH   5   6
ENDBRANCH   4   5
ENDBRANCH   3   4
ENDBRANCH   2   3
ENDBRANCH   1   2
BRANCH   1  10
ATOM     10  C   UNL     1      -6.725 -15.599   5.474  1.00  0.00     0.000 C 
BRANCH  10  11
ATOM     11  C   UNL     1      -5.546 -16.217   4.703  1.00  0.00    -0.000 C 
BRANCH  11  12
ATOM     12  C   UNL     1      -4.291 -16.399   5.577  1.00  0.00    -0.000 C 
BRANCH  12  13
ATOM     13  C   UNL     1      -2.953 -16.110   4.867  1.00  0.00    -0.000 C 
BRANCH  13  14
ATOM     14  C   UNL     1      -2.826 -16.693   3.445  1.00  0.00    -0.000 C 
BRANCH  14  15
ATOM     15  C   UNL     1      -2.728 -18.228   3.383  1.00  0.00    -0.003 C 
ATOM     16  C   UNL     1      -1.492 -18.716   2.630  1.00  0.00     0.004 C 
ENDBRANCH  14  15
ENDBRANCH  13  14
ENDBRANCH  12  13
ENDBRANCH  11  12
ENDBRANCH  10  11
ENDBRANCH   1  10
TORSDOF 12
ENDMDL
MODEL 2
REMARK VINA RESULT:    -4.774      0.657      1.573
REMARK INTER + INTRA:          -8.536
REMARK INTER:                  -8.190
REMARK INTRA:                  -0.346
REMARK UNBOUND:                -0.413
REMARK SMILES CCCCCCCCCCCCCC(=O)[O-]
REMARK SMILES IDX 8 1 9 2 10 3 11 4 12 5 13 6 14 7 15 8 16 9 7 10 6 11 5 12
REMARK SMILES IDX 4 13 3 14 2 15 1 16
REMARK H PARENT
REMARK Flexibility Score: inf
ROOT
ATOM      1  C   UNL     1      -8.388 -13.964   5.086  1.00  0.00     0.000 C 
ENDROOT
BRANCH   1   2
ATOM      2  C   UNL     1      -8.826 -12.904   6.111  1.00  0.00     0.000 C 
BRANCH   2   3
ATOM      3  C   UNL     1     -10.309 -12.521   5.968  1.00  0.00     0.000 C 
BRANCH   3   4
ATOM      4  C   UNL     1     -10.606 -11.100   6.471  1.00  0.00     0.000 C 
BRANCH   4   5
ATOM      5  C   UNL     1     -11.911 -10.567   5.866  1.00  0.00     0.006 C 
BRANCH   5   6
ATOM      6  C   UNL     1     -12.521  -9.473   6.749  1.00  0.00     0.053 C 
BRANCH   6   7
ATOM      7  C   UNL     1     -13.640 -10.028   7.571  1.00  0.00     0.041 C 
ATOM      8  O   UNL     1     -13.441 -10.363   8.769  1.00  0.00    -0.550 OA
ATOM      9  O   UNL     1     -14.891 -10.220   7.002  1.00  0.00    -0.550 OA
ENDBRANCH   6   7
ENDBRANCH   5   6
ENDBRANCH   4   5
ENDBRANCH   3   4
ENDBRANCH   2   3
ENDBRANCH   1   2
BRANCH   1  10
ATOM     10  C   UNL     1      -6.882 -14.265   5.158  1.00  0.00     0.000 C 
BRANCH  10  11
ATOM     11  C   UNL     1      -6.591 -15.744   5.468  1.00  0.00    -0.000 C 
BRANCH  11  12
ATOM     12  C   UNL     1      -5.349 -16.275   4.728  1.00  0.00    -0.000 C 
BRANCH  12  13
ATOM     13  C   UNL     1      -4.080 -16.406   5.593  1.00  0.00    -0.000 C 
BRANCH  13  14
ATOM     14  C   UNL     1      -2.750 -16.174   4.846  1.00  0.00    -0.000 C 
BRANCH  14  15
ATOM     15  C   UNL     1      -2.668 -16.830   3.456  1.00  0.00    -0.003 C 
ATOM     16  C   UNL     1      -1.690 -18.002   3.408  1.00  0.00     0.004 C 
ENDBRANCH  14  15
ENDBRANCH  13  14
ENDBRANCH  12  13
ENDBRANCH  11  12
ENDBRANCH  10  11
ENDBRANCH   1  10
TORSDOF 12
ENDMDL
MODEL 3
REMARK VINA RESULT:    -4.768      1.424      2.830
REMARK INTER + INTRA:          -8.526
REMARK INTER:                  -8.284
REMARK INTRA:                  -0.242
REMARK UNBOUND:                -0.413
REMARK SMILES CCCCCCCCCCCCCC(=O)[O-]
REMARK SMILES IDX 8 1 9 2 10 3 11 4 12 5 13 6 14 7 15 8 16 9 7 10 6 11 5 12
REMARK SMILES IDX 4 13 3 14 2 15 1 16
REMARK H PARENT
REMARK Flexibility Score: inf
ROOT
ATOM      1  C   UNL     1      -8.974 -12.607   6.015  1.00  0.00     0.000 C 
ENDROOT
BRANCH   1   2
ATOM      2  C   UNL     1     -10.485 -12.551   6.299  1.00  0.00     0.000 C 
BRANCH   2   3
ATOM      3  C   UNL     1     -11.054 -11.127   6.186  1.00  0.00     0.000 C 
BRANCH   3   4
ATOM      4  C   UNL     1     -11.729 -10.653   7.483  1.00  0.00     0.000 C 
BRANCH   4   5
ATOM      5  C   UNL     1     -13.134 -10.107   7.201  1.00  0.00     0.006 C 
BRANCH   5   6
ATOM      6  C   UNL     1     -13.952 -10.001   8.492  1.00  0.00     0.053 C 
BRANCH   6   7
ATOM      7  C   UNL     1     -15.394  -9.756   8.180  1.00  0.00     0.041 C 
ATOM      8  O   UNL     1     -16.164  -9.294   9.063  1.00  0.00    -0.550 OA
ATOM      9  O   UNL     1     -15.900 -10.083   6.929  1.00  0.00    -0.550 OA
ENDBRANCH   6   7
ENDBRANCH   5   6
ENDBRANCH   4   5
ENDBRANCH   3   4
ENDBRANCH   2   3
ENDBRANCH   1   2
BRANCH   1  10
ATOM     10  C   UNL     1      -8.588 -13.791   5.113  1.00  0.00     0.000 C 
BRANCH  10  11
ATOM     11  C   UNL     1      -7.074 -14.067   5.119  1.00  0.00    -0.000 C 
BRANCH  11  12
ATOM     12  C   UNL     1      -6.735 -15.528   5.470  1.00  0.00    -0.000 C 
BRANCH  12  13
ATOM     13  C   UNL     1      -5.576 -16.142   4.659  1.00  0.00    -0.000 C 
BRANCH  13  14
ATOM     14  C   UNL     1      -4.219 -16.192   5.390  1.00  0.00    -0.000 C 
BRANCH  14  15
ATOM     15  C   UNL     1      -3.243 -17.262   4.869  1.00  0.00    -0.003 C 
ATOM     16  C   UNL     1      -2.539 -16.849   3.579  1.00  0.00     0.004 C 
ENDBRANCH  14  15
ENDBRANCH  13  14
ENDBRANCH  12  13
ENDBRANCH  11  12
ENDBRANCH  10  11
ENDBRANCH   1  10
TORSDOF 12
ENDMDL
MODEL 4
REMARK VINA RESULT:    -4.502      4.521     10.117
REMARK INTER + INTRA:          -8.073
REMARK INTER:                  -7.667
REMARK INTRA:                  -0.405
REMARK UNBOUND:                -0.413
REMARK SMILES CCCCCCCCCCCCCC(=O)[O-]
REMARK SMILES IDX 8 1 9 2 10 3 11 4 12 5 13 6 14 7 15 8 16 9 7 10 6 11 5 12
REMARK SMILES IDX 4 13 3 14 2 15 1 16
REMARK H PARENT
REMARK Flexibility Score: inf
ROOT
ATOM      1  C   UNL     1      -8.980 -12.962   6.286  1.00  0.00     0.000 C 
ENDROOT
BRANCH   1   2
ATOM      2  C   UNL     1      -8.360 -13.774   5.136  1.00  0.00     0.000 C 
BRANCH   2   3
ATOM      3  C   UNL     1      -6.961 -14.312   5.481  1.00  0.00     0.000 C 
BRANCH   3   4
ATOM      4  C   UNL     1      -6.780 -15.788   5.093  1.00  0.00     0.000 C 
BRANCH   4   5
ATOM      5  C   UNL     1      -5.675 -16.443   5.931  1.00  0.00     0.006 C 
BRANCH   5   6
ATOM      6  C   UNL     1      -4.287 -16.080   5.392  1.00  0.00     0.053 C 
BRANCH   6   7
ATOM      7  C   UNL     1      -3.789 -17.145   4.467  1.00  0.00     0.041 C 
ATOM      8  O   UNL     1      -3.056 -16.843   3.489  1.00  0.00    -0.550 OA
ATOM      9  O   UNL     1      -4.175 -18.465   4.657  1.00  0.00    -0.550 OA
ENDBRANCH   6   7
ENDBRANCH   5   6
ENDBRANCH   4   5
ENDBRANCH   3   4
ENDBRANCH   2   3
ENDBRANCH   1   2
BRANCH   1  10
ATOM     10  C   UNL     1     -10.311 -12.301   5.889  1.00  0.00     0.000 C 
BRANCH  10  11
ATOM     11  C   UNL     1     -10.474 -10.896   6.494  1.00  0.00    -0.000 C 
BRANCH  11  12
ATOM     12  C   UNL     1     -11.641 -10.109   5.869  1.00  0.00    -0.000 C 
BRANCH  12  13
ATOM     13  C   UNL     1     -13.011 -10.328   6.541  1.00  0.00    -0.000 C 
BRANCH  13  14
ATOM     14  C   UNL     1     -13.025 -10.152   8.074  1.00  0.00    -0.000 C 
BRANCH  14  15
ATOM     15  C   UNL     1     -14.421  -9.941   8.687  1.00  0.00    -0.003 C 
ATOM     16  C   UNL     1     -15.533  -9.912   7.640  1.00  0.00     0.004 C 
ENDBRANCH  14  15
ENDBRANCH  13  14
ENDBRANCH  12  13
ENDBRANCH  11  12
ENDBRANCH  10  11
ENDBRANCH   1  10
TORSDOF 12
ENDMDL
MODEL 5
REMARK VINA RESULT:    -4.486      4.525      9.430
REMARK INTER + INTRA:          -8.046
REMARK INTER:                  -7.351
REMARK INTRA:                  -0.695
REMARK UNBOUND:                -0.413
REMARK SMILES CCCCCCCCCCCCCC(=O)[O-]
REMARK SMILES IDX 8 1 9 2 10 3 11 4 12 5 13 6 14 7 15 8 16 9 7 10 6 11 5 12
REMARK SMILES IDX 4 13 3 14 2 15 1 16
REMARK H PARENT
REMARK Flexibility Score: inf
ROOT
ATOM      1  C   UNL     1      -6.881 -14.250   5.034  1.00  0.00     0.000 C 
ENDROOT
BRANCH   1   2
ATOM      2  C   UNL     1      -6.459 -14.724   6.436  1.00  0.00     0.000 C 
BRANCH   2   3
ATOM      3  C   UNL     1      -6.307 -16.252   6.521  1.00  0.00     0.000 C 
BRANCH   3   4
ATOM      4  C   UNL     1      -6.364 -16.932   5.145  1.00  0.00     0.000 C 
BRANCH   4   5
ATOM      5  C   UNL     1      -5.042 -17.643   4.829  1.00  0.00     0.006 C 
BRANCH   5   6
ATOM      6  C   UNL     1      -4.040 -16.680   4.184  1.00  0.00     0.053 C 
BRANCH   6   7
ATOM      7  C   UNL     1      -2.904 -16.404   5.116  1.00  0.00     0.041 C 
ATOM      8  O   UNL     1      -1.982 -15.617   4.775  1.00  0.00    -0.550 OA
ATOM      9  O   UNL     1      -2.836 -17.053   6.341  1.00  0.00    -0.550 OA
ENDBRANCH   6   7
ENDBRANCH   5   6
ENDBRANCH   4   5
ENDBRANCH   3   4
ENDBRANCH   2   3
ENDBRANCH   1   2
BRANCH   1  10
ATOM     10  C   UNL     1      -8.366 -13.858   4.968  1.00  0.00     0.000 C 
BRANCH  10  11
ATOM     11  C   UNL     1      -8.776 -12.906   6.105  1.00  0.00    -0.000 C 
BRANCH  11  12
ATOM     12  C   UNL     1     -10.285 -12.598   6.110  1.00  0.00    -0.000 C 
BRANCH  12  13
ATOM     13  C   UNL     1     -10.679 -11.278   6.804  1.00  0.00    -0.000 C 
BRANCH  13  14
ATOM     14  C   UNL     1     -11.920 -10.574   6.218  1.00  0.00    -0.000 C 
BRANCH  14  15
ATOM     15  C   UNL     1     -12.872  -9.967   7.264  1.00  0.00    -0.003 C 
ATOM     16  C   UNL     1     -14.339 -10.294   6.996  1.00  0.00     0.004 C 
ENDBRANCH  14  15
ENDBRANCH  13  14
ENDBRANCH  12  13
ENDBRANCH  11  12
ENDBRANCH  10  11
ENDBRANCH   1  10
TORSDOF 12
ENDMDL
MODEL 6
REMARK VINA RESULT:    -4.427      3.848      9.314
REMARK INTER + INTRA:          -7.945
REMARK INTER:                  -7.455
REMARK INTRA:                  -0.490
REMARK UNBOUND:                -0.413
REMARK SMILES CCCCCCCCCCCCCC(=O)[O-]
REMARK SMILES IDX 8 1 9 2 10 3 11 4 12 5 13 6 14 7 15 8 16 9 7 10 6 11 5 12
REMARK SMILES IDX 4 13 3 14 2 15 1 16
REMARK H PARENT
REMARK Flexibility Score: inf
ROOT
ATOM      1  C   UNL     1      -8.246 -13.346   6.125  1.00  0.00     0.000 C 
ENDROOT
BRANCH   1   2
ATOM      2  C   UNL     1      -7.212 -14.160   5.328  1.00  0.00     0.000 C 
BRANCH   2   3
ATOM      3  C   UNL     1      -6.366 -15.079   6.226  1.00  0.00     0.000 C 
BRANCH   3   4
ATOM      4  C   UNL     1      -5.168 -15.693   5.485  1.00  0.00     0.000 C 
BRANCH   4   5
ATOM      5  C   UNL     1      -5.568 -16.996   4.782  1.00  0.00     0.006 C 
BRANCH   5   6
ATOM      6  C   UNL     1      -6.604 -17.770   5.605  1.00  0.00     0.053 C 
BRANCH   6   7
ATOM      7  C   UNL     1      -7.588 -18.447   4.705  1.00  0.00     0.041 C 
ATOM      8  O   UNL     1      -7.372 -19.619   4.298  1.00  0.00    -0.550 OA
ATOM      9  O   UNL     1      -8.721 -17.768   4.278  1.00  0.00    -0.550 OA
ENDBRANCH   6   7
ENDBRANCH   5   6
ENDBRANCH   4   5
ENDBRANCH   3   4
ENDBRANCH   2   3
ENDBRANCH   1   2
BRANCH   1  10
ATOM     10  C   UNL     1      -9.580 -13.195   5.376  1.00  0.00     0.000 C 
BRANCH  10  11
ATOM     11  C   UNL     1     -10.669 -12.536   6.240  1.00  0.00    -0.000 C 
BRANCH  11  12
ATOM     12  C   UNL     1     -10.581 -10.999   6.242  1.00  0.00    -0.000 C 
BRANCH  12  13
ATOM     13  C   UNL     1     -11.863 -10.270   5.792  1.00  0.00    -0.000 C 
BRANCH  13  14
ATOM     14  C   UNL     1     -12.681  -9.620   6.927  1.00  0.00    -0.000 C 
BRANCH  14  15
ATOM     15  C   UNL     1     -13.760 -10.526   7.545  1.00  0.00    -0.003 C 
ATOM     16  C   UNL     1     -15.178 -10.123   7.145  1.00  0.00     0.004 C 
ENDBRANCH  14  15
ENDBRANCH  13  14
ENDBRANCH  12  13
ENDBRANCH  11  12
ENDBRANCH  10  11
ENDBRANCH   1  10
TORSDOF 12
ENDMDL
MODEL 7
REMARK VINA RESULT:    -4.392      5.104      7.530
REMARK INTER + INTRA:          -7.887
REMARK INTER:                  -6.083
REMARK INTRA:                  -1.804
REMARK UNBOUND:                -0.413
REMARK SMILES CCCCCCCCCCCCCC(=O)[O-]
REMARK SMILES IDX 8 1 9 2 10 3 11 4 12 5 13 6 14 7 15 8 16 9 7 10 6 11 5 12
REMARK SMILES IDX 4 13 3 14 2 15 1 16
REMARK H PARENT
REMARK Flexibility Score: inf
ROOT
ATOM      1  C   UNL     1      -4.547 -19.881   5.249  1.00  0.00     0.000 C 
ENDROOT
BRANCH   1   2
ATOM      2  C   UNL     1      -5.375 -19.520   6.495  1.00  0.00     0.000 C 
BRANCH   2   3
ATOM      3  C   UNL     1      -6.803 -19.070   6.145  1.00  0.00     0.000 C 
BRANCH   3   4
ATOM      4  C   UNL     1      -7.013 -18.881   4.635  1.00  0.00     0.000 C 
BRANCH   4   5
ATOM      5  C   UNL     1      -8.446 -18.425   4.334  1.00  0.00     0.006 C 
BRANCH   5   6
ATOM      6  C   UNL     1      -9.088 -19.305   3.256  1.00  0.00     0.053 C 
BRANCH   6   7
ATOM      7  C   UNL     1      -9.072 -20.741   3.674  1.00  0.00     0.041 C 
ATOM      8  O   UNL     1      -9.627 -21.095   4.748  1.00  0.00    -0.550 OA
ATOM      9  O   UNL     1      -8.402 -21.682   2.904  1.00  0.00    -0.550 OA
ENDBRANCH   6   7
ENDBRANCH   5   6
ENDBRANCH   4   5
ENDBRANCH   3   4
ENDBRANCH   2   3
ENDBRANCH   1   2
BRANCH   1  10
ATOM     10  C   UNL     1      -3.279 -19.022   5.116  1.00  0.00     0.000 C 
BRANCH  10  11
ATOM     11  C   UNL     1      -3.228 -18.249   3.787  1.00  0.00    -0.000 C 
BRANCH  11  12
ATOM     12  C   UNL     1      -3.859 -16.848   3.887  1.00  0.00    -0.000 C 
BRANCH  12  13
ATOM     13  C   UNL     1      -3.768 -16.188   5.277  1.00  0.00    -0.000 C 
BRANCH  13  14
ATOM     14  C   UNL     1      -5.119 -15.773   5.896  1.00  0.00    -0.000 C 
BRANCH  14  15
ATOM     15  C   UNL     1      -6.186 -15.331   4.878  1.00  0.00    -0.003 C 
ATOM     16  C   UNL     1      -7.237 -14.403   5.482  1.00  0.00     0.004 C 
ENDBRANCH  14  15
ENDBRANCH  13  14
ENDBRANCH  12  13
ENDBRANCH  11  12
ENDBRANCH  10  11
ENDBRANCH   1  10
TORSDOF 12
ENDMDL
MODEL 8
REMARK VINA RESULT:    -4.381      2.673      3.907
REMARK INTER + INTRA:          -7.868
REMARK INTER:                  -7.252
REMARK INTRA:                  -0.616
REMARK UNBOUND:                -0.413
REMARK SMILES CCCCCCCCCCCCCC(=O)[O-]
REMARK SMILES IDX 8 1 9 2 10 3 11 4 12 5 13 6 14 7 15 8 16 9 7 10 6 11 5 12
REMARK SMILES IDX 4 13 3 14 2 15 1 16
REMARK H PARENT
REMARK Flexibility Score: inf
ROOT
ATOM      1  C   UNL     1     -10.097 -12.382   6.280  1.00  0.00     0.000 C 
ENDROOT
BRANCH   1   2
ATOM      2  C   UNL     1     -10.086 -10.849   6.407  1.00  0.00     0.000 C 
BRANCH   2   3
ATOM      3  C   UNL     1     -11.401 -10.208   5.933  1.00  0.00     0.000 C 
BRANCH   3   4
ATOM      4  C   UNL     1     -11.715  -8.891   6.659  1.00  0.00     0.000 C 
BRANCH   4   5
ATOM      5  C   UNL     1     -12.735  -9.115   7.783  1.00  0.00     0.006 C 
BRANCH   5   6
ATOM      6  C   UNL     1     -13.645 -10.307   7.471  1.00  0.00     0.053 C 
BRANCH   6   7
ATOM      7  C   UNL     1     -15.065  -9.986   7.812  1.00  0.00     0.041 C 
ATOM      8  O   UNL     1     -15.918  -9.838   6.898  1.00  0.00    -0.550 OA
ATOM      9  O   UNL     1     -15.436  -9.801   9.137  1.00  0.00    -0.550 OA
ENDBRANCH   6   7
ENDBRANCH   5   6
ENDBRANCH   4   5
ENDBRANCH   3   4
ENDBRANCH   2   3
ENDBRANCH   1   2
BRANCH   1  10
ATOM     10  C   UNL     1      -8.684 -12.986   6.317  1.00  0.00     0.000 C 
BRANCH  10  11
ATOM     11  C   UNL     1      -8.402 -13.899   5.112  1.00  0.00    -0.000 C 
BRANCH  11  12
ATOM     12  C   UNL     1      -6.897 -14.075   4.836  1.00  0.00    -0.000 C 
BRANCH  12  13
ATOM     13  C   UNL     1      -6.355 -15.503   5.050  1.00  0.00    -0.000 C 
BRANCH  13  14
ATOM     14  C   UNL     1      -6.101 -15.894   6.520  1.00  0.00    -0.000 C 
BRANCH  14  15
ATOM     15  C   UNL     1      -5.294 -14.865   7.332  1.00  0.00    -0.003 C 
ATOM     16  C   UNL     1      -4.046 -15.463   7.979  1.00  0.00     0.004 C 
ENDBRANCH  14  15
ENDBRANCH  13  14
ENDBRANCH  12  13
ENDBRANCH  11  12
ENDBRANCH  10  11
ENDBRANCH   1  10
TORSDOF 12
ENDMDL
MODEL 9
REMARK VINA RESULT:    -4.366      1.598      2.361
REMARK INTER + INTRA:          -7.842
REMARK INTER:                  -7.022
REMARK INTRA:                  -0.820
REMARK UNBOUND:                -0.413
REMARK SMILES CCCCCCCCCCCCCC(=O)[O-]
REMARK SMILES IDX 8 1 9 2 10 3 11 4 12 5 13 6 14 7 15 8 16 9 7 10 6 11 5 12
REMARK SMILES IDX 4 13 3 14 2 15 1 16
REMARK H PARENT
REMARK Flexibility Score: inf
ROOT
ATOM      1  C   UNL     1      -6.808 -14.506   6.466  1.00  0.00     0.000 C 
ENDROOT
BRANCH   1   2
ATOM      2  C   UNL     1      -7.311 -14.031   5.092  1.00  0.00     0.000 C 
BRANCH   2   3
ATOM      3  C   UNL     1      -8.786 -13.599   5.121  1.00  0.00     0.000 C 
BRANCH   3   4
ATOM      4  C   UNL     1      -9.196 -12.974   6.463  1.00  0.00     0.000 C 
BRANCH   4   5
ATOM      5  C   UNL     1     -10.107 -11.759   6.247  1.00  0.00     0.006 C 
BRANCH   5   6
ATOM      6  C   UNL     1      -9.442 -10.476   6.756  1.00  0.00     0.053 C 
BRANCH   6   7
ATOM      7  C   UNL     1      -9.930 -10.142   8.130  1.00  0.00     0.041 C 
ATOM      8  O   UNL     1      -9.177  -9.541   8.941  1.00  0.00    -0.550 OA
ATOM      9  O   UNL     1     -11.198 -10.538   8.532  1.00  0.00    -0.550 OA
ENDBRANCH   6   7
ENDBRANCH   5   6
ENDBRANCH   4   5
ENDBRANCH   3   4
ENDBRANCH   2   3
ENDBRANCH   1   2
BRANCH   1  10
ATOM     10  C   UNL     1      -5.587 -15.434   6.358  1.00  0.00     0.000 C 
BRANCH  10  11
ATOM     11  C   UNL     1      -5.322 -15.893   4.914  1.00  0.00    -0.000 C 
BRANCH  11  12
ATOM     12  C   UNL     1      -4.681 -17.291   4.840  1.00  0.00    -0.000 C 
BRANCH  12  13
ATOM     13  C   UNL     1      -3.663 -17.484   3.697  1.00  0.00    -0.000 C 
BRANCH  13  14
ATOM     14  C   UNL     1      -2.402 -16.601   3.787  1.00  0.00    -0.000 C 
BRANCH  14  15
ATOM     15  C   UNL     1      -1.737 -16.564   5.174  1.00  0.00    -0.003 C 
ATOM     16  C   UNL     1      -1.603 -15.149   5.733  1.00  0.00     0.004 C 
ENDBRANCH  14  15
ENDBRANCH  13  14
ENDBRANCH  12  13
ENDBRANCH  11  12
ENDBRANCH  10  11
ENDBRANCH   1  10
TORSDOF 12
ENDMDL
