MODEL 1
REMARK VINA RESULT:    -6.775      0.000      0.000
REMARK INTER + INTRA:          -8.455
REMARK INTER:                  -8.161
REMARK INTRA:                  -0.294
REMARK UNBOUND:                -0.294
REMARK SMILES O=c1c(O)c(-c2ccc(O)c(O)c2)oc2cc(O)cc(O)c12
REMARK SMILES IDX 5 1 3 2 2 3 1 4 22 5 20 6 19 7 17 8 16 9 15 10 14 11 6 12
REMARK SMILES IDX 7 13 8 14 9 15 13 16 11 17 10 18 12 20 4 22 21 24 18 26
REMARK H PARENT 10 19 12 21 4 23 21 25 18 27
REMARK Flexibility Score: inf
ROOT
ATOM      1  C   UNL     1      -0.873 -20.699  -6.707  1.00  0.00     0.180 A 
ATOM      2  C   UNL     1      -0.785 -19.469  -6.034  1.00  0.00     0.208 A 
ATOM      3  C   UNL     1       0.076 -19.356  -4.930  1.00  0.00     0.238 A 
ATOM      4  O   UNL     1       0.191 -18.237  -4.366  1.00  0.00    -0.285 OA
ATOM      5  C   UNL     1       0.824 -20.480  -4.503  1.00  0.00     0.111 A 
ATOM      6  C   UNL     1       1.696 -20.490  -3.373  1.00  0.00     0.134 A 
ATOM      7  C   UNL     1       2.485 -21.619  -3.121  1.00  0.00     0.093 A 
ATOM      8  C   UNL     1       2.385 -22.761  -3.919  1.00  0.00     0.123 A 
ATOM      9  C   UNL     1       1.494 -22.781  -4.989  1.00  0.00     0.094 A 
ATOM     10  C   UNL     1       0.720 -21.658  -5.288  1.00  0.00     0.146 A 
ATOM     11  O   UNL     1      -0.110 -21.716  -6.323  1.00  0.00    -0.452 OA
ENDROOT
BRANCH   1  12
ATOM     12  C   UNL     1      -1.776 -20.902  -7.864  1.00  0.00     0.025 A 
ATOM     13  C   UNL     1      -1.420 -20.471  -9.153  1.00  0.00     0.016 A 
ATOM     14  C   UNL     1      -2.299 -20.651 -10.225  1.00  0.00     0.051 A 
ATOM     15  C   UNL     1      -3.549 -21.251 -10.022  1.00  0.00     0.157 A 
ATOM     16  C   UNL     1      -3.038 -21.483  -7.661  1.00  0.00     0.062 A 
ATOM     17  C   UNL     1      -3.920 -21.666  -8.733  1.00  0.00     0.158 A 
BRANCH  15  18
ATOM     18  O   UNL     1      -4.421 -21.432 -11.094  1.00  0.00    -0.504 OA
ATOM     19  H   UNL     1      -5.057 -20.701 -11.390  1.00  0.00     0.293 HD
ENDBRANCH  15  18
BRANCH  17  20
ATOM     20  O   UNL     1      -5.160 -22.259  -8.496  1.00  0.00    -0.504 OA
ATOM     21  H   UNL     1      -6.019 -21.723  -8.484  1.00  0.00     0.293 HD
ENDBRANCH  17  20
ENDBRANCH   1  12
BRANCH   2  22
ATOM     22  O   UNL     1      -1.516 -18.366  -6.486  1.00  0.00    -0.502 OA
ATOM     23  H   UNL     1      -1.097 -17.452  -6.616  1.00  0.00     0.293 HD
ENDBRANCH   2  22
BRANCH   6  24
ATOM     24  O   UNL     1       1.802 -19.438  -2.459  1.00  0.00    -0.507 OA
ATOM     25  H   UNL     1       2.670 -19.015  -2.168  1.00  0.00     0.293 HD
ENDBRANCH   6  24
BRANCH   8  26
ATOM     26  O   UNL     1       3.163 -23.885  -3.652  1.00  0.00    -0.508 OA
ATOM     27  H   UNL     1       3.840 -23.894  -2.898  1.00  0.00     0.293 HD
ENDBRANCH   8  26
TORSDOF 6
ENDMDL
MODEL 2
REMARK VINA RESULT:    -6.628      1.271      3.028
REMARK INTER + INTRA:          -8.278
REMARK INTER:                  -8.015
REMARK INTRA:                  -0.263
REMARK UNBOUND:                -0.294
REMARK SMILES O=c1c(O)c(-c2ccc(O)c(O)c2)oc2cc(O)cc(O)c12
REMARK SMILES IDX 5 1 3 2 2 3 1 4 22 5 20 6 19 7 17 8 16 9 15 10 14 11 6 12
REMARK SMILES IDX 7 13 8 14 9 15 13 16 11 17 10 18 12 20 4 22 21 24 18 26
REMARK H PARENT 10 19 12 21 4 23 21 25 18 27
REMARK Flexibility Score: inf
ROOT
ATOM      1  C   UNL     1      -0.830 -20.708  -6.439  1.00  0.00     0.180 A 
ATOM      2  C   UNL     1      -0.195 -21.782  -5.792  1.00  0.00     0.208 A 
ATOM      3  C   UNL     1       0.614 -21.521  -4.675  1.00  0.00     0.238 A 
ATOM      4  O   UNL     1       1.136 -22.492  -4.067  1.00  0.00    -0.285 OA
ATOM      5  C   UNL     1       0.793 -20.189  -4.229  1.00  0.00     0.111 A 
ATOM      6  C   UNL     1       1.623 -19.806  -3.134  1.00  0.00     0.134 A 
ATOM      7  C   UNL     1       1.621 -18.474  -2.699  1.00  0.00     0.093 A 
ATOM      8  C   UNL     1       0.871 -17.501  -3.364  1.00  0.00     0.123 A 
ATOM      9  C   UNL     1       0.104 -17.855  -4.471  1.00  0.00     0.094 A 
ATOM     10  C   UNL     1       0.056 -19.182  -4.905  1.00  0.00     0.146 A 
ATOM     11  O   UNL     1      -0.696 -19.478  -5.958  1.00  0.00    -0.452 OA
ENDROOT
BRANCH   1  12
ATOM     12  C   UNL     1      -1.679 -20.901  -7.638  1.00  0.00     0.025 A 
ATOM     13  C   UNL     1      -1.228 -20.540  -8.919  1.00  0.00     0.016 A 
ATOM     14  C   UNL     1      -2.056 -20.708 -10.032  1.00  0.00     0.051 A 
ATOM     15  C   UNL     1      -3.349 -21.227  -9.880  1.00  0.00     0.157 A 
ATOM     16  C   UNL     1      -2.983 -21.401  -7.488  1.00  0.00     0.062 A 
ATOM     17  C   UNL     1      -3.814 -21.572  -8.601  1.00  0.00     0.158 A 
BRANCH  15  18
ATOM     18  O   UNL     1      -4.171 -21.396 -10.993  1.00  0.00    -0.504 OA
ATOM     19  H   UNL     1      -3.787 -21.542 -11.919  1.00  0.00     0.293 HD
ENDBRANCH  15  18
BRANCH  17  20
ATOM     20  O   UNL     1      -5.099 -22.083  -8.415  1.00  0.00    -0.504 OA
ATOM     21  H   UNL     1      -5.915 -21.485  -8.374  1.00  0.00     0.293 HD
ENDBRANCH  17  20
ENDBRANCH   1  12
BRANCH   2  22
ATOM     22  O   UNL     1      -0.403 -23.092  -6.235  1.00  0.00    -0.502 OA
ATOM     23  H   UNL     1      -1.328 -23.491  -6.339  1.00  0.00     0.293 HD
ENDBRANCH   2  22
BRANCH   6  24
ATOM     24  O   UNL     1       2.481 -20.680  -2.461  1.00  0.00    -0.507 OA
ATOM     25  H   UNL     1       2.533 -20.775  -1.458  1.00  0.00     0.293 HD
ENDBRANCH   6  24
BRANCH   8  26
ATOM     26  O   UNL     1       0.887 -16.176  -2.935  1.00  0.00    -0.508 OA
ATOM     27  H   UNL     1       0.036 -15.697  -2.660  1.00  0.00     0.293 HD
ENDBRANCH   8  26
TORSDOF 6
ENDMDL
MODEL 3
REMARK VINA RESULT:    -6.624      1.747      2.217
REMARK INTER + INTRA:          -8.273
REMARK INTER:                  -8.294
REMARK INTRA:                   0.021
REMARK UNBOUND:                -0.294
REMARK SMILES O=c1c(O)c(-c2ccc(O)c(O)c2)oc2cc(O)cc(O)c12
REMARK SMILES IDX 5 1 3 2 2 3 1 4 22 5 20 6 19 7 17 8 16 9 15 10 14 11 6 12
REMARK SMILES IDX 7 13 8 14 9 15 13 16 11 17 10 18 12 20 4 22 21 24 18 26
REMARK H PARENT 10 19 12 21 4 23 21 25 18 27
REMARK Flexibility Score: inf
ROOT
ATOM      1  C   UNL     1      -2.403 -20.376  -7.115  1.00  0.00     0.180 A 
ATOM      2  C   UNL     1      -1.726 -19.301  -6.515  1.00  0.00     0.208 A 
ATOM      3  C   UNL     1      -0.720 -19.569  -5.573  1.00  0.00     0.238 A 
ATOM      4  O   UNL     1      -0.080 -18.604  -5.081  1.00  0.00    -0.285 OA
ATOM      5  C   UNL     1      -0.416 -20.909  -5.230  1.00  0.00     0.111 A 
ATOM      6  C   UNL     1       0.556 -21.295  -4.258  1.00  0.00     0.134 A 
ATOM      7  C   UNL     1       0.866 -22.651  -4.094  1.00  0.00     0.093 A 
ATOM      8  C   UNL     1       0.193 -23.637  -4.819  1.00  0.00     0.123 A 
ATOM      9  C   UNL     1      -0.799 -23.273  -5.726  1.00  0.00     0.094 A 
ATOM     10  C   UNL     1      -1.105 -21.926  -5.939  1.00  0.00     0.146 A 
ATOM     11  O   UNL     1      -2.050 -21.622  -6.821  1.00  0.00    -0.452 OA
ENDROOT
BRANCH   1  12
ATOM     12  C   UNL     1      -3.492 -20.172  -8.099  1.00  0.00     0.025 A 
ATOM     13  C   UNL     1      -4.527 -19.251  -7.863  1.00  0.00     0.016 A 
ATOM     14  C   UNL     1      -5.558 -19.094  -8.794  1.00  0.00     0.051 A 
ATOM     15  C   UNL     1      -5.575 -19.862  -9.966  1.00  0.00     0.157 A 
ATOM     16  C   UNL     1      -3.526 -20.955  -9.264  1.00  0.00     0.062 A 
ATOM     17  C   UNL     1      -4.555 -20.798 -10.199  1.00  0.00     0.158 A 
BRANCH  15  18
ATOM     18  O   UNL     1      -6.603 -19.699 -10.894  1.00  0.00    -0.504 OA
ATOM     19  H   UNL     1      -7.085 -20.494 -11.296  1.00  0.00     0.293 HD
ENDBRANCH  15  18
BRANCH  17  20
ATOM     20  O   UNL     1      -4.549 -21.584 -11.352  1.00  0.00    -0.504 OA
ATOM     21  H   UNL     1      -5.270 -21.507 -12.059  1.00  0.00     0.293 HD
ENDBRANCH  17  20
ENDBRANCH   1  12
BRANCH   2  22
ATOM     22  O   UNL     1      -2.027 -17.986  -6.885  1.00  0.00    -0.502 OA
ATOM     23  H   UNL     1      -2.524 -17.762  -7.739  1.00  0.00     0.293 HD
ENDBRANCH   2  22
BRANCH   6  24
ATOM     24  O   UNL     1       1.219 -20.397  -3.417  1.00  0.00    -0.507 OA
ATOM     25  H   UNL     1       0.825 -19.998  -2.578  1.00  0.00     0.293 HD
ENDBRANCH   6  24
BRANCH   8  26
ATOM     26  O   UNL     1       0.497 -24.984  -4.639  1.00  0.00    -0.508 OA
ATOM     27  H   UNL     1      -0.152 -25.715  -4.908  1.00  0.00     0.293 HD
ENDBRANCH   8  26
TORSDOF 6
ENDMDL
MODEL 4
REMARK VINA RESULT:    -6.489     12.642     14.552
REMARK INTER + INTRA:          -8.110
REMARK INTER:                  -7.786
REMARK INTRA:                  -0.324
REMARK UNBOUND:                -0.294
REMARK SMILES O=c1c(O)c(-c2ccc(O)c(O)c2)oc2cc(O)cc(O)c12
REMARK SMILES IDX 5 1 3 2 2 3 1 4 22 5 20 6 19 7 17 8 16 9 15 10 14 11 6 12
REMARK SMILES IDX 7 13 8 14 9 15 13 16 11 17 10 18 12 20 4 22 21 24 18 26
REMARK H PARENT 10 19 12 21 4 23 21 25 18 27
REMARK Flexibility Score: inf
ROOT
ATOM      1  C   UNL     1      10.593 -12.109  -7.240  1.00  0.00     0.180 A 
ATOM      2  C   UNL     1      10.333 -11.777  -5.900  1.00  0.00     0.208 A 
ATOM      3  C   UNL     1       9.801 -12.756  -5.046  1.00  0.00     0.238 A 
ATOM      4  O   UNL     1       9.622 -12.469  -3.834  1.00  0.00    -0.285 OA
ATOM      5  C   UNL     1       9.521 -14.051  -5.548  1.00  0.00     0.111 A 
ATOM      6  C   UNL     1       8.944 -15.108  -4.783  1.00  0.00     0.134 A 
ATOM      7  C   UNL     1       8.831 -16.386  -5.346  1.00  0.00     0.093 A 
ATOM      8  C   UNL     1       9.215 -16.626  -6.667  1.00  0.00     0.123 A 
ATOM      9  C   UNL     1       9.724 -15.586  -7.441  1.00  0.00     0.094 A 
ATOM     10  C   UNL     1       9.882 -14.310  -6.896  1.00  0.00     0.146 A 
ATOM     11  O   UNL     1      10.381 -13.349  -7.665  1.00  0.00    -0.452 OA
ENDROOT
BRANCH   1  12
ATOM     12  C   UNL     1      11.130 -11.123  -8.207  1.00  0.00     0.025 A 
ATOM     13  C   UNL     1      12.514 -10.938  -8.370  1.00  0.00     0.016 A 
ATOM     14  C   UNL     1      12.998  -9.984  -9.270  1.00  0.00     0.051 A 
ATOM     15  C   UNL     1      12.108  -9.194 -10.009  1.00  0.00     0.157 A 
ATOM     16  C   UNL     1      10.242 -10.314  -8.934  1.00  0.00     0.062 A 
ATOM     17  C   UNL     1      10.724  -9.359  -9.838  1.00  0.00     0.158 A 
BRANCH  15  18
ATOM     18  O   UNL     1      12.594  -8.246 -10.909  1.00  0.00    -0.504 OA
ATOM     19  H   UNL     1      12.408  -8.312 -11.902  1.00  0.00     0.293 HD
ENDBRANCH  15  18
BRANCH  17  20
ATOM     20  O   UNL     1       9.811  -8.583 -10.553  1.00  0.00    -0.504 OA
ATOM     21  H   UNL     1       9.048  -8.096 -10.100  1.00  0.00     0.293 HD
ENDBRANCH  17  20
ENDBRANCH   1  12
BRANCH   2  22
ATOM     22  O   UNL     1      10.638 -10.499  -5.420  1.00  0.00    -0.502 OA
ATOM     23  H   UNL     1      11.425 -10.322  -4.808  1.00  0.00     0.293 HD
ENDBRANCH   2  22
BRANCH   6  24
ATOM     24  O   UNL     1       8.444 -14.951  -3.487  1.00  0.00    -0.507 OA
ATOM     25  H   UNL     1       8.815 -14.311  -2.802  1.00  0.00     0.293 HD
ENDBRANCH   6  24
BRANCH   8  26
ATOM     26  O   UNL     1       9.085 -17.897  -7.225  1.00  0.00    -0.508 OA
ATOM     27  H   UNL     1       8.978 -18.722  -6.645  1.00  0.00     0.293 HD
ENDBRANCH   8  26
TORSDOF 6
ENDMDL
MODEL 5
REMARK VINA RESULT:    -6.390     11.309     13.899
REMARK INTER + INTRA:          -7.991
REMARK INTER:                  -8.032
REMARK INTRA:                   0.042
REMARK UNBOUND:                -0.294
REMARK SMILES O=c1c(O)c(-c2ccc(O)c(O)c2)oc2cc(O)cc(O)c12
REMARK SMILES IDX 5 1 3 2 2 3 1 4 22 5 20 6 19 7 17 8 16 9 15 10 14 11 6 12
REMARK SMILES IDX 7 13 8 14 9 15 13 16 11 17 10 18 12 20 4 22 21 24 18 26
REMARK H PARENT 10 19 12 21 4 23 21 25 18 27
REMARK Flexibility Score: inf
ROOT
ATOM      1  C   UNL     1       9.943 -13.468  -5.778  1.00  0.00     0.180 A 
ATOM      2  C   UNL     1      10.970 -13.136  -6.679  1.00  0.00     0.208 A 
ATOM      3  C   UNL     1      11.393 -14.094  -7.613  1.00  0.00     0.238 A 
ATOM      4  O   UNL     1      12.274 -13.773  -8.452  1.00  0.00    -0.285 OA
ATOM      5  C   UNL     1      10.796 -15.379  -7.624  1.00  0.00     0.111 A 
ATOM      6  C   UNL     1      11.175 -16.440  -8.500  1.00  0.00     0.134 A 
ATOM      7  C   UNL     1      10.428 -17.625  -8.511  1.00  0.00     0.093 A 
ATOM      8  C   UNL     1       9.358 -17.810  -7.633  1.00  0.00     0.123 A 
ATOM      9  C   UNL     1       9.019 -16.803  -6.733  1.00  0.00     0.094 A 
ATOM     10  C   UNL     1       9.721 -15.595  -6.723  1.00  0.00     0.146 A 
ATOM     11  O   UNL     1       9.358 -14.657  -5.856  1.00  0.00    -0.452 OA
ENDROOT
BRANCH   1  12
ATOM     12  C   UNL     1       9.460 -12.518  -4.748  1.00  0.00     0.025 A 
ATOM     13  C   UNL     1       9.310 -12.910  -3.407  1.00  0.00     0.016 A 
ATOM     14  C   UNL     1       8.828 -12.004  -2.457  1.00  0.00     0.051 A 
ATOM     15  C   UNL     1       8.480 -10.701  -2.836  1.00  0.00     0.157 A 
ATOM     16  C   UNL     1       9.089 -11.218  -5.127  1.00  0.00     0.062 A 
ATOM     17  C   UNL     1       8.608 -10.308  -4.178  1.00  0.00     0.158 A 
BRANCH  15  18
ATOM     18  O   UNL     1       8.003  -9.800  -1.885  1.00  0.00    -0.504 OA
ATOM     19  H   UNL     1       8.295  -9.847  -0.916  1.00  0.00     0.293 HD
ENDBRANCH  15  18
BRANCH  17  20
ATOM     20  O   UNL     1       8.262  -9.021  -4.588  1.00  0.00    -0.504 OA
ATOM     21  H   UNL     1       8.471  -8.679  -5.518  1.00  0.00     0.293 HD
ENDBRANCH  17  20
ENDBRANCH   1  12
BRANCH   2  22
ATOM     22  O   UNL     1      11.530 -11.855  -6.665  1.00  0.00    -0.502 OA
ATOM     23  H   UNL     1      11.224 -11.121  -7.292  1.00  0.00     0.293 HD
ENDBRANCH   2  22
BRANCH   6  24
ATOM     24  O   UNL     1      12.283 -16.393  -9.351  1.00  0.00    -0.507 OA
ATOM     25  H   UNL     1      12.527 -15.605  -9.932  1.00  0.00     0.293 HD
ENDBRANCH   6  24
BRANCH   8  26
ATOM     26  O   UNL     1       8.630 -18.998  -7.640  1.00  0.00    -0.508 OA
ATOM     27  H   UNL     1       8.156 -19.335  -6.809  1.00  0.00     0.293 HD
ENDBRANCH   8  26
TORSDOF 6
ENDMDL
MODEL 6
REMARK VINA RESULT:    -6.298     11.025     13.877
REMARK INTER + INTRA:          -7.880
REMARK INTER:                  -7.605
REMARK INTRA:                  -0.275
REMARK UNBOUND:                -0.294
REMARK SMILES O=c1c(O)c(-c2ccc(O)c(O)c2)oc2cc(O)cc(O)c12
REMARK SMILES IDX 5 1 3 2 2 3 1 4 22 5 20 6 19 7 17 8 16 9 15 10 14 11 6 12
REMARK SMILES IDX 7 13 8 14 9 15 13 16 11 17 10 18 12 20 4 22 21 24 18 26
REMARK H PARENT 10 19 12 21 4 23 21 25 18 27
REMARK Flexibility Score: inf
ROOT
ATOM      1  C   UNL     1       9.765 -13.978  -5.164  1.00  0.00     0.180 A 
ATOM      2  C   UNL     1       9.010 -15.080  -4.728  1.00  0.00     0.208 A 
ATOM      3  C   UNL     1       8.946 -16.225  -5.538  1.00  0.00     0.238 A 
ATOM      4  O   UNL     1       8.313 -17.228  -5.117  1.00  0.00    -0.285 OA
ATOM      5  C   UNL     1       9.624 -16.248  -6.781  1.00  0.00     0.111 A 
ATOM      6  C   UNL     1       9.594 -17.339  -7.699  1.00  0.00     0.134 A 
ATOM      7  C   UNL     1      10.408 -17.305  -8.839  1.00  0.00     0.093 A 
ATOM      8  C   UNL     1      11.199 -16.189  -9.125  1.00  0.00     0.123 A 
ATOM      9  C   UNL     1      11.189 -15.095  -8.265  1.00  0.00     0.094 A 
ATOM     10  C   UNL     1      10.416 -15.114  -7.101  1.00  0.00     0.146 A 
ATOM     11  O   UNL     1      10.443 -14.053  -6.304  1.00  0.00    -0.452 OA
ENDROOT
BRANCH   1  12
ATOM     12  C   UNL     1       9.860 -12.726  -4.377  1.00  0.00     0.025 A 
ATOM     13  C   UNL     1      10.678 -12.640  -3.237  1.00  0.00     0.016 A 
ATOM     14  C   UNL     1      10.733 -11.456  -2.496  1.00  0.00     0.051 A 
ATOM     15  C   UNL     1       9.963 -10.348  -2.875  1.00  0.00     0.157 A 
ATOM     16  C   UNL     1       9.074 -11.620  -4.740  1.00  0.00     0.062 A 
ATOM     17  C   UNL     1       9.128 -10.433  -4.001  1.00  0.00     0.158 A 
BRANCH  15  18
ATOM     18  O   UNL     1      10.023  -9.168  -2.135  1.00  0.00    -0.504 OA
ATOM     19  H   UNL     1      10.851  -8.912  -1.610  1.00  0.00     0.293 HD
ENDBRANCH  15  18
BRANCH  17  20
ATOM     20  O   UNL     1       8.344  -9.351  -4.399  1.00  0.00    -0.504 OA
ATOM     21  H   UNL     1       8.716  -8.595  -4.961  1.00  0.00     0.293 HD
ENDBRANCH  17  20
ENDBRANCH   1  12
BRANCH   2  22
ATOM     22  O   UNL     1       8.366 -15.044  -3.487  1.00  0.00    -0.502 OA
ATOM     23  H   UNL     1       8.864 -15.161  -2.613  1.00  0.00     0.293 HD
ENDBRANCH   2  22
BRANCH   6  24
ATOM     24  O   UNL     1       8.770 -18.459  -7.555  1.00  0.00    -0.507 OA
ATOM     25  H   UNL     1       7.919 -18.616  -8.072  1.00  0.00     0.293 HD
ENDBRANCH   6  24
BRANCH   8  26
ATOM     26  O   UNL     1      11.994 -16.157 -10.269  1.00  0.00    -0.508 OA
ATOM     27  H   UNL     1      12.727 -16.839 -10.424  1.00  0.00     0.293 HD
ENDBRANCH   8  26
TORSDOF 6
ENDMDL
MODEL 7
REMARK VINA RESULT:    -6.250      2.379      2.945
REMARK INTER + INTRA:          -7.823
REMARK INTER:                  -7.618
REMARK INTRA:                  -0.205
REMARK UNBOUND:                -0.294
REMARK SMILES O=c1c(O)c(-c2ccc(O)c(O)c2)oc2cc(O)cc(O)c12
REMARK SMILES IDX 5 1 3 2 2 3 1 4 22 5 20 6 19 7 17 8 16 9 15 10 14 11 6 12
REMARK SMILES IDX 7 13 8 14 9 15 13 16 11 17 10 18 12 20 4 22 21 24 18 26
REMARK H PARENT 10 19 12 21 4 23 21 25 18 27
REMARK Flexibility Score: inf
ROOT
ATOM      1  C   UNL     1      -1.238 -21.672  -6.267  1.00  0.00     0.180 A 
ATOM      2  C   UNL     1      -2.264 -21.727  -5.309  1.00  0.00     0.208 A 
ATOM      3  C   UNL     1      -2.063 -22.477  -4.139  1.00  0.00     0.238 A 
ATOM      4  O   UNL     1      -2.964 -22.477  -3.260  1.00  0.00    -0.285 OA
ATOM      5  C   UNL     1      -0.845 -23.175  -3.949  1.00  0.00     0.111 A 
ATOM      6  C   UNL     1      -0.551 -23.997  -2.820  1.00  0.00     0.134 A 
ATOM      7  C   UNL     1       0.734 -24.534  -2.675  1.00  0.00     0.093 A 
ATOM      8  C   UNL     1       1.714 -24.333  -3.650  1.00  0.00     0.123 A 
ATOM      9  C   UNL     1       1.417 -23.581  -4.784  1.00  0.00     0.094 A 
ATOM     10  C   UNL     1       0.155 -23.002  -4.940  1.00  0.00     0.146 A 
ATOM     11  O   UNL     1      -0.083 -22.284  -6.032  1.00  0.00    -0.452 OA
ENDROOT
BRANCH   1  12
ATOM     12  C   UNL     1      -1.384 -20.924  -7.538  1.00  0.00     0.025 A 
ATOM     13  C   UNL     1      -0.673 -19.734  -7.771  1.00  0.00     0.016 A 
ATOM     14  C   UNL     1      -0.846 -19.031  -8.967  1.00  0.00     0.051 A 
ATOM     15  C   UNL     1      -1.740 -19.499  -9.939  1.00  0.00     0.157 A 
ATOM     16  C   UNL     1      -2.295 -21.377  -8.506  1.00  0.00     0.062 A 
ATOM     17  C   UNL     1      -2.469 -20.676  -9.705  1.00  0.00     0.158 A 
BRANCH  15  18
ATOM     18  O   UNL     1      -1.908 -18.797 -11.132  1.00  0.00    -0.504 OA
ATOM     19  H   UNL     1      -1.998 -19.275 -12.021  1.00  0.00     0.293 HD
ENDBRANCH  15  18
BRANCH  17  20
ATOM     20  O   UNL     1      -3.373 -21.164 -10.649  1.00  0.00    -0.504 OA
ATOM     21  H   UNL     1      -3.146 -21.215 -11.635  1.00  0.00     0.293 HD
ENDBRANCH  17  20
ENDBRANCH   1  12
BRANCH   2  22
ATOM     22  O   UNL     1      -3.449 -21.013  -5.507  1.00  0.00    -0.502 OA
ATOM     23  H   UNL     1      -3.801 -20.346  -4.830  1.00  0.00     0.293 HD
ENDBRANCH   2  22
BRANCH   6  24
ATOM     24  O   UNL     1      -1.484 -24.336  -1.837  1.00  0.00    -0.507 OA
ATOM     25  H   UNL     1      -1.628 -23.823  -0.980  1.00  0.00     0.293 HD
ENDBRANCH   6  24
BRANCH   8  26
ATOM     26  O   UNL     1       2.985 -24.884  -3.505  1.00  0.00    -0.508 OA
ATOM     27  H   UNL     1       3.500 -25.247  -4.300  1.00  0.00     0.293 HD
ENDBRANCH   8  26
TORSDOF 6
ENDMDL
MODEL 8
REMARK VINA RESULT:    -6.166      2.460      2.995
REMARK INTER + INTRA:          -7.722
REMARK INTER:                  -7.690
REMARK INTRA:                  -0.031
REMARK UNBOUND:                -0.294
REMARK SMILES O=c1c(O)c(-c2ccc(O)c(O)c2)oc2cc(O)cc(O)c12
REMARK SMILES IDX 5 1 3 2 2 3 1 4 22 5 20 6 19 7 17 8 16 9 15 10 14 11 6 12
REMARK SMILES IDX 7 13 8 14 9 15 13 16 11 17 10 18 12 20 4 22 21 24 18 26
REMARK H PARENT 10 19 12 21 4 23 21 25 18 27
REMARK Flexibility Score: inf
ROOT
ATOM      1  C   UNL     1      -2.404 -22.153  -6.066  1.00  0.00     0.180 A 
ATOM      2  C   UNL     1      -3.066 -22.133  -4.827  1.00  0.00     0.208 A 
ATOM      3  C   UNL     1      -2.361 -22.504  -3.671  1.00  0.00     0.238 A 
ATOM      4  O   UNL     1      -2.944 -22.432  -2.559  1.00  0.00    -0.285 OA
ATOM      5  C   UNL     1      -1.007 -22.907  -3.771  1.00  0.00     0.111 A 
ATOM      6  C   UNL     1      -0.209 -23.342  -2.671  1.00  0.00     0.134 A 
ATOM      7  C   UNL     1       1.156 -23.592  -2.865  1.00  0.00     0.093 A 
ATOM      8  C   UNL     1       1.734 -23.486  -4.133  1.00  0.00     0.123 A 
ATOM      9  C   UNL     1       0.950 -23.120  -5.223  1.00  0.00     0.094 A 
ATOM     10  C   UNL     1      -0.406 -22.828  -5.055  1.00  0.00     0.146 A 
ATOM     11  O   UNL     1      -1.116 -22.473  -6.119  1.00  0.00    -0.452 OA
ENDROOT
BRANCH   1  12
ATOM     12  C   UNL     1      -3.088 -21.799  -7.332  1.00  0.00     0.025 A 
ATOM     13  C   UNL     1      -4.312 -22.388  -7.691  1.00  0.00     0.016 A 
ATOM     14  C   UNL     1      -4.927 -22.057  -8.902  1.00  0.00     0.051 A 
ATOM     15  C   UNL     1      -4.322 -21.144  -9.775  1.00  0.00     0.157 A 
ATOM     16  C   UNL     1      -2.475 -20.901  -8.221  1.00  0.00     0.062 A 
ATOM     17  C   UNL     1      -3.088 -20.566  -9.433  1.00  0.00     0.158 A 
BRANCH  15  18
ATOM     18  O   UNL     1      -4.939 -20.814 -10.981  1.00  0.00    -0.504 OA
ATOM     19  H   UNL     1      -4.405 -20.509 -11.785  1.00  0.00     0.293 HD
ENDBRANCH  15  18
BRANCH  17  20
ATOM     20  O   UNL     1      -2.456 -19.660 -10.285  1.00  0.00    -0.504 OA
ATOM     21  H   UNL     1      -2.002 -18.824  -9.939  1.00  0.00     0.293 HD
ENDBRANCH  17  20
ENDBRANCH   1  12
BRANCH   2  22
ATOM     22  O   UNL     1      -4.397 -21.711  -4.748  1.00  0.00    -0.502 OA
ATOM     23  H   UNL     1      -4.911 -21.694  -3.876  1.00  0.00     0.293 HD
ENDBRANCH   2  22
BRANCH   6  24
ATOM     24  O   UNL     1      -0.708 -23.569  -1.385  1.00  0.00    -0.507 OA
ATOM     25  H   UNL     1      -1.677 -23.482  -1.122  1.00  0.00     0.293 HD
ENDBRANCH   6  24
BRANCH   8  26
ATOM     26  O   UNL     1       3.089 -23.751  -4.320  1.00  0.00    -0.508 OA
ATOM     27  H   UNL     1       3.721 -23.860  -3.534  1.00  0.00     0.293 HD
ENDBRANCH   8  26
TORSDOF 6
ENDMDL
