MODEL 1
REMARK VINA RESULT:    -3.071      0.000      0.000
REMARK INTER + INTRA:          -6.773
REMARK INTER:                  -5.226
REMARK INTRA:                  -1.547
REMARK UNBOUND:                -1.547
REMARK SMILES CCCCCCCCCCCCCC(=O)[O-]
REMARK SMILES IDX 8 1 9 2 10 3 11 4 12 5 13 6 14 7 15 8 16 9 7 10 6 11 5 12
REMARK SMILES IDX 4 13 3 14 2 15 1 16
REMARK H PARENT
REMARK Flexibility Score: inf
ROOT
ATOM      1  C   UNL     1     -31.889   3.406 -37.615  1.00  0.00     0.000 C 
ENDROOT
BRANCH   1   2
ATOM      2  C   UNL     1     -30.979   3.909 -38.747  1.00  0.00     0.000 C 
BRANCH   2   3
ATOM      3  C   UNL     1     -30.551   5.376 -38.560  1.00  0.00     0.000 C 
BRANCH   3   4
ATOM      4  C   UNL     1     -29.026   5.561 -38.715  1.00  0.00     0.000 C 
BRANCH   4   5
ATOM      5  C   UNL     1     -28.206   4.376 -38.179  1.00  0.00     0.006 C 
BRANCH   5   6
ATOM      6  C   UNL     1     -28.086   4.374 -36.651  1.00  0.00     0.053 C 
BRANCH   6   7
ATOM      7  C   UNL     1     -26.718   4.810 -36.233  1.00  0.00     0.041 C 
ATOM      8  O   UNL     1     -26.578   5.700 -35.353  1.00  0.00    -0.550 OA
ATOM      9  O   UNL     1     -25.596   4.270 -36.851  1.00  0.00    -0.550 OA
ENDBRANCH   6   7
ENDBRANCH   5   6
ENDBRANCH   4   5
ENDBRANCH   3   4
ENDBRANCH   2   3
ENDBRANCH   1   2
BRANCH   1  10
ATOM     10  C   UNL     1     -33.177   2.748 -38.138  1.00  0.00     0.000 C 
BRANCH  10  11
ATOM     11  C   UNL     1     -32.895   1.541 -39.048  1.00  0.00    -0.000 C 
BRANCH  11  12
ATOM     12  C   UNL     1     -32.872   0.211 -38.279  1.00  0.00    -0.000 C 
BRANCH  12  13
ATOM     13  C   UNL     1     -31.602  -0.586 -38.600  1.00  0.00    -0.000 C 
BRANCH  13  14
ATOM     14  C   UNL     1     -30.572   0.290 -39.329  1.00  0.00    -0.000 C 
BRANCH  14  15
ATOM     15  C   UNL     1     -29.258   0.432 -38.546  1.00  0.00    -0.003 C 
ATOM     16  C   UNL     1     -29.482   0.666 -37.052  1.00  0.00     0.004 C 
ENDBRANCH  14  15
ENDBRANCH  13  14
ENDBRANCH  12  13
ENDBRANCH  11  12
ENDBRANCH  10  11
ENDBRANCH   1  10
TORSDOF 12
ENDMDL
MODEL 2
REMARK VINA RESULT:    -3.059      2.975      5.221
REMARK INTER + INTRA:          -6.753
REMARK INTER:                  -5.008
REMARK INTRA:                  -1.745
REMARK UNBOUND:                -1.547
REMARK SMILES CCCCCCCCCCCCCC(=O)[O-]
REMARK SMILES IDX 8 1 9 2 10 3 11 4 12 5 13 6 14 7 15 8 16 9 7 10 6 11 5 12
REMARK SMILES IDX 4 13 3 14 2 15 1 16
REMARK H PARENT
REMARK Flexibility Score: inf
ROOT
ATOM      1  C   UNL     1     -31.928   3.977 -37.451  1.00  0.00     0.000 C 
ENDROOT
BRANCH   1   2
ATOM      2  C   UNL     1     -33.113   3.171 -38.009  1.00  0.00     0.000 C 
BRANCH   2   3
ATOM      3  C   UNL     1     -32.690   2.168 -39.098  1.00  0.00     0.000 C 
BRANCH   3   4
ATOM      4  C   UNL     1     -33.044   0.714 -38.717  1.00  0.00     0.000 C 
BRANCH   4   5
ATOM      5  C   UNL     1     -31.863  -0.069 -38.119  1.00  0.00     0.006 C 
BRANCH   5   6
ATOM      6  C   UNL     1     -31.020  -0.782 -39.182  1.00  0.00     0.053 C 
BRANCH   6   7
ATOM      7  C   UNL     1     -29.808  -1.399 -38.560  1.00  0.00     0.041 C 
ATOM      8  O   UNL     1     -29.776  -1.625 -37.322  1.00  0.00    -0.550 OA
ATOM      9  O   UNL     1     -28.692  -1.680 -39.340  1.00  0.00    -0.550 OA
ENDBRANCH   6   7
ENDBRANCH   5   6
ENDBRANCH   4   5
ENDBRANCH   3   4
ENDBRANCH   2   3
ENDBRANCH   1   2
BRANCH   1  10
ATOM     10  C   UNL     1     -31.751   5.334 -38.153  1.00  0.00     0.000 C 
BRANCH  10  11
ATOM     11  C   UNL     1     -30.620   5.317 -39.193  1.00  0.00    -0.000 C 
BRANCH  11  12
ATOM     12  C   UNL     1     -29.266   5.744 -38.605  1.00  0.00    -0.000 C 
BRANCH  12  13
ATOM     13  C   UNL     1     -28.338   4.536 -38.431  1.00  0.00    -0.000 C 
BRANCH  13  14
ATOM     14  C   UNL     1     -28.626   3.464 -39.494  1.00  0.00    -0.000 C 
BRANCH  14  15
ATOM     15  C   UNL     1     -28.636   2.043 -38.911  1.00  0.00    -0.003 C 
ATOM     16  C   UNL     1     -28.812   2.028 -37.393  1.00  0.00     0.004 C 
ENDBRANCH  14  15
ENDBRANCH  13  14
ENDBRANCH  12  13
ENDBRANCH  11  12
ENDBRANCH  10  11
ENDBRANCH   1  10
TORSDOF 12
ENDMDL
MODEL 3
REMARK VINA RESULT:    -3.032      7.949     10.708
REMARK INTER + INTRA:          -6.707
REMARK INTER:                  -4.748
REMARK INTRA:                  -1.959
REMARK UNBOUND:                -1.547
REMARK SMILES CCCCCCCCCCCCCC(=O)[O-]
REMARK SMILES IDX 8 1 9 2 10 3 11 4 12 5 13 6 14 7 15 8 16 9 7 10 6 11 5 12
REMARK SMILES IDX 4 13 3 14 2 15 1 16
REMARK H PARENT
REMARK Flexibility Score: inf
ROOT
ATOM      1  C   UNL     1     -26.518   4.129 -28.253  1.00  0.00     0.000 C 
ENDROOT
BRANCH   1   2
ATOM      2  C   UNL     1     -25.590   3.112 -28.938  1.00  0.00     0.000 C 
BRANCH   2   3
ATOM      3  C   UNL     1     -24.159   3.647 -29.130  1.00  0.00     0.000 C 
BRANCH   3   4
ATOM      4  C   UNL     1     -23.737   3.656 -30.615  1.00  0.00     0.000 C 
BRANCH   4   5
ATOM      5  C   UNL     1     -23.358   5.052 -31.137  1.00  0.00     0.006 C 
BRANCH   5   6
ATOM      6  C   UNL     1     -24.376   5.614 -32.135  1.00  0.00     0.053 C 
BRANCH   6   7
ATOM      7  C   UNL     1     -24.448   4.749 -33.352  1.00  0.00     0.041 C 
ATOM      8  O   UNL     1     -25.561   4.324 -33.763  1.00  0.00    -0.550 OA
ATOM      9  O   UNL     1     -23.283   4.369 -34.006  1.00  0.00    -0.550 OA
ENDBRANCH   6   7
ENDBRANCH   5   6
ENDBRANCH   4   5
ENDBRANCH   3   4
ENDBRANCH   2   3
ENDBRANCH   1   2
BRANCH   1  10
ATOM     10  C   UNL     1     -26.968   5.253 -29.202  1.00  0.00     0.000 C 
BRANCH  10  11
ATOM     11  C   UNL     1     -27.734   6.369 -28.474  1.00  0.00    -0.000 C 
BRANCH  11  12
ATOM     12  C   UNL     1     -27.165   7.766 -28.765  1.00  0.00    -0.000 C 
BRANCH  12  13
ATOM     13  C   UNL     1     -25.815   7.669 -29.487  1.00  0.00    -0.000 C 
BRANCH  13  14
ATOM     14  C   UNL     1     -24.668   8.124 -28.572  1.00  0.00    -0.000 C 
BRANCH  14  15
ATOM     15  C   UNL     1     -23.883   6.944 -27.979  1.00  0.00    -0.003 C 
ATOM     16  C   UNL     1     -24.264   6.649 -26.528  1.00  0.00     0.004 C 
ENDBRANCH  14  15
ENDBRANCH  13  14
ENDBRANCH  12  13
ENDBRANCH  11  12
ENDBRANCH  10  11
ENDBRANCH   1  10
TORSDOF 12
ENDMDL
MODEL 4
REMARK VINA RESULT:    -3.007      7.218     10.071
REMARK INTER + INTRA:          -6.663
REMARK INTER:                  -4.795
REMARK INTRA:                  -1.868
REMARK UNBOUND:                -1.547
REMARK SMILES CCCCCCCCCCCCCC(=O)[O-]
REMARK SMILES IDX 8 1 9 2 10 3 11 4 12 5 13 6 14 7 15 8 16 9 7 10 6 11 5 12
REMARK SMILES IDX 4 13 3 14 2 15 1 16
REMARK H PARENT
REMARK Flexibility Score: inf
ROOT
ATOM      1  C   UNL     1     -25.591   3.529 -30.034  1.00  0.00     0.000 C 
ENDROOT
BRANCH   1   2
ATOM      2  C   UNL     1     -26.936   4.180 -30.399  1.00  0.00     0.000 C 
BRANCH   2   3
ATOM      3  C   UNL     1     -26.938   4.789 -31.813  1.00  0.00     0.000 C 
BRANCH   3   4
ATOM      4  C   UNL     1     -25.948   4.073 -32.756  1.00  0.00     0.000 C 
BRANCH   4   5
ATOM      5  C   UNL     1     -24.955   5.025 -33.443  1.00  0.00     0.006 C 
BRANCH   5   6
ATOM      6  C   UNL     1     -23.594   4.375 -33.712  1.00  0.00     0.053 C 
BRANCH   6   7
ATOM      7  C   UNL     1     -23.750   3.178 -34.595  1.00  0.00     0.041 C 
ATOM      8  O   UNL     1     -24.170   3.311 -35.775  1.00  0.00    -0.550 OA
ATOM      9  O   UNL     1     -23.481   1.908 -34.100  1.00  0.00    -0.550 OA
ENDBRANCH   6   7
ENDBRANCH   5   6
ENDBRANCH   4   5
ENDBRANCH   3   4
ENDBRANCH   2   3
ENDBRANCH   1   2
BRANCH   1  10
ATOM     10  C   UNL     1     -24.712   4.437 -29.159  1.00  0.00     0.000 C 
BRANCH  10  11
ATOM     11  C   UNL     1     -23.640   5.181 -29.971  1.00  0.00    -0.000 C 
BRANCH  11  12
ATOM     12  C   UNL     1     -24.030   6.635 -30.277  1.00  0.00    -0.000 C 
BRANCH  12  13
ATOM     13  C   UNL     1     -24.496   7.356 -29.006  1.00  0.00    -0.000 C 
BRANCH  13  14
ATOM     14  C   UNL     1     -25.814   8.106 -29.250  1.00  0.00    -0.000 C 
BRANCH  14  15
ATOM     15  C   UNL     1     -26.945   7.628 -28.326  1.00  0.00    -0.003 C 
ATOM     16  C   UNL     1     -26.451   7.264 -26.927  1.00  0.00     0.004 C 
ENDBRANCH  14  15
ENDBRANCH  13  14
ENDBRANCH  12  13
ENDBRANCH  11  12
ENDBRANCH  10  11
ENDBRANCH   1  10
TORSDOF 12
ENDMDL
MODEL 5
REMARK VINA RESULT:    -3.005      1.785      3.395
REMARK INTER + INTRA:          -6.660
REMARK INTER:                  -4.939
REMARK INTRA:                  -1.722
REMARK UNBOUND:                -1.547
REMARK SMILES CCCCCCCCCCCCCC(=O)[O-]
REMARK SMILES IDX 8 1 9 2 10 3 11 4 12 5 13 6 14 7 15 8 16 9 7 10 6 11 5 12
REMARK SMILES IDX 4 13 3 14 2 15 1 16
REMARK H PARENT
REMARK Flexibility Score: inf
ROOT
ATOM      1  C   UNL     1     -31.289   3.634 -39.931  1.00  0.00     0.000 C 
ENDROOT
BRANCH   1   2
ATOM      2  C   UNL     1     -29.788   3.952 -40.030  1.00  0.00     0.000 C 
BRANCH   2   3
ATOM      3  C   UNL     1     -29.495   5.463 -39.989  1.00  0.00     0.000 C 
BRANCH   3   4
ATOM      4  C   UNL     1     -28.986   5.919 -38.605  1.00  0.00     0.000 C 
BRANCH   4   5
ATOM      5  C   UNL     1     -28.144   4.857 -37.879  1.00  0.00     0.006 C 
BRANCH   5   6
ATOM      6  C   UNL     1     -26.984   5.458 -37.079  1.00  0.00     0.053 C 
BRANCH   6   7
ATOM      7  C   UNL     1     -27.033   4.995 -35.657  1.00  0.00     0.041 C 
ATOM      8  O   UNL     1     -27.922   4.183 -35.286  1.00  0.00    -0.550 OA
ATOM      9  O   UNL     1     -26.130   5.499 -34.730  1.00  0.00    -0.550 OA
ENDBRANCH   6   7
ENDBRANCH   5   6
ENDBRANCH   4   5
ENDBRANCH   3   4
ENDBRANCH   2   3
ENDBRANCH   1   2
BRANCH   1  10
ATOM     10  C   UNL     1     -31.561   2.238 -39.345  1.00  0.00     0.000 C 
BRANCH  10  11
ATOM     11  C   UNL     1     -30.774   1.978 -38.051  1.00  0.00    -0.000 C 
BRANCH  11  12
ATOM     12  C   UNL     1     -31.584   2.305 -36.787  1.00  0.00    -0.000 C 
BRANCH  12  13
ATOM     13  C   UNL     1     -31.266   3.719 -36.283  1.00  0.00    -0.000 C 
BRANCH  13  14
ATOM     14  C   UNL     1     -32.516   4.386 -35.690  1.00  0.00    -0.000 C 
BRANCH  14  15
ATOM     15  C   UNL     1     -33.316   5.178 -36.736  1.00  0.00    -0.003 C 
ATOM     16  C   UNL     1     -32.475   6.241 -37.442  1.00  0.00     0.004 C 
ENDBRANCH  14  15
ENDBRANCH  13  14
ENDBRANCH  12  13
ENDBRANCH  11  12
ENDBRANCH  10  11
ENDBRANCH   1  10
TORSDOF 12
ENDMDL
MODEL 6
REMARK VINA RESULT:    -3.001      2.011      3.450
REMARK INTER + INTRA:          -6.654
REMARK INTER:                  -5.343
REMARK INTRA:                  -1.311
REMARK UNBOUND:                -1.547
REMARK SMILES CCCCCCCCCCCCCC(=O)[O-]
REMARK SMILES IDX 8 1 9 2 10 3 11 4 12 5 13 6 14 7 15 8 16 9 7 10 6 11 5 12
REMARK SMILES IDX 4 13 3 14 2 15 1 16
REMARK H PARENT
REMARK Flexibility Score: inf
ROOT
ATOM      1  C   UNL     1     -28.854   4.691 -37.848  1.00  0.00     0.000 C 
ENDROOT
BRANCH   1   2
ATOM      2  C   UNL     1     -27.652   3.733 -37.888  1.00  0.00     0.000 C 
BRANCH   2   3
ATOM      3  C   UNL     1     -26.442   4.262 -37.096  1.00  0.00     0.000 C 
BRANCH   3   4
ATOM      4  C   UNL     1     -26.761   5.579 -36.358  1.00  0.00     0.000 C 
BRANCH   4   5
ATOM      5  C   UNL     1     -26.419   5.543 -34.860  1.00  0.00     0.006 C 
BRANCH   5   6
ATOM      6  C   UNL     1     -25.524   4.359 -34.479  1.00  0.00     0.053 C 
BRANCH   6   7
ATOM      7  C   UNL     1     -24.443   4.799 -33.544  1.00  0.00     0.041 C 
ATOM      8  O   UNL     1     -24.702   5.600 -32.608  1.00  0.00    -0.550 OA
ATOM      9  O   UNL     1     -23.138   4.363 -33.736  1.00  0.00    -0.550 OA
ENDBRANCH   6   7
ENDBRANCH   5   6
ENDBRANCH   4   5
ENDBRANCH   3   4
ENDBRANCH   2   3
ENDBRANCH   1   2
BRANCH   1  10
ATOM     10  C   UNL     1     -29.348   5.080 -39.251  1.00  0.00     0.000 C 
BRANCH  10  11
ATOM     11  C   UNL     1     -29.691   3.857 -40.116  1.00  0.00    -0.000 C 
BRANCH  11  12
ATOM     12  C   UNL     1     -31.094   3.301 -39.828  1.00  0.00    -0.000 C 
BRANCH  12  13
ATOM     13  C   UNL     1     -31.023   1.833 -39.388  1.00  0.00    -0.000 C 
BRANCH  13  14
ATOM     14  C   UNL     1     -31.283   1.698 -37.880  1.00  0.00    -0.000 C 
BRANCH  14  15
ATOM     15  C   UNL     1     -30.097   1.072 -37.130  1.00  0.00    -0.003 C 
ATOM     16  C   UNL     1     -29.915   1.649 -35.727  1.00  0.00     0.004 C 
ENDBRANCH  14  15
ENDBRANCH  13  14
ENDBRANCH  12  13
ENDBRANCH  11  12
ENDBRANCH  10  11
ENDBRANCH   1  10
TORSDOF 12
ENDMDL
MODEL 7
REMARK VINA RESULT:    -2.998      1.118      2.901
REMARK INTER + INTRA:          -6.649
REMARK INTER:                  -4.768
REMARK INTRA:                  -1.881
REMARK UNBOUND:                -1.547
REMARK SMILES CCCCCCCCCCCCCC(=O)[O-]
REMARK SMILES IDX 8 1 9 2 10 3 11 4 12 5 13 6 14 7 15 8 16 9 7 10 6 11 5 12
REMARK SMILES IDX 4 13 3 14 2 15 1 16
REMARK H PARENT
REMARK Flexibility Score: inf
ROOT
ATOM      1  C   UNL     1     -29.217   0.062 -38.753  1.00  0.00     0.000 C 
ENDROOT
BRANCH   1   2
ATOM      2  C   UNL     1     -28.392   1.181 -39.411  1.00  0.00     0.000 C 
BRANCH   2   3
ATOM      3  C   UNL     1     -29.228   2.436 -39.717  1.00  0.00     0.000 C 
BRANCH   3   4
ATOM      4  C   UNL     1     -28.555   3.724 -39.196  1.00  0.00     0.000 C 
BRANCH   4   5
ATOM      5  C   UNL     1     -29.194   4.275 -37.911  1.00  0.00     0.006 C 
BRANCH   5   6
ATOM      6  C   UNL     1     -28.356   3.995 -36.659  1.00  0.00     0.053 C 
BRANCH   6   7
ATOM      7  C   UNL     1     -27.015   4.647 -36.770  1.00  0.00     0.041 C 
ATOM      8  O   UNL     1     -26.926   5.901 -36.863  1.00  0.00    -0.550 OA
ATOM      9  O   UNL     1     -25.865   3.870 -36.823  1.00  0.00    -0.550 OA
ENDBRANCH   6   7
ENDBRANCH   5   6
ENDBRANCH   4   5
ENDBRANCH   3   4
ENDBRANCH   2   3
ENDBRANCH   1   2
BRANCH   1  10
ATOM     10  C   UNL     1     -29.684   0.427 -37.334  1.00  0.00     0.000 C 
BRANCH  10  11
ATOM     11  C   UNL     1     -31.158   0.068 -37.088  1.00  0.00    -0.000 C 
BRANCH  11  12
ATOM     12  C   UNL     1     -31.947  -0.127 -38.391  1.00  0.00    -0.000 C 
BRANCH  12  13
ATOM     13  C   UNL     1     -33.123   0.855 -38.473  1.00  0.00    -0.000 C 
BRANCH  13  14
ATOM     14  C   UNL     1     -32.799   2.023 -39.417  1.00  0.00    -0.000 C 
BRANCH  14  15
ATOM     15  C   UNL     1     -32.666   3.362 -38.674  1.00  0.00    -0.003 C 
ATOM     16  C   UNL     1     -33.081   3.268 -37.206  1.00  0.00     0.004 C 
ENDBRANCH  14  15
ENDBRANCH  13  14
ENDBRANCH  12  13
ENDBRANCH  11  12
ENDBRANCH  10  11
ENDBRANCH   1  10
TORSDOF 12
ENDMDL
MODEL 8
REMARK VINA RESULT:    -2.956      1.596      2.085
REMARK INTER + INTRA:          -6.576
REMARK INTER:                  -5.246
REMARK INTRA:                  -1.331
REMARK UNBOUND:                -1.547
REMARK SMILES CCCCCCCCCCCCCC(=O)[O-]
REMARK SMILES IDX 8 1 9 2 10 3 11 4 12 5 13 6 14 7 15 8 16 9 7 10 6 11 5 12
REMARK SMILES IDX 4 13 3 14 2 15 1 16
REMARK H PARENT
REMARK Flexibility Score: inf
ROOT
ATOM      1  C   UNL     1     -30.302   2.721 -39.789  1.00  0.00     0.000 C 
ENDROOT
BRANCH   1   2
ATOM      2  C   UNL     1     -29.420   2.793 -38.531  1.00  0.00     0.000 C 
BRANCH   2   3
ATOM      3  C   UNL     1     -28.269   3.806 -38.667  1.00  0.00     0.000 C 
BRANCH   3   4
ATOM      4  C   UNL     1     -28.232   4.804 -37.490  1.00  0.00     0.000 C 
BRANCH   4   5
ATOM      5  C   UNL     1     -26.808   5.170 -37.039  1.00  0.00     0.006 C 
BRANCH   5   6
ATOM      6  C   UNL     1     -26.027   3.970 -36.493  1.00  0.00     0.053 C 
BRANCH   6   7
ATOM      7  C   UNL     1     -25.985   4.008 -34.999  1.00  0.00     0.041 C 
ATOM      8  O   UNL     1     -27.005   3.697 -34.329  1.00  0.00    -0.550 OA
ATOM      9  O   UNL     1     -24.836   4.435 -34.345  1.00  0.00    -0.550 OA
ENDBRANCH   6   7
ENDBRANCH   5   6
ENDBRANCH   4   5
ENDBRANCH   3   4
ENDBRANCH   2   3
ENDBRANCH   1   2
BRANCH   1  10
ATOM     10  C   UNL     1     -31.800   2.868 -39.471  1.00  0.00     0.000 C 
BRANCH  10  11
ATOM     11  C   UNL     1     -32.190   2.194 -38.146  1.00  0.00    -0.000 C 
BRANCH  11  12
ATOM     12  C   UNL     1     -33.159   1.017 -38.342  1.00  0.00    -0.000 C 
BRANCH  12  13
ATOM     13  C   UNL     1     -32.393  -0.280 -38.631  1.00  0.00    -0.000 C 
BRANCH  13  14
ATOM     14  C   UNL     1     -31.239  -0.471 -37.635  1.00  0.00    -0.000 C 
BRANCH  14  15
ATOM     15  C   UNL     1     -29.930  -0.892 -38.322  1.00  0.00    -0.003 C 
ATOM     16  C   UNL     1     -30.121  -1.230 -39.800  1.00  0.00     0.004 C 
ENDBRANCH  14  15
ENDBRANCH  13  14
ENDBRANCH  12  13
ENDBRANCH  11  12
ENDBRANCH  10  11
ENDBRANCH   1  10
TORSDOF 12
ENDMDL
MODEL 9
REMARK VINA RESULT:    -2.944      2.978      5.052
REMARK INTER + INTRA:          -6.557
REMARK INTER:                  -4.581
REMARK INTRA:                  -1.976
REMARK UNBOUND:                -1.547
REMARK SMILES CCCCCCCCCCCCCC(=O)[O-]
REMARK SMILES IDX 8 1 9 2 10 3 11 4 12 5 13 6 14 7 15 8 16 9 7 10 6 11 5 12
REMARK SMILES IDX 4 13 3 14 2 15 1 16
REMARK H PARENT
REMARK Flexibility Score: inf
ROOT
ATOM      1  C   UNL     1     -28.434   4.647 -37.939  1.00  0.00     0.000 C 
ENDROOT
BRANCH   1   2
ATOM      2  C   UNL     1     -28.342   3.428 -37.007  1.00  0.00     0.000 C 
BRANCH   2   3
ATOM      3  C   UNL     1     -29.700   3.047 -36.389  1.00  0.00     0.000 C 
BRANCH   3   4
ATOM      4  C   UNL     1     -30.016   1.546 -36.561  1.00  0.00     0.000 C 
BRANCH   4   5
ATOM      5  C   UNL     1     -29.479   0.951 -37.873  1.00  0.00     0.006 C 
BRANCH   5   6
ATOM      6  C   UNL     1     -29.535  -0.580 -37.902  1.00  0.00     0.053 C 
BRANCH   6   7
ATOM      7  C   UNL     1     -29.538  -1.078 -39.313  1.00  0.00     0.041 C 
ATOM      8  O   UNL     1     -30.624  -1.385 -39.873  1.00  0.00    -0.550 OA
ATOM      9  O   UNL     1     -28.339  -1.250 -39.993  1.00  0.00    -0.550 OA
ENDBRANCH   6   7
ENDBRANCH   5   6
ENDBRANCH   4   5
ENDBRANCH   3   4
ENDBRANCH   2   3
ENDBRANCH   1   2
BRANCH   1  10
ATOM     10  C   UNL     1     -28.962   4.285 -39.338  1.00  0.00     0.000 C 
BRANCH  10  11
ATOM     11  C   UNL     1     -30.366   4.850 -39.603  1.00  0.00    -0.000 C 
BRANCH  11  12
ATOM     12  C   UNL     1     -31.436   3.752 -39.717  1.00  0.00    -0.000 C 
BRANCH  12  13
ATOM     13  C   UNL     1     -32.632   4.056 -38.806  1.00  0.00    -0.000 C 
BRANCH  13  14
ATOM     14  C   UNL     1     -33.142   2.778 -38.124  1.00  0.00    -0.000 C 
BRANCH  14  15
ATOM     15  C   UNL     1     -32.927   1.523 -38.984  1.00  0.00    -0.003 C 
ATOM     16  C   UNL     1     -33.235   0.229 -38.230  1.00  0.00     0.004 C 
ENDBRANCH  14  15
ENDBRANCH  13  14
ENDBRANCH  12  13
ENDBRANCH  11  12
ENDBRANCH  10  11
ENDBRANCH   1  10
TORSDOF 12
ENDMDL
