MODEL 1
REMARK VINA RESULT:    -5.111      0.000      0.000
REMARK INTER + INTRA:         -13.706
REMARK INTER:                 -11.685
REMARK INTRA:                  -2.021
REMARK UNBOUND:                -2.021
REMARK SMILES CCCCCCCCCCCCCCCCCCCCCCCC(=O)[O-]
REMARK SMILES IDX 13 1 14 2 15 3 16 4 17 5 18 6 19 7 20 8 21 9 22 10 23 11
REMARK SMILES IDX 24 12 25 13 26 14 12 15 11 16 10 17 9 18 8 19 7 20 6 21 5 22
REMARK SMILES IDX 4 23 3 24 2 25 1 26
REMARK H PARENT
REMARK Flexibility Score: inf
ROOT
ATOM      1  C   UNL     1      -3.653 -22.323 -15.583  1.00  0.00     0.000 C 
ENDROOT
BRANCH   1   2
ATOM      2  C   UNL     1      -3.507 -23.570 -16.477  1.00  0.00     0.000 C 
BRANCH   2   3
ATOM      3  C   UNL     1      -2.243 -24.415 -16.219  1.00  0.00     0.000 C 
BRANCH   3   4
ATOM      4  C   UNL     1      -1.201 -23.758 -15.297  1.00  0.00     0.000 C 
BRANCH   4   5
ATOM      5  C   UNL     1       0.231 -23.881 -15.837  1.00  0.00     0.000 C 
BRANCH   5   6
ATOM      6  C   UNL     1       0.818 -22.502 -16.174  1.00  0.00     0.000 C 
BRANCH   6   7
ATOM      7  C   UNL     1      -0.053 -21.344 -15.631  1.00  0.00     0.000 C 
BRANCH   7   8
ATOM      8  C   UNL     1       0.616 -20.567 -14.484  1.00  0.00     0.000 C 
BRANCH   8   9
ATOM      9  C   UNL     1       2.013 -21.095 -14.100  1.00  0.00     0.000 C 
BRANCH   9  10
ATOM     10  C   UNL     1       2.988 -19.995 -13.612  1.00  0.00     0.006 C 
BRANCH  10  11
ATOM     11  C   UNL     1       3.419 -20.145 -12.139  1.00  0.00     0.053 C 
BRANCH  11  12
ATOM     12  C   UNL     1       4.307 -21.333 -11.908  1.00  0.00     0.041 C 
ATOM     13  O   UNL     1       5.442 -21.399 -12.452  1.00  0.00    -0.550 OA
ATOM     14  O   UNL     1       3.916 -22.327 -11.020  1.00  0.00    -0.550 OA
ENDBRANCH  11  12
ENDBRANCH  10  11
ENDBRANCH   9  10
ENDBRANCH   8   9
ENDBRANCH   7   8
ENDBRANCH   6   7
ENDBRANCH   5   6
ENDBRANCH   4   5
ENDBRANCH   3   4
ENDBRANCH   2   3
ENDBRANCH   1   2
BRANCH   1  15
ATOM     15  C   UNL     1      -4.536 -21.206 -16.168  1.00  0.00     0.000 C 
BRANCH  15  16
ATOM     16  C   UNL     1      -4.133 -19.806 -15.671  1.00  0.00     0.000 C 
BRANCH  16  17
ATOM     17  C   UNL     1      -5.336 -18.976 -15.199  1.00  0.00     0.000 C 
BRANCH  17  18
ATOM     18  C   UNL     1      -6.618 -19.292 -15.990  1.00  0.00    -0.000 C 
BRANCH  18  19
ATOM     19  C   UNL     1      -7.501 -18.053 -16.211  1.00  0.00    -0.000 C 
BRANCH  19  20
ATOM     20  C   UNL     1      -6.699 -16.837 -16.711  1.00  0.00    -0.000 C 
BRANCH  20  21
ATOM     21  C   UNL     1      -7.445 -15.509 -16.502  1.00  0.00    -0.000 C 
BRANCH  21  22
ATOM     22  C   UNL     1      -6.673 -14.535 -15.595  1.00  0.00    -0.000 C 
BRANCH  22  23
ATOM     23  C   UNL     1      -5.494 -15.203 -14.862  1.00  0.00    -0.000 C 
BRANCH  23  24
ATOM     24  C   UNL     1      -5.788 -15.649 -13.417  1.00  0.00    -0.000 C 
BRANCH  24  25
ATOM     25  C   UNL     1      -6.895 -14.824 -12.746  1.00  0.00    -0.003 C 
ATOM     26  C   UNL     1      -7.175 -15.322 -11.331  1.00  0.00     0.004 C 
ENDBRANCH  24  25
ENDBRANCH  23  24
ENDBRANCH  22  23
ENDBRANCH  21  22
ENDBRANCH  20  21
ENDBRANCH  19  20
ENDBRANCH  18  19
ENDBRANCH  17  18
ENDBRANCH  16  17
ENDBRANCH  15  16
ENDBRANCH   1  15
TORSDOF 22
ENDMDL
MODEL 2
REMARK VINA RESULT:    -5.091      1.970      3.829
REMARK INTER + INTRA:         -13.659
REMARK INTER:                 -10.452
REMARK INTRA:                  -3.207
REMARK UNBOUND:                -2.021
REMARK SMILES CCCCCCCCCCCCCCCCCCCCCCCC(=O)[O-]
REMARK SMILES IDX 13 1 14 2 15 3 16 4 17 5 18 6 19 7 20 8 21 9 22 10 23 11
REMARK SMILES IDX 24 12 25 13 26 14 12 15 11 16 10 17 9 18 8 19 7 20 6 21 5 22
REMARK SMILES IDX 4 23 3 24 2 25 1 26
REMARK H PARENT
REMARK Flexibility Score: inf
ROOT
ATOM      1  C   UNL     1      -3.794 -22.826 -15.316  1.00  0.00     0.000 C 
ENDROOT
BRANCH   1   2
ATOM      2  C   UNL     1      -3.781 -23.833 -16.484  1.00  0.00     0.000 C 
BRANCH   2   3
ATOM      3  C   UNL     1      -2.530 -24.732 -16.557  1.00  0.00     0.000 C 
BRANCH   3   4
ATOM      4  C   UNL     1      -1.624 -24.685 -15.313  1.00  0.00     0.000 C 
BRANCH   4   5
ATOM      5  C   UNL     1      -0.218 -24.150 -15.624  1.00  0.00     0.000 C 
BRANCH   5   6
ATOM      6  C   UNL     1      -0.278 -22.969 -16.603  1.00  0.00     0.000 C 
BRANCH   6   7
ATOM      7  C   UNL     1       0.624 -21.792 -16.160  1.00  0.00     0.000 C 
BRANCH   7   8
ATOM      8  C   UNL     1       0.325 -21.301 -14.732  1.00  0.00     0.000 C 
BRANCH   8   9
ATOM      9  C   UNL     1       1.248 -20.160 -14.256  1.00  0.00     0.000 C 
BRANCH   9  10
ATOM     10  C   UNL     1       2.625 -20.643 -13.737  1.00  0.00     0.006 C 
BRANCH  10  11
ATOM     11  C   UNL     1       3.064 -19.985 -12.413  1.00  0.00     0.053 C 
BRANCH  11  12
ATOM     12  C   UNL     1       4.161 -20.740 -11.721  1.00  0.00     0.041 C 
ATOM     13  O   UNL     1       4.142 -20.892 -10.470  1.00  0.00    -0.550 OA
ATOM     14  O   UNL     1       5.158 -21.353 -12.468  1.00  0.00    -0.550 OA
ENDBRANCH  11  12
ENDBRANCH  10  11
ENDBRANCH   9  10
ENDBRANCH   8   9
ENDBRANCH   7   8
ENDBRANCH   6   7
ENDBRANCH   5   6
ENDBRANCH   4   5
ENDBRANCH   3   4
ENDBRANCH   2   3
ENDBRANCH   1   2
BRANCH   1  15
ATOM     15  C   UNL     1      -3.643 -21.352 -15.731  1.00  0.00     0.000 C 
BRANCH  15  16
ATOM     16  C   UNL     1      -3.384 -20.420 -14.533  1.00  0.00     0.000 C 
BRANCH  16  17
ATOM     17  C   UNL     1      -2.891 -19.029 -14.961  1.00  0.00     0.000 C 
BRANCH  17  18
ATOM     18  C   UNL     1      -3.956 -18.241 -15.746  1.00  0.00    -0.000 C 
BRANCH  18  19
ATOM     19  C   UNL     1      -5.276 -18.091 -14.970  1.00  0.00    -0.000 C 
BRANCH  19  20
ATOM     20  C   UNL     1      -6.513 -18.324 -15.858  1.00  0.00    -0.000 C 
BRANCH  20  21
ATOM     21  C   UNL     1      -7.142 -19.711 -15.645  1.00  0.00    -0.000 C 
BRANCH  21  22
ATOM     22  C   UNL     1      -6.963 -20.226 -14.207  1.00  0.00    -0.000 C 
BRANCH  22  23
ATOM     23  C   UNL     1      -7.258 -21.732 -14.067  1.00  0.00    -0.000 C 
BRANCH  23  24
ATOM     24  C   UNL     1      -8.236 -22.308 -15.108  1.00  0.00    -0.000 C 
BRANCH  24  25
ATOM     25  C   UNL     1      -7.716 -23.587 -15.779  1.00  0.00    -0.003 C 
ATOM     26  C   UNL     1      -7.081 -24.527 -14.757  1.00  0.00     0.004 C 
ENDBRANCH  24  25
ENDBRANCH  23  24
ENDBRANCH  22  23
ENDBRANCH  21  22
ENDBRANCH  20  21
ENDBRANCH  19  20
ENDBRANCH  18  19
ENDBRANCH  17  18
ENDBRANCH  16  17
ENDBRANCH  15  16
ENDBRANCH   1  15
TORSDOF 22
ENDMDL
MODEL 3
REMARK VINA RESULT:    -4.953      5.283      7.205
REMARK INTER + INTRA:         -13.345
REMARK INTER:                 -11.711
REMARK INTRA:                  -1.634
REMARK UNBOUND:                -2.021
REMARK SMILES CCCCCCCCCCCCCCCCCCCCCCCC(=O)[O-]
REMARK SMILES IDX 13 1 14 2 15 3 16 4 17 5 18 6 19 7 20 8 21 9 22 10 23 11
REMARK SMILES IDX 24 12 25 13 26 14 12 15 11 16 10 17 9 18 8 19 7 20 6 21 5 22
REMARK SMILES IDX 4 23 3 24 2 25 1 26
REMARK H PARENT
REMARK Flexibility Score: inf
ROOT
ATOM      1  C   UNL     1      -4.851 -24.006 -17.212  1.00  0.00     0.000 C 
ENDROOT
BRANCH   1   2
ATOM      2  C   UNL     1      -3.655 -23.882 -16.248  1.00  0.00     0.000 C 
BRANCH   2   3
ATOM      3  C   UNL     1      -2.403 -24.684 -16.655  1.00  0.00     0.000 C 
BRANCH   3   4
ATOM      4  C   UNL     1      -1.068 -23.937 -16.477  1.00  0.00     0.000 C 
BRANCH   4   5
ATOM      5  C   UNL     1      -0.275 -24.422 -15.256  1.00  0.00     0.000 C 
BRANCH   5   6
ATOM      6  C   UNL     1      -0.147 -23.314 -14.200  1.00  0.00     0.000 C 
BRANCH   6   7
ATOM      7  C   UNL     1      -0.103 -21.902 -14.833  1.00  0.00     0.000 C 
BRANCH   7   8
ATOM      8  C   UNL     1       1.324 -21.342 -14.969  1.00  0.00     0.000 C 
BRANCH   8   9
ATOM      9  C   UNL     1       1.594 -20.097 -14.100  1.00  0.00     0.000 C 
BRANCH   9  10
ATOM     10  C   UNL     1       2.735 -20.287 -13.070  1.00  0.00     0.006 C 
BRANCH  10  11
ATOM     11  C   UNL     1       2.297 -20.990 -11.769  1.00  0.00     0.053 C 
BRANCH  11  12
ATOM     12  C   UNL     1       3.238 -22.082 -11.351  1.00  0.00     0.041 C 
ATOM     13  O   UNL     1       2.803 -23.235 -11.087  1.00  0.00    -0.550 OA
ATOM     14  O   UNL     1       4.607 -21.850 -11.338  1.00  0.00    -0.550 OA
ENDBRANCH  11  12
ENDBRANCH  10  11
ENDBRANCH   9  10
ENDBRANCH   8   9
ENDBRANCH   7   8
ENDBRANCH   6   7
ENDBRANCH   5   6
ENDBRANCH   4   5
ENDBRANCH   3   4
ENDBRANCH   2   3
ENDBRANCH   1   2
BRANCH   1  15
ATOM     15  C   UNL     1      -4.582 -24.846 -18.473  1.00  0.00     0.000 C 
BRANCH  15  16
ATOM     16  C   UNL     1      -5.864 -25.456 -19.067  1.00  0.00     0.000 C 
BRANCH  16  17
ATOM     17  C   UNL     1      -7.098 -25.217 -18.184  1.00  0.00     0.000 C 
BRANCH  17  18
ATOM     18  C   UNL     1      -8.398 -25.725 -18.834  1.00  0.00    -0.000 C 
BRANCH  18  19
ATOM     19  C   UNL     1      -9.525 -25.950 -17.814  1.00  0.00    -0.000 C 
BRANCH  19  20
ATOM     20  C   UNL     1     -10.104 -27.375 -17.876  1.00  0.00    -0.000 C 
BRANCH  20  21
ATOM     21  C   UNL     1     -10.654 -27.852 -16.522  1.00  0.00    -0.000 C 
BRANCH  21  22
ATOM     22  C   UNL     1      -9.621 -28.661 -15.718  1.00  0.00    -0.000 C 
BRANCH  22  23
ATOM     23  C   UNL     1      -8.878 -27.812 -14.668  1.00  0.00    -0.000 C 
BRANCH  23  24
ATOM     24  C   UNL     1      -9.671 -27.521 -13.379  1.00  0.00    -0.000 C 
BRANCH  24  25
ATOM     25  C   UNL     1      -9.753 -26.024 -13.049  1.00  0.00    -0.003 C 
ATOM     26  C   UNL     1     -10.915 -25.359 -13.782  1.00  0.00     0.004 C 
ENDBRANCH  24  25
ENDBRANCH  23  24
ENDBRANCH  22  23
ENDBRANCH  21  22
ENDBRANCH  20  21
ENDBRANCH  19  20
ENDBRANCH  18  19
ENDBRANCH  17  18
ENDBRANCH  16  17
ENDBRANCH  15  16
ENDBRANCH   1  15
TORSDOF 22
ENDMDL
MODEL 4
REMARK VINA RESULT:    -4.945      5.326      8.286
REMARK INTER + INTRA:         -13.325
REMARK INTER:                  -8.932
REMARK INTRA:                  -4.393
REMARK UNBOUND:                -2.021
REMARK SMILES CCCCCCCCCCCCCCCCCCCCCCCC(=O)[O-]
REMARK SMILES IDX 13 1 14 2 15 3 16 4 17 5 18 6 19 7 20 8 21 9 22 10 23 11
REMARK SMILES IDX 24 12 25 13 26 14 12 15 11 16 10 17 9 18 8 19 7 20 6 21 5 22
REMARK SMILES IDX 4 23 3 24 2 25 1 26
REMARK H PARENT
REMARK Flexibility Score: inf
ROOT
ATOM      1  C   UNL     1       2.493 -19.438 -10.712  1.00  0.00     0.000 C 
ENDROOT
BRANCH   1   2
ATOM      2  C   UNL     1       1.674 -19.459  -9.406  1.00  0.00     0.000 C 
BRANCH   2   3
ATOM      3  C   UNL     1       0.147 -19.342  -9.591  1.00  0.00     0.000 C 
BRANCH   3   4
ATOM      4  C   UNL     1      -0.339 -19.445 -11.048  1.00  0.00     0.000 C 
BRANCH   4   5
ATOM      5  C   UNL     1      -1.328 -20.600 -11.263  1.00  0.00     0.000 C 
BRANCH   5   6
ATOM      6  C   UNL     1      -0.742 -21.931 -10.767  1.00  0.00     0.000 C 
BRANCH   6   7
ATOM      7  C   UNL     1       0.165 -22.604 -11.825  1.00  0.00     0.000 C 
BRANCH   7   8
ATOM      8  C   UNL     1       1.427 -23.246 -11.224  1.00  0.00     0.000 C 
BRANCH   8   9
ATOM      9  C   UNL     1       1.136 -24.378 -10.217  1.00  0.00     0.000 C 
BRANCH   9  10
ATOM     10  C   UNL     1       1.899 -24.238  -8.877  1.00  0.00     0.006 C 
BRANCH  10  11
ATOM     11  C   UNL     1       2.088 -22.781  -8.411  1.00  0.00     0.053 C 
BRANCH  11  12
ATOM     12  C   UNL     1       3.286 -22.602  -7.523  1.00  0.00     0.041 C 
ATOM     13  O   UNL     1       3.827 -23.597  -6.971  1.00  0.00    -0.550 OA
ATOM     14  O   UNL     1       3.858 -21.345  -7.376  1.00  0.00    -0.550 OA
ENDBRANCH  11  12
ENDBRANCH  10  11
ENDBRANCH   9  10
ENDBRANCH   8   9
ENDBRANCH   7   8
ENDBRANCH   6   7
ENDBRANCH   5   6
ENDBRANCH   4   5
ENDBRANCH   3   4
ENDBRANCH   2   3
ENDBRANCH   1   2
BRANCH   1  15
ATOM     15  C   UNL     1       3.736 -20.346 -10.712  1.00  0.00     0.000 C 
BRANCH  15  16
ATOM     16  C   UNL     1       4.068 -20.901 -12.108  1.00  0.00     0.000 C 
BRANCH  16  17
ATOM     17  C   UNL     1       3.489 -20.040 -13.241  1.00  0.00     0.000 C 
BRANCH  17  18
ATOM     18  C   UNL     1       2.503 -20.820 -14.130  1.00  0.00    -0.000 C 
BRANCH  18  19
ATOM     19  C   UNL     1       1.150 -20.104 -14.287  1.00  0.00    -0.000 C 
BRANCH  19  20
ATOM     20  C   UNL     1       0.122 -20.948 -15.063  1.00  0.00    -0.000 C 
BRANCH  20  21
ATOM     21  C   UNL     1       0.782 -21.937 -16.039  1.00  0.00    -0.000 C 
BRANCH  21  22
ATOM     22  C   UNL     1      -0.237 -22.878 -16.704  1.00  0.00    -0.000 C 
BRANCH  22  23
ATOM     23  C   UNL     1      -0.742 -23.983 -15.757  1.00  0.00    -0.000 C 
BRANCH  23  24
ATOM     24  C   UNL     1       0.357 -24.738 -14.985  1.00  0.00    -0.000 C 
BRANCH  24  25
ATOM     25  C   UNL     1      -0.200 -25.638 -13.873  1.00  0.00    -0.003 C 
ATOM     26  C   UNL     1      -1.661 -25.309 -13.575  1.00  0.00     0.004 C 
ENDBRANCH  24  25
ENDBRANCH  23  24
ENDBRANCH  22  23
ENDBRANCH  21  22
ENDBRANCH  20  21
ENDBRANCH  19  20
ENDBRANCH  18  19
ENDBRANCH  17  18
ENDBRANCH  16  17
ENDBRANCH  15  16
ENDBRANCH   1  15
TORSDOF 22
ENDMDL
MODEL 5
REMARK VINA RESULT:    -4.944      2.504      4.074
REMARK INTER + INTRA:         -13.324
REMARK INTER:                 -10.313
REMARK INTRA:                  -3.011
REMARK UNBOUND:                -2.021
REMARK SMILES CCCCCCCCCCCCCCCCCCCCCCCC(=O)[O-]
REMARK SMILES IDX 13 1 14 2 15 3 16 4 17 5 18 6 19 7 20 8 21 9 22 10 23 11
REMARK SMILES IDX 24 12 25 13 26 14 12 15 11 16 10 17 9 18 8 19 7 20 6 21 5 22
REMARK SMILES IDX 4 23 3 24 2 25 1 26
REMARK H PARENT
REMARK Flexibility Score: inf
ROOT
ATOM      1  C   UNL     1      -2.332 -24.410 -13.619  1.00  0.00     0.000 C 
ENDROOT
BRANCH   1   2
ATOM      2  C   UNL     1      -1.418 -25.514 -14.187  1.00  0.00     0.000 C 
BRANCH   2   3
ATOM      3  C   UNL     1       0.042 -25.087 -14.439  1.00  0.00     0.000 C 
BRANCH   3   4
ATOM      4  C   UNL     1       0.286 -23.567 -14.423  1.00  0.00     0.000 C 
BRANCH   4   5
ATOM      5  C   UNL     1       0.442 -22.976 -15.832  1.00  0.00     0.000 C 
BRANCH   5   6
ATOM      6  C   UNL     1       0.326 -21.444 -15.807  1.00  0.00     0.000 C 
BRANCH   6   7
ATOM      7  C   UNL     1      -0.267 -20.921 -14.477  1.00  0.00     0.000 C 
BRANCH   7   8
ATOM      8  C   UNL     1       0.662 -19.941 -13.740  1.00  0.00     0.000 C 
BRANCH   8   9
ATOM      9  C   UNL     1       2.121 -19.964 -14.242  1.00  0.00     0.000 C 
BRANCH   9  10
ATOM     10  C   UNL     1       3.119 -20.599 -13.241  1.00  0.00     0.006 C 
BRANCH  10  11
ATOM     11  C   UNL     1       2.802 -20.299 -11.763  1.00  0.00     0.053 C 
BRANCH  11  12
ATOM     12  C   UNL     1       3.851 -20.820 -10.823  1.00  0.00     0.041 C 
ATOM     13  O   UNL     1       4.319 -20.082  -9.915  1.00  0.00    -0.550 OA
ATOM     14  O   UNL     1       4.247 -22.149 -10.896  1.00  0.00    -0.550 OA
ENDBRANCH  11  12
ENDBRANCH  10  11
ENDBRANCH   9  10
ENDBRANCH   8   9
ENDBRANCH   7   8
ENDBRANCH   6   7
ENDBRANCH   5   6
ENDBRANCH   4   5
ENDBRANCH   3   4
ENDBRANCH   2   3
ENDBRANCH   1   2
BRANCH   1  15
ATOM     15  C   UNL     1      -3.494 -23.995 -14.538  1.00  0.00     0.000 C 
BRANCH  15  16
ATOM     16  C   UNL     1      -3.230 -22.666 -15.269  1.00  0.00     0.000 C 
BRANCH  16  17
ATOM     17  C   UNL     1      -4.201 -22.429 -16.436  1.00  0.00     0.000 C 
BRANCH  17  18
ATOM     18  C   UNL     1      -4.888 -21.054 -16.363  1.00  0.00    -0.000 C 
BRANCH  18  19
ATOM     19  C   UNL     1      -4.654 -20.343 -15.020  1.00  0.00    -0.000 C 
BRANCH  19  20
ATOM     20  C   UNL     1      -5.849 -19.468 -14.598  1.00  0.00    -0.000 C 
BRANCH  20  21
ATOM     21  C   UNL     1      -6.943 -19.399 -15.676  1.00  0.00    -0.000 C 
BRANCH  21  22
ATOM     22  C   UNL     1      -8.240 -20.106 -15.247  1.00  0.00    -0.000 C 
BRANCH  22  23
ATOM     23  C   UNL     1      -8.108 -20.837 -13.897  1.00  0.00    -0.000 C 
BRANCH  23  24
ATOM     24  C   UNL     1      -8.102 -22.375 -13.982  1.00  0.00    -0.000 C 
BRANCH  24  25
ATOM     25  C   UNL     1      -8.476 -22.901 -15.375  1.00  0.00    -0.003 C 
ATOM     26  C   UNL     1      -7.456 -23.922 -15.872  1.00  0.00     0.004 C 
ENDBRANCH  24  25
ENDBRANCH  23  24
ENDBRANCH  22  23
ENDBRANCH  21  22
ENDBRANCH  20  21
ENDBRANCH  19  20
ENDBRANCH  18  19
ENDBRANCH  17  18
ENDBRANCH  16  17
ENDBRANCH  15  16
ENDBRANCH   1  15
TORSDOF 22
ENDMDL
MODEL 6
REMARK VINA RESULT:    -4.932      1.422      3.111
REMARK INTER + INTRA:         -13.297
REMARK INTER:                 -10.438
REMARK INTRA:                  -2.859
REMARK UNBOUND:                -2.021
REMARK SMILES CCCCCCCCCCCCCCCCCCCCCCCC(=O)[O-]
REMARK SMILES IDX 13 1 14 2 15 3 16 4 17 5 18 6 19 7 20 8 21 9 22 10 23 11
REMARK SMILES IDX 24 12 25 13 26 14 12 15 11 16 10 17 9 18 8 19 7 20 6 21 5 22
REMARK SMILES IDX 4 23 3 24 2 25 1 26
REMARK H PARENT
REMARK Flexibility Score: inf
ROOT
ATOM      1  C   UNL     1      -5.989 -18.917 -16.714  1.00  0.00     0.000 C 
ENDROOT
BRANCH   1   2
ATOM      2  C   UNL     1      -5.626 -19.964 -15.642  1.00  0.00     0.000 C 
BRANCH   2   3
ATOM      3  C   UNL     1      -4.639 -21.055 -16.104  1.00  0.00     0.000 C 
BRANCH   3   4
ATOM      4  C   UNL     1      -3.299 -21.080 -15.347  1.00  0.00     0.000 C 
BRANCH   4   5
ATOM      5  C   UNL     1      -2.398 -22.248 -15.774  1.00  0.00     0.000 C 
BRANCH   5   6
ATOM      6  C   UNL     1      -1.122 -22.307 -14.920  1.00  0.00     0.000 C 
BRANCH   6   7
ATOM      7  C   UNL     1       0.154 -22.466 -15.782  1.00  0.00     0.000 C 
BRANCH   7   8
ATOM      8  C   UNL     1       1.313 -21.563 -15.324  1.00  0.00     0.000 C 
BRANCH   8   9
ATOM      9  C   UNL     1       0.895 -20.466 -14.324  1.00  0.00     0.000 C 
BRANCH   9  10
ATOM     10  C   UNL     1       1.868 -20.300 -13.130  1.00  0.00     0.006 C 
BRANCH  10  11
ATOM     11  C   UNL     1       3.357 -20.390 -13.517  1.00  0.00     0.053 C 
BRANCH  11  12
ATOM     12  C   UNL     1       4.258 -20.576 -12.331  1.00  0.00     0.041 C 
ATOM     13  O   UNL     1       5.245 -21.358 -12.393  1.00  0.00    -0.550 OA
ATOM     14  O   UNL     1       4.060 -19.817 -11.184  1.00  0.00    -0.550 OA
ENDBRANCH  11  12
ENDBRANCH  10  11
ENDBRANCH   9  10
ENDBRANCH   8   9
ENDBRANCH   7   8
ENDBRANCH   6   7
ENDBRANCH   5   6
ENDBRANCH   4   5
ENDBRANCH   3   4
ENDBRANCH   2   3
ENDBRANCH   1   2
BRANCH   1  15
ATOM     15  C   UNL     1      -7.084 -17.919 -16.298  1.00  0.00     0.000 C 
BRANCH  15  16
ATOM     16  C   UNL     1      -6.988 -16.581 -17.053  1.00  0.00     0.000 C 
BRANCH  16  17
ATOM     17  C   UNL     1      -7.147 -15.366 -16.126  1.00  0.00     0.000 C 
BRANCH  17  18
ATOM     18  C   UNL     1      -5.859 -14.528 -16.025  1.00  0.00    -0.000 C 
BRANCH  18  19
ATOM     19  C   UNL     1      -4.707 -15.104 -16.865  1.00  0.00    -0.000 C 
BRANCH  19  20
ATOM     20  C   UNL     1      -3.447 -15.386 -16.026  1.00  0.00    -0.000 C 
BRANCH  20  21
ATOM     21  C   UNL     1      -3.350 -16.854 -15.577  1.00  0.00    -0.000 C 
BRANCH  21  22
ATOM     22  C   UNL     1      -3.410 -17.008 -14.048  1.00  0.00    -0.000 C 
BRANCH  22  23
ATOM     23  C   UNL     1      -4.851 -17.087 -13.507  1.00  0.00    -0.000 C 
BRANCH  23  24
ATOM     24  C   UNL     1      -5.302 -15.880 -12.662  1.00  0.00    -0.000 C 
BRANCH  24  25
ATOM     25  C   UNL     1      -6.793 -15.924 -12.299  1.00  0.00    -0.003 C 
ATOM     26  C   UNL     1      -7.246 -14.610 -11.668  1.00  0.00     0.004 C 
ENDBRANCH  24  25
ENDBRANCH  23  24
ENDBRANCH  22  23
ENDBRANCH  21  22
ENDBRANCH  20  21
ENDBRANCH  19  20
ENDBRANCH  18  19
ENDBRANCH  17  18
ENDBRANCH  16  17
ENDBRANCH  15  16
ENDBRANCH   1  15
TORSDOF 22
ENDMDL
MODEL 7
REMARK VINA RESULT:    -4.911      3.076      5.478
REMARK INTER + INTRA:         -13.247
REMARK INTER:                 -10.461
REMARK INTRA:                  -2.786
REMARK UNBOUND:                -2.021
REMARK SMILES CCCCCCCCCCCCCCCCCCCCCCCC(=O)[O-]
REMARK SMILES IDX 13 1 14 2 15 3 16 4 17 5 18 6 19 7 20 8 21 9 22 10 23 11
REMARK SMILES IDX 24 12 25 13 26 14 12 15 11 16 10 17 9 18 8 19 7 20 6 21 5 22
REMARK SMILES IDX 4 23 3 24 2 25 1 26
REMARK H PARENT
REMARK Flexibility Score: inf
ROOT
ATOM      1  C   UNL     1      -4.405 -19.969 -15.180  1.00  0.00     0.000 C 
ENDROOT
BRANCH   1   2
ATOM      2  C   UNL     1      -3.314 -21.053 -15.282  1.00  0.00     0.000 C 
BRANCH   2   3
ATOM      3  C   UNL     1      -3.759 -22.367 -15.956  1.00  0.00     0.000 C 
BRANCH   3   4
ATOM      4  C   UNL     1      -2.623 -23.366 -16.241  1.00  0.00     0.000 C 
BRANCH   4   5
ATOM      5  C   UNL     1      -1.368 -23.094 -15.399  1.00  0.00     0.000 C 
BRANCH   5   6
ATOM      6  C   UNL     1      -0.098 -23.149 -16.262  1.00  0.00     0.000 C 
BRANCH   6   7
ATOM      7  C   UNL     1       0.952 -22.098 -15.829  1.00  0.00     0.000 C 
BRANCH   7   8
ATOM      8  C   UNL     1       0.365 -20.975 -14.956  1.00  0.00     0.000 C 
BRANCH   8   9
ATOM      9  C   UNL     1       1.424 -20.021 -14.367  1.00  0.00     0.000 C 
BRANCH   9  10
ATOM     10  C   UNL     1       2.444 -20.715 -13.432  1.00  0.00     0.006 C 
BRANCH  10  11
ATOM     11  C   UNL     1       3.600 -19.803 -12.975  1.00  0.00     0.053 C 
BRANCH  11  12
ATOM     12  C   UNL     1       4.555 -20.491 -12.043  1.00  0.00     0.041 C 
ATOM     13  O   UNL     1       5.187 -21.515 -12.416  1.00  0.00    -0.550 OA
ATOM     14  O   UNL     1       4.812 -19.948 -10.791  1.00  0.00    -0.550 OA
ENDBRANCH  11  12
ENDBRANCH  10  11
ENDBRANCH   9  10
ENDBRANCH   8   9
ENDBRANCH   7   8
ENDBRANCH   6   7
ENDBRANCH   5   6
ENDBRANCH   4   5
ENDBRANCH   3   4
ENDBRANCH   2   3
ENDBRANCH   1   2
BRANCH   1  15
ATOM     15  C   UNL     1      -5.647 -20.216 -16.056  1.00  0.00     0.000 C 
BRANCH  15  16
ATOM     16  C   UNL     1      -6.812 -19.270 -15.718  1.00  0.00     0.000 C 
BRANCH  16  17
ATOM     17  C   UNL     1      -8.088 -20.024 -15.311  1.00  0.00     0.000 C 
BRANCH  17  18
ATOM     18  C   UNL     1      -7.836 -21.522 -15.066  1.00  0.00    -0.000 C 
BRANCH  18  19
ATOM     19  C   UNL     1      -7.869 -21.895 -13.575  1.00  0.00    -0.000 C 
BRANCH  19  20
ATOM     20  C   UNL     1      -6.543 -22.507 -13.088  1.00  0.00    -0.000 C 
BRANCH  20  21
ATOM     21  C   UNL     1      -6.202 -23.827 -13.800  1.00  0.00    -0.000 C 
BRANCH  21  22
ATOM     22  C   UNL     1      -6.874 -25.043 -13.141  1.00  0.00    -0.000 C 
BRANCH  22  23
ATOM     23  C   UNL     1      -7.941 -25.700 -14.038  1.00  0.00    -0.000 C 
BRANCH  23  24
ATOM     24  C   UNL     1      -9.401 -25.394 -13.652  1.00  0.00    -0.000 C 
BRANCH  24  25
ATOM     25  C   UNL     1     -10.163 -24.625 -14.741  1.00  0.00    -0.003 C 
ATOM     26  C   UNL     1      -9.448 -24.722 -16.087  1.00  0.00     0.004 C 
ENDBRANCH  24  25
ENDBRANCH  23  24
ENDBRANCH  22  23
ENDBRANCH  21  22
ENDBRANCH  20  21
ENDBRANCH  19  20
ENDBRANCH  18  19
ENDBRANCH  17  18
ENDBRANCH  16  17
ENDBRANCH  15  16
ENDBRANCH   1  15
TORSDOF 22
ENDMDL
MODEL 8
REMARK VINA RESULT:    -4.870      6.844      9.817
REMARK INTER + INTRA:         -13.155
REMARK INTER:                 -10.439
REMARK INTRA:                  -2.717
REMARK UNBOUND:                -2.021
REMARK SMILES CCCCCCCCCCCCCCCCCCCCCCCC(=O)[O-]
REMARK SMILES IDX 13 1 14 2 15 3 16 4 17 5 18 6 19 7 20 8 21 9 22 10 23 11
REMARK SMILES IDX 24 12 25 13 26 14 12 15 11 16 10 17 9 18 8 19 7 20 6 21 5 22
REMARK SMILES IDX 4 23 3 24 2 25 1 26
REMARK H PARENT
REMARK Flexibility Score: inf
ROOT
ATOM      1  C   UNL     1      -6.057 -15.469 -13.794  1.00  0.00     0.000 C 
ENDROOT
BRANCH   1   2
ATOM      2  C   UNL     1      -6.727 -14.474 -12.826  1.00  0.00     0.000 C 
BRANCH   2   3
ATOM      3  C   UNL     1      -7.400 -15.114 -11.595  1.00  0.00     0.000 C 
BRANCH   3   4
ATOM      4  C   UNL     1      -6.792 -16.455 -11.147  1.00  0.00     0.000 C 
BRANCH   4   5
ATOM      5  C   UNL     1      -7.816 -17.370 -10.459  1.00  0.00     0.000 C 
BRANCH   5   6
ATOM      6  C   UNL     1      -7.118 -18.467  -9.641  1.00  0.00     0.000 C 
BRANCH   6   7
ATOM      7  C   UNL     1      -6.502 -17.921  -8.330  1.00  0.00     0.000 C 
BRANCH   7   8
ATOM      8  C   UNL     1      -6.244 -19.014  -7.278  1.00  0.00     0.000 C 
BRANCH   8   9
ATOM      9  C   UNL     1      -7.460 -19.923  -7.008  1.00  0.00     0.000 C 
BRANCH   9  10
ATOM     10  C   UNL     1      -8.467 -19.337  -5.987  1.00  0.00     0.006 C 
BRANCH  10  11
ATOM     11  C   UNL     1      -9.718 -18.706  -6.630  1.00  0.00     0.053 C 
BRANCH  11  12
ATOM     12  C   UNL     1     -10.519 -19.688  -7.435  1.00  0.00     0.041 C 
ATOM     13  O   UNL     1     -11.146 -20.621  -6.866  1.00  0.00    -0.550 OA
ATOM     14  O   UNL     1     -10.646 -19.518  -8.808  1.00  0.00    -0.550 OA
ENDBRANCH  11  12
ENDBRANCH  10  11
ENDBRANCH   9  10
ENDBRANCH   8   9
ENDBRANCH   7   8
ENDBRANCH   6   7
ENDBRANCH   5   6
ENDBRANCH   4   5
ENDBRANCH   3   4
ENDBRANCH   2   3
ENDBRANCH   1   2
BRANCH   1  15
ATOM     15  C   UNL     1      -5.795 -14.920 -15.208  1.00  0.00     0.000 C 
BRANCH  15  16
ATOM     16  C   UNL     1      -7.086 -14.751 -16.030  1.00  0.00     0.000 C 
BRANCH  16  17
ATOM     17  C   UNL     1      -7.499 -16.041 -16.754  1.00  0.00     0.000 C 
BRANCH  17  18
ATOM     18  C   UNL     1      -6.290 -16.838 -17.277  1.00  0.00    -0.000 C 
BRANCH  18  19
ATOM     19  C   UNL     1      -6.300 -18.305 -16.814  1.00  0.00    -0.000 C 
BRANCH  19  20
ATOM     20  C   UNL     1      -7.386 -18.586 -15.759  1.00  0.00    -0.000 C 
BRANCH  20  21
ATOM     21  C   UNL     1      -6.799 -18.897 -14.373  1.00  0.00    -0.000 C 
BRANCH  21  22
ATOM     22  C   UNL     1      -6.326 -20.355 -14.246  1.00  0.00    -0.000 C 
BRANCH  22  23
ATOM     23  C   UNL     1      -7.434 -21.377 -14.566  1.00  0.00    -0.000 C 
BRANCH  23  24
ATOM     24  C   UNL     1      -8.348 -21.745 -13.381  1.00  0.00    -0.000 C 
BRANCH  24  25
ATOM     25  C   UNL     1      -7.698 -21.480 -12.016  1.00  0.00    -0.003 C 
ATOM     26  C   UNL     1      -8.734 -21.513 -10.895  1.00  0.00     0.004 C 
ENDBRANCH  24  25
ENDBRANCH  23  24
ENDBRANCH  22  23
ENDBRANCH  21  22
ENDBRANCH  20  21
ENDBRANCH  19  20
ENDBRANCH  18  19
ENDBRANCH  17  18
ENDBRANCH  16  17
ENDBRANCH  15  16
ENDBRANCH   1  15
TORSDOF 22
ENDMDL
MODEL 9
REMARK VINA RESULT:    -4.861      3.509      6.093
REMARK INTER + INTRA:         -13.133
REMARK INTER:                  -8.751
REMARK INTRA:                  -4.383
REMARK UNBOUND:                -2.021
REMARK SMILES CCCCCCCCCCCCCCCCCCCCCCCC(=O)[O-]
REMARK SMILES IDX 13 1 14 2 15 3 16 4 17 5 18 6 19 7 20 8 21 9 22 10 23 11
REMARK SMILES IDX 24 12 25 13 26 14 12 15 11 16 10 17 9 18 8 19 7 20 6 21 5 22
REMARK SMILES IDX 4 23 3 24 2 25 1 26
REMARK H PARENT
REMARK Flexibility Score: inf
ROOT
ATOM      1  C   UNL     1      -1.079 -23.276 -12.650  1.00  0.00     0.000 C 
ENDROOT
BRANCH   1   2
ATOM      2  C   UNL     1       0.083 -24.199 -13.069  1.00  0.00     0.000 C 
BRANCH   2   3
ATOM      3  C   UNL     1      -0.332 -25.629 -13.472  1.00  0.00     0.000 C 
BRANCH   3   4
ATOM      4  C   UNL     1      -0.462 -26.621 -12.302  1.00  0.00     0.000 C 
BRANCH   4   5
ATOM      5  C   UNL     1       0.548 -26.346 -11.178  1.00  0.00     0.000 C 
BRANCH   5   6
ATOM      6  C   UNL     1      -0.162 -26.157  -9.829  1.00  0.00     0.000 C 
BRANCH   6   7
ATOM      7  C   UNL     1       0.122 -24.769  -9.205  1.00  0.00     0.000 C 
BRANCH   7   8
ATOM      8  C   UNL     1       1.406 -24.112  -9.743  1.00  0.00     0.000 C 
BRANCH   8   9
ATOM      9  C   UNL     1       1.664 -22.697  -9.187  1.00  0.00     0.000 C 
BRANCH   9  10
ATOM     10  C   UNL     1       1.235 -21.558 -10.146  1.00  0.00     0.006 C 
BRANCH  10  11
ATOM     11  C   UNL     1       2.232 -21.292 -11.291  1.00  0.00     0.053 C 
BRANCH  11  12
ATOM     12  C   UNL     1       3.656 -21.221 -10.821  1.00  0.00     0.041 C 
ATOM     13  O   UNL     1       4.518 -22.025 -11.267  1.00  0.00    -0.550 OA
ATOM     14  O   UNL     1       4.050 -20.209  -9.955  1.00  0.00    -0.550 OA
ENDBRANCH  11  12
ENDBRANCH  10  11
ENDBRANCH   9  10
ENDBRANCH   8   9
ENDBRANCH   7   8
ENDBRANCH   6   7
ENDBRANCH   5   6
ENDBRANCH   4   5
ENDBRANCH   3   4
ENDBRANCH   2   3
ENDBRANCH   1   2
BRANCH   1  15
ATOM     15  C   UNL     1      -2.474 -23.747 -13.099  1.00  0.00     0.000 C 
BRANCH  15  16
ATOM     16  C   UNL     1      -2.882 -23.180 -14.470  1.00  0.00     0.000 C 
BRANCH  16  17
ATOM     17  C   UNL     1      -3.044 -24.273 -15.538  1.00  0.00     0.000 C 
BRANCH  17  18
ATOM     18  C   UNL     1      -1.918 -24.244 -16.588  1.00  0.00    -0.000 C 
BRANCH  18  19
ATOM     19  C   UNL     1      -1.168 -22.903 -16.619  1.00  0.00    -0.000 C 
BRANCH  19  20
ATOM     20  C   UNL     1       0.361 -23.079 -16.571  1.00  0.00    -0.000 C 
BRANCH  20  21
ATOM     21  C   UNL     1       1.058 -21.989 -15.740  1.00  0.00    -0.000 C 
BRANCH  21  22
ATOM     22  C   UNL     1       0.064 -20.985 -15.131  1.00  0.00    -0.000 C 
BRANCH  22  23
ATOM     23  C   UNL     1       0.754 -19.875 -14.315  1.00  0.00    -0.000 C 
BRANCH  23  24
ATOM     24  C   UNL     1      -0.174 -19.077 -13.378  1.00  0.00    -0.000 C 
BRANCH  24  25
ATOM     25  C   UNL     1      -1.606 -19.629 -13.338  1.00  0.00    -0.003 C 
ATOM     26  C   UNL     1      -2.583 -18.677 -14.024  1.00  0.00     0.004 C 
ENDBRANCH  24  25
ENDBRANCH  23  24
ENDBRANCH  22  23
ENDBRANCH  21  22
ENDBRANCH  20  21
ENDBRANCH  19  20
ENDBRANCH  18  19
ENDBRANCH  17  18
ENDBRANCH  16  17
ENDBRANCH  15  16
ENDBRANCH   1  15
TORSDOF 22
ENDMDL
