MODEL 1
REMARK VINA RESULT:    -3.715      0.000      0.000
REMARK INTER + INTRA:          -8.156
REMARK INTER:                  -6.972
REMARK INTRA:                  -1.184
REMARK UNBOUND:                -1.184
REMARK SMILES CCCCCCCCC=CCCCCCCCC(=O)[O-]
REMARK SMILES IDX 10 1 9 2 11 3 12 4 13 5 14 6 15 7 16 8 17 9 18 10 19 11
REMARK SMILES IDX 20 12 8 13 7 14 6 15 5 16 4 17 3 18 2 19 1 20
REMARK H PARENT
REMARK Flexibility Score: inf
ROOT
ATOM      1  C   UNL     1      11.451   2.094 -17.935  1.00  0.00    -0.031 C 
ATOM      2  C   UNL     1      12.454   2.922 -18.261  1.00  0.00    -0.031 C 
ENDROOT
BRANCH   1   3
ATOM      3  C   UNL     1      11.326   1.510 -16.552  1.00  0.00     0.027 C 
BRANCH   3   4
ATOM      4  C   UNL     1      12.657   0.942 -16.036  1.00  0.00     0.004 C 
BRANCH   4   5
ATOM      5  C   UNL     1      13.203  -0.170 -16.950  1.00  0.00     0.000 C 
BRANCH   5   6
ATOM      6  C   UNL     1      12.324  -1.430 -16.938  1.00  0.00     0.000 C 
BRANCH   6   7
ATOM      7  C   UNL     1      12.398  -2.189 -15.605  1.00  0.00     0.000 C 
BRANCH   7   8
ATOM      8  C   UNL     1      12.532  -3.701 -15.842  1.00  0.00     0.006 C 
BRANCH   8   9
ATOM      9  C   UNL     1      11.574  -4.514 -14.962  1.00  0.00     0.053 C 
BRANCH   9  10
ATOM     10  C   UNL     1      12.015  -4.531 -13.530  1.00  0.00     0.041 C 
ATOM     11  O   UNL     1      13.184  -4.888 -13.230  1.00  0.00    -0.550 OA
ATOM     12  O   UNL     1      11.143  -4.120 -12.529  1.00  0.00    -0.550 OA
ENDBRANCH   9  10
ENDBRANCH   8   9
ENDBRANCH   7   8
ENDBRANCH   6   7
ENDBRANCH   5   6
ENDBRANCH   4   5
ENDBRANCH   3   4
ENDBRANCH   1   3
BRANCH   2  13
ATOM     13  C   UNL     1      12.578   3.505 -19.643  1.00  0.00     0.027 C 
BRANCH  13  14
ATOM     14  C   UNL     1      12.576   2.430 -20.742  1.00  0.00     0.004 C 
BRANCH  14  15
ATOM     15  C   UNL     1      13.331   1.141 -20.368  1.00  0.00     0.000 C 
BRANCH  15  16
ATOM     16  C   UNL     1      12.739  -0.110 -21.035  1.00  0.00     0.000 C 
BRANCH  16  17
ATOM     17  C   UNL     1      11.254   0.091 -21.359  1.00  0.00    -0.000 C 
BRANCH  17  18
ATOM     18  C   UNL     1      10.805  -0.844 -22.488  1.00  0.00    -0.000 C 
BRANCH  18  19
ATOM     19  C   UNL     1       9.581  -1.666 -22.066  1.00  0.00    -0.003 C 
ATOM     20  C   UNL     1       9.520  -2.990 -22.824  1.00  0.00     0.004 C 
ENDBRANCH  18  19
ENDBRANCH  17  18
ENDBRANCH  16  17
ENDBRANCH  15  16
ENDBRANCH  14  15
ENDBRANCH  13  14
ENDBRANCH   2  13
TORSDOF 15
ENDMDL
MODEL 2
REMARK VINA RESULT:    -3.642      3.380      6.821
REMARK INTER + INTRA:          -8.020
REMARK INTER:                  -6.989
REMARK INTRA:                  -1.030
REMARK UNBOUND:                -1.184
REMARK SMILES CCCCCCCCC=CCCCCCCCC(=O)[O-]
REMARK SMILES IDX 10 1 9 2 11 3 12 4 13 5 14 6 15 7 16 8 17 9 18 10 19 11
REMARK SMILES IDX 20 12 8 13 7 14 6 15 5 16 4 17 3 18 2 19 1 20
REMARK H PARENT
REMARK Flexibility Score: inf
ROOT
ATOM      1  C   UNL     1      12.483   2.640 -18.054  1.00  0.00    -0.031 C 
ATOM      2  C   UNL     1      11.394   1.933 -17.719  1.00  0.00    -0.031 C 
ENDROOT
BRANCH   1   3
ATOM      3  C   UNL     1      12.545   3.440 -19.327  1.00  0.00     0.027 C 
BRANCH   3   4
ATOM      4  C   UNL     1      12.617   2.547 -20.575  1.00  0.00     0.004 C 
BRANCH   4   5
ATOM      5  C   UNL     1      13.335   1.215 -20.291  1.00  0.00     0.000 C 
BRANCH   5   6
ATOM      6  C   UNL     1      12.484  -0.007 -20.671  1.00  0.00     0.000 C 
BRANCH   6   7
ATOM      7  C   UNL     1      11.287   0.360 -21.561  1.00  0.00     0.000 C 
BRANCH   7   8
ATOM      8  C   UNL     1      10.896  -0.817 -22.467  1.00  0.00     0.006 C 
BRANCH   8   9
ATOM      9  C   UNL     1       9.653  -1.556 -21.954  1.00  0.00     0.053 C 
BRANCH   9  10
ATOM     10  C   UNL     1       9.448  -2.858 -22.666  1.00  0.00     0.041 C 
ATOM     11  O   UNL     1       9.206  -2.875 -23.901  1.00  0.00    -0.550 OA
ATOM     12  O   UNL     1       9.558  -4.056 -21.970  1.00  0.00    -0.550 OA
ENDBRANCH   9  10
ENDBRANCH   8   9
ENDBRANCH   7   8
ENDBRANCH   6   7
ENDBRANCH   5   6
ENDBRANCH   4   5
ENDBRANCH   3   4
ENDBRANCH   1   3
BRANCH   2  13
ATOM     13  C   UNL     1      11.333   1.133 -16.445  1.00  0.00     0.027 C 
BRANCH  13  14
ATOM     14  C   UNL     1      12.593   0.282 -16.219  1.00  0.00     0.004 C 
BRANCH  14  15
ATOM     15  C   UNL     1      12.510  -1.139 -16.808  1.00  0.00     0.000 C 
BRANCH  15  16
ATOM     16  C   UNL     1      12.683  -2.234 -15.745  1.00  0.00     0.000 C 
BRANCH  16  17
ATOM     17  C   UNL     1      11.687  -3.378 -15.969  1.00  0.00    -0.000 C 
BRANCH  17  18
ATOM     18  C   UNL     1      12.254  -4.710 -15.462  1.00  0.00    -0.000 C 
BRANCH  18  19
ATOM     19  C   UNL     1      12.665  -4.606 -13.989  1.00  0.00    -0.003 C 
ATOM     20  C   UNL     1      11.508  -4.108 -13.128  1.00  0.00     0.004 C 
ENDBRANCH  18  19
ENDBRANCH  17  18
ENDBRANCH  16  17
ENDBRANCH  15  16
ENDBRANCH  14  15
ENDBRANCH  13  14
ENDBRANCH   2  13
TORSDOF 15
ENDMDL
MODEL 3
REMARK VINA RESULT:    -2.974      3.642      7.075
REMARK INTER + INTRA:          -6.765
REMARK INTER:                  -5.844
REMARK INTRA:                  -0.921
REMARK UNBOUND:                -1.184
REMARK SMILES CCCCCCCCC=CCCCCCCCC(=O)[O-]
REMARK SMILES IDX 10 1 9 2 11 3 12 4 13 5 14 6 15 7 16 8 17 9 18 10 19 11
REMARK SMILES IDX 20 12 8 13 7 14 6 15 5 16 4 17 3 18 2 19 1 20
REMARK H PARENT
REMARK Flexibility Score: inf
ROOT
ATOM      1  C   UNL     1      10.094  -0.055 -18.408  1.00  0.00    -0.031 C 
ATOM      2  C   UNL     1      10.439   1.078 -17.780  1.00  0.00    -0.031 C 
ENDROOT
BRANCH   1   3
ATOM      3  C   UNL     1       9.339  -0.039 -19.710  1.00  0.00     0.027 C 
BRANCH   3   4
ATOM      4  C   UNL     1      10.114  -0.730 -20.843  1.00  0.00     0.004 C 
BRANCH   4   5
ATOM      5  C   UNL     1      11.069   0.239 -21.564  1.00  0.00     0.000 C 
BRANCH   5   6
ATOM      6  C   UNL     1      12.531  -0.232 -21.520  1.00  0.00     0.000 C 
BRANCH   6   7
ATOM      7  C   UNL     1      13.396   0.614 -20.573  1.00  0.00     0.000 C 
BRANCH   7   8
ATOM      8  C   UNL     1      12.562   1.720 -19.909  1.00  0.00     0.006 C 
BRANCH   8   9
ATOM      9  C   UNL     1      12.891   3.110 -20.469  1.00  0.00     0.053 C 
BRANCH   9  10
ATOM     10  C   UNL     1      12.973   4.141 -19.385  1.00  0.00     0.041 C 
ATOM     11  O   UNL     1      13.226   5.341 -19.667  1.00  0.00    -0.550 OA
ATOM     12  O   UNL     1      12.734   3.781 -18.064  1.00  0.00    -0.550 OA
ENDBRANCH   9  10
ENDBRANCH   8   9
ENDBRANCH   7   8
ENDBRANCH   6   7
ENDBRANCH   5   6
ENDBRANCH   4   5
ENDBRANCH   3   4
ENDBRANCH   1   3
BRANCH   2  13
ATOM     13  C   UNL     1      11.194   1.061 -16.478  1.00  0.00     0.027 C 
BRANCH  13  14
ATOM     14  C   UNL     1      12.601   0.457 -16.618  1.00  0.00     0.004 C 
BRANCH  14  15
ATOM     15  C   UNL     1      12.615  -1.022 -17.046  1.00  0.00     0.000 C 
BRANCH  15  16
ATOM     16  C   UNL     1      12.630  -1.987 -15.850  1.00  0.00     0.000 C 
BRANCH  16  17
ATOM     17  C   UNL     1      11.682  -3.169 -16.088  1.00  0.00    -0.000 C 
BRANCH  17  18
ATOM     18  C   UNL     1      12.295  -4.478 -15.576  1.00  0.00    -0.000 C 
BRANCH  18  19
ATOM     19  C   UNL     1      12.771  -4.332 -14.126  1.00  0.00    -0.003 C 
ATOM     20  C   UNL     1      11.615  -4.515 -13.146  1.00  0.00     0.004 C 
ENDBRANCH  18  19
ENDBRANCH  17  18
ENDBRANCH  16  17
ENDBRANCH  15  16
ENDBRANCH  14  15
ENDBRANCH  13  14
ENDBRANCH   2  13
TORSDOF 15
ENDMDL
MODEL 4
REMARK VINA RESULT:    -2.951      1.080      3.386
REMARK INTER + INTRA:          -6.721
REMARK INTER:                  -5.209
REMARK INTRA:                  -1.512
REMARK UNBOUND:                -1.184
REMARK SMILES CCCCCCCCC=CCCCCCCCC(=O)[O-]
REMARK SMILES IDX 10 1 9 2 11 3 12 4 13 5 14 6 15 7 16 8 17 9 18 10 19 11
REMARK SMILES IDX 20 12 8 13 7 14 6 15 5 16 4 17 3 18 2 19 1 20
REMARK H PARENT
REMARK Flexibility Score: inf
ROOT
ATOM      1  C   UNL     1      10.462   0.227 -18.358  1.00  0.00    -0.031 C 
ATOM      2  C   UNL     1       9.673   0.280 -19.440  1.00  0.00    -0.031 C 
ENDROOT
BRANCH   1   3
ATOM      3  C   UNL     1      10.651   1.420 -17.459  1.00  0.00     0.027 C 
BRANCH   3   4
ATOM      4  C   UNL     1      11.857   1.259 -16.522  1.00  0.00     0.004 C 
BRANCH   4   5
ATOM      5  C   UNL     1      12.493  -0.138 -16.633  1.00  0.00     0.000 C 
BRANCH   5   6
ATOM      6  C   UNL     1      12.476  -0.902 -15.300  1.00  0.00     0.000 C 
BRANCH   6   7
ATOM      7  C   UNL     1      13.007  -2.337 -15.435  1.00  0.00     0.000 C 
BRANCH   7   8
ATOM      8  C   UNL     1      11.923  -3.274 -15.988  1.00  0.00     0.006 C 
BRANCH   8   9
ATOM      9  C   UNL     1      11.958  -4.658 -15.327  1.00  0.00     0.053 C 
BRANCH   9  10
ATOM     10  C   UNL     1      12.225  -4.564 -13.856  1.00  0.00     0.041 C 
ATOM     11  O   UNL     1      13.349  -4.891 -13.392  1.00  0.00    -0.550 OA
ATOM     12  O   UNL     1      11.242  -4.081 -13.000  1.00  0.00    -0.550 OA
ENDBRANCH   9  10
ENDBRANCH   8   9
ENDBRANCH   7   8
ENDBRANCH   6   7
ENDBRANCH   5   6
ENDBRANCH   4   5
ENDBRANCH   3   4
ENDBRANCH   1   3
BRANCH   2  13
ATOM     13  C   UNL     1       9.483  -0.914 -20.338  1.00  0.00     0.027 C 
BRANCH  13  14
ATOM     14  C   UNL     1      10.328  -0.830 -21.621  1.00  0.00     0.004 C 
BRANCH  14  15
ATOM     15  C   UNL     1      11.317   0.350 -21.651  1.00  0.00     0.000 C 
BRANCH  15  16
ATOM     16  C   UNL     1      12.711  -0.028 -21.129  1.00  0.00     0.000 C 
BRANCH  16  17
ATOM     17  C   UNL     1      13.282   1.080 -20.235  1.00  0.00    -0.000 C 
BRANCH  17  18
ATOM     18  C   UNL     1      12.612   2.427 -20.533  1.00  0.00    -0.000 C 
BRANCH  18  19
ATOM     19  C   UNL     1      12.633   3.336 -19.299  1.00  0.00    -0.003 C 
ATOM     20  C   UNL     1      13.053   4.756 -19.667  1.00  0.00     0.004 C 
ENDBRANCH  18  19
ENDBRANCH  17  18
ENDBRANCH  16  17
ENDBRANCH  15  16
ENDBRANCH  14  15
ENDBRANCH  13  14
ENDBRANCH   2  13
TORSDOF 15
ENDMDL
MODEL 5
REMARK VINA RESULT:    -2.827      3.456      7.352
REMARK INTER + INTRA:          -6.489
REMARK INTER:                  -4.888
REMARK INTRA:                  -1.601
REMARK UNBOUND:                -1.184
REMARK SMILES CCCCCCCCC=CCCCCCCCC(=O)[O-]
REMARK SMILES IDX 10 1 9 2 11 3 12 4 13 5 14 6 15 7 16 8 17 9 18 10 19 11
REMARK SMILES IDX 20 12 8 13 7 14 6 15 5 16 4 17 3 18 2 19 1 20
REMARK H PARENT
REMARK Flexibility Score: inf
ROOT
ATOM      1  C   UNL     1      11.517   1.327 -16.596  1.00  0.00    -0.031 C 
ATOM      2  C   UNL     1      12.260   0.211 -16.611  1.00  0.00    -0.031 C 
ENDROOT
BRANCH   1   3
ATOM      3  C   UNL     1      11.388   2.207 -17.810  1.00  0.00     0.027 C 
BRANCH   3   4
ATOM      4  C   UNL     1      12.626   3.091 -18.024  1.00  0.00     0.004 C 
BRANCH   4   5
ATOM      5  C   UNL     1      12.705   3.637 -19.461  1.00  0.00     0.000 C 
BRANCH   5   6
ATOM      6  C   UNL     1      12.398   2.565 -20.518  1.00  0.00     0.000 C 
BRANCH   6   7
ATOM      7  C   UNL     1      13.371   1.378 -20.455  1.00  0.00     0.000 C 
BRANCH   7   8
ATOM      8  C   UNL     1      12.609   0.050 -20.337  1.00  0.00     0.006 C 
BRANCH   8   9
ATOM      9  C   UNL     1      11.200   0.133 -20.936  1.00  0.00     0.053 C 
BRANCH   9  10
ATOM     10  C   UNL     1      11.093  -0.641 -22.215  1.00  0.00     0.041 C 
ATOM     11  O   UNL     1      12.069  -0.692 -23.009  1.00  0.00    -0.550 OA
ATOM     12  O   UNL     1       9.926  -1.334 -22.513  1.00  0.00    -0.550 OA
ENDBRANCH   9  10
ENDBRANCH   8   9
ENDBRANCH   7   8
ENDBRANCH   6   7
ENDBRANCH   5   6
ENDBRANCH   4   5
ENDBRANCH   3   4
ENDBRANCH   1   3
BRANCH   2  13
ATOM     13  C   UNL     1      12.388  -0.669 -15.397  1.00  0.00     0.027 C 
BRANCH  13  14
ATOM     14  C   UNL     1      12.932  -2.068 -15.733  1.00  0.00     0.004 C 
BRANCH  14  15
ATOM     15  C   UNL     1      11.854  -3.076 -16.174  1.00  0.00     0.000 C 
BRANCH  15  16
ATOM     16  C   UNL     1      11.979  -4.430 -15.460  1.00  0.00     0.000 C 
BRANCH  16  17
ATOM     17  C   UNL     1      13.145  -4.419 -14.463  1.00  0.00    -0.000 C 
BRANCH  17  18
ATOM     18  C   UNL     1      12.683  -4.870 -13.072  1.00  0.00    -0.000 C 
BRANCH  18  19
ATOM     19  C   UNL     1      11.236  -4.439 -12.807  1.00  0.00    -0.003 C 
ATOM     20  C   UNL     1      11.187  -3.128 -12.027  1.00  0.00     0.004 C 
ENDBRANCH  18  19
ENDBRANCH  17  18
ENDBRANCH  16  17
ENDBRANCH  15  16
ENDBRANCH  14  15
ENDBRANCH  13  14
ENDBRANCH   2  13
TORSDOF 15
ENDMDL
MODEL 6
REMARK VINA RESULT:    -2.591      1.142      2.246
REMARK INTER + INTRA:          -6.046
REMARK INTER:                  -4.579
REMARK INTRA:                  -1.467
REMARK UNBOUND:                -1.184
REMARK SMILES CCCCCCCCC=CCCCCCCCC(=O)[O-]
REMARK SMILES IDX 10 1 9 2 11 3 12 4 13 5 14 6 15 7 16 8 17 9 18 10 19 11
REMARK SMILES IDX 20 12 8 13 7 14 6 15 5 16 4 17 3 18 2 19 1 20
REMARK H PARENT
REMARK Flexibility Score: inf
ROOT
ATOM      1  C   UNL     1      12.283   2.565 -18.437  1.00  0.00    -0.031 C 
ATOM      2  C   UNL     1      12.997   1.663 -19.125  1.00  0.00    -0.031 C 
ENDROOT
BRANCH   1   3
ATOM      3  C   UNL     1      12.501   2.786 -16.963  1.00  0.00     0.027 C 
BRANCH   3   4
ATOM      4  C   UNL     1      13.080   1.546 -16.266  1.00  0.00     0.004 C 
BRANCH   4   5
ATOM      5  C   UNL     1      12.070   0.385 -16.220  1.00  0.00     0.000 C 
BRANCH   5   6
ATOM      6  C   UNL     1      12.730  -0.982 -16.457  1.00  0.00     0.000 C 
BRANCH   6   7
ATOM      7  C   UNL     1      12.366  -2.009 -15.375  1.00  0.00     0.000 C 
BRANCH   7   8
ATOM      8  C   UNL     1      12.289  -3.425 -15.967  1.00  0.00     0.006 C 
BRANCH   8   9
ATOM      9  C   UNL     1      11.457  -4.374 -15.095  1.00  0.00     0.053 C 
BRANCH   9  10
ATOM     10  C   UNL     1      11.956  -4.413 -13.683  1.00  0.00     0.041 C 
ATOM     11  O   UNL     1      11.208  -4.059 -12.735  1.00  0.00    -0.550 OA
ATOM     12  O   UNL     1      13.239  -4.875 -13.412  1.00  0.00    -0.550 OA
ENDBRANCH   9  10
ENDBRANCH   8   9
ENDBRANCH   7   8
ENDBRANCH   6   7
ENDBRANCH   5   6
ENDBRANCH   4   5
ENDBRANCH   3   4
ENDBRANCH   1   3
BRANCH   2  13
ATOM     13  C   UNL     1      12.779   1.442 -20.598  1.00  0.00     0.027 C 
BRANCH  13  14
ATOM     14  C   UNL     1      13.082  -0.002 -21.032  1.00  0.00     0.004 C 
BRANCH  14  15
ATOM     15  C   UNL     1      12.153  -0.538 -22.137  1.00  0.00     0.000 C 
BRANCH  15  16
ATOM     16  C   UNL     1      10.693  -0.098 -21.952  1.00  0.00     0.000 C 
BRANCH  16  17
ATOM     17  C   UNL     1       9.815  -1.278 -21.517  1.00  0.00    -0.000 C 
BRANCH  17  18
ATOM     18  C   UNL     1       9.086  -0.966 -20.204  1.00  0.00    -0.000 C 
BRANCH  18  19
ATOM     19  C   UNL     1      10.045  -0.359 -19.174  1.00  0.00    -0.003 C 
ATOM     20  C   UNL     1       9.455   0.902 -18.549  1.00  0.00     0.004 C 
ENDBRANCH  18  19
ENDBRANCH  17  18
ENDBRANCH  16  17
ENDBRANCH  15  16
ENDBRANCH  14  15
ENDBRANCH  13  14
ENDBRANCH   2  13
TORSDOF 15
ENDMDL
MODEL 7
REMARK VINA RESULT:    -2.480      1.492      4.268
REMARK INTER + INTRA:          -5.839
REMARK INTER:                  -4.591
REMARK INTRA:                  -1.247
REMARK UNBOUND:                -1.184
REMARK SMILES CCCCCCCCC=CCCCCCCCC(=O)[O-]
REMARK SMILES IDX 10 1 9 2 11 3 12 4 13 5 14 6 15 7 16 8 17 9 18 10 19 11
REMARK SMILES IDX 20 12 8 13 7 14 6 15 5 16 4 17 3 18 2 19 1 20
REMARK H PARENT
REMARK Flexibility Score: inf
ROOT
ATOM      1  C   UNL     1      11.925   0.743 -21.032  1.00  0.00    -0.031 C 
ATOM      2  C   UNL     1      11.720  -0.301 -21.848  1.00  0.00    -0.031 C 
ENDROOT
BRANCH   1   3
ATOM      3  C   UNL     1      13.313   1.188 -20.653  1.00  0.00     0.027 C 
BRANCH   3   4
ATOM      4  C   UNL     1      14.201   0.016 -20.210  1.00  0.00     0.004 C 
BRANCH   4   5
ATOM      5  C   UNL     1      14.181  -0.179 -18.683  1.00  0.00     0.000 C 
BRANCH   5   6
ATOM      6  C   UNL     1      12.920  -0.911 -18.197  1.00  0.00     0.000 C 
BRANCH   6   7
ATOM      7  C   UNL     1      12.847  -1.010 -16.666  1.00  0.00     0.000 C 
BRANCH   7   8
ATOM      8  C   UNL     1      12.192  -2.330 -16.232  1.00  0.00     0.006 C 
BRANCH   8   9
ATOM      9  C   UNL     1      12.665  -2.784 -14.845  1.00  0.00     0.053 C 
BRANCH   9  10
ATOM     10  C   UNL     1      12.481  -4.258 -14.651  1.00  0.00     0.041 C 
ATOM     11  O   UNL     1      12.637  -4.773 -13.513  1.00  0.00    -0.550 OA
ATOM     12  O   UNL     1      12.103  -5.059 -15.722  1.00  0.00    -0.550 OA
ENDBRANCH   9  10
ENDBRANCH   8   9
ENDBRANCH   7   8
ENDBRANCH   6   7
ENDBRANCH   5   6
ENDBRANCH   4   5
ENDBRANCH   3   4
ENDBRANCH   1   3
BRANCH   2  13
ATOM     13  C   UNL     1      10.332  -0.745 -22.227  1.00  0.00     0.027 C 
BRANCH  13  14
ATOM     14  C   UNL     1       9.603  -1.457 -21.076  1.00  0.00     0.004 C 
BRANCH  14  15
ATOM     15  C   UNL     1       8.935  -0.506 -20.066  1.00  0.00     0.000 C 
BRANCH  15  16
ATOM     16  C   UNL     1       9.784  -0.286 -18.805  1.00  0.00     0.000 C 
BRANCH  16  17
ATOM     17  C   UNL     1       9.845   1.203 -18.439  1.00  0.00    -0.000 C 
BRANCH  17  18
ATOM     18  C   UNL     1      10.815   1.444 -17.275  1.00  0.00    -0.000 C 
BRANCH  18  19
ATOM     19  C   UNL     1      11.857   2.507 -17.640  1.00  0.00    -0.003 C 
ATOM     20  C   UNL     1      12.936   2.611 -16.566  1.00  0.00     0.004 C 
ENDBRANCH  18  19
ENDBRANCH  17  18
ENDBRANCH  16  17
ENDBRANCH  15  16
ENDBRANCH  14  15
ENDBRANCH  13  14
ENDBRANCH   2  13
TORSDOF 15
ENDMDL
MODEL 8
REMARK VINA RESULT:    -2.365      2.619      6.395
REMARK INTER + INTRA:          -5.622
REMARK INTER:                  -4.791
REMARK INTRA:                  -0.831
REMARK UNBOUND:                -1.184
REMARK SMILES CCCCCCCCC=CCCCCCCCC(=O)[O-]
REMARK SMILES IDX 10 1 9 2 11 3 12 4 13 5 14 6 15 7 16 8 17 9 18 10 19 11
REMARK SMILES IDX 20 12 8 13 7 14 6 15 5 16 4 17 3 18 2 19 1 20
REMARK H PARENT
REMARK Flexibility Score: inf
ROOT
ATOM      1  C   UNL     1      12.468   2.387 -17.806  1.00  0.00    -0.031 C 
ATOM      2  C   UNL     1      12.511   2.150 -16.487  1.00  0.00    -0.031 C 
ENDROOT
BRANCH   1   3
ATOM      3  C   UNL     1      12.540   3.786 -18.359  1.00  0.00     0.027 C 
BRANCH   3   4
ATOM      4  C   UNL     1      12.887   3.804 -19.855  1.00  0.00     0.004 C 
BRANCH   4   5
ATOM      5  C   UNL     1      12.301   2.590 -20.599  1.00  0.00     0.000 C 
BRANCH   5   6
ATOM      6  C   UNL     1      13.180   1.337 -20.468  1.00  0.00     0.000 C 
BRANCH   6   7
ATOM      7  C   UNL     1      12.510   0.082 -21.048  1.00  0.00     0.000 C 
BRANCH   7   8
ATOM      8  C   UNL     1      11.045   0.362 -21.417  1.00  0.00     0.006 C 
BRANCH   8   9
ATOM      9  C   UNL     1      10.103  -0.750 -20.939  1.00  0.00     0.053 C 
BRANCH   9  10
ATOM     10  C   UNL     1       9.558  -0.468 -19.573  1.00  0.00     0.041 C 
ATOM     11  O   UNL     1       9.706   0.669 -19.052  1.00  0.00    -0.550 OA
ATOM     12  O   UNL     1       8.855  -1.451 -18.887  1.00  0.00    -0.550 OA
ENDBRANCH   9  10
ENDBRANCH   8   9
ENDBRANCH   7   8
ENDBRANCH   6   7
ENDBRANCH   5   6
ENDBRANCH   4   5
ENDBRANCH   3   4
ENDBRANCH   1   3
BRANCH   2  13
ATOM     13  C   UNL     1      12.440   0.752 -15.934  1.00  0.00     0.027 C 
BRANCH  13  14
ATOM     14  C   UNL     1      12.064  -0.289 -17.002  1.00  0.00     0.004 C 
BRANCH  14  15
ATOM     15  C   UNL     1      12.712  -1.671 -16.794  1.00  0.00     0.000 C 
BRANCH  15  16
ATOM     16  C   UNL     1      12.275  -2.341 -15.482  1.00  0.00     0.000 C 
BRANCH  16  17
ATOM     17  C   UNL     1      11.550  -3.664 -15.758  1.00  0.00    -0.000 C 
BRANCH  17  18
ATOM     18  C   UNL     1      12.291  -4.842 -15.114  1.00  0.00    -0.000 C 
BRANCH  18  19
ATOM     19  C   UNL     1      12.654  -4.532 -13.657  1.00  0.00    -0.003 C 
ATOM     20  C   UNL     1      11.402  -4.336 -12.807  1.00  0.00     0.004 C 
ENDBRANCH  18  19
ENDBRANCH  17  18
ENDBRANCH  16  17
ENDBRANCH  15  16
ENDBRANCH  14  15
ENDBRANCH  13  14
ENDBRANCH   2  13
TORSDOF 15
ENDMDL
MODEL 9
REMARK VINA RESULT:    -2.349      1.290      2.821
REMARK INTER + INTRA:          -5.592
REMARK INTER:                  -4.601
REMARK INTRA:                  -0.991
REMARK UNBOUND:                -1.184
REMARK SMILES CCCCCCCCC=CCCCCCCCC(=O)[O-]
REMARK SMILES IDX 10 1 9 2 11 3 12 4 13 5 14 6 15 7 16 8 17 9 18 10 19 11
REMARK SMILES IDX 20 12 8 13 7 14 6 15 5 16 4 17 3 18 2 19 1 20
REMARK H PARENT
REMARK Flexibility Score: inf
ROOT
ATOM      1  C   UNL     1      11.565   1.973 -17.591  1.00  0.00    -0.031 C 
ATOM      2  C   UNL     1      10.741   0.916 -17.587  1.00  0.00    -0.031 C 
ENDROOT
BRANCH   1   3
ATOM      3  C   UNL     1      12.613   2.161 -16.526  1.00  0.00     0.027 C 
BRANCH   3   4
ATOM      4  C   UNL     1      12.733   0.939 -15.603  1.00  0.00     0.004 C 
BRANCH   4   5
ATOM      5  C   UNL     1      13.015  -0.354 -16.389  1.00  0.00     0.000 C 
BRANCH   5   6
ATOM      6  C   UNL     1      12.686  -1.619 -15.583  1.00  0.00     0.000 C 
BRANCH   6   7
ATOM      7  C   UNL     1      11.883  -2.646 -16.396  1.00  0.00     0.000 C 
BRANCH   7   8
ATOM      8  C   UNL     1      11.965  -4.039 -15.754  1.00  0.00     0.006 C 
BRANCH   8   9
ATOM      9  C   UNL     1      13.038  -4.112 -14.660  1.00  0.00     0.053 C 
BRANCH   9  10
ATOM     10  C   UNL     1      12.460  -4.534 -13.344  1.00  0.00     0.041 C 
ATOM     11  O   UNL     1      11.264  -4.264 -13.059  1.00  0.00    -0.550 OA
ATOM     12  O   UNL     1      13.235  -5.256 -12.443  1.00  0.00    -0.550 OA
ENDBRANCH   9  10
ENDBRANCH   8   9
ENDBRANCH   7   8
ENDBRANCH   6   7
ENDBRANCH   5   6
ENDBRANCH   4   5
ENDBRANCH   3   4
ENDBRANCH   1   3
BRANCH   2  13
ATOM     13  C   UNL     1       9.694   0.728 -18.652  1.00  0.00     0.027 C 
BRANCH  13  14
ATOM     14  C   UNL     1       9.883  -0.577 -19.444  1.00  0.00     0.004 C 
BRANCH  14  15
ATOM     15  C   UNL     1       9.849  -0.399 -20.973  1.00  0.00     0.000 C 
BRANCH  15  16
ATOM     16  C   UNL     1      11.223  -0.048 -21.562  1.00  0.00     0.000 C 
BRANCH  16  17
ATOM     17  C   UNL     1      11.690   1.332 -21.080  1.00  0.00    -0.000 C 
BRANCH  17  18
ATOM     18  C   UNL     1      13.162   1.296 -20.651  1.00  0.00    -0.000 C 
BRANCH  18  19
ATOM     19  C   UNL     1      13.662  -0.148 -20.524  1.00  0.00    -0.003 C 
ATOM     20  C   UNL     1      14.414  -0.357 -19.213  1.00  0.00     0.004 C 
ENDBRANCH  18  19
ENDBRANCH  17  18
ENDBRANCH  16  17
ENDBRANCH  15  16
ENDBRANCH  14  15
ENDBRANCH  13  14
ENDBRANCH   2  13
TORSDOF 15
ENDMDL
