MODEL 1
REMARK VINA RESULT:    -6.457      0.000      0.000
REMARK INTER + INTRA:          -7.854
REMARK INTER:                  -7.589
REMARK INTRA:                  -0.265
REMARK UNBOUND:                -0.265
REMARK SMILES O=c1cc(-c2ccc(O)c(O)c2)oc2cc(O)cc(O)c12
REMARK SMILES IDX 4 1 3 2 2 3 1 4 21 5 19 6 18 7 16 8 15 9 14 10 13 11 5 12
REMARK SMILES IDX 6 13 7 14 8 15 12 16 10 17 9 18 11 20 20 22 17 24
REMARK H PARENT 9 19 11 21 20 23 17 25
REMARK Flexibility Score: inf
ROOT
ATOM      1  C   UNL     1     135.608 101.615  94.137  1.00  0.00     0.138 A 
ATOM      2  C   UNL     1     136.210 102.757  93.593  1.00  0.00     0.100 A 
ATOM      3  C   UNL     1     135.506 103.963  93.566  1.00  0.00     0.197 A 
ATOM      4  O   UNL     1     136.048 104.955  93.015  1.00  0.00    -0.289 OA
ATOM      5  C   UNL     1     134.204 104.029  94.117  1.00  0.00     0.107 A 
ATOM      6  C   UNL     1     133.408 105.212  94.181  1.00  0.00     0.134 A 
ATOM      7  C   UNL     1     132.088 105.131  94.643  1.00  0.00     0.093 A 
ATOM      8  C   UNL     1     131.557 103.926  95.098  1.00  0.00     0.123 A 
ATOM      9  C   UNL     1     132.343 102.773  95.090  1.00  0.00     0.094 A 
ATOM     10  C   UNL     1     133.652 102.814  94.603  1.00  0.00     0.146 A 
ATOM     11  O   UNL     1     134.364 101.692  94.598  1.00  0.00    -0.456 OA
ENDROOT
BRANCH   1  12
ATOM     12  C   UNL     1     136.312 100.309  94.191  1.00  0.00     0.021 A 
ATOM     13  C   UNL     1     135.885  99.207  93.428  1.00  0.00     0.016 A 
ATOM     14  C   UNL     1     136.573  97.994  93.491  1.00  0.00     0.051 A 
ATOM     15  C   UNL     1     137.701  97.852  94.306  1.00  0.00     0.157 A 
ATOM     16  C   UNL     1     137.454 100.171  94.998  1.00  0.00     0.062 A 
ATOM     17  C   UNL     1     138.149  98.957  95.068  1.00  0.00     0.158 A 
BRANCH  15  18
ATOM     18  O   UNL     1     138.341  96.611  94.325  1.00  0.00    -0.504 OA
ATOM     19  H   UNL     1     138.273  95.953  95.088  1.00  0.00     0.293 HD
ENDBRANCH  15  18
BRANCH  17  20
ATOM     20  O   UNL     1     139.269  98.894  95.899  1.00  0.00    -0.504 OA
ATOM     21  H   UNL     1     139.803  99.701  96.189  1.00  0.00     0.293 HD
ENDBRANCH  17  20
ENDBRANCH   1  12
BRANCH   6  22
ATOM     22  O   UNL     1     133.871 106.484  93.832  1.00  0.00    -0.507 OA
ATOM     23  H   UNL     1     133.746 107.316  94.389  1.00  0.00     0.293 HD
ENDBRANCH   6  22
BRANCH   8  24
ATOM     24  O   UNL     1     130.245 103.887  95.565  1.00  0.00    -0.508 OA
ATOM     25  H   UNL     1     129.982 104.315  96.446  1.00  0.00     0.293 HD
ENDBRANCH   8  24
TORSDOF 5
ENDMDL
MODEL 2
REMARK VINA RESULT:    -6.207      1.783      6.529
REMARK INTER + INTRA:          -7.561
REMARK INTER:                  -7.296
REMARK INTRA:                  -0.264
REMARK UNBOUND:                -0.265
REMARK SMILES O=c1cc(-c2ccc(O)c(O)c2)oc2cc(O)cc(O)c12
REMARK SMILES IDX 4 1 3 2 2 3 1 4 21 5 19 6 18 7 16 8 15 9 14 10 13 11 5 12
REMARK SMILES IDX 6 13 7 14 8 15 12 16 10 17 9 18 11 20 20 22 17 24
REMARK H PARENT 9 19 11 21 20 23 17 25
REMARK Flexibility Score: inf
ROOT
ATOM      1  C   UNL     1     134.667 102.211  94.041  1.00  0.00     0.138 A 
ATOM      2  C   UNL     1     135.514 103.327  93.994  1.00  0.00     0.100 A 
ATOM      3  C   UNL     1     136.888 103.159  94.180  1.00  0.00     0.197 A 
ATOM      4  O   UNL     1     137.615 104.185  94.194  1.00  0.00    -0.289 OA
ATOM      5  C   UNL     1     137.417 101.861  94.382  1.00  0.00     0.107 A 
ATOM      6  C   UNL     1     138.804 101.565  94.543  1.00  0.00     0.134 A 
ATOM      7  C   UNL     1     139.198 100.258  94.853  1.00  0.00     0.093 A 
ATOM      8  C   UNL     1     138.265  99.227  94.949  1.00  0.00     0.123 A 
ATOM      9  C   UNL     1     136.911  99.495  94.742  1.00  0.00     0.094 A 
ATOM     10  C   UNL     1     136.482 100.795  94.464  1.00  0.00     0.146 A 
ATOM     11  O   UNL     1     135.183 101.012  94.288  1.00  0.00    -0.456 OA
ENDROOT
BRANCH   1  12
ATOM     12  C   UNL     1     133.200 102.334  93.850  1.00  0.00     0.021 A 
ATOM     13  C   UNL     1     132.551 101.772  92.735  1.00  0.00     0.016 A 
ATOM     14  C   UNL     1     131.168 101.894  92.587  1.00  0.00     0.051 A 
ATOM     15  C   UNL     1     130.402 102.568  93.544  1.00  0.00     0.157 A 
ATOM     16  C   UNL     1     132.428 102.997  94.819  1.00  0.00     0.062 A 
ATOM     17  C   UNL     1     131.041 103.125  94.676  1.00  0.00     0.158 A 
BRANCH  15  18
ATOM     18  O   UNL     1     129.024 102.655  93.333  1.00  0.00    -0.504 OA
ATOM     19  H   UNL     1     128.555 102.294  92.515  1.00  0.00     0.293 HD
ENDBRANCH  15  18
BRANCH  17  20
ATOM     20  O   UNL     1     130.343 103.806  95.675  1.00  0.00    -0.504 OA
ATOM     21  H   UNL     1     130.068 104.776  95.612  1.00  0.00     0.293 HD
ENDBRANCH  17  20
ENDBRANCH   1  12
BRANCH   6  22
ATOM     22  O   UNL     1     139.827 102.505  94.383  1.00  0.00    -0.507 OA
ATOM     23  H   UNL     1     140.652 102.562  94.960  1.00  0.00     0.293 HD
ENDBRANCH   6  22
BRANCH   8  24
ATOM     24  O   UNL     1     138.696  97.936  95.246  1.00  0.00    -0.508 OA
ATOM     25  H   UNL     1     139.600  97.594  94.936  1.00  0.00     0.293 HD
ENDBRANCH   8  24
TORSDOF 5
ENDMDL
MODEL 3
REMARK VINA RESULT:    -6.158      1.890      2.263
REMARK INTER + INTRA:          -7.503
REMARK INTER:                  -7.204
REMARK INTRA:                  -0.299
REMARK UNBOUND:                -0.265
REMARK SMILES O=c1cc(-c2ccc(O)c(O)c2)oc2cc(O)cc(O)c12
REMARK SMILES IDX 4 1 3 2 2 3 1 4 21 5 19 6 18 7 16 8 15 9 14 10 13 11 5 12
REMARK SMILES IDX 6 13 7 14 8 15 12 16 10 17 9 18 11 20 20 22 17 24
REMARK H PARENT 9 19 11 21 20 23 17 25
REMARK Flexibility Score: inf
ROOT
ATOM      1  C   UNL     1     135.139 100.944  93.727  1.00  0.00     0.138 A 
ATOM      2  C   UNL     1     134.766 100.861  92.379  1.00  0.00     0.100 A 
ATOM      3  C   UNL     1     133.657 101.578  91.924  1.00  0.00     0.197 A 
ATOM      4  O   UNL     1     133.309 101.435  90.723  1.00  0.00    -0.289 OA
ATOM      5  C   UNL     1     132.938 102.405  92.820  1.00  0.00     0.107 A 
ATOM      6  C   UNL     1     131.817 103.211  92.459  1.00  0.00     0.134 A 
ATOM      7  C   UNL     1     131.113 103.898  93.456  1.00  0.00     0.093 A 
ATOM      8  C   UNL     1     131.524 103.858  94.787  1.00  0.00     0.123 A 
ATOM      9  C   UNL     1     132.652 103.116  95.143  1.00  0.00     0.094 A 
ATOM     10  C   UNL     1     133.355 102.391  94.178  1.00  0.00     0.146 A 
ATOM     11  O   UNL     1     134.413 101.685  94.559  1.00  0.00    -0.456 OA
ENDROOT
BRANCH   1  12
ATOM     12  C   UNL     1     136.309 100.204  94.263  1.00  0.00     0.021 A 
ATOM     13  C   UNL     1     136.636  98.913  93.813  1.00  0.00     0.016 A 
ATOM     14  C   UNL     1     137.750  98.245  94.328  1.00  0.00     0.051 A 
ATOM     15  C   UNL     1     138.563  98.849  95.292  1.00  0.00     0.157 A 
ATOM     16  C   UNL     1     137.136 100.817  95.220  1.00  0.00     0.062 A 
ATOM     17  C   UNL     1     138.253 100.153  95.743  1.00  0.00     0.158 A 
BRANCH  15  18
ATOM     18  O   UNL     1     139.659  98.125  95.766  1.00  0.00    -0.504 OA
ATOM     19  H   UNL     1     140.076  97.346  95.276  1.00  0.00     0.293 HD
ENDBRANCH  15  18
BRANCH  17  20
ATOM     20  O   UNL     1     139.021 100.823  96.697  1.00  0.00    -0.504 OA
ATOM     21  H   UNL     1     139.105 101.828  96.752  1.00  0.00     0.293 HD
ENDBRANCH  17  20
ENDBRANCH   1  12
BRANCH   6  22
ATOM     22  O   UNL     1     131.373 103.389  91.146  1.00  0.00    -0.507 OA
ATOM     23  H   UNL     1     131.330 104.276  90.667  1.00  0.00     0.293 HD
ENDBRANCH   6  22
BRANCH   8  24
ATOM     24  O   UNL     1     130.809 104.567  95.749  1.00  0.00    -0.508 OA
ATOM     25  H   UNL     1     130.125 104.111  96.344  1.00  0.00     0.293 HD
ENDBRANCH   8  24
TORSDOF 5
ENDMDL
MODEL 4
REMARK VINA RESULT:    -5.772      1.703      7.097
REMARK INTER + INTRA:          -7.050
REMARK INTER:                  -6.788
REMARK INTRA:                  -0.262
REMARK UNBOUND:                -0.265
REMARK SMILES O=c1cc(-c2ccc(O)c(O)c2)oc2cc(O)cc(O)c12
REMARK SMILES IDX 4 1 3 2 2 3 1 4 21 5 19 6 18 7 16 8 15 9 14 10 13 11 5 12
REMARK SMILES IDX 6 13 7 14 8 15 12 16 10 17 9 18 11 20 20 22 17 24
REMARK H PARENT 9 19 11 21 20 23 17 25
REMARK Flexibility Score: inf
ROOT
ATOM      1  C   UNL     1     134.075 101.847  93.508  1.00  0.00     0.138 A 
ATOM      2  C   UNL     1     134.071 101.368  92.191  1.00  0.00     0.100 A 
ATOM      3  C   UNL     1     135.012 100.414  91.800  1.00  0.00     0.197 A 
ATOM      4  O   UNL     1     135.023 100.050  90.595  1.00  0.00    -0.289 OA
ATOM      5  C   UNL     1     135.942  99.916  92.743  1.00  0.00     0.107 A 
ATOM      6  C   UNL     1     136.920  98.914  92.468  1.00  0.00     0.134 A 
ATOM      7  C   UNL     1     137.864  98.583  93.449  1.00  0.00     0.093 A 
ATOM      8  C   UNL     1     137.827  99.173  94.711  1.00  0.00     0.123 A 
ATOM      9  C   UNL     1     136.842 100.115  95.009  1.00  0.00     0.094 A 
ATOM     10  C   UNL     1     135.908 100.491  94.041  1.00  0.00     0.146 A 
ATOM     11  O   UNL     1     134.995 101.402  94.359  1.00  0.00    -0.456 OA
ENDROOT
BRANCH   1  12
ATOM     12  C   UNL     1     133.097 102.860  93.977  1.00  0.00     0.021 A 
ATOM     13  C   UNL     1     131.971 102.502  94.740  1.00  0.00     0.016 A 
ATOM     14  C   UNL     1     131.073 103.478  95.177  1.00  0.00     0.051 A 
ATOM     15  C   UNL     1     131.278 104.827  94.871  1.00  0.00     0.157 A 
ATOM     16  C   UNL     1     133.310 104.217  93.682  1.00  0.00     0.062 A 
ATOM     17  C   UNL     1     132.413 105.202  94.114  1.00  0.00     0.158 A 
BRANCH  15  18
ATOM     18  O   UNL     1     130.340 105.751  95.335  1.00  0.00    -0.504 OA
ATOM     19  H   UNL     1     129.649 106.197  94.749  1.00  0.00     0.293 HD
ENDBRANCH  15  18
BRANCH  17  20
ATOM     20  O   UNL     1     132.687 106.528  93.775  1.00  0.00    -0.504 OA
ATOM     21  H   UNL     1     132.024 107.284  93.867  1.00  0.00     0.293 HD
ENDBRANCH  17  20
ENDBRANCH   1  12
BRANCH   6  22
ATOM     22  O   UNL     1     136.992  98.200  91.267  1.00  0.00    -0.507 OA
ATOM     23  H   UNL     1     137.161  98.611  90.362  1.00  0.00     0.293 HD
ENDBRANCH   6  22
BRANCH   8  24
ATOM     24  O   UNL     1     138.773  98.808  95.667  1.00  0.00    -0.508 OA
ATOM     25  H   UNL     1     139.767  98.821  95.462  1.00  0.00     0.293 HD
ENDBRANCH   8  24
TORSDOF 5
ENDMDL
MODEL 5
REMARK VINA RESULT:    -5.706      2.632      3.232
REMARK INTER + INTRA:          -6.973
REMARK INTER:                  -6.657
REMARK INTRA:                  -0.315
REMARK UNBOUND:                -0.265
REMARK SMILES O=c1cc(-c2ccc(O)c(O)c2)oc2cc(O)cc(O)c12
REMARK SMILES IDX 4 1 3 2 2 3 1 4 21 5 19 6 18 7 16 8 15 9 14 10 13 11 5 12
REMARK SMILES IDX 6 13 7 14 8 15 12 16 10 17 9 18 11 20 20 22 17 24
REMARK H PARENT 9 19 11 21 20 23 17 25
REMARK Flexibility Score: inf
ROOT
ATOM      1  C   UNL     1     134.953 101.213  92.941  1.00  0.00     0.138 A 
ATOM      2  C   UNL     1     135.784 101.968  93.780  1.00  0.00     0.100 A 
ATOM      3  C   UNL     1     135.220 102.903  94.650  1.00  0.00     0.197 A 
ATOM      4  O   UNL     1     135.995 103.610  95.346  1.00  0.00    -0.289 OA
ATOM      5  C   UNL     1     133.814 103.060  94.700  1.00  0.00     0.107 A 
ATOM      6  C   UNL     1     133.127 103.953  95.576  1.00  0.00     0.134 A 
ATOM      7  C   UNL     1     131.740 104.107  95.454  1.00  0.00     0.093 A 
ATOM      8  C   UNL     1     131.010 103.358  94.533  1.00  0.00     0.123 A 
ATOM      9  C   UNL     1     131.665 102.442  93.708  1.00  0.00     0.094 A 
ATOM     10  C   UNL     1     133.052 102.290  93.781  1.00  0.00     0.146 A 
ATOM     11  O   UNL     1     133.640 101.419  92.969  1.00  0.00    -0.456 OA
ENDROOT
BRANCH   1  12
ATOM     12  C   UNL     1     135.499 100.205  91.999  1.00  0.00     0.021 A 
ATOM     13  C   UNL     1     136.870 100.151  91.687  1.00  0.00     0.016 A 
ATOM     14  C   UNL     1     137.357  99.184  90.805  1.00  0.00     0.051 A 
ATOM     15  C   UNL     1     136.496  98.249  90.221  1.00  0.00     0.157 A 
ATOM     16  C   UNL     1     134.637  99.255  91.424  1.00  0.00     0.062 A 
ATOM     17  C   UNL     1     135.118  98.284  90.537  1.00  0.00     0.158 A 
BRANCH  15  18
ATOM     18  O   UNL     1     137.048  97.311  89.346  1.00  0.00    -0.504 OA
ATOM     19  H   UNL     1     137.784  96.667  89.600  1.00  0.00     0.293 HD
ENDBRANCH  15  18
BRANCH  17  20
ATOM     20  O   UNL     1     134.199  97.381  90.000  1.00  0.00    -0.504 OA
ATOM     21  H   UNL     1     133.990  97.306  89.014  1.00  0.00     0.293 HD
ENDBRANCH  17  20
ENDBRANCH   1  12
BRANCH   6  22
ATOM     22  O   UNL     1     133.750 104.687  96.590  1.00  0.00    -0.507 OA
ATOM     23  H   UNL     1     133.307 104.974  97.450  1.00  0.00     0.293 HD
ENDBRANCH   6  22
BRANCH   8  24
ATOM     24  O   UNL     1     129.630 103.527  94.450  1.00  0.00    -0.508 OA
ATOM     25  H   UNL     1     129.075 103.031  93.761  1.00  0.00     0.293 HD
ENDBRANCH   8  24
TORSDOF 5
ENDMDL
MODEL 6
REMARK VINA RESULT:    -5.650      4.507      6.259
REMARK INTER + INTRA:          -6.906
REMARK INTER:                  -6.642
REMARK INTRA:                  -0.265
REMARK UNBOUND:                -0.265
REMARK SMILES O=c1cc(-c2ccc(O)c(O)c2)oc2cc(O)cc(O)c12
REMARK SMILES IDX 4 1 3 2 2 3 1 4 21 5 19 6 18 7 16 8 15 9 14 10 13 11 5 12
REMARK SMILES IDX 6 13 7 14 8 15 12 16 10 17 9 18 11 20 20 22 17 24
REMARK H PARENT 9 19 11 21 20 23 17 25
REMARK Flexibility Score: inf
ROOT
ATOM      1  C   UNL     1     136.023  99.314  92.042  1.00  0.00     0.138 A 
ATOM      2  C   UNL     1     136.876  99.931  91.117  1.00  0.00     0.100 A 
ATOM      3  C   UNL     1     138.044 100.553  91.563  1.00  0.00     0.197 A 
ATOM      4  O   UNL     1     138.758 101.152  90.718  1.00  0.00    -0.289 OA
ATOM      5  C   UNL     1     138.373 100.527  92.940  1.00  0.00     0.107 A 
ATOM      6  C   UNL     1     139.556 101.093  93.503  1.00  0.00     0.134 A 
ATOM      7  C   UNL     1     139.717 101.109  94.894  1.00  0.00     0.093 A 
ATOM      8  C   UNL     1     138.771 100.529  95.737  1.00  0.00     0.123 A 
ATOM      9  C   UNL     1     137.635  99.926  95.194  1.00  0.00     0.094 A 
ATOM     10  C   UNL     1     137.428  99.923  93.812  1.00  0.00     0.146 A 
ATOM     11  O   UNL     1     136.327  99.352  93.335  1.00  0.00    -0.456 OA
ENDROOT
BRANCH   1  12
ATOM     12  C   UNL     1     134.770  98.638  91.622  1.00  0.00     0.021 A 
ATOM     13  C   UNL     1     133.576  99.354  91.421  1.00  0.00     0.016 A 
ATOM     14  C   UNL     1     132.414  98.692  91.015  1.00  0.00     0.051 A 
ATOM     15  C   UNL     1     132.418  97.311  90.793  1.00  0.00     0.157 A 
ATOM     16  C   UNL     1     134.777  97.253  91.383  1.00  0.00     0.062 A 
ATOM     17  C   UNL     1     133.616  96.582  90.978  1.00  0.00     0.158 A 
BRANCH  15  18
ATOM     18  O   UNL     1     131.222  96.713  90.391  1.00  0.00    -0.504 OA
ATOM     19  H   UNL     1     130.611  97.093  89.682  1.00  0.00     0.293 HD
ENDBRANCH  15  18
BRANCH  17  20
ATOM     20  O   UNL     1     133.698  95.204  90.770  1.00  0.00    -0.504 OA
ATOM     21  H   UNL     1     133.302  94.514  91.392  1.00  0.00     0.293 HD
ENDBRANCH  17  20
ENDBRANCH   1  12
BRANCH   6  22
ATOM     22  O   UNL     1     140.605 101.623  92.747  1.00  0.00    -0.507 OA
ATOM     23  H   UNL     1     140.560 102.482  92.220  1.00  0.00     0.293 HD
ENDBRANCH   6  22
BRANCH   8  24
ATOM     24  O   UNL     1     138.972 100.551  97.115  1.00  0.00    -0.508 OA
ATOM     25  H   UNL     1     139.667  99.961  97.559  1.00  0.00     0.293 HD
ENDBRANCH   8  24
TORSDOF 5
ENDMDL
MODEL 7
REMARK VINA RESULT:    -5.582      2.152      3.337
REMARK INTER + INTRA:          -6.827
REMARK INTER:                  -6.548
REMARK INTRA:                  -0.279
REMARK UNBOUND:                -0.265
REMARK SMILES O=c1cc(-c2ccc(O)c(O)c2)oc2cc(O)cc(O)c12
REMARK SMILES IDX 4 1 3 2 2 3 1 4 21 5 19 6 18 7 16 8 15 9 14 10 13 11 5 12
REMARK SMILES IDX 6 13 7 14 8 15 12 16 10 17 9 18 11 20 20 22 17 24
REMARK H PARENT 9 19 11 21 20 23 17 25
REMARK Flexibility Score: inf
ROOT
ATOM      1  C   UNL     1     134.617 102.075  94.363  1.00  0.00     0.138 A 
ATOM      2  C   UNL     1     134.082 102.934  95.332  1.00  0.00     0.100 A 
ATOM      3  C   UNL     1     132.739 103.309  95.256  1.00  0.00     0.197 A 
ATOM      4  O   UNL     1     132.304 104.131  96.103  1.00  0.00    -0.289 OA
ATOM      5  C   UNL     1     131.922 102.794  94.222  1.00  0.00     0.107 A 
ATOM      6  C   UNL     1     130.531 103.075  94.069  1.00  0.00     0.134 A 
ATOM      7  C   UNL     1     129.852 102.602  92.939  1.00  0.00     0.093 A 
ATOM      8  C   UNL     1     130.496 101.809  91.991  1.00  0.00     0.123 A 
ATOM      9  C   UNL     1     131.843 101.483  92.157  1.00  0.00     0.094 A 
ATOM     10  C   UNL     1     132.557 101.969  93.255  1.00  0.00     0.146 A 
ATOM     11  O   UNL     1     133.841 101.649  93.371  1.00  0.00    -0.456 OA
ENDROOT
BRANCH   1  12
ATOM     12  C   UNL     1     136.037 101.644  94.396  1.00  0.00     0.021 A 
ATOM     13  C   UNL     1     137.092 102.573  94.367  1.00  0.00     0.016 A 
ATOM     14  C   UNL     1     138.419 102.139  94.411  1.00  0.00     0.051 A 
ATOM     15  C   UNL     1     138.723 100.776  94.492  1.00  0.00     0.157 A 
ATOM     16  C   UNL     1     136.343 100.276  94.493  1.00  0.00     0.062 A 
ATOM     17  C   UNL     1     137.671  99.832  94.535  1.00  0.00     0.158 A 
BRANCH  15  18
ATOM     18  O   UNL     1     140.070 100.410  94.529  1.00  0.00    -0.504 OA
ATOM     19  H   UNL     1     140.398  99.458  94.453  1.00  0.00     0.293 HD
ENDBRANCH  15  18
BRANCH  17  20
ATOM     20  O   UNL     1     137.896  98.457  94.621  1.00  0.00    -0.504 OA
ATOM     21  H   UNL     1     138.785  98.017  94.432  1.00  0.00     0.293 HD
ENDBRANCH  17  20
ENDBRANCH   1  12
BRANCH   6  22
ATOM     22  O   UNL     1     129.770 103.786  95.002  1.00  0.00    -0.507 OA
ATOM     23  H   UNL     1     130.030 103.933  95.966  1.00  0.00     0.293 HD
ENDBRANCH   6  22
BRANCH   8  24
ATOM     24  O   UNL     1     129.785 101.344  90.887  1.00  0.00    -0.508 OA
ATOM     25  H   UNL     1     129.576 101.946  90.098  1.00  0.00     0.293 HD
ENDBRANCH   8  24
TORSDOF 5
ENDMDL
MODEL 8
REMARK VINA RESULT:    -5.483      2.225      6.932
REMARK INTER + INTRA:          -6.710
REMARK INTER:                  -6.395
REMARK INTRA:                  -0.316
REMARK UNBOUND:                -0.265
REMARK SMILES O=c1cc(-c2ccc(O)c(O)c2)oc2cc(O)cc(O)c12
REMARK SMILES IDX 4 1 3 2 2 3 1 4 21 5 19 6 18 7 16 8 15 9 14 10 13 11 5 12
REMARK SMILES IDX 6 13 7 14 8 15 12 16 10 17 9 18 11 20 20 22 17 24
REMARK H PARENT 9 19 11 21 20 23 17 25
REMARK Flexibility Score: inf
ROOT
ATOM      1  C   UNL     1     135.306 102.857  94.488  1.00  0.00     0.138 A 
ATOM      2  C   UNL     1     135.761 101.533  94.543  1.00  0.00     0.100 A 
ATOM      3  C   UNL     1     137.118 101.261  94.362  1.00  0.00     0.197 A 
ATOM      4  O   UNL     1     137.486 100.058  94.354  1.00  0.00    -0.289 OA
ATOM      5  C   UNL     1     138.027 102.326  94.155  1.00  0.00     0.107 A 
ATOM      6  C   UNL     1     139.437 102.171  93.998  1.00  0.00     0.134 A 
ATOM      7  C   UNL     1     140.223 103.287  93.683  1.00  0.00     0.093 A 
ATOM      8  C   UNL     1     139.660 104.557  93.579  1.00  0.00     0.123 A 
ATOM      9  C   UNL     1     138.290 104.729  93.783  1.00  0.00     0.094 A 
ATOM     10  C   UNL     1     137.475 103.631  94.065  1.00  0.00     0.146 A 
ATOM     11  O   UNL     1     136.173 103.833  94.238  1.00  0.00    -0.456 OA
ENDROOT
BRANCH   1  12
ATOM     12  C   UNL     1     133.874 103.203  94.675  1.00  0.00     0.021 A 
ATOM     13  C   UNL     1     132.963 102.294  95.242  1.00  0.00     0.016 A 
ATOM     14  C   UNL     1     131.624 102.651  95.416  1.00  0.00     0.051 A 
ATOM     15  C   UNL     1     131.165 103.916  95.037  1.00  0.00     0.157 A 
ATOM     16  C   UNL     1     133.416 104.480  94.308  1.00  0.00     0.062 A 
ATOM     17  C   UNL     1     132.075 104.844  94.477  1.00  0.00     0.158 A 
BRANCH  15  18
ATOM     18  O   UNL     1     129.814 104.207  95.235  1.00  0.00    -0.504 OA
ATOM     19  H   UNL     1     129.464 105.122  95.479  1.00  0.00     0.293 HD
ENDBRANCH  15  18
BRANCH  17  20
ATOM     20  O   UNL     1     131.693 106.127  94.080  1.00  0.00    -0.504 OA
ATOM     21  H   UNL     1     130.828 106.570  94.357  1.00  0.00     0.293 HD
ENDBRANCH  17  20
ENDBRANCH   1  12
BRANCH   6  22
ATOM     22  O   UNL     1     140.114 100.958  94.166  1.00  0.00    -0.507 OA
ATOM     23  H   UNL     1     139.941 100.122  93.629  1.00  0.00     0.293 HD
ENDBRANCH   6  22
BRANCH   8  24
ATOM     24  O   UNL     1     140.475 105.647  93.278  1.00  0.00    -0.508 OA
ATOM     25  H   UNL     1     140.960 105.717  92.390  1.00  0.00     0.293 HD
ENDBRANCH   8  24
TORSDOF 5
ENDMDL
MODEL 9
REMARK VINA RESULT:    -5.457      2.838      6.787
REMARK INTER + INTRA:          -6.680
REMARK INTER:                  -6.399
REMARK INTRA:                  -0.280
REMARK UNBOUND:                -0.265
REMARK SMILES O=c1cc(-c2ccc(O)c(O)c2)oc2cc(O)cc(O)c12
REMARK SMILES IDX 4 1 3 2 2 3 1 4 21 5 19 6 18 7 16 8 15 9 14 10 13 11 5 12
REMARK SMILES IDX 6 13 7 14 8 15 12 16 10 17 9 18 11 20 20 22 17 24
REMARK H PARENT 9 19 11 21 20 23 17 25
REMARK Flexibility Score: inf
ROOT
ATOM      1  C   UNL     1     134.622 101.513  92.879  1.00  0.00     0.138 A 
ATOM      2  C   UNL     1     135.945 101.947  92.716  1.00  0.00     0.100 A 
ATOM      3  C   UNL     1     136.832 101.186  91.953  1.00  0.00     0.197 A 
ATOM      4  O   UNL     1     138.028 101.568  91.877  1.00  0.00    -0.289 OA
ATOM      5  C   UNL     1     136.381 100.001  91.324  1.00  0.00     0.107 A 
ATOM      6  C   UNL     1     137.185  99.167  90.490  1.00  0.00     0.134 A 
ATOM      7  C   UNL     1     136.663  97.957  90.017  1.00  0.00     0.093 A 
ATOM      8  C   UNL     1     135.351  97.580  90.296  1.00  0.00     0.123 A 
ATOM      9  C   UNL     1     134.538  98.413  91.067  1.00  0.00     0.094 A 
ATOM     10  C   UNL     1     135.040  99.610  91.582  1.00  0.00     0.146 A 
ATOM     11  O   UNL     1     134.239 100.368  92.324  1.00  0.00    -0.456 OA
ENDROOT
BRANCH   1  12
ATOM     12  C   UNL     1     133.638 102.284  93.680  1.00  0.00     0.021 A 
ATOM     13  C   UNL     1     132.288 102.380  93.297  1.00  0.00     0.016 A 
ATOM     14  C   UNL     1     131.382 103.103  94.076  1.00  0.00     0.051 A 
ATOM     15  C   UNL     1     131.795 103.739  95.251  1.00  0.00     0.157 A 
ATOM     16  C   UNL     1     134.050 102.909  94.869  1.00  0.00     0.062 A 
ATOM     17  C   UNL     1     133.148 103.639  95.654  1.00  0.00     0.158 A 
BRANCH  15  18
ATOM     18  O   UNL     1     130.839 104.448  95.981  1.00  0.00    -0.504 OA
ATOM     19  H   UNL     1     129.871 104.172  96.059  1.00  0.00     0.293 HD
ENDBRANCH  15  18
BRANCH  17  20
ATOM     20  O   UNL     1     133.634 104.239  96.816  1.00  0.00    -0.504 OA
ATOM     21  H   UNL     1     134.354 103.840  97.401  1.00  0.00     0.293 HD
ENDBRANCH  17  20
ENDBRANCH   1  12
BRANCH   6  22
ATOM     22  O   UNL     1     138.481  99.492  90.079  1.00  0.00    -0.507 OA
ATOM     23  H   UNL     1     139.201  99.865  90.680  1.00  0.00     0.293 HD
ENDBRANCH   6  22
BRANCH   8  24
ATOM     24  O   UNL     1     134.861  96.375  89.796  1.00  0.00    -0.508 OA
ATOM     25  H   UNL     1     134.034  96.341  89.210  1.00  0.00     0.293 HD
ENDBRANCH   8  24
TORSDOF 5
ENDMDL
