MODEL 1
REMARK VINA RESULT:    -1.704      0.000      0.000
REMARK INTER + INTRA:          -3.746
REMARK INTER:                  -3.297
REMARK INTRA:                  -0.449
REMARK UNBOUND:                -0.449
REMARK SMILES CCCCCCCCCCCCCCCCCC(=O)[O-]
REMARK SMILES IDX 10 1 11 2 12 3 13 4 14 5 15 6 16 7 17 8 18 9 19 10 20 11
REMARK SMILES IDX 9 12 8 13 7 14 6 15 5 16 4 17 3 18 2 19 1 20
REMARK H PARENT
REMARK Flexibility Score: inf
ROOT
ATOM      1  C   UNL     1     -13.769  -4.167 -17.152  1.00  0.00     0.000 C 
ENDROOT
BRANCH   1   2
ATOM      2  C   UNL     1     -14.106  -4.169 -15.656  1.00  0.00     0.000 C 
BRANCH   2   3
ATOM      3  C   UNL     1     -14.034  -2.754 -15.073  1.00  0.00     0.000 C 
BRANCH   3   4
ATOM      4  C   UNL     1     -12.580  -2.314 -14.870  1.00  0.00     0.000 C 
BRANCH   4   5
ATOM      5  C   UNL     1     -12.175  -2.417 -13.391  1.00  0.00     0.000 C 
BRANCH   5   6
ATOM      6  C   UNL     1     -12.854  -3.592 -12.664  1.00  0.00     0.000 C 
BRANCH   6   7
ATOM      7  C   UNL     1     -12.335  -3.862 -11.240  1.00  0.00     0.006 C 
BRANCH   7   8
ATOM      8  C   UNL     1     -13.461  -3.985 -10.206  1.00  0.00     0.053 C 
BRANCH   8   9
ATOM      9  C   UNL     1     -13.356  -5.284  -9.471  1.00  0.00     0.041 C 
ATOM     10  O   UNL     1     -12.232  -5.712  -9.097  1.00  0.00    -0.550 OA
ATOM     11  O   UNL     1     -14.494  -6.047  -9.240  1.00  0.00    -0.550 OA
ENDBRANCH   8   9
ENDBRANCH   7   8
ENDBRANCH   6   7
ENDBRANCH   5   6
ENDBRANCH   4   5
ENDBRANCH   3   4
ENDBRANCH   2   3
ENDBRANCH   1   2
BRANCH   1  12
ATOM     12  C   UNL     1     -13.767  -5.595 -17.717  1.00  0.00     0.000 C 
BRANCH  12  13
ATOM     13  C   UNL     1     -14.062  -5.642 -19.228  1.00  0.00    -0.000 C 
BRANCH  13  14
ATOM     14  C   UNL     1     -15.244  -6.542 -19.633  1.00  0.00    -0.000 C 
BRANCH  14  15
ATOM     15  C   UNL     1     -16.509  -5.746 -19.989  1.00  0.00    -0.000 C 
BRANCH  15  16
ATOM     16  C   UNL     1     -16.537  -5.404 -21.487  1.00  0.00    -0.000 C 
BRANCH  16  17
ATOM     17  C   UNL     1     -17.127  -6.536 -22.344  1.00  0.00    -0.000 C 
BRANCH  17  18
ATOM     18  C   UNL     1     -16.827  -6.360 -23.843  1.00  0.00    -0.000 C 
BRANCH  18  19
ATOM     19  C   UNL     1     -16.494  -7.690 -24.536  1.00  0.00    -0.003 C 
ATOM     20  C   UNL     1     -15.909  -7.500 -25.935  1.00  0.00     0.004 C 
ENDBRANCH  18  19
ENDBRANCH  17  18
ENDBRANCH  16  17
ENDBRANCH  15  16
ENDBRANCH  14  15
ENDBRANCH  13  14
ENDBRANCH  12  13
ENDBRANCH   1  12
TORSDOF 16
ENDMDL
MODEL 2
REMARK VINA RESULT:    -1.509      5.394     11.359
REMARK INTER + INTRA:          -3.369
REMARK INTER:                  -2.834
REMARK INTRA:                  -0.536
REMARK UNBOUND:                -0.449
REMARK SMILES CCCCCCCCCCCCCCCCCC(=O)[O-]
REMARK SMILES IDX 10 1 11 2 12 3 13 4 14 5 15 6 16 7 17 8 18 9 19 10 20 11
REMARK SMILES IDX 9 12 8 13 7 14 6 15 5 16 4 17 3 18 2 19 1 20
REMARK H PARENT
REMARK Flexibility Score: inf
ROOT
ATOM      1  C   UNL     1     -14.513  -5.055 -17.847  1.00  0.00     0.000 C 
ENDROOT
BRANCH   1   2
ATOM      2  C   UNL     1     -13.547  -5.795 -18.780  1.00  0.00     0.000 C 
BRANCH   2   3
ATOM      3  C   UNL     1     -14.219  -6.129 -20.117  1.00  0.00     0.000 C 
BRANCH   3   4
ATOM      4  C   UNL     1     -15.548  -5.379 -20.268  1.00  0.00     0.000 C 
BRANCH   4   5
ATOM      5  C   UNL     1     -16.619  -6.280 -20.900  1.00  0.00     0.000 C 
BRANCH   5   6
ATOM      6  C   UNL     1     -16.986  -5.860 -22.336  1.00  0.00     0.000 C 
BRANCH   6   7
ATOM      7  C   UNL     1     -17.039  -7.011 -23.356  1.00  0.00     0.006 C 
BRANCH   7   8
ATOM      8  C   UNL     1     -16.623  -6.580 -24.768  1.00  0.00     0.053 C 
BRANCH   8   9
ATOM      9  C   UNL     1     -16.093  -7.748 -25.537  1.00  0.00     0.041 C 
ATOM     10  O   UNL     1     -15.813  -7.629 -26.758  1.00  0.00    -0.550 OA
ATOM     11  O   UNL     1     -15.956  -8.984 -24.917  1.00  0.00    -0.550 OA
ENDBRANCH   8   9
ENDBRANCH   7   8
ENDBRANCH   6   7
ENDBRANCH   5   6
ENDBRANCH   4   5
ENDBRANCH   3   4
ENDBRANCH   2   3
ENDBRANCH   1   2
BRANCH   1  12
ATOM     12  C   UNL     1     -13.790  -4.565 -16.584  1.00  0.00     0.000 C 
BRANCH  12  13
ATOM     13  C   UNL     1     -14.053  -3.078 -16.281  1.00  0.00    -0.000 C 
BRANCH  13  14
ATOM     14  C   UNL     1     -12.816  -2.275 -15.837  1.00  0.00    -0.000 C 
BRANCH  14  15
ATOM     15  C   UNL     1     -12.689  -2.165 -14.309  1.00  0.00    -0.000 C 
BRANCH  15  16
ATOM     16  C   UNL     1     -13.502  -3.266 -13.612  1.00  0.00    -0.000 C 
BRANCH  16  17
ATOM     17  C   UNL     1     -12.647  -4.131 -12.672  1.00  0.00    -0.000 C 
BRANCH  17  18
ATOM     18  C   UNL     1     -12.673  -3.627 -11.218  1.00  0.00    -0.000 C 
BRANCH  18  19
ATOM     19  C   UNL     1     -14.026  -3.877 -10.533  1.00  0.00    -0.003 C 
ATOM     20  C   UNL     1     -13.881  -4.291  -9.069  1.00  0.00     0.004 C 
ENDBRANCH  18  19
ENDBRANCH  17  18
ENDBRANCH  16  17
ENDBRANCH  15  16
ENDBRANCH  14  15
ENDBRANCH  13  14
ENDBRANCH  12  13
ENDBRANCH   1  12
TORSDOF 16
ENDMDL
MODEL 3
REMARK VINA RESULT:    -1.457      1.993      3.073
REMARK INTER + INTRA:          -3.268
REMARK INTER:                  -2.761
REMARK INTRA:                  -0.507
REMARK UNBOUND:                -0.449
REMARK SMILES CCCCCCCCCCCCCCCCCC(=O)[O-]
REMARK SMILES IDX 10 1 11 2 12 3 13 4 14 5 15 6 16 7 17 8 18 9 19 10 20 11
REMARK SMILES IDX 9 12 8 13 7 14 6 15 5 16 4 17 3 18 2 19 1 20
REMARK H PARENT
REMARK Flexibility Score: inf
ROOT
ATOM      1  C   UNL     1     -13.970  -2.550 -15.984  1.00  0.00     0.000 C 
ENDROOT
BRANCH   1   2
ATOM      2  C   UNL     1     -13.008  -1.845 -15.020  1.00  0.00     0.000 C 
BRANCH   2   3
ATOM      3  C   UNL     1     -12.604  -2.772 -13.868  1.00  0.00     0.000 C 
BRANCH   3   4
ATOM      4  C   UNL     1     -13.830  -3.215 -13.062  1.00  0.00     0.000 C 
BRANCH   4   5
ATOM      5  C   UNL     1     -13.428  -4.176 -11.932  1.00  0.00     0.000 C 
BRANCH   5   6
ATOM      6  C   UNL     1     -12.192  -3.697 -11.148  1.00  0.00     0.000 C 
BRANCH   6   7
ATOM      7  C   UNL     1     -12.199  -4.043  -9.649  1.00  0.00     0.006 C 
BRANCH   7   8
ATOM      8  C   UNL     1     -13.609  -4.291  -9.098  1.00  0.00     0.053 C 
BRANCH   8   9
ATOM      9  C   UNL     1     -13.867  -5.759  -8.962  1.00  0.00     0.041 C 
ATOM     10  O   UNL     1     -15.046  -6.190  -8.875  1.00  0.00    -0.550 OA
ATOM     11  O   UNL     1     -12.801  -6.647  -8.880  1.00  0.00    -0.550 OA
ENDBRANCH   8   9
ENDBRANCH   7   8
ENDBRANCH   6   7
ENDBRANCH   5   6
ENDBRANCH   4   5
ENDBRANCH   3   4
ENDBRANCH   2   3
ENDBRANCH   1   2
BRANCH   1  12
ATOM     12  C   UNL     1     -13.859  -4.076 -15.852  1.00  0.00     0.000 C 
BRANCH  12  13
ATOM     13  C   UNL     1     -14.112  -4.812 -17.181  1.00  0.00    -0.000 C 
BRANCH  13  14
ATOM     14  C   UNL     1     -13.760  -6.311 -17.172  1.00  0.00    -0.000 C 
BRANCH  14  15
ATOM     15  C   UNL     1     -13.465  -6.867 -18.574  1.00  0.00    -0.000 C 
BRANCH  15  16
ATOM     16  C   UNL     1     -13.238  -5.726 -19.578  1.00  0.00    -0.000 C 
BRANCH  16  17
ATOM     17  C   UNL     1     -14.450  -5.493 -20.496  1.00  0.00    -0.000 C 
BRANCH  17  18
ATOM     18  C   UNL     1     -15.476  -6.637 -20.422  1.00  0.00    -0.000 C 
BRANCH  18  19
ATOM     19  C   UNL     1     -16.921  -6.125 -20.320  1.00  0.00    -0.003 C 
ATOM     20  C   UNL     1     -17.067  -4.948 -19.356  1.00  0.00     0.004 C 
ENDBRANCH  18  19
ENDBRANCH  17  18
ENDBRANCH  16  17
ENDBRANCH  15  16
ENDBRANCH  14  15
ENDBRANCH  13  14
ENDBRANCH  12  13
ENDBRANCH   1  12
TORSDOF 16
ENDMDL
MODEL 4
REMARK VINA RESULT:    -1.433      4.054     10.140
REMARK INTER + INTRA:          -3.223
REMARK INTER:                  -2.534
REMARK INTRA:                  -0.689
REMARK UNBOUND:                -0.449
REMARK SMILES CCCCCCCCCCCCCCCCCC(=O)[O-]
REMARK SMILES IDX 10 1 11 2 12 3 13 4 14 5 15 6 16 7 17 8 18 9 19 10 20 11
REMARK SMILES IDX 9 12 8 13 7 14 6 15 5 16 4 17 3 18 2 19 1 20
REMARK H PARENT
REMARK Flexibility Score: inf
ROOT
ATOM      1  C   UNL     1     -13.746  -1.680 -15.943  1.00  0.00     0.000 C 
ENDROOT
BRANCH   1   2
ATOM      2  C   UNL     1     -14.415  -3.060 -15.940  1.00  0.00     0.000 C 
BRANCH   2   3
ATOM      3  C   UNL     1     -13.761  -3.991 -16.966  1.00  0.00     0.000 C 
BRANCH   3   4
ATOM      4  C   UNL     1     -13.802  -5.449 -16.493  1.00  0.00     0.000 C 
BRANCH   4   5
ATOM      5  C   UNL     1     -13.677  -6.417 -17.679  1.00  0.00     0.000 C 
BRANCH   5   6
ATOM      6  C   UNL     1     -13.082  -5.753 -18.935  1.00  0.00     0.000 C 
BRANCH   6   7
ATOM      7  C   UNL     1     -14.014  -5.728 -20.160  1.00  0.00     0.006 C 
BRANCH   7   8
ATOM      8  C   UNL     1     -15.256  -6.611 -19.985  1.00  0.00     0.053 C 
BRANCH   8   9
ATOM      9  C   UNL     1     -16.494  -5.847 -20.337  1.00  0.00     0.041 C 
ATOM     10  O   UNL     1     -16.966  -5.001 -19.533  1.00  0.00    -0.550 OA
ATOM     11  O   UNL     1     -17.155  -6.106 -21.531  1.00  0.00    -0.550 OA
ENDBRANCH   8   9
ENDBRANCH   7   8
ENDBRANCH   6   7
ENDBRANCH   5   6
ENDBRANCH   4   5
ENDBRANCH   3   4
ENDBRANCH   2   3
ENDBRANCH   1   2
BRANCH   1  12
ATOM     12  C   UNL     1     -12.968  -1.442 -14.640  1.00  0.00     0.000 C 
BRANCH  12  13
ATOM     13  C   UNL     1     -12.327  -2.726 -14.081  1.00  0.00    -0.000 C 
BRANCH  13  14
ATOM     14  C   UNL     1     -11.967  -2.676 -12.585  1.00  0.00    -0.000 C 
BRANCH  14  15
ATOM     15  C   UNL     1     -12.257  -3.997 -11.853  1.00  0.00    -0.000 C 
BRANCH  15  16
ATOM     16  C   UNL     1     -13.527  -3.880 -10.996  1.00  0.00    -0.000 C 
BRANCH  16  17
ATOM     17  C   UNL     1     -13.219  -3.646  -9.508  1.00  0.00    -0.000 C 
BRANCH  17  18
ATOM     18  C   UNL     1     -12.303  -4.730  -8.916  1.00  0.00    -0.000 C 
BRANCH  18  19
ATOM     19  C   UNL     1     -12.975  -6.112  -8.877  1.00  0.00    -0.003 C 
ATOM     20  C   UNL     1     -14.500  -6.031  -8.919  1.00  0.00     0.004 C 
ENDBRANCH  18  19
ENDBRANCH  17  18
ENDBRANCH  16  17
ENDBRANCH  15  16
ENDBRANCH  14  15
ENDBRANCH  13  14
ENDBRANCH  12  13
ENDBRANCH   1  12
TORSDOF 16
ENDMDL
MODEL 5
REMARK VINA RESULT:    -0.847      3.273      6.222
REMARK INTER + INTRA:          -2.088
REMARK INTER:                  -1.461
REMARK INTRA:                  -0.626
REMARK UNBOUND:                -0.449
REMARK SMILES CCCCCCCCCCCCCCCCCC(=O)[O-]
REMARK SMILES IDX 10 1 11 2 12 3 13 4 14 5 15 6 16 7 17 8 18 9 19 10 20 11
REMARK SMILES IDX 9 12 8 13 7 14 6 15 5 16 4 17 3 18 2 19 1 20
REMARK H PARENT
REMARK Flexibility Score: inf
ROOT
ATOM      1  C   UNL     1     -16.751  -5.837 -22.534  1.00  0.00     0.000 C 
ENDROOT
BRANCH   1   2
ATOM      2  C   UNL     1     -16.930  -6.345 -21.099  1.00  0.00     0.000 C 
BRANCH   2   3
ATOM      3  C   UNL     1     -16.082  -5.530 -20.116  1.00  0.00     0.000 C 
BRANCH   3   4
ATOM      4  C   UNL     1     -14.658  -6.091 -20.019  1.00  0.00     0.000 C 
BRANCH   4   5
ATOM      5  C   UNL     1     -14.132  -6.010 -18.578  1.00  0.00     0.000 C 
BRANCH   5   6
ATOM      6  C   UNL     1     -14.535  -4.708 -17.864  1.00  0.00     0.000 C 
BRANCH   6   7
ATOM      7  C   UNL     1     -13.808  -4.445 -16.533  1.00  0.00     0.006 C 
BRANCH   7   8
ATOM      8  C   UNL     1     -13.828  -2.967 -16.121  1.00  0.00     0.053 C 
BRANCH   8   9
ATOM      9  C   UNL     1     -13.508  -2.825 -14.667  1.00  0.00     0.041 C 
ATOM     10  O   UNL     1     -12.615  -2.022 -14.290  1.00  0.00    -0.550 OA
ATOM     11  O   UNL     1     -14.162  -3.617 -13.730  1.00  0.00    -0.550 OA
ENDBRANCH   8   9
ENDBRANCH   7   8
ENDBRANCH   6   7
ENDBRANCH   5   6
ENDBRANCH   4   5
ENDBRANCH   3   4
ENDBRANCH   2   3
ENDBRANCH   1   2
BRANCH   1  12
ATOM     12  C   UNL     1     -17.067  -6.943 -23.552  1.00  0.00     0.000 C 
BRANCH  12  13
ATOM     13  C   UNL     1     -16.713  -6.547 -24.998  1.00  0.00    -0.000 C 
BRANCH  13  14
ATOM     14  C   UNL     1     -16.056  -7.659 -25.836  1.00  0.00    -0.000 C 
BRANCH  14  15
ATOM     15  C   UNL     1     -15.621  -8.869 -24.992  1.00  0.00    -0.000 C 
BRANCH  15  16
ATOM     16  C   UNL     1     -16.221 -10.169 -25.550  1.00  0.00    -0.000 C 
BRANCH  16  17
ATOM     17  C   UNL     1     -15.581 -11.427 -24.942  1.00  0.00    -0.000 C 
BRANCH  17  18
ATOM     18  C   UNL     1     -16.238 -12.725 -25.443  1.00  0.00    -0.000 C 
BRANCH  18  19
ATOM     19  C   UNL     1     -15.461 -13.980 -25.016  1.00  0.00    -0.003 C 
ATOM     20  C   UNL     1     -14.108 -14.107 -25.716  1.00  0.00     0.004 C 
ENDBRANCH  18  19
ENDBRANCH  17  18
ENDBRANCH  16  17
ENDBRANCH  15  16
ENDBRANCH  14  15
ENDBRANCH  13  14
ENDBRANCH  12  13
ENDBRANCH   1  12
TORSDOF 16
ENDMDL
MODEL 6
REMARK VINA RESULT:    -0.669      5.308      9.408
REMARK INTER + INTRA:          -1.745
REMARK INTER:                  -0.854
REMARK INTRA:                  -0.890
REMARK UNBOUND:                -0.449
REMARK SMILES CCCCCCCCCCCCCCCCCC(=O)[O-]
REMARK SMILES IDX 10 1 11 2 12 3 13 4 14 5 15 6 16 7 17 8 18 9 19 10 20 11
REMARK SMILES IDX 9 12 8 13 7 14 6 15 5 16 4 17 3 18 2 19 1 20
REMARK H PARENT
REMARK Flexibility Score: inf
ROOT
ATOM      1  C   UNL     1     -15.948  -8.541 -26.069  1.00  0.00     0.000 C 
ENDROOT
BRANCH   1   2
ATOM      2  C   UNL     1     -16.061  -7.160 -25.412  1.00  0.00     0.000 C 
BRANCH   2   3
ATOM      3  C   UNL     1     -16.972  -7.209 -24.181  1.00  0.00     0.000 C 
BRANCH   3   4
ATOM      4  C   UNL     1     -16.867  -5.915 -23.366  1.00  0.00     0.000 C 
BRANCH   4   5
ATOM      5  C   UNL     1     -17.185  -6.169 -21.885  1.00  0.00     0.000 C 
BRANCH   5   6
ATOM      6  C   UNL     1     -16.289  -5.361 -20.930  1.00  0.00     0.000 C 
BRANCH   6   7
ATOM      7  C   UNL     1     -16.012  -6.032 -19.573  1.00  0.00     0.006 C 
BRANCH   7   8
ATOM      8  C   UNL     1     -14.633  -6.699 -19.505  1.00  0.00     0.053 C 
BRANCH   8   9
ATOM      9  C   UNL     1     -13.607  -5.730 -19.010  1.00  0.00     0.041 C 
ATOM     10  O   UNL     1     -13.767  -5.145 -17.907  1.00  0.00    -0.550 OA
ATOM     11  O   UNL     1     -12.495  -5.436 -19.790  1.00  0.00    -0.550 OA
ENDBRANCH   8   9
ENDBRANCH   7   8
ENDBRANCH   6   7
ENDBRANCH   5   6
ENDBRANCH   4   5
ENDBRANCH   3   4
ENDBRANCH   2   3
ENDBRANCH   1   2
BRANCH   1  12
ATOM     12  C   UNL     1     -15.626  -9.622 -25.026  1.00  0.00     0.000 C 
BRANCH  12  13
ATOM     13  C   UNL     1     -16.216 -10.998 -25.386  1.00  0.00    -0.000 C 
BRANCH  13  14
ATOM     14  C   UNL     1     -15.328 -12.202 -25.024  1.00  0.00    -0.000 C 
BRANCH  14  15
ATOM     15  C   UNL     1     -15.942 -13.548 -25.441  1.00  0.00    -0.000 C 
BRANCH  15  16
ATOM     16  C   UNL     1     -15.296 -14.708 -24.667  1.00  0.00    -0.000 C 
BRANCH  16  17
ATOM     17  C   UNL     1     -13.822 -14.927 -25.046  1.00  0.00    -0.000 C 
BRANCH  17  18
ATOM     18  C   UNL     1     -13.578 -14.813 -26.561  1.00  0.00    -0.000 C 
BRANCH  18  19
ATOM     19  C   UNL     1     -12.509 -13.764 -26.907  1.00  0.00    -0.003 C 
ATOM     20  C   UNL     1     -11.876 -13.131 -25.668  1.00  0.00     0.004 C 
ENDBRANCH  18  19
ENDBRANCH  17  18
ENDBRANCH  16  17
ENDBRANCH  15  16
ENDBRANCH  14  15
ENDBRANCH  13  14
ENDBRANCH  12  13
ENDBRANCH   1  12
TORSDOF 16
ENDMDL
MODEL 7
REMARK VINA RESULT:    -0.617      3.973      7.214
REMARK INTER + INTRA:          -1.643
REMARK INTER:                  -1.022
REMARK INTRA:                  -0.622
REMARK UNBOUND:                -0.449
REMARK SMILES CCCCCCCCCCCCCCCCCC(=O)[O-]
REMARK SMILES IDX 10 1 11 2 12 3 13 4 14 5 15 6 16 7 17 8 18 9 19 10 20 11
REMARK SMILES IDX 9 12 8 13 7 14 6 15 5 16 4 17 3 18 2 19 1 20
REMARK H PARENT
REMARK Flexibility Score: inf
ROOT
ATOM      1  C   UNL     1     -16.938  -7.111 -23.533  1.00  0.00     0.000 C 
ENDROOT
BRANCH   1   2
ATOM      2  C   UNL     1     -16.905  -5.832 -22.688  1.00  0.00     0.000 C 
BRANCH   2   3
ATOM      3  C   UNL     1     -16.779  -6.160 -21.196  1.00  0.00     0.000 C 
BRANCH   3   4
ATOM      4  C   UNL     1     -15.601  -5.408 -20.564  1.00  0.00     0.000 C 
BRANCH   4   5
ATOM      5  C   UNL     1     -15.017  -6.196 -19.382  1.00  0.00     0.000 C 
BRANCH   5   6
ATOM      6  C   UNL     1     -13.753  -5.543 -18.792  1.00  0.00     0.000 C 
BRANCH   6   7
ATOM      7  C   UNL     1     -13.833  -5.211 -17.291  1.00  0.00     0.006 C 
BRANCH   7   8
ATOM      8  C   UNL     1     -14.214  -3.751 -17.020  1.00  0.00     0.053 C 
BRANCH   8   9
ATOM      9  C   UNL     1     -13.597  -3.278 -15.742  1.00  0.00     0.041 C 
ATOM     10  O   UNL     1     -12.677  -2.419 -15.762  1.00  0.00    -0.550 OA
ATOM     11  O   UNL     1     -14.003  -3.823 -14.530  1.00  0.00    -0.550 OA
ENDBRANCH   8   9
ENDBRANCH   7   8
ENDBRANCH   6   7
ENDBRANCH   5   6
ENDBRANCH   4   5
ENDBRANCH   3   4
ENDBRANCH   2   3
ENDBRANCH   1   2
BRANCH   1  12
ATOM     12  C   UNL     1     -16.466  -6.833 -24.968  1.00  0.00     0.000 C 
BRANCH  12  13
ATOM     13  C   UNL     1     -16.154  -8.119 -25.757  1.00  0.00    -0.000 C 
BRANCH  13  14
ATOM     14  C   UNL     1     -15.581  -9.275 -24.917  1.00  0.00    -0.000 C 
BRANCH  14  15
ATOM     15  C   UNL     1     -16.123 -10.650 -25.338  1.00  0.00    -0.000 C 
BRANCH  15  16
ATOM     16  C   UNL     1     -15.137 -11.766 -24.960  1.00  0.00    -0.000 C 
BRANCH  16  17
ATOM     17  C   UNL     1     -15.677 -13.170 -25.279  1.00  0.00    -0.000 C 
BRANCH  17  18
ATOM     18  C   UNL     1     -14.561 -14.224 -25.377  1.00  0.00    -0.000 C 
BRANCH  18  19
ATOM     19  C   UNL     1     -13.165 -13.594 -25.493  1.00  0.00    -0.003 C 
ATOM     20  C   UNL     1     -12.082 -14.612 -25.851  1.00  0.00     0.004 C 
ENDBRANCH  18  19
ENDBRANCH  17  18
ENDBRANCH  16  17
ENDBRANCH  15  16
ENDBRANCH  14  15
ENDBRANCH  13  14
ENDBRANCH  12  13
ENDBRANCH   1  12
TORSDOF 16
ENDMDL
MODEL 8
REMARK VINA RESULT:    -0.608      1.226      2.329
REMARK INTER + INTRA:          -1.626
REMARK INTER:                  -1.011
REMARK INTRA:                  -0.615
REMARK UNBOUND:                -0.449
REMARK SMILES CCCCCCCCCCCCCCCCCC(=O)[O-]
REMARK SMILES IDX 10 1 11 2 12 3 13 4 14 5 15 6 16 7 17 8 18 9 19 10 20 11
REMARK SMILES IDX 9 12 8 13 7 14 6 15 5 16 4 17 3 18 2 19 1 20
REMARK H PARENT
REMARK Flexibility Score: inf
ROOT
ATOM      1  C   UNL     1     -13.759  -5.845 -18.765  1.00  0.00     0.000 C 
ENDROOT
BRANCH   1   2
ATOM      2  C   UNL     1     -13.281  -4.609 -17.994  1.00  0.00     0.000 C 
BRANCH   2   3
ATOM      3  C   UNL     1     -14.148  -4.363 -16.753  1.00  0.00     0.000 C 
BRANCH   3   4
ATOM      4  C   UNL     1     -13.796  -3.026 -16.091  1.00  0.00     0.000 C 
BRANCH   4   5
ATOM      5  C   UNL     1     -13.838  -3.143 -14.560  1.00  0.00     0.000 C 
BRANCH   5   6
ATOM      6  C   UNL     1     -12.588  -2.557 -13.878  1.00  0.00     0.000 C 
BRANCH   6   7
ATOM      7  C   UNL     1     -12.255  -3.159 -12.501  1.00  0.00     0.006 C 
BRANCH   7   8
ATOM      8  C   UNL     1     -13.399  -4.003 -11.925  1.00  0.00     0.053 C 
BRANCH   8   9
ATOM      9  C   UNL     1     -13.373  -3.967 -10.430  1.00  0.00     0.041 C 
ATOM     10  O   UNL     1     -14.449  -3.933  -9.778  1.00  0.00    -0.550 OA
ATOM     11  O   UNL     1     -12.158  -3.922  -9.756  1.00  0.00    -0.550 OA
ENDBRANCH   8   9
ENDBRANCH   7   8
ENDBRANCH   6   7
ENDBRANCH   5   6
ENDBRANCH   4   5
ENDBRANCH   3   4
ENDBRANCH   2   3
ENDBRANCH   1   2
BRANCH   1  12
ATOM     12  C   UNL     1     -15.234  -5.704 -19.169  1.00  0.00     0.000 C 
BRANCH  12  13
ATOM     13  C   UNL     1     -15.439  -5.690 -20.696  1.00  0.00    -0.000 C 
BRANCH  13  14
ATOM     14  C   UNL     1     -16.837  -6.129 -21.169  1.00  0.00    -0.000 C 
BRANCH  14  15
ATOM     15  C   UNL     1     -17.103  -5.796 -22.646  1.00  0.00    -0.000 C 
BRANCH  15  16
ATOM     16  C   UNL     1     -17.027  -7.061 -23.514  1.00  0.00    -0.000 C 
BRANCH  16  17
ATOM     17  C   UNL     1     -16.563  -6.770 -24.950  1.00  0.00    -0.000 C 
BRANCH  17  18
ATOM     18  C   UNL     1     -15.539  -7.797 -25.461  1.00  0.00    -0.000 C 
BRANCH  18  19
ATOM     19  C   UNL     1     -16.199  -9.099 -25.941  1.00  0.00    -0.003 C 
ATOM     20  C   UNL     1     -15.866 -10.297 -25.052  1.00  0.00     0.004 C 
ENDBRANCH  18  19
ENDBRANCH  17  18
ENDBRANCH  16  17
ENDBRANCH  15  16
ENDBRANCH  14  15
ENDBRANCH  13  14
ENDBRANCH  12  13
ENDBRANCH   1  12
TORSDOF 16
ENDMDL
