MODEL 1
REMARK VINA RESULT:    -6.423      0.000      0.000
REMARK INTER + INTRA:          -8.071
REMARK INTER:                  -7.737
REMARK INTRA:                  -0.334
REMARK UNBOUND:                -0.334
REMARK SMILES O=c1c(O)c(-c2ccc(O)c(O)c2)oc2cc(O)cc(O)c12
REMARK SMILES IDX 5 1 3 2 2 3 1 4 22 5 20 6 19 7 17 8 16 9 15 10 14 11 6 12
REMARK SMILES IDX 7 13 8 14 9 15 13 16 11 17 10 18 12 20 4 22 21 24 18 26
REMARK H PARENT 10 19 12 21 4 23 21 25 18 27
REMARK Flexibility Score: inf
ROOT
ATOM      1  C   UNL     1       2.219  26.779  28.649  1.00  0.00     0.180 A 
ATOM      2  C   UNL     1       2.246  26.692  27.246  1.00  0.00     0.208 A 
ATOM      3  C   UNL     1       1.340  25.835  26.600  1.00  0.00     0.238 A 
ATOM      4  O   UNL     1       1.331  25.803  25.342  1.00  0.00    -0.285 OA
ATOM      5  C   UNL     1       0.429  25.066  27.364  1.00  0.00     0.111 A 
ATOM      6  C   UNL     1      -0.505  24.136  26.816  1.00  0.00     0.134 A 
ATOM      7  C   UNL     1      -1.445  23.527  27.657  1.00  0.00     0.093 A 
ATOM      8  C   UNL     1      -1.444  23.763  29.030  1.00  0.00     0.123 A 
ATOM      9  C   UNL     1      -0.496  24.625  29.585  1.00  0.00     0.094 A 
ATOM     10  C   UNL     1       0.432  25.275  28.767  1.00  0.00     0.146 A 
ATOM     11  O   UNL     1       1.310  26.095  29.333  1.00  0.00    -0.452 OA
ENDROOT
BRANCH   1  12
ATOM     12  C   UNL     1       3.159  27.641  29.402  1.00  0.00     0.025 A 
ATOM     13  C   UNL     1       2.773  28.945  29.749  1.00  0.00     0.016 A 
ATOM     14  C   UNL     1       3.636  29.768  30.477  1.00  0.00     0.051 A 
ATOM     15  C   UNL     1       4.889  29.294  30.884  1.00  0.00     0.157 A 
ATOM     16  C   UNL     1       4.410  27.161  29.830  1.00  0.00     0.062 A 
ATOM     17  C   UNL     1       5.275  27.982  30.562  1.00  0.00     0.158 A 
BRANCH  15  18
ATOM     18  O   UNL     1       5.748  30.117  31.610  1.00  0.00    -0.504 OA
ATOM     19  H   UNL     1       5.444  31.013  31.974  1.00  0.00     0.293 HD
ENDBRANCH  15  18
BRANCH  17  20
ATOM     20  O   UNL     1       6.511  27.475  30.965  1.00  0.00    -0.504 OA
ATOM     21  H   UNL     1       6.692  27.196  31.922  1.00  0.00     0.293 HD
ENDBRANCH  17  20
ENDBRANCH   1  12
BRANCH   2  22
ATOM     22  O   UNL     1       3.137  27.477  26.509  1.00  0.00    -0.502 OA
ATOM     23  H   UNL     1       2.830  28.248  25.929  1.00  0.00     0.293 HD
ENDBRANCH   2  22
BRANCH   6  24
ATOM     24  O   UNL     1      -0.533  23.759  25.471  1.00  0.00    -0.507 OA
ATOM     25  H   UNL     1      -0.140  22.904  25.106  1.00  0.00     0.293 HD
ENDBRANCH   6  24
BRANCH   8  26
ATOM     26  O   UNL     1      -2.384  23.128  29.838  1.00  0.00    -0.508 OA
ATOM     27  H   UNL     1      -3.378  23.301  29.732  1.00  0.00     0.293 HD
ENDBRANCH   8  26
TORSDOF 6
ENDMDL
MODEL 2
REMARK VINA RESULT:    -6.371      2.606      6.976
REMARK INTER + INTRA:          -8.009
REMARK INTER:                  -7.693
REMARK INTRA:                  -0.316
REMARK UNBOUND:                -0.334
REMARK SMILES O=c1c(O)c(-c2ccc(O)c(O)c2)oc2cc(O)cc(O)c12
REMARK SMILES IDX 5 1 3 2 2 3 1 4 22 5 20 6 19 7 17 8 16 9 15 10 14 11 6 12
REMARK SMILES IDX 7 13 8 14 9 15 13 16 11 17 10 18 12 20 4 22 21 24 18 26
REMARK H PARENT 10 19 12 21 4 23 21 25 18 27
REMARK Flexibility Score: inf
ROOT
ATOM      1  C   UNL     1      -0.746  24.969  28.927  1.00  0.00     0.180 A 
ATOM      2  C   UNL     1      -0.135  23.779  28.495  1.00  0.00     0.208 A 
ATOM      3  C   UNL     1       1.226  23.797  28.152  1.00  0.00     0.238 A 
ATOM      4  O   UNL     1       1.780  22.717  27.819  1.00  0.00    -0.285 OA
ATOM      5  C   UNL     1       1.956  25.007  28.229  1.00  0.00     0.111 A 
ATOM      6  C   UNL     1       3.330  25.151  27.868  1.00  0.00     0.134 A 
ATOM      7  C   UNL     1       3.983  26.366  28.109  1.00  0.00     0.093 A 
ATOM      8  C   UNL     1       3.300  27.460  28.637  1.00  0.00     0.123 A 
ATOM      9  C   UNL     1       1.941  27.349  28.938  1.00  0.00     0.094 A 
ATOM     10  C   UNL     1       1.270  26.139  28.742  1.00  0.00     0.146 A 
ATOM     11  O   UNL     1      -0.019  26.073  29.052  1.00  0.00    -0.452 OA
ENDROOT
BRANCH   1  12
ATOM     12  C   UNL     1      -2.183  25.033  29.281  1.00  0.00     0.025 A 
ATOM     13  C   UNL     1      -2.586  24.714  30.587  1.00  0.00     0.016 A 
ATOM     14  C   UNL     1      -3.933  24.788  30.950  1.00  0.00     0.051 A 
ATOM     15  C   UNL     1      -4.894  25.198  30.017  1.00  0.00     0.157 A 
ATOM     16  C   UNL     1      -3.148  25.465  28.354  1.00  0.00     0.062 A 
ATOM     17  C   UNL     1      -4.497  25.542  28.714  1.00  0.00     0.158 A 
BRANCH  15  18
ATOM     18  O   UNL     1      -6.238  25.270  30.381  1.00  0.00    -0.504 OA
ATOM     19  H   UNL     1      -6.566  25.933  31.074  1.00  0.00     0.293 HD
ENDBRANCH  15  18
BRANCH  17  20
ATOM     20  O   UNL     1      -5.428  25.969  27.766  1.00  0.00    -0.504 OA
ATOM     21  H   UNL     1      -6.397  26.141  28.004  1.00  0.00     0.293 HD
ENDBRANCH  17  20
ENDBRANCH   1  12
BRANCH   2  22
ATOM     22  O   UNL     1      -0.869  22.589  28.447  1.00  0.00    -0.502 OA
ATOM     23  H   UNL     1      -0.432  21.678  28.518  1.00  0.00     0.293 HD
ENDBRANCH   2  22
BRANCH   6  24
ATOM     24  O   UNL     1       4.083  24.149  27.250  1.00  0.00    -0.507 OA
ATOM     25  H   UNL     1       5.089  24.151  27.175  1.00  0.00     0.293 HD
ENDBRANCH   6  24
BRANCH   8  26
ATOM     26  O   UNL     1       3.979  28.657  28.849  1.00  0.00    -0.508 OA
ATOM     27  H   UNL     1       3.606  29.543  28.526  1.00  0.00     0.293 HD
ENDBRANCH   8  26
TORSDOF 6
ENDMDL
MODEL 3
REMARK VINA RESULT:    -6.224      1.838      2.450
REMARK INTER + INTRA:          -7.832
REMARK INTER:                  -7.546
REMARK INTRA:                  -0.286
REMARK UNBOUND:                -0.334
REMARK SMILES O=c1c(O)c(-c2ccc(O)c(O)c2)oc2cc(O)cc(O)c12
REMARK SMILES IDX 5 1 3 2 2 3 1 4 22 5 20 6 19 7 17 8 16 9 15 10 14 11 6 12
REMARK SMILES IDX 7 13 8 14 9 15 13 16 11 17 10 18 12 20 4 22 21 24 18 26
REMARK H PARENT 10 19 12 21 4 23 21 25 18 27
REMARK Flexibility Score: inf
ROOT
ATOM      1  C   UNL     1       3.278  27.539  29.358  1.00  0.00     0.180 A 
ATOM      2  C   UNL     1       2.816  28.524  28.468  1.00  0.00     0.208 A 
ATOM      3  C   UNL     1       1.949  28.149  27.429  1.00  0.00     0.238 A 
ATOM      4  O   UNL     1       1.495  29.043  26.668  1.00  0.00    -0.285 OA
ATOM      5  C   UNL     1       1.569  26.793  27.282  1.00  0.00     0.111 A 
ATOM      6  C   UNL     1       0.728  26.294  26.243  1.00  0.00     0.134 A 
ATOM      7  C   UNL     1       0.313  24.957  26.272  1.00  0.00     0.093 A 
ATOM      8  C   UNL     1       0.758  24.086  27.265  1.00  0.00     0.123 A 
ATOM      9  C   UNL     1       1.629  24.548  28.254  1.00  0.00     0.094 A 
ATOM     10  C   UNL     1       2.032  25.886  28.271  1.00  0.00     0.146 A 
ATOM     11  O   UNL     1       2.852  26.288  29.235  1.00  0.00    -0.452 OA
ENDROOT
BRANCH   1  12
ATOM     12  C   UNL     1       4.213  27.854  30.463  1.00  0.00     0.025 A 
ATOM     13  C   UNL     1       3.717  28.421  31.647  1.00  0.00     0.016 A 
ATOM     14  C   UNL     1       4.578  28.706  32.710  1.00  0.00     0.051 A 
ATOM     15  C   UNL     1       5.944  28.413  32.611  1.00  0.00     0.157 A 
ATOM     16  C   UNL     1       5.582  27.542  30.376  1.00  0.00     0.062 A 
ATOM     17  C   UNL     1       6.446  27.824  31.439  1.00  0.00     0.158 A 
BRANCH  15  18
ATOM     18  O   UNL     1       6.800  28.700  33.673  1.00  0.00    -0.504 OA
ATOM     19  H   UNL     1       6.668  29.518  34.256  1.00  0.00     0.293 HD
ENDBRANCH  15  18
BRANCH  17  20
ATOM     20  O   UNL     1       7.800  27.507  31.315  1.00  0.00    -0.504 OA
ATOM     21  H   UNL     1       8.446  27.597  32.089  1.00  0.00     0.293 HD
ENDBRANCH  17  20
ENDBRANCH   1  12
BRANCH   2  22
ATOM     22  O   UNL     1       3.185  29.860  28.644  1.00  0.00    -0.502 OA
ATOM     23  H   UNL     1       4.144  30.142  28.808  1.00  0.00     0.293 HD
ENDBRANCH   2  22
BRANCH   6  24
ATOM     24  O   UNL     1       0.299  27.057  25.152  1.00  0.00    -0.507 OA
ATOM     25  H   UNL     1       0.866  27.738  24.669  1.00  0.00     0.293 HD
ENDBRANCH   6  24
BRANCH   8  26
ATOM     26  O   UNL     1       0.337  22.759  27.254  1.00  0.00    -0.508 OA
ATOM     27  H   UNL     1      -0.648  22.515  27.240  1.00  0.00     0.293 HD
ENDBRANCH   8  26
TORSDOF 6
ENDMDL
MODEL 4
REMARK VINA RESULT:    -6.161      3.756      5.258
REMARK INTER + INTRA:          -7.756
REMARK INTER:                  -7.448
REMARK INTRA:                  -0.308
REMARK UNBOUND:                -0.334
REMARK SMILES O=c1c(O)c(-c2ccc(O)c(O)c2)oc2cc(O)cc(O)c12
REMARK SMILES IDX 5 1 3 2 2 3 1 4 22 5 20 6 19 7 17 8 16 9 15 10 14 11 6 12
REMARK SMILES IDX 7 13 8 14 9 15 13 16 11 17 10 18 12 20 4 22 21 24 18 26
REMARK H PARENT 10 19 12 21 4 23 21 25 18 27
REMARK Flexibility Score: inf
ROOT
ATOM      1  C   UNL     1      -0.769  25.438  27.665  1.00  0.00     0.180 A 
ATOM      2  C   UNL     1      -1.162  24.149  27.263  1.00  0.00     0.208 A 
ATOM      3  C   UNL     1      -1.955  23.378  28.128  1.00  0.00     0.238 A 
ATOM      4  O   UNL     1      -2.349  22.248  27.739  1.00  0.00    -0.285 OA
ATOM      5  C   UNL     1      -2.333  23.898  29.389  1.00  0.00     0.111 A 
ATOM      6  C   UNL     1      -3.102  23.189  30.361  1.00  0.00     0.134 A 
ATOM      7  C   UNL     1      -3.527  23.850  31.520  1.00  0.00     0.093 A 
ATOM      8  C   UNL     1      -3.158  25.170  31.774  1.00  0.00     0.123 A 
ATOM      9  C   UNL     1      -2.356  25.854  30.858  1.00  0.00     0.094 A 
ATOM     10  C   UNL     1      -1.947  25.233  29.675  1.00  0.00     0.146 A 
ATOM     11  O   UNL     1      -1.194  25.922  28.826  1.00  0.00    -0.452 OA
ENDROOT
BRANCH   1  12
ATOM     12  C   UNL     1       0.088  26.300  26.819  1.00  0.00     0.025 A 
ATOM     13  C   UNL     1       1.478  26.109  26.824  1.00  0.00     0.016 A 
ATOM     14  C   UNL     1       2.303  26.896  26.018  1.00  0.00     0.051 A 
ATOM     15  C   UNL     1       1.750  27.874  25.181  1.00  0.00     0.157 A 
ATOM     16  C   UNL     1      -0.466  27.268  25.962  1.00  0.00     0.062 A 
ATOM     17  C   UNL     1       0.357  28.056  25.151  1.00  0.00     0.158 A 
BRANCH  15  18
ATOM     18  O   UNL     1       2.576  28.659  24.379  1.00  0.00    -0.504 OA
ATOM     19  H   UNL     1       3.040  29.484  24.741  1.00  0.00     0.293 HD
ENDBRANCH  15  18
BRANCH  17  20
ATOM     20  O   UNL     1      -0.226  29.012  24.318  1.00  0.00    -0.504 OA
ATOM     21  H   UNL     1       0.141  29.952  24.238  1.00  0.00     0.293 HD
ENDBRANCH  17  20
ENDBRANCH   1  12
BRANCH   2  22
ATOM     22  O   UNL     1      -0.797  23.664  26.004  1.00  0.00    -0.502 OA
ATOM     23  H   UNL     1      -1.186  24.033  25.145  1.00  0.00     0.293 HD
ENDBRANCH   2  22
BRANCH   6  24
ATOM     24  O   UNL     1      -3.448  21.839  30.249  1.00  0.00    -0.507 OA
ATOM     25  H   UNL     1      -3.741  21.256  31.019  1.00  0.00     0.293 HD
ENDBRANCH   6  24
BRANCH   8  26
ATOM     26  O   UNL     1      -3.587  25.790  32.945  1.00  0.00    -0.508 OA
ATOM     27  H   UNL     1      -4.560  25.773  33.228  1.00  0.00     0.293 HD
ENDBRANCH   8  26
TORSDOF 6
ENDMDL
MODEL 5
REMARK VINA RESULT:    -6.083      3.079      6.716
REMARK INTER + INTRA:          -7.662
REMARK INTER:                  -7.355
REMARK INTRA:                  -0.307
REMARK UNBOUND:                -0.334
REMARK SMILES O=c1c(O)c(-c2ccc(O)c(O)c2)oc2cc(O)cc(O)c12
REMARK SMILES IDX 5 1 3 2 2 3 1 4 22 5 20 6 19 7 17 8 16 9 15 10 14 11 6 12
REMARK SMILES IDX 7 13 8 14 9 15 13 16 11 17 10 18 12 20 4 22 21 24 18 26
REMARK H PARENT 10 19 12 21 4 23 21 25 18 27
REMARK Flexibility Score: inf
ROOT
ATOM      1  C   UNL     1      -1.498  25.682  28.553  1.00  0.00     0.180 A 
ATOM      2  C   UNL     1      -2.226  26.212  27.473  1.00  0.00     0.208 A 
ATOM      3  C   UNL     1      -1.537  26.900  26.461  1.00  0.00     0.238 A 
ATOM      4  O   UNL     1      -2.186  27.324  25.470  1.00  0.00    -0.285 OA
ATOM      5  C   UNL     1      -0.133  27.061  26.547  1.00  0.00     0.111 A 
ATOM      6  C   UNL     1       0.661  27.774  25.600  1.00  0.00     0.134 A 
ATOM      7  C   UNL     1       2.056  27.759  25.719  1.00  0.00     0.093 A 
ATOM      8  C   UNL     1       2.682  27.113  26.783  1.00  0.00     0.123 A 
ATOM      9  C   UNL     1       1.912  26.463  27.750  1.00  0.00     0.094 A 
ATOM     10  C   UNL     1       0.519  26.431  27.639  1.00  0.00     0.146 A 
ATOM     11  O   UNL     1      -0.176  25.793  28.573  1.00  0.00    -0.452 OA
ENDROOT
BRANCH   1  12
ATOM     12  C   UNL     1      -2.158  24.966  29.670  1.00  0.00     0.025 A 
ATOM     13  C   UNL     1      -2.512  25.674  30.829  1.00  0.00     0.016 A 
ATOM     14  C   UNL     1      -3.154  25.024  31.886  1.00  0.00     0.051 A 
ATOM     15  C   UNL     1      -3.466  23.662  31.794  1.00  0.00     0.157 A 
ATOM     16  C   UNL     1      -2.491  23.603  29.572  1.00  0.00     0.062 A 
ATOM     17  C   UNL     1      -3.136  22.950  30.628  1.00  0.00     0.158 A 
BRANCH  15  18
ATOM     18  O   UNL     1      -4.104  23.016  32.851  1.00  0.00    -0.504 OA
ATOM     19  H   UNL     1      -4.411  23.521  33.674  1.00  0.00     0.293 HD
ENDBRANCH  15  18
BRANCH  17  20
ATOM     20  O   UNL     1      -3.445  21.596  30.499  1.00  0.00    -0.504 OA
ATOM     21  H   UNL     1      -2.951  20.880  31.016  1.00  0.00     0.293 HD
ENDBRANCH  17  20
ENDBRANCH   1  12
BRANCH   2  22
ATOM     22  O   UNL     1      -3.608  26.022  27.395  1.00  0.00    -0.502 OA
ATOM     23  H   UNL     1      -4.109  25.407  28.026  1.00  0.00     0.293 HD
ENDBRANCH   2  22
BRANCH   6  24
ATOM     24  O   UNL     1       0.132  28.529  24.549  1.00  0.00    -0.507 OA
ATOM     25  H   UNL     1      -0.529  29.284  24.660  1.00  0.00     0.293 HD
ENDBRANCH   6  24
BRANCH   8  26
ATOM     26  O   UNL     1       4.072  27.132  26.877  1.00  0.00    -0.508 OA
ATOM     27  H   UNL     1       4.554  27.790  27.480  1.00  0.00     0.293 HD
ENDBRANCH   8  26
TORSDOF 6
ENDMDL
MODEL 6
REMARK VINA RESULT:    -6.061      3.385      5.988
REMARK INTER + INTRA:          -7.635
REMARK INTER:                  -7.381
REMARK INTRA:                  -0.254
REMARK UNBOUND:                -0.334
REMARK SMILES O=c1c(O)c(-c2ccc(O)c(O)c2)oc2cc(O)cc(O)c12
REMARK SMILES IDX 5 1 3 2 2 3 1 4 22 5 20 6 19 7 17 8 16 9 15 10 14 11 6 12
REMARK SMILES IDX 7 13 8 14 9 15 13 16 11 17 10 18 12 20 4 22 21 24 18 26
REMARK H PARENT 10 19 12 21 4 23 21 25 18 27
REMARK Flexibility Score: inf
ROOT
ATOM      1  C   UNL     1      -1.927  24.603  29.395  1.00  0.00     0.180 A 
ATOM      2  C   UNL     1      -2.839  25.433  28.720  1.00  0.00     0.208 A 
ATOM      3  C   UNL     1      -4.132  25.592  29.245  1.00  0.00     0.238 A 
ATOM      4  O   UNL     1      -4.926  26.380  28.666  1.00  0.00    -0.285 OA
ATOM      5  C   UNL     1      -4.502  24.908  30.427  1.00  0.00     0.111 A 
ATOM      6  C   UNL     1      -5.796  24.965  31.026  1.00  0.00     0.134 A 
ATOM      7  C   UNL     1      -6.011  24.351  32.266  1.00  0.00     0.093 A 
ATOM      8  C   UNL     1      -5.000  23.630  32.898  1.00  0.00     0.123 A 
ATOM      9  C   UNL     1      -3.746  23.518  32.294  1.00  0.00     0.094 A 
ATOM     10  C   UNL     1      -3.491  24.150  31.073  1.00  0.00     0.146 A 
ATOM     11  O   UNL     1      -2.283  24.027  30.537  1.00  0.00    -0.452 OA
ENDROOT
BRANCH   1  12
ATOM     12  C   UNL     1      -0.555  24.367  28.890  1.00  0.00     0.025 A 
ATOM     13  C   UNL     1      -0.258  23.159  28.239  1.00  0.00     0.016 A 
ATOM     14  C   UNL     1       1.025  22.924  27.736  1.00  0.00     0.051 A 
ATOM     15  C   UNL     1       2.023  23.899  27.860  1.00  0.00     0.157 A 
ATOM     16  C   UNL     1       0.444  25.351  28.995  1.00  0.00     0.062 A 
ATOM     17  C   UNL     1       1.728  25.120  28.489  1.00  0.00     0.158 A 
BRANCH  15  18
ATOM     18  O   UNL     1       3.301  23.660  27.359  1.00  0.00    -0.504 OA
ATOM     19  H   UNL     1       3.485  23.641  26.362  1.00  0.00     0.293 HD
ENDBRANCH  15  18
BRANCH  17  20
ATOM     20  O   UNL     1       2.696  26.117  28.616  1.00  0.00    -0.504 OA
ATOM     21  H   UNL     1       2.910  26.757  27.862  1.00  0.00     0.293 HD
ENDBRANCH  17  20
ENDBRANCH   1  12
BRANCH   2  22
ATOM     22  O   UNL     1      -2.446  26.117  27.566  1.00  0.00    -0.502 OA
ATOM     23  H   UNL     1      -1.532  25.996  27.147  1.00  0.00     0.293 HD
ENDBRANCH   2  22
BRANCH   6  24
ATOM     24  O   UNL     1      -6.903  25.581  30.434  1.00  0.00    -0.507 OA
ATOM     25  H   UNL     1      -6.944  26.554  30.167  1.00  0.00     0.293 HD
ENDBRANCH   6  24
BRANCH   8  26
ATOM     26  O   UNL     1      -5.254  23.020  34.124  1.00  0.00    -0.508 OA
ATOM     27  H   UNL     1      -4.814  22.144  34.382  1.00  0.00     0.293 HD
ENDBRANCH   8  26
TORSDOF 6
ENDMDL
MODEL 7
REMARK VINA RESULT:    -6.056      3.690      6.738
REMARK INTER + INTRA:          -7.629
REMARK INTER:                  -7.306
REMARK INTRA:                  -0.323
REMARK UNBOUND:                -0.334
REMARK SMILES O=c1c(O)c(-c2ccc(O)c(O)c2)oc2cc(O)cc(O)c12
REMARK SMILES IDX 5 1 3 2 2 3 1 4 22 5 20 6 19 7 17 8 16 9 15 10 14 11 6 12
REMARK SMILES IDX 7 13 8 14 9 15 13 16 11 17 10 18 12 20 4 22 21 24 18 26
REMARK H PARENT 10 19 12 21 4 23 21 25 18 27
REMARK Flexibility Score: inf
ROOT
ATOM      1  C   UNL     1      -1.704  24.732  29.348  1.00  0.00     0.180 A 
ATOM      2  C   UNL     1      -2.218  25.454  28.258  1.00  0.00     0.208 A 
ATOM      3  C   UNL     1      -1.355  25.807  27.207  1.00  0.00     0.238 A 
ATOM      4  O   UNL     1      -1.832  26.405  26.208  1.00  0.00    -0.285 OA
ATOM      5  C   UNL     1       0.013  25.448  27.268  1.00  0.00     0.111 A 
ATOM      6  C   UNL     1       0.985  25.787  26.279  1.00  0.00     0.134 A 
ATOM      7  C   UNL     1       2.282  25.267  26.380  1.00  0.00     0.093 A 
ATOM      8  C   UNL     1       2.659  24.475  27.462  1.00  0.00     0.123 A 
ATOM      9  C   UNL     1       1.733  24.185  28.466  1.00  0.00     0.094 A 
ATOM     10  C   UNL     1       0.421  24.660  28.376  1.00  0.00     0.146 A 
ATOM     11  O   UNL     1      -0.432  24.353  29.346  1.00  0.00    -0.452 OA
ENDROOT
BRANCH   1  12
ATOM     12  C   UNL     1      -2.546  24.347  30.504  1.00  0.00     0.025 A 
ATOM     13  C   UNL     1      -3.055  23.041  30.582  1.00  0.00     0.016 A 
ATOM     14  C   UNL     1      -3.835  22.650  31.673  1.00  0.00     0.051 A 
ATOM     15  C   UNL     1      -4.101  23.552  32.711  1.00  0.00     0.157 A 
ATOM     16  C   UNL     1      -2.799  25.243  31.558  1.00  0.00     0.062 A 
ATOM     17  C   UNL     1      -3.576  24.853  32.654  1.00  0.00     0.158 A 
BRANCH  15  18
ATOM     18  O   UNL     1      -4.880  23.158  33.798  1.00  0.00    -0.504 OA
ATOM     19  H   UNL     1      -5.882  23.025  33.714  1.00  0.00     0.293 HD
ENDBRANCH  15  18
BRANCH  17  20
ATOM     20  O   UNL     1      -3.812  25.771  33.679  1.00  0.00    -0.504 OA
ATOM     21  H   UNL     1      -4.651  25.741  34.245  1.00  0.00     0.293 HD
ENDBRANCH  17  20
ENDBRANCH   1  12
BRANCH   2  22
ATOM     22  O   UNL     1      -3.576  25.779  28.207  1.00  0.00    -0.502 OA
ATOM     23  H   UNL     1      -3.931  26.681  28.502  1.00  0.00     0.293 HD
ENDBRANCH   2  22
BRANCH   6  24
ATOM     24  O   UNL     1       0.738  26.646  25.205  1.00  0.00    -0.507 OA
ATOM     25  H   UNL     1       1.439  27.214  24.750  1.00  0.00     0.293 HD
ENDBRANCH   6  24
BRANCH   8  26
ATOM     26  O   UNL     1       3.962  23.988  27.536  1.00  0.00    -0.508 OA
ATOM     27  H   UNL     1       4.306  23.292  26.883  1.00  0.00     0.293 HD
ENDBRANCH   8  26
TORSDOF 6
ENDMDL
MODEL 8
REMARK VINA RESULT:    -5.927      3.435      6.973
REMARK INTER + INTRA:          -7.474
REMARK INTER:                  -7.154
REMARK INTRA:                  -0.320
REMARK UNBOUND:                -0.334
REMARK SMILES O=c1c(O)c(-c2ccc(O)c(O)c2)oc2cc(O)cc(O)c12
REMARK SMILES IDX 5 1 3 2 2 3 1 4 22 5 20 6 19 7 17 8 16 9 15 10 14 11 6 12
REMARK SMILES IDX 7 13 8 14 9 15 13 16 11 17 10 18 12 20 4 22 21 24 18 26
REMARK H PARENT 10 19 12 21 4 23 21 25 18 27
REMARK Flexibility Score: inf
ROOT
ATOM      1  C   UNL     1      -0.964  26.074  27.360  1.00  0.00     0.180 A 
ATOM      2  C   UNL     1       0.384  26.407  27.583  1.00  0.00     0.208 A 
ATOM      3  C   UNL     1       0.968  27.428  26.816  1.00  0.00     0.238 A 
ATOM      4  O   UNL     1       2.158  27.759  27.057  1.00  0.00    -0.285 OA
ATOM      5  C   UNL     1       0.204  28.092  25.826  1.00  0.00     0.111 A 
ATOM      6  C   UNL     1       0.705  29.113  24.964  1.00  0.00     0.134 A 
ATOM      7  C   UNL     1      -0.176  29.789  24.111  1.00  0.00     0.093 A 
ATOM      8  C   UNL     1      -1.523  29.440  24.042  1.00  0.00     0.123 A 
ATOM      9  C   UNL     1      -2.013  28.402  24.838  1.00  0.00     0.094 A 
ATOM     10  C   UNL     1      -1.166  27.732  25.725  1.00  0.00     0.146 A 
ATOM     11  O   UNL     1      -1.672  26.759  26.471  1.00  0.00    -0.452 OA
ENDROOT
BRANCH   1  12
ATOM     12  C   UNL     1      -1.641  24.992  28.112  1.00  0.00     0.025 A 
ATOM     13  C   UNL     1      -1.532  23.667  27.664  1.00  0.00     0.016 A 
ATOM     14  C   UNL     1      -2.146  22.629  28.369  1.00  0.00     0.051 A 
ATOM     15  C   UNL     1      -2.862  22.898  29.542  1.00  0.00     0.157 A 
ATOM     16  C   UNL     1      -2.344  25.256  29.302  1.00  0.00     0.062 A 
ATOM     17  C   UNL     1      -2.957  24.218  30.012  1.00  0.00     0.158 A 
BRANCH  15  18
ATOM     18  O   UNL     1      -3.474  21.860  30.243  1.00  0.00    -0.504 OA
ATOM     19  H   UNL     1      -4.452  21.900  30.505  1.00  0.00     0.293 HD
ENDBRANCH  15  18
BRANCH  17  20
ATOM     20  O   UNL     1      -3.651  24.517  31.185  1.00  0.00    -0.504 OA
ATOM     21  H   UNL     1      -4.659  24.453  31.245  1.00  0.00     0.293 HD
ENDBRANCH  17  20
ENDBRANCH   1  12
BRANCH   2  22
ATOM     22  O   UNL     1       1.114  25.755  28.580  1.00  0.00    -0.502 OA
ATOM     23  H   UNL     1       1.416  26.223  29.426  1.00  0.00     0.293 HD
ENDBRANCH   2  22
BRANCH   6  24
ATOM     24  O   UNL     1       2.052  29.478  24.887  1.00  0.00    -0.507 OA
ATOM     25  H   UNL     1       2.541  30.020  25.584  1.00  0.00     0.293 HD
ENDBRANCH   6  24
BRANCH   8  26
ATOM     26  O   UNL     1      -2.367  30.125  23.171  1.00  0.00    -0.508 OA
ATOM     27  H   UNL     1      -2.003  30.756  22.465  1.00  0.00     0.293 HD
ENDBRANCH   8  26
TORSDOF 6
ENDMDL
MODEL 9
REMARK VINA RESULT:    -5.866      2.166      6.631
REMARK INTER + INTRA:          -7.400
REMARK INTER:                  -7.397
REMARK INTRA:                  -0.003
REMARK UNBOUND:                -0.334
REMARK SMILES O=c1c(O)c(-c2ccc(O)c(O)c2)oc2cc(O)cc(O)c12
REMARK SMILES IDX 5 1 3 2 2 3 1 4 22 5 20 6 19 7 17 8 16 9 15 10 14 11 6 12
REMARK SMILES IDX 7 13 8 14 9 15 13 16 11 17 10 18 12 20 4 22 21 24 18 26
REMARK H PARENT 10 19 12 21 4 23 21 25 18 27
REMARK Flexibility Score: inf
ROOT
ATOM      1  C   UNL     1      -0.894  24.974  29.239  1.00  0.00     0.180 A 
ATOM      2  C   UNL     1      -1.133  24.558  27.918  1.00  0.00     0.208 A 
ATOM      3  C   UNL     1      -0.281  25.010  26.897  1.00  0.00     0.238 A 
ATOM      4  O   UNL     1      -0.467  24.590  25.725  1.00  0.00    -0.285 OA
ATOM      5  C   UNL     1       0.788  25.884  27.207  1.00  0.00     0.111 A 
ATOM      6  C   UNL     1       1.689  26.436  26.247  1.00  0.00     0.134 A 
ATOM      7  C   UNL     1       2.788  27.186  26.683  1.00  0.00     0.093 A 
ATOM      8  C   UNL     1       2.984  27.458  28.036  1.00  0.00     0.123 A 
ATOM      9  C   UNL     1       2.076  26.973  28.979  1.00  0.00     0.094 A 
ATOM     10  C   UNL     1       0.990  26.192  28.578  1.00  0.00     0.146 A 
ATOM     11  O   UNL     1       0.155  25.741  29.507  1.00  0.00    -0.452 OA
ENDROOT
BRANCH   1  12
ATOM     12  C   UNL     1      -1.763  24.559  30.364  1.00  0.00     0.025 A 
ATOM     13  C   UNL     1      -1.179  24.110  31.559  1.00  0.00     0.016 A 
ATOM     14  C   UNL     1      -1.979  23.734  32.640  1.00  0.00     0.051 A 
ATOM     15  C   UNL     1      -3.375  23.817  32.550  1.00  0.00     0.157 A 
ATOM     16  C   UNL     1      -3.164  24.661  30.284  1.00  0.00     0.062 A 
ATOM     17  C   UNL     1      -3.968  24.288  31.366  1.00  0.00     0.158 A 
BRANCH  15  18
ATOM     18  O   UNL     1      -4.171  23.440  33.630  1.00  0.00    -0.504 OA
ATOM     19  H   UNL     1      -4.633  24.127  34.215  1.00  0.00     0.293 HD
ENDBRANCH  15  18
BRANCH  17  20
ATOM     20  O   UNL     1      -5.355  24.396  31.250  1.00  0.00    -0.504 OA
ATOM     21  H   UNL     1      -5.861  25.204  31.588  1.00  0.00     0.293 HD
ENDBRANCH  17  20
ENDBRANCH   1  12
BRANCH   2  22
ATOM     22  O   UNL     1      -2.180  23.676  27.637  1.00  0.00    -0.502 OA
ATOM     23  H   UNL     1      -2.227  23.144  26.776  1.00  0.00     0.293 HD
ENDBRANCH   2  22
BRANCH   6  24
ATOM     24  O   UNL     1       1.533  26.303  24.864  1.00  0.00    -0.507 OA
ATOM     25  H   UNL     1       1.843  25.507  24.325  1.00  0.00     0.293 HD
ENDBRANCH   6  24
BRANCH   8  26
ATOM     26  O   UNL     1       4.081  28.220  28.432  1.00  0.00    -0.508 OA
ATOM     27  H   UNL     1       4.971  27.790  28.658  1.00  0.00     0.293 HD
ENDBRANCH   8  26
TORSDOF 6
ENDMDL
