MODEL 1
REMARK VINA RESULT:    -5.323      0.000      0.000
REMARK INTER + INTRA:         -15.968
REMARK INTER:                 -12.169
REMARK INTRA:                  -3.799
REMARK UNBOUND:                -3.799
REMARK SMILES CCCCCCCCCCCCCCCCCCCCCCCC(=O)[O-]
REMARK SMILES IDX 13 1 14 2 15 3 16 4 17 5 18 6 19 7 20 8 21 9 22 10 23 11
REMARK SMILES IDX 24 12 25 13 26 14 12 15 11 16 10 17 9 18 8 19 7 20 6 21 5 22
REMARK SMILES IDX 4 23 3 24 2 25 1 26
REMARK H PARENT
REMARK Flexibility Score: inf
ROOT
ATOM      1  C   UNL     1      12.067  43.150   5.343  1.00  0.00     0.000 C 
ENDROOT
BRANCH   1   2
ATOM      2  C   UNL     1      12.574  43.620   3.965  1.00  0.00     0.000 C 
BRANCH   2   3
ATOM      3  C   UNL     1      13.074  45.075   3.921  1.00  0.00     0.000 C 
BRANCH   3   4
ATOM      4  C   UNL     1      14.593  45.179   3.693  1.00  0.00     0.000 C 
BRANCH   4   5
ATOM      5  C   UNL     1      15.253  43.809   3.462  1.00  0.00     0.000 C 
BRANCH   5   6
ATOM      6  C   UNL     1      16.476  43.585   4.368  1.00  0.00     0.000 C 
BRANCH   6   7
ATOM      7  C   UNL     1      16.424  44.431   5.650  1.00  0.00     0.000 C 
BRANCH   7   8
ATOM      8  C   UNL     1      17.518  44.048   6.661  1.00  0.00     0.000 C 
BRANCH   8   9
ATOM      9  C   UNL     1      17.107  44.451   8.087  1.00  0.00     0.000 C 
BRANCH   9  10
ATOM     10  C   UNL     1      16.319  43.351   8.815  1.00  0.00     0.006 C 
BRANCH  10  11
ATOM     11  C   UNL     1      16.373  42.001   8.086  1.00  0.00     0.053 C 
BRANCH  11  12
ATOM     12  C   UNL     1      15.558  40.975   8.812  1.00  0.00     0.041 C 
ATOM     13  O   UNL     1      14.359  41.217   9.116  1.00  0.00    -0.550 OA
ATOM     14  O   UNL     1      16.124  39.754   9.159  1.00  0.00    -0.550 OA
ENDBRANCH  11  12
ENDBRANCH  10  11
ENDBRANCH   9  10
ENDBRANCH   8   9
ENDBRANCH   7   8
ENDBRANCH   6   7
ENDBRANCH   5   6
ENDBRANCH   4   5
ENDBRANCH   3   4
ENDBRANCH   2   3
ENDBRANCH   1   2
BRANCH   1  15
ATOM     15  C   UNL     1      13.125  43.151   6.464  1.00  0.00     0.000 C 
BRANCH  15  16
ATOM     16  C   UNL     1      12.859  44.143   7.612  1.00  0.00     0.000 C 
BRANCH  16  17
ATOM     17  C   UNL     1      13.580  45.497   7.481  1.00  0.00     0.000 C 
BRANCH  17  18
ATOM     18  C   UNL     1      12.612  46.688   7.431  1.00  0.00    -0.000 C 
BRANCH  18  19
ATOM     19  C   UNL     1      11.203  46.232   7.032  1.00  0.00    -0.000 C 
BRANCH  19  20
ATOM     20  C   UNL     1      10.420  47.379   6.374  1.00  0.00    -0.000 C 
BRANCH  20  21
ATOM     21  C   UNL     1       8.977  47.485   6.894  1.00  0.00    -0.000 C 
BRANCH  21  22
ATOM     22  C   UNL     1       8.514  46.217   7.627  1.00  0.00    -0.000 C 
BRANCH  22  23
ATOM     23  C   UNL     1       8.050  46.546   9.053  1.00  0.00    -0.000 C 
BRANCH  23  24
ATOM     24  C   UNL     1       8.177  45.351  10.012  1.00  0.00    -0.000 C 
BRANCH  24  25
ATOM     25  C   UNL     1       9.069  44.232   9.453  1.00  0.00    -0.003 C 
ATOM     26  C   UNL     1      10.380  44.137  10.228  1.00  0.00     0.004 C 
ENDBRANCH  24  25
ENDBRANCH  23  24
ENDBRANCH  22  23
ENDBRANCH  21  22
ENDBRANCH  20  21
ENDBRANCH  19  20
ENDBRANCH  18  19
ENDBRANCH  17  18
ENDBRANCH  16  17
ENDBRANCH  15  16
ENDBRANCH   1  15
TORSDOF 22
ENDMDL
MODEL 2
REMARK VINA RESULT:    -5.321      2.464      6.178
REMARK INTER + INTRA:         -15.964
REMARK INTER:                 -11.995
REMARK INTRA:                  -3.969
REMARK UNBOUND:                -3.799
REMARK SMILES CCCCCCCCCCCCCCCCCCCCCCCC(=O)[O-]
REMARK SMILES IDX 13 1 14 2 15 3 16 4 17 5 18 6 19 7 20 8 21 9 22 10 23 11
REMARK SMILES IDX 24 12 25 13 26 14 12 15 11 16 10 17 9 18 8 19 7 20 6 21 5 22
REMARK SMILES IDX 4 23 3 24 2 25 1 26
REMARK H PARENT
REMARK Flexibility Score: inf
ROOT
ATOM      1  C   UNL     1      12.644  42.289   4.638  1.00  0.00     0.000 C 
ENDROOT
BRANCH   1   2
ATOM      2  C   UNL     1      13.268  43.043   3.446  1.00  0.00     0.000 C 
BRANCH   2   3
ATOM      3  C   UNL     1      14.629  43.700   3.737  1.00  0.00     0.000 C 
BRANCH   3   4
ATOM      4  C   UNL     1      14.551  45.237   3.799  1.00  0.00     0.000 C 
BRANCH   4   5
ATOM      5  C   UNL     1      13.105  45.758   3.777  1.00  0.00     0.000 C 
BRANCH   5   6
ATOM      6  C   UNL     1      12.835  46.792   4.883  1.00  0.00     0.000 C 
BRANCH   6   7
ATOM      7  C   UNL     1      11.381  46.760   5.381  1.00  0.00     0.000 C 
BRANCH   7   8
ATOM      8  C   UNL     1      11.271  46.889   6.909  1.00  0.00     0.000 C 
BRANCH   8   9
ATOM      9  C   UNL     1       9.962  46.263   7.415  1.00  0.00     0.000 C 
BRANCH   9  10
ATOM     10  C   UNL     1      10.163  45.374   8.652  1.00  0.00     0.006 C 
BRANCH  10  11
ATOM     11  C   UNL     1       9.291  44.112   8.624  1.00  0.00     0.053 C 
BRANCH  11  12
ATOM     12  C   UNL     1       8.244  44.168   9.694  1.00  0.00     0.041 C 
ATOM     13  O   UNL     1       8.216  43.294  10.601  1.00  0.00    -0.550 OA
ATOM     14  O   UNL     1       7.294  45.183   9.688  1.00  0.00    -0.550 OA
ENDBRANCH  11  12
ENDBRANCH  10  11
ENDBRANCH   9  10
ENDBRANCH   8   9
ENDBRANCH   7   8
ENDBRANCH   6   7
ENDBRANCH   5   6
ENDBRANCH   4   5
ENDBRANCH   3   4
ENDBRANCH   2   3
ENDBRANCH   1   2
BRANCH   1  15
ATOM     15  C   UNL     1      13.347  42.510   5.992  1.00  0.00     0.000 C 
BRANCH  15  16
ATOM     16  C   UNL     1      12.745  43.629   6.865  1.00  0.00     0.000 C 
BRANCH  16  17
ATOM     17  C   UNL     1      13.626  44.075   8.046  1.00  0.00     0.000 C 
BRANCH  17  18
ATOM     18  C   UNL     1      14.550  45.250   7.692  1.00  0.00    -0.000 C 
BRANCH  18  19
ATOM     19  C   UNL     1      16.015  44.904   7.988  1.00  0.00    -0.000 C 
BRANCH  19  20
ATOM     20  C   UNL     1      16.660  44.177   6.798  1.00  0.00    -0.000 C 
BRANCH  20  21
ATOM     21  C   UNL     1      16.806  42.666   7.036  1.00  0.00    -0.000 C 
BRANCH  21  22
ATOM     22  C   UNL     1      16.771  42.293   8.527  1.00  0.00    -0.000 C 
BRANCH  22  23
ATOM     23  C   UNL     1      16.270  40.854   8.720  1.00  0.00    -0.000 C 
BRANCH  23  24
ATOM     24  C   UNL     1      14.831  40.792   9.256  1.00  0.00    -0.000 C 
BRANCH  24  25
ATOM     25  C   UNL     1      14.271  39.362   9.292  1.00  0.00    -0.003 C 
ATOM     26  C   UNL     1      13.627  39.058  10.642  1.00  0.00     0.004 C 
ENDBRANCH  24  25
ENDBRANCH  23  24
ENDBRANCH  22  23
ENDBRANCH  21  22
ENDBRANCH  20  21
ENDBRANCH  19  20
ENDBRANCH  18  19
ENDBRANCH  17  18
ENDBRANCH  16  17
ENDBRANCH  15  16
ENDBRANCH   1  15
TORSDOF 22
ENDMDL
MODEL 3
REMARK VINA RESULT:    -5.251      2.156      6.393
REMARK INTER + INTRA:         -15.805
REMARK INTER:                 -11.872
REMARK INTRA:                  -3.933
REMARK UNBOUND:                -3.799
REMARK SMILES CCCCCCCCCCCCCCCCCCCCCCCC(=O)[O-]
REMARK SMILES IDX 13 1 14 2 15 3 16 4 17 5 18 6 19 7 20 8 21 9 22 10 23 11
REMARK SMILES IDX 24 12 25 13 26 14 12 15 11 16 10 17 9 18 8 19 7 20 6 21 5 22
REMARK SMILES IDX 4 23 3 24 2 25 1 26
REMARK H PARENT
REMARK Flexibility Score: inf
ROOT
ATOM      1  C   UNL     1      14.785  45.190   3.546  1.00  0.00     0.000 C 
ENDROOT
BRANCH   1   2
ATOM      2  C   UNL     1      14.506  45.802   4.933  1.00  0.00     0.000 C 
BRANCH   2   3
ATOM      3  C   UNL     1      13.143  46.504   5.068  1.00  0.00     0.000 C 
BRANCH   3   4
ATOM      4  C   UNL     1      12.886  47.045   6.486  1.00  0.00     0.000 C 
BRANCH   4   5
ATOM      5  C   UNL     1      11.443  46.805   6.959  1.00  0.00     0.000 C 
BRANCH   5   6
ATOM      6  C   UNL     1      10.400  47.358   5.971  1.00  0.00     0.000 C 
BRANCH   6   7
ATOM      7  C   UNL     1       8.998  47.465   6.590  1.00  0.00     0.000 C 
BRANCH   7   8
ATOM      8  C   UNL     1       8.803  46.527   7.793  1.00  0.00     0.000 C 
BRANCH   8   9
ATOM      9  C   UNL     1       8.174  45.196   7.349  1.00  0.00     0.000 C 
BRANCH   9  10
ATOM     10  C   UNL     1       8.888  43.971   7.942  1.00  0.00     0.006 C 
BRANCH  10  11
ATOM     11  C   UNL     1       9.899  44.345   9.035  1.00  0.00     0.053 C 
BRANCH  11  12
ATOM     12  C   UNL     1       9.426  43.874  10.376  1.00  0.00     0.041 C 
ATOM     13  O   UNL     1       8.208  43.609  10.562  1.00  0.00    -0.550 OA
ATOM     14  O   UNL     1      10.328  43.735  11.424  1.00  0.00    -0.550 OA
ENDBRANCH  11  12
ENDBRANCH  10  11
ENDBRANCH   9  10
ENDBRANCH   8   9
ENDBRANCH   7   8
ENDBRANCH   6   7
ENDBRANCH   5   6
ENDBRANCH   4   5
ENDBRANCH   3   4
ENDBRANCH   2   3
ENDBRANCH   1   2
BRANCH   1  15
ATOM     15  C   UNL     1      15.357  43.759   3.566  1.00  0.00     0.000 C 
BRANCH  15  16
ATOM     16  C   UNL     1      16.795  43.637   4.106  1.00  0.00     0.000 C 
BRANCH  16  17
ATOM     17  C   UNL     1      16.916  42.967   5.487  1.00  0.00     0.000 C 
BRANCH  17  18
ATOM     18  C   UNL     1      17.671  43.832   6.507  1.00  0.00    -0.000 C 
BRANCH  18  19
ATOM     19  C   UNL     1      17.590  43.220   7.912  1.00  0.00    -0.000 C 
BRANCH  19  20
ATOM     20  C   UNL     1      16.843  44.153   8.876  1.00  0.00    -0.000 C 
BRANCH  20  21
ATOM     21  C   UNL     1      15.511  44.658   8.299  1.00  0.00    -0.000 C 
BRANCH  21  22
ATOM     22  C   UNL     1      14.321  43.765   8.681  1.00  0.00    -0.000 C 
BRANCH  22  23
ATOM     23  C   UNL     1      13.352  43.608   7.500  1.00  0.00    -0.000 C 
BRANCH  23  24
ATOM     24  C   UNL     1      13.717  42.429   6.583  1.00  0.00    -0.000 C 
BRANCH  24  25
ATOM     25  C   UNL     1      12.758  42.284   5.391  1.00  0.00    -0.003 C 
ATOM     26  C   UNL     1      11.603  43.277   5.492  1.00  0.00     0.004 C 
ENDBRANCH  24  25
ENDBRANCH  23  24
ENDBRANCH  22  23
ENDBRANCH  21  22
ENDBRANCH  20  21
ENDBRANCH  19  20
ENDBRANCH  18  19
ENDBRANCH  17  18
ENDBRANCH  16  17
ENDBRANCH  15  16
ENDBRANCH   1  15
TORSDOF 22
ENDMDL
MODEL 4
REMARK VINA RESULT:    -5.250      2.789      6.830
REMARK INTER + INTRA:         -15.801
REMARK INTER:                 -11.763
REMARK INTRA:                  -4.037
REMARK UNBOUND:                -3.799
REMARK SMILES CCCCCCCCCCCCCCCCCCCCCCCC(=O)[O-]
REMARK SMILES IDX 13 1 14 2 15 3 16 4 17 5 18 6 19 7 20 8 21 9 22 10 23 11
REMARK SMILES IDX 24 12 25 13 26 14 12 15 11 16 10 17 9 18 8 19 7 20 6 21 5 22
REMARK SMILES IDX 4 23 3 24 2 25 1 26
REMARK H PARENT
REMARK Flexibility Score: inf
ROOT
ATOM      1  C   UNL     1      11.863  43.303   5.510  1.00  0.00     0.000 C 
ENDROOT
BRANCH   1   2
ATOM      2  C   UNL     1      12.970  43.584   6.546  1.00  0.00     0.000 C 
BRANCH   2   3
ATOM      3  C   UNL     1      12.489  44.262   7.841  1.00  0.00     0.000 C 
BRANCH   3   4
ATOM      4  C   UNL     1      13.088  45.666   8.041  1.00  0.00     0.000 C 
BRANCH   4   5
ATOM      5  C   UNL     1      13.450  46.350   6.712  1.00  0.00     0.000 C 
BRANCH   5   6
ATOM      6  C   UNL     1      12.429  47.427   6.308  1.00  0.00     0.000 C 
BRANCH   6   7
ATOM      7  C   UNL     1      11.457  46.942   5.221  1.00  0.00     0.000 C 
BRANCH   7   8
ATOM      8  C   UNL     1       9.982  47.112   5.620  1.00  0.00     0.000 C 
BRANCH   8   9
ATOM      9  C   UNL     1       9.858  47.443   7.116  1.00  0.00     0.000 C 
BRANCH   9  10
ATOM     10  C   UNL     1       9.308  46.270   7.943  1.00  0.00     0.006 C 
BRANCH  10  11
ATOM     11  C   UNL     1       8.899  45.072   7.075  1.00  0.00     0.053 C 
BRANCH  11  12
ATOM     12  C   UNL     1       7.625  44.465   7.577  1.00  0.00     0.041 C 
ATOM     13  O   UNL     1       7.335  44.523   8.802  1.00  0.00    -0.550 OA
ATOM     14  O   UNL     1       6.760  43.830   6.693  1.00  0.00    -0.550 OA
ENDBRANCH  11  12
ENDBRANCH  10  11
ENDBRANCH   9  10
ENDBRANCH   8   9
ENDBRANCH   7   8
ENDBRANCH   6   7
ENDBRANCH   5   6
ENDBRANCH   4   5
ENDBRANCH   3   4
ENDBRANCH   2   3
ENDBRANCH   1   2
BRANCH   1  15
ATOM     15  C   UNL     1      12.348  43.169   4.054  1.00  0.00     0.000 C 
BRANCH  15  16
ATOM     16  C   UNL     1      13.344  44.252   3.596  1.00  0.00     0.000 C 
BRANCH  16  17
ATOM     17  C   UNL     1      14.785  43.757   3.374  1.00  0.00     0.000 C 
BRANCH  17  18
ATOM     18  C   UNL     1      15.784  44.358   4.374  1.00  0.00    -0.000 C 
BRANCH  18  19
ATOM     19  C   UNL     1      16.997  43.437   4.560  1.00  0.00    -0.000 C 
BRANCH  19  20
ATOM     20  C   UNL     1      17.654  43.662   5.930  1.00  0.00    -0.000 C 
BRANCH  20  21
ATOM     21  C   UNL     1      16.807  44.552   6.854  1.00  0.00    -0.000 C 
BRANCH  21  22
ATOM     22  C   UNL     1      16.322  43.811   8.110  1.00  0.00    -0.000 C 
BRANCH  22  23
ATOM     23  C   UNL     1      16.162  42.309   7.834  1.00  0.00    -0.000 C 
BRANCH  23  24
ATOM     24  C   UNL     1      15.390  41.578   8.944  1.00  0.00    -0.000 C 
BRANCH  24  25
ATOM     25  C   UNL     1      15.941  40.171   9.224  1.00  0.00    -0.003 C 
ATOM     26  C   UNL     1      14.854  39.258   9.785  1.00  0.00     0.004 C 
ENDBRANCH  24  25
ENDBRANCH  23  24
ENDBRANCH  22  23
ENDBRANCH  21  22
ENDBRANCH  20  21
ENDBRANCH  19  20
ENDBRANCH  18  19
ENDBRANCH  17  18
ENDBRANCH  16  17
ENDBRANCH  15  16
ENDBRANCH   1  15
TORSDOF 22
ENDMDL
MODEL 5
REMARK VINA RESULT:    -5.192      1.828      6.473
REMARK INTER + INTRA:         -15.669
REMARK INTER:                 -11.879
REMARK INTRA:                  -3.791
REMARK UNBOUND:                -3.799
REMARK SMILES CCCCCCCCCCCCCCCCCCCCCCCC(=O)[O-]
REMARK SMILES IDX 13 1 14 2 15 3 16 4 17 5 18 6 19 7 20 8 21 9 22 10 23 11
REMARK SMILES IDX 24 12 25 13 26 14 12 15 11 16 10 17 9 18 8 19 7 20 6 21 5 22
REMARK SMILES IDX 4 23 3 24 2 25 1 26
REMARK H PARENT
REMARK Flexibility Score: inf
ROOT
ATOM      1  C   UNL     1      12.702  42.727   5.718  1.00  0.00     0.000 C 
ENDROOT
BRANCH   1   2
ATOM      2  C   UNL     1      11.946  43.954   6.268  1.00  0.00     0.000 C 
BRANCH   2   3
ATOM      3  C   UNL     1      12.805  44.930   7.091  1.00  0.00     0.000 C 
BRANCH   3   4
ATOM      4  C   UNL     1      12.501  46.406   6.779  1.00  0.00     0.000 C 
BRANCH   4   5
ATOM      5  C   UNL     1      11.970  46.612   5.350  1.00  0.00     0.000 C 
BRANCH   5   6
ATOM      6  C   UNL     1      10.555  47.217   5.331  1.00  0.00     0.000 C 
BRANCH   6   7
ATOM      7  C   UNL     1      10.078  47.650   6.726  1.00  0.00     0.000 C 
BRANCH   7   8
ATOM      8  C   UNL     1       8.738  47.008   7.123  1.00  0.00     0.000 C 
BRANCH   8   9
ATOM      9  C   UNL     1       8.882  46.211   8.429  1.00  0.00     0.000 C 
BRANCH   9  10
ATOM     10  C   UNL     1       9.091  44.707   8.191  1.00  0.00     0.006 C 
BRANCH  10  11
ATOM     11  C   UNL     1       8.944  43.878   9.475  1.00  0.00     0.053 C 
BRANCH  11  12
ATOM     12  C   UNL     1      10.059  44.178  10.428  1.00  0.00     0.041 C 
ATOM     13  O   UNL     1      11.257  44.138  10.037  1.00  0.00    -0.550 OA
ATOM     14  O   UNL     1       9.778  44.495  11.752  1.00  0.00    -0.550 OA
ENDBRANCH  11  12
ENDBRANCH  10  11
ENDBRANCH   9  10
ENDBRANCH   8   9
ENDBRANCH   7   8
ENDBRANCH   6   7
ENDBRANCH   5   6
ENDBRANCH   4   5
ENDBRANCH   3   4
ENDBRANCH   2   3
ENDBRANCH   1   2
BRANCH   1  15
ATOM     15  C   UNL     1      12.259  42.259   4.318  1.00  0.00     0.000 C 
BRANCH  15  16
ATOM     16  C   UNL     1      13.169  42.710   3.160  1.00  0.00     0.000 C 
BRANCH  16  17
ATOM     17  C   UNL     1      14.505  43.342   3.592  1.00  0.00     0.000 C 
BRANCH  17  18
ATOM     18  C   UNL     1      14.506  44.874   3.479  1.00  0.00    -0.000 C 
BRANCH  18  19
ATOM     19  C   UNL     1      15.443  45.501   4.519  1.00  0.00    -0.000 C 
BRANCH  19  20
ATOM     20  C   UNL     1      16.064  44.424   5.421  1.00  0.00    -0.000 C 
BRANCH  20  21
ATOM     21  C   UNL     1      16.433  44.958   6.814  1.00  0.00    -0.000 C 
BRANCH  21  22
ATOM     22  C   UNL     1      16.829  43.842   7.793  1.00  0.00    -0.000 C 
BRANCH  22  23
ATOM     23  C   UNL     1      16.127  42.524   7.435  1.00  0.00    -0.000 C 
BRANCH  23  24
ATOM     24  C   UNL     1      15.462  41.855   8.649  1.00  0.00    -0.000 C 
BRANCH  24  25
ATOM     25  C   UNL     1      16.004  40.444   8.922  1.00  0.00    -0.003 C 
ATOM     26  C   UNL     1      15.083  39.675   9.865  1.00  0.00     0.004 C 
ENDBRANCH  24  25
ENDBRANCH  23  24
ENDBRANCH  22  23
ENDBRANCH  21  22
ENDBRANCH  20  21
ENDBRANCH  19  20
ENDBRANCH  18  19
ENDBRANCH  17  18
ENDBRANCH  16  17
ENDBRANCH  15  16
ENDBRANCH   1  15
TORSDOF 22
ENDMDL
MODEL 6
REMARK VINA RESULT:    -5.190      3.010      5.343
REMARK INTER + INTRA:         -15.663
REMARK INTER:                 -12.756
REMARK INTRA:                  -2.908
REMARK UNBOUND:                -3.799
REMARK SMILES CCCCCCCCCCCCCCCCCCCCCCCC(=O)[O-]
REMARK SMILES IDX 13 1 14 2 15 3 16 4 17 5 18 6 19 7 20 8 21 9 22 10 23 11
REMARK SMILES IDX 24 12 25 13 26 14 12 15 11 16 10 17 9 18 8 19 7 20 6 21 5 22
REMARK SMILES IDX 4 23 3 24 2 25 1 26
REMARK H PARENT
REMARK Flexibility Score: inf
ROOT
ATOM      1  C   UNL     1      16.799  44.946   6.900  1.00  0.00     0.000 C 
ENDROOT
BRANCH   1   2
ATOM      2  C   UNL     1      16.894  44.958   8.439  1.00  0.00     0.000 C 
BRANCH   2   3
ATOM      3  C   UNL     1      16.228  43.761   9.139  1.00  0.00     0.000 C 
BRANCH   3   4
ATOM      4  C   UNL     1      14.858  43.399   8.535  1.00  0.00     0.000 C 
BRANCH   4   5
ATOM      5  C   UNL     1      14.750  41.912   8.160  1.00  0.00     0.000 C 
BRANCH   5   6
ATOM      6  C   UNL     1      16.013  41.117   8.538  1.00  0.00     0.000 C 
BRANCH   6   7
ATOM      7  C   UNL     1      15.696  39.868   9.374  1.00  0.00     0.000 C 
BRANCH   7   8
ATOM      8  C   UNL     1      14.230  39.422   9.249  1.00  0.00     0.000 C 
BRANCH   8   9
ATOM      9  C   UNL     1      13.615  39.176  10.636  1.00  0.00     0.000 C 
BRANCH   9  10
ATOM     10  C   UNL     1      12.911  37.814  10.744  1.00  0.00     0.006 C 
BRANCH  10  11
ATOM     11  C   UNL     1      13.123  37.143  12.108  1.00  0.00     0.053 C 
BRANCH  11  12
ATOM     12  C   UNL     1      11.857  36.501  12.584  1.00  0.00     0.041 C 
ATOM     13  O   UNL     1      10.908  37.211  13.014  1.00  0.00    -0.550 OA
ATOM     14  O   UNL     1      11.725  35.117  12.560  1.00  0.00    -0.550 OA
ENDBRANCH  11  12
ENDBRANCH  10  11
ENDBRANCH   9  10
ENDBRANCH   8   9
ENDBRANCH   7   8
ENDBRANCH   6   7
ENDBRANCH   5   6
ENDBRANCH   4   5
ENDBRANCH   3   4
ENDBRANCH   2   3
ENDBRANCH   1   2
BRANCH   1  15
ATOM     15  C   UNL     1      17.562  43.801   6.207  1.00  0.00     0.000 C 
BRANCH  15  16
ATOM     16  C   UNL     1      16.777  43.066   5.103  1.00  0.00     0.000 C 
BRANCH  16  17
ATOM     17  C   UNL     1      15.760  43.935   4.341  1.00  0.00     0.000 C 
BRANCH  17  18
ATOM     18  C   UNL     1      14.323  43.404   4.444  1.00  0.00    -0.000 C 
BRANCH  18  19
ATOM     19  C   UNL     1      13.311  44.556   4.450  1.00  0.00    -0.000 C 
BRANCH  19  20
ATOM     20  C   UNL     1      13.931  45.831   5.041  1.00  0.00    -0.000 C 
BRANCH  20  21
ATOM     21  C   UNL     1      12.925  46.654   5.861  1.00  0.00    -0.000 C 
BRANCH  21  22
ATOM     22  C   UNL     1      13.061  46.423   7.374  1.00  0.00    -0.000 C 
BRANCH  22  23
ATOM     23  C   UNL     1      11.766  45.840   7.958  1.00  0.00    -0.000 C 
BRANCH  23  24
ATOM     24  C   UNL     1      10.710  45.537   6.882  1.00  0.00    -0.000 C 
BRANCH  24  25
ATOM     25  C   UNL     1       9.292  45.414   7.458  1.00  0.00    -0.003 C 
ATOM     26  C   UNL     1       8.859  43.953   7.544  1.00  0.00     0.004 C 
ENDBRANCH  24  25
ENDBRANCH  23  24
ENDBRANCH  22  23
ENDBRANCH  21  22
ENDBRANCH  20  21
ENDBRANCH  19  20
ENDBRANCH  18  19
ENDBRANCH  17  18
ENDBRANCH  16  17
ENDBRANCH  15  16
ENDBRANCH   1  15
TORSDOF 22
ENDMDL
MODEL 7
REMARK VINA RESULT:    -5.175      1.460      3.213
REMARK INTER + INTRA:         -15.629
REMARK INTER:                 -11.990
REMARK INTRA:                  -3.640
REMARK UNBOUND:                -3.799
REMARK SMILES CCCCCCCCCCCCCCCCCCCCCCCC(=O)[O-]
REMARK SMILES IDX 13 1 14 2 15 3 16 4 17 5 18 6 19 7 20 8 21 9 22 10 23 11
REMARK SMILES IDX 24 12 25 13 26 14 12 15 11 16 10 17 9 18 8 19 7 20 6 21 5 22
REMARK SMILES IDX 4 23 3 24 2 25 1 26
REMARK H PARENT
REMARK Flexibility Score: inf
ROOT
ATOM      1  C   UNL     1      13.335  45.570   6.796  1.00  0.00     0.000 C 
ENDROOT
BRANCH   1   2
ATOM      2  C   UNL     1      12.806  44.126   6.917  1.00  0.00     0.000 C 
BRANCH   2   3
ATOM      3  C   UNL     1      11.739  43.738   5.878  1.00  0.00     0.000 C 
BRANCH   3   4
ATOM      4  C   UNL     1      12.228  42.664   4.889  1.00  0.00     0.000 C 
BRANCH   4   5
ATOM      5  C   UNL     1      12.715  43.262   3.559  1.00  0.00     0.000 C 
BRANCH   5   6
ATOM      6  C   UNL     1      14.250  43.323   3.469  1.00  0.00     0.000 C 
BRANCH   6   7
ATOM      7  C   UNL     1      14.791  44.758   3.571  1.00  0.00     0.000 C 
BRANCH   7   8
ATOM      8  C   UNL     1      16.050  44.860   4.449  1.00  0.00     0.000 C 
BRANCH   8   9
ATOM      9  C   UNL     1      16.160  43.645   5.385  1.00  0.00     0.000 C 
BRANCH   9  10
ATOM     10  C   UNL     1      17.478  43.617   6.174  1.00  0.00     0.006 C 
BRANCH  10  11
ATOM     11  C   UNL     1      17.311  43.043   7.588  1.00  0.00     0.053 C 
BRANCH  11  12
ATOM     12  C   UNL     1      16.352  43.872   8.385  1.00  0.00     0.041 C 
ATOM     13  O   UNL     1      15.412  43.322   9.020  1.00  0.00    -0.550 OA
ATOM     14  O   UNL     1      16.491  45.255   8.424  1.00  0.00    -0.550 OA
ENDBRANCH  11  12
ENDBRANCH  10  11
ENDBRANCH   9  10
ENDBRANCH   8   9
ENDBRANCH   7   8
ENDBRANCH   6   7
ENDBRANCH   5   6
ENDBRANCH   4   5
ENDBRANCH   3   4
ENDBRANCH   2   3
ENDBRANCH   1   2
BRANCH   1  15
ATOM     15  C   UNL     1      12.391  46.659   7.342  1.00  0.00     0.000 C 
BRANCH  15  16
ATOM     16  C   UNL     1      11.680  47.505   6.268  1.00  0.00     0.000 C 
BRANCH  16  17
ATOM     17  C   UNL     1      10.210  47.126   6.011  1.00  0.00     0.000 C 
BRANCH  17  18
ATOM     18  C   UNL     1       9.246  47.747   7.031  1.00  0.00    -0.000 C 
BRANCH  18  19
ATOM     19  C   UNL     1       8.759  46.695   8.037  1.00  0.00    -0.000 C 
BRANCH  19  20
ATOM     20  C   UNL     1       8.878  45.279   7.453  1.00  0.00    -0.000 C 
BRANCH  20  21
ATOM     21  C   UNL     1       9.081  44.207   8.536  1.00  0.00    -0.000 C 
BRANCH  21  22
ATOM     22  C   UNL     1      10.250  44.530   9.480  1.00  0.00    -0.000 C 
BRANCH  22  23
ATOM     23  C   UNL     1      10.025  43.907  10.865  1.00  0.00    -0.000 C 
BRANCH  23  24
ATOM     24  C   UNL     1       8.969  44.660  11.691  1.00  0.00    -0.000 C 
BRANCH  24  25
ATOM     25  C   UNL     1       7.609  43.946  11.710  1.00  0.00    -0.003 C 
ATOM     26  C   UNL     1       6.507  44.848  11.161  1.00  0.00     0.004 C 
ENDBRANCH  24  25
ENDBRANCH  23  24
ENDBRANCH  22  23
ENDBRANCH  21  22
ENDBRANCH  20  21
ENDBRANCH  19  20
ENDBRANCH  18  19
ENDBRANCH  17  18
ENDBRANCH  16  17
ENDBRANCH  15  16
ENDBRANCH   1  15
TORSDOF 22
ENDMDL
MODEL 8
REMARK VINA RESULT:    -5.112      1.747      3.599
REMARK INTER + INTRA:         -15.486
REMARK INTER:                 -11.641
REMARK INTRA:                  -3.845
REMARK UNBOUND:                -3.799
REMARK SMILES CCCCCCCCCCCCCCCCCCCCCCCC(=O)[O-]
REMARK SMILES IDX 13 1 14 2 15 3 16 4 17 5 18 6 19 7 20 8 21 9 22 10 23 11
REMARK SMILES IDX 24 12 25 13 26 14 12 15 11 16 10 17 9 18 8 19 7 20 6 21 5 22
REMARK SMILES IDX 4 23 3 24 2 25 1 26
REMARK H PARENT
REMARK Flexibility Score: inf
ROOT
ATOM      1  C   UNL     1      13.024  47.052   5.146  1.00  0.00     0.000 C 
ENDROOT
BRANCH   1   2
ATOM      2  C   UNL     1      12.910  45.987   4.037  1.00  0.00     0.000 C 
BRANCH   2   3
ATOM      3  C   UNL     1      14.237  45.311   3.650  1.00  0.00     0.000 C 
BRANCH   3   4
ATOM      4  C   UNL     1      14.127  43.777   3.569  1.00  0.00     0.000 C 
BRANCH   4   5
ATOM      5  C   UNL     1      12.782  43.252   4.096  1.00  0.00     0.000 C 
BRANCH   5   6
ATOM      6  C   UNL     1      12.922  42.526   5.445  1.00  0.00     0.000 C 
BRANCH   6   7
ATOM      7  C   UNL     1      14.184  42.947   6.215  1.00  0.00     0.000 C 
BRANCH   7   8
ATOM      8  C   UNL     1      13.885  43.374   7.661  1.00  0.00     0.000 C 
BRANCH   8   9
ATOM      9  C   UNL     1      14.434  44.783   7.937  1.00  0.00     0.000 C 
BRANCH   9  10
ATOM     10  C   UNL     1      15.552  45.189   6.965  1.00  0.00     0.006 C 
BRANCH  10  11
ATOM     11  C   UNL     1      16.950  45.090   7.593  1.00  0.00     0.053 C 
BRANCH  11  12
ATOM     12  C   UNL     1      17.567  43.757   7.300  1.00  0.00     0.041 C 
ATOM     13  O   UNL     1      17.788  42.941   8.235  1.00  0.00    -0.550 OA
ATOM     14  O   UNL     1      17.906  43.417   5.996  1.00  0.00    -0.550 OA
ENDBRANCH  11  12
ENDBRANCH  10  11
ENDBRANCH   9  10
ENDBRANCH   8   9
ENDBRANCH   7   8
ENDBRANCH   6   7
ENDBRANCH   5   6
ENDBRANCH   4   5
ENDBRANCH   3   4
ENDBRANCH   2   3
ENDBRANCH   1   2
BRANCH   1  15
ATOM     15  C   UNL     1      11.759  47.238   6.006  1.00  0.00     0.000 C 
BRANCH  15  16
ATOM     16  C   UNL     1      11.108  45.932   6.501  1.00  0.00     0.000 C 
BRANCH  16  17
ATOM     17  C   UNL     1      11.016  45.793   8.032  1.00  0.00     0.000 C 
BRANCH  17  18
ATOM     18  C   UNL     1      10.434  44.442   8.474  1.00  0.00    -0.000 C 
BRANCH  18  19
ATOM     19  C   UNL     1      10.505  44.287   9.999  1.00  0.00    -0.000 C 
BRANCH  19  20
ATOM     20  C   UNL     1       9.132  43.916  10.579  1.00  0.00    -0.000 C 
BRANCH  20  21
ATOM     21  C   UNL     1       8.559  45.011  11.493  1.00  0.00    -0.000 C 
BRANCH  21  22
ATOM     22  C   UNL     1       7.296  45.667  10.913  1.00  0.00    -0.000 C 
BRANCH  22  23
ATOM     23  C   UNL     1       7.655  46.897  10.068  1.00  0.00    -0.000 C 
BRANCH  23  24
ATOM     24  C   UNL     1       7.449  46.667   8.562  1.00  0.00    -0.000 C 
BRANCH  24  25
ATOM     25  C   UNL     1       7.202  47.971   7.789  1.00  0.00    -0.003 C 
ATOM     26  C   UNL     1       8.489  48.481   7.147  1.00  0.00     0.004 C 
ENDBRANCH  24  25
ENDBRANCH  23  24
ENDBRANCH  22  23
ENDBRANCH  21  22
ENDBRANCH  20  21
ENDBRANCH  19  20
ENDBRANCH  18  19
ENDBRANCH  17  18
ENDBRANCH  16  17
ENDBRANCH  15  16
ENDBRANCH   1  15
TORSDOF 22
ENDMDL
MODEL 9
REMARK VINA RESULT:    -5.093      2.176      6.829
REMARK INTER + INTRA:         -15.442
REMARK INTER:                 -11.602
REMARK INTRA:                  -3.840
REMARK UNBOUND:                -3.799
REMARK SMILES CCCCCCCCCCCCCCCCCCCCCCCC(=O)[O-]
REMARK SMILES IDX 13 1 14 2 15 3 16 4 17 5 18 6 19 7 20 8 21 9 22 10 23 11
REMARK SMILES IDX 24 12 25 13 26 14 12 15 11 16 10 17 9 18 8 19 7 20 6 21 5 22
REMARK SMILES IDX 4 23 3 24 2 25 1 26
REMARK H PARENT
REMARK Flexibility Score: inf
ROOT
ATOM      1  C   UNL     1      12.420  44.251   7.576  1.00  0.00     0.000 C 
ENDROOT
BRANCH   1   2
ATOM      2  C   UNL     1      12.152  45.712   7.990  1.00  0.00     0.000 C 
BRANCH   2   3
ATOM      3  C   UNL     1      12.663  46.771   6.996  1.00  0.00     0.000 C 
BRANCH   3   4
ATOM      4  C   UNL     1      11.525  47.572   6.337  1.00  0.00     0.000 C 
BRANCH   4   5
ATOM      5  C   UNL     1      10.177  46.834   6.383  1.00  0.00     0.000 C 
BRANCH   5   6
ATOM      6  C   UNL     1       9.148  47.545   7.281  1.00  0.00     0.000 C 
BRANCH   6   7
ATOM      7  C   UNL     1       8.477  46.590   8.281  1.00  0.00     0.000 C 
BRANCH   7   8
ATOM      8  C   UNL     1       8.359  45.153   7.747  1.00  0.00     0.000 C 
BRANCH   8   9
ATOM      9  C   UNL     1       8.873  44.143   8.785  1.00  0.00     0.000 C 
BRANCH   9  10
ATOM     10  C   UNL     1       9.445  44.817  10.042  1.00  0.00     0.006 C 
BRANCH  10  11
ATOM     11  C   UNL     1      10.385  43.896  10.832  1.00  0.00     0.053 C 
BRANCH  11  12
ATOM     12  C   UNL     1      10.006  43.873  12.281  1.00  0.00     0.041 C 
ATOM     13  O   UNL     1       9.540  44.906  12.832  1.00  0.00    -0.550 OA
ATOM     14  O   UNL     1      10.173  42.712  13.027  1.00  0.00    -0.550 OA
ENDBRANCH  11  12
ENDBRANCH  10  11
ENDBRANCH   9  10
ENDBRANCH   8   9
ENDBRANCH   7   8
ENDBRANCH   6   7
ENDBRANCH   5   6
ENDBRANCH   4   5
ENDBRANCH   3   4
ENDBRANCH   2   3
ENDBRANCH   1   2
BRANCH   1  15
ATOM     15  C   UNL     1      11.690  43.789   6.299  1.00  0.00     0.000 C 
BRANCH  15  16
ATOM     16  C   UNL     1      12.569  43.040   5.280  1.00  0.00     0.000 C 
BRANCH  16  17
ATOM     17  C   UNL     1      12.657  43.697   3.890  1.00  0.00     0.000 C 
BRANCH  17  18
ATOM     18  C   UNL     1      13.242  45.116   3.937  1.00  0.00    -0.000 C 
BRANCH  18  19
ATOM     19  C   UNL     1      14.688  45.097   4.449  1.00  0.00    -0.000 C 
BRANCH  19  20
ATOM     20  C   UNL     1      15.617  44.389   3.450  1.00  0.00    -0.000 C 
BRANCH  20  21
ATOM     21  C   UNL     1      16.528  43.351   4.123  1.00  0.00    -0.000 C 
BRANCH  21  22
ATOM     22  C   UNL     1      16.326  43.279   5.645  1.00  0.00    -0.000 C 
BRANCH  22  23
ATOM     23  C   UNL     1      17.579  43.762   6.388  1.00  0.00    -0.000 C 
BRANCH  23  24
ATOM     24  C   UNL     1      17.310  44.991   7.272  1.00  0.00    -0.000 C 
BRANCH  24  25
ATOM     25  C   UNL     1      15.965  44.909   8.011  1.00  0.00    -0.003 C 
ATOM     26  C   UNL     1      16.017  43.874   9.132  1.00  0.00     0.004 C 
ENDBRANCH  24  25
ENDBRANCH  23  24
ENDBRANCH  22  23
ENDBRANCH  21  22
ENDBRANCH  20  21
ENDBRANCH  19  20
ENDBRANCH  18  19
ENDBRANCH  17  18
ENDBRANCH  16  17
ENDBRANCH  15  16
ENDBRANCH   1  15
TORSDOF 22
ENDMDL
