MODEL 1
REMARK VINA RESULT:    -4.256      0.000      0.000
REMARK INTER + INTRA:          -7.768
REMARK INTER:                  -7.242
REMARK INTRA:                  -0.526
REMARK UNBOUND:                -0.526
REMARK SMILES CCCCCCCCCCCCCC(=O)[O-]
REMARK SMILES IDX 8 1 9 2 10 3 11 4 12 5 13 6 14 7 15 8 16 9 7 10 6 11 5 12
REMARK SMILES IDX 4 13 3 14 2 15 1 16
REMARK H PARENT
REMARK Flexibility Score: inf
ROOT
ATOM      1  C   UNL     1       5.057  14.252  34.642  1.00  0.00     0.000 C 
ENDROOT
BRANCH   1   2
ATOM      2  C   UNL     1       5.434  13.050  35.524  1.00  0.00     0.000 C 
BRANCH   2   3
ATOM      3  C   UNL     1       4.879  11.723  34.982  1.00  0.00     0.000 C 
BRANCH   3   4
ATOM      4  C   UNL     1       4.926  11.646  33.448  1.00  0.00     0.000 C 
BRANCH   4   5
ATOM      5  C   UNL     1       5.985  10.641  32.981  1.00  0.00     0.006 C 
BRANCH   5   6
ATOM      6  C   UNL     1       6.268   9.597  34.065  1.00  0.00     0.053 C 
BRANCH   6   7
ATOM      7  C   UNL     1       6.964   8.409  33.480  1.00  0.00     0.041 C 
ATOM      8  O   UNL     1       6.300   7.412  33.094  1.00  0.00    -0.550 OA
ATOM      9  O   UNL     1       8.352   8.382  33.405  1.00  0.00    -0.550 OA
ENDBRANCH   6   7
ENDBRANCH   5   6
ENDBRANCH   4   5
ENDBRANCH   3   4
ENDBRANCH   2   3
ENDBRANCH   1   2
BRANCH   1  10
ATOM     10  C   UNL     1       6.167  15.316  34.579  1.00  0.00     0.000 C 
BRANCH  10  11
ATOM     11  C   UNL     1       5.674  16.775  34.667  1.00  0.00    -0.000 C 
BRANCH  11  12
ATOM     12  C   UNL     1       6.776  17.845  34.541  1.00  0.00    -0.000 C 
BRANCH  12  13
ATOM     13  C   UNL     1       6.270  19.264  34.216  1.00  0.00    -0.000 C 
BRANCH  13  14
ATOM     14  C   UNL     1       7.290  20.173  33.502  1.00  0.00    -0.000 C 
BRANCH  14  15
ATOM     15  C   UNL     1       6.777  20.830  32.208  1.00  0.00    -0.003 C 
ATOM     16  C   UNL     1       5.509  20.172  31.667  1.00  0.00     0.004 C 
ENDBRANCH  14  15
ENDBRANCH  13  14
ENDBRANCH  12  13
ENDBRANCH  11  12
ENDBRANCH  10  11
ENDBRANCH   1  10
TORSDOF 12
ENDMDL
MODEL 2
REMARK VINA RESULT:    -4.056      1.151      1.409
REMARK INTER + INTRA:          -7.427
REMARK INTER:                  -6.978
REMARK INTRA:                  -0.449
REMARK UNBOUND:                -0.526
REMARK SMILES CCCCCCCCCCCCCC(=O)[O-]
REMARK SMILES IDX 8 1 9 2 10 3 11 4 12 5 13 6 14 7 15 8 16 9 7 10 6 11 5 12
REMARK SMILES IDX 4 13 3 14 2 15 1 16
REMARK H PARENT
REMARK Flexibility Score: inf
ROOT
ATOM      1  C   UNL     1       5.261  13.257  34.309  1.00  0.00     0.000 C 
ENDROOT
BRANCH   1   2
ATOM      2  C   UNL     1       5.259  12.003  35.199  1.00  0.00     0.000 C 
BRANCH   2   3
ATOM      3  C   UNL     1       5.098  10.705  34.392  1.00  0.00     0.000 C 
BRANCH   3   4
ATOM      4  C   UNL     1       5.987  10.676  33.139  1.00  0.00     0.000 C 
BRANCH   4   5
ATOM      5  C   UNL     1       6.896   9.442  33.139  1.00  0.00     0.006 C 
BRANCH   5   6
ATOM      6  C   UNL     1       6.276   8.303  33.953  1.00  0.00     0.053 C 
BRANCH   6   7
ATOM      7  C   UNL     1       7.343   7.509  34.639  1.00  0.00     0.041 C 
ATOM      8  O   UNL     1       7.294   7.327  35.884  1.00  0.00    -0.550 OA
ATOM      9  O   UNL     1       8.417   7.011  33.912  1.00  0.00    -0.550 OA
ENDBRANCH   6   7
ENDBRANCH   5   6
ENDBRANCH   4   5
ENDBRANCH   3   4
ENDBRANCH   2   3
ENDBRANCH   1   2
BRANCH   1  10
ATOM     10  C   UNL     1       5.300  14.564  35.121  1.00  0.00     0.000 C 
BRANCH  10  11
ATOM     11  C   UNL     1       6.278  15.631  34.587  1.00  0.00    -0.000 C 
BRANCH  11  12
ATOM     12  C   UNL     1       6.071  17.049  35.155  1.00  0.00    -0.000 C 
BRANCH  12  13
ATOM     13  C   UNL     1       5.889  18.153  34.096  1.00  0.00    -0.000 C 
BRANCH  13  14
ATOM     14  C   UNL     1       7.095  19.098  33.926  1.00  0.00    -0.000 C 
BRANCH  14  15
ATOM     15  C   UNL     1       6.934  20.161  32.824  1.00  0.00    -0.003 C 
ATOM     16  C   UNL     1       5.637  20.008  32.032  1.00  0.00     0.004 C 
ENDBRANCH  14  15
ENDBRANCH  13  14
ENDBRANCH  12  13
ENDBRANCH  11  12
ENDBRANCH  10  11
ENDBRANCH   1  10
TORSDOF 12
ENDMDL
MODEL 3
REMARK VINA RESULT:    -3.974      4.275      9.151
REMARK INTER + INTRA:          -7.288
REMARK INTER:                  -6.741
REMARK INTRA:                  -0.547
REMARK UNBOUND:                -0.526
REMARK SMILES CCCCCCCCCCCCCC(=O)[O-]
REMARK SMILES IDX 8 1 9 2 10 3 11 4 12 5 13 6 14 7 15 8 16 9 7 10 6 11 5 12
REMARK SMILES IDX 4 13 3 14 2 15 1 16
REMARK H PARENT
REMARK Flexibility Score: inf
ROOT
ATOM      1  C   UNL     1       5.202  13.419  34.568  1.00  0.00     0.000 C 
ENDROOT
BRANCH   1   2
ATOM      2  C   UNL     1       5.588  13.881  35.984  1.00  0.00     0.000 C 
BRANCH   2   3
ATOM      3  C   UNL     1       6.051  15.346  36.021  1.00  0.00     0.000 C 
BRANCH   3   4
ATOM      4  C   UNL     1       6.335  15.911  34.621  1.00  0.00     0.000 C 
BRANCH   4   5
ATOM      5  C   UNL     1       5.761  17.325  34.471  1.00  0.00     0.006 C 
BRANCH   5   6
ATOM      6  C   UNL     1       6.870  18.378  34.545  1.00  0.00     0.053 C 
BRANCH   6   7
ATOM      7  C   UNL     1       6.678  19.416  33.485  1.00  0.00     0.041 C 
ATOM      8  O   UNL     1       5.740  19.305  32.652  1.00  0.00    -0.550 OA
ATOM      9  O   UNL     1       7.564  20.482  33.385  1.00  0.00    -0.550 OA
ENDBRANCH   6   7
ENDBRANCH   5   6
ENDBRANCH   4   5
ENDBRANCH   3   4
ENDBRANCH   2   3
ENDBRANCH   1   2
BRANCH   1  10
ATOM     10  C   UNL     1       4.989  11.898  34.476  1.00  0.00     0.000 C 
BRANCH  10  11
ATOM     11  C   UNL     1       5.548  11.241  33.198  1.00  0.00    -0.000 C 
BRANCH  11  12
ATOM     12  C   UNL     1       6.132   9.827  33.393  1.00  0.00    -0.000 C 
BRANCH  12  13
ATOM     13  C   UNL     1       5.740   9.138  34.715  1.00  0.00    -0.000 C 
BRANCH  13  14
ATOM     14  C   UNL     1       5.554   7.611  34.624  1.00  0.00    -0.000 C 
BRANCH  14  15
ATOM     15  C   UNL     1       6.564   6.889  33.716  1.00  0.00    -0.003 C 
ATOM     16  C   UNL     1       7.956   6.781  34.338  1.00  0.00     0.004 C 
ENDBRANCH  14  15
ENDBRANCH  13  14
ENDBRANCH  12  13
ENDBRANCH  11  12
ENDBRANCH  10  11
ENDBRANCH   1  10
TORSDOF 12
ENDMDL
MODEL 4
REMARK VINA RESULT:    -3.947      4.206      9.630
REMARK INTER + INTRA:          -7.241
REMARK INTER:                  -6.197
REMARK INTRA:                  -1.044
REMARK UNBOUND:                -0.526
REMARK SMILES CCCCCCCCCCCCCC(=O)[O-]
REMARK SMILES IDX 8 1 9 2 10 3 11 4 12 5 13 6 14 7 15 8 16 9 7 10 6 11 5 12
REMARK SMILES IDX 4 13 3 14 2 15 1 16
REMARK H PARENT
REMARK Flexibility Score: inf
ROOT
ATOM      1  C   UNL     1       6.942   8.987  34.109  1.00  0.00     0.000 C 
ENDROOT
BRANCH   1   2
ATOM      2  C   UNL     1       6.411   9.912  33.002  1.00  0.00     0.000 C 
BRANCH   2   3
ATOM      3  C   UNL     1       5.473  11.003  33.543  1.00  0.00     0.000 C 
BRANCH   3   4
ATOM      4  C   UNL     1       5.310  10.937  35.069  1.00  0.00     0.000 C 
BRANCH   4   5
ATOM      5  C   UNL     1       5.199  12.342  35.672  1.00  0.00     0.006 C 
BRANCH   5   6
ATOM      6  C   UNL     1       5.300  13.415  34.585  1.00  0.00     0.053 C 
BRANCH   6   7
ATOM      7  C   UNL     1       5.839  14.689  35.155  1.00  0.00     0.041 C 
ATOM      8  O   UNL     1       5.682  15.776  34.539  1.00  0.00    -0.550 OA
ATOM      9  O   UNL     1       6.559  14.670  36.344  1.00  0.00    -0.550 OA
ENDBRANCH   6   7
ENDBRANCH   5   6
ENDBRANCH   4   5
ENDBRANCH   3   4
ENDBRANCH   2   3
ENDBRANCH   1   2
BRANCH   1  10
ATOM     10  C   UNL     1       7.244   7.565  33.604  1.00  0.00     0.000 C 
BRANCH  10  11
ATOM     11  C   UNL     1       6.001   6.678  33.382  1.00  0.00    -0.000 C 
BRANCH  11  12
ATOM     12  C   UNL     1       5.524   5.902  34.627  1.00  0.00    -0.000 C 
BRANCH  12  13
ATOM     13  C   UNL     1       6.604   5.040  35.309  1.00  0.00    -0.000 C 
BRANCH  13  14
ATOM     14  C   UNL     1       7.085   5.561  36.678  1.00  0.00    -0.000 C 
BRANCH  14  15
ATOM     15  C   UNL     1       8.581   5.919  36.744  1.00  0.00    -0.003 C 
ATOM     16  C   UNL     1       9.391   5.312  35.600  1.00  0.00     0.004 C 
ENDBRANCH  14  15
ENDBRANCH  13  14
ENDBRANCH  12  13
ENDBRANCH  11  12
ENDBRANCH  10  11
ENDBRANCH   1  10
TORSDOF 12
ENDMDL
MODEL 5
REMARK VINA RESULT:    -3.930      3.498      6.335
REMARK INTER + INTRA:          -7.213
REMARK INTER:                  -6.108
REMARK INTRA:                  -1.105
REMARK UNBOUND:                -0.526
REMARK SMILES CCCCCCCCCCCCCC(=O)[O-]
REMARK SMILES IDX 8 1 9 2 10 3 11 4 12 5 13 6 14 7 15 8 16 9 7 10 6 11 5 12
REMARK SMILES IDX 4 13 3 14 2 15 1 16
REMARK H PARENT
REMARK Flexibility Score: inf
ROOT
ATOM      1  C   UNL     1       7.324   8.379  33.690  1.00  0.00     0.000 C 
ENDROOT
BRANCH   1   2
ATOM      2  C   UNL     1       6.754   6.984  33.385  1.00  0.00     0.000 C 
BRANCH   2   3
ATOM      3  C   UNL     1       5.892   6.433  34.532  1.00  0.00     0.000 C 
BRANCH   3   4
ATOM      4  C   UNL     1       6.358   5.049  35.008  1.00  0.00     0.000 C 
BRANCH   4   5
ATOM      5  C   UNL     1       6.884   5.111  36.447  1.00  0.00     0.006 C 
BRANCH   5   6
ATOM      6  C   UNL     1       8.222   5.852  36.512  1.00  0.00     0.053 C 
BRANCH   6   7
ATOM      7  C   UNL     1       9.269   5.110  35.743  1.00  0.00     0.041 C 
ATOM      8  O   UNL     1       9.840   5.654  34.762  1.00  0.00    -0.550 OA
ATOM      9  O   UNL     1       9.581   3.798  36.080  1.00  0.00    -0.550 OA
ENDBRANCH   6   7
ENDBRANCH   5   6
ENDBRANCH   4   5
ENDBRANCH   3   4
ENDBRANCH   2   3
ENDBRANCH   1   2
BRANCH   1  10
ATOM     10  C   UNL     1       6.818   8.950  35.027  1.00  0.00     0.000 C 
BRANCH  10  11
ATOM     11  C   UNL     1       5.894  10.178  34.899  1.00  0.00    -0.000 C 
BRANCH  11  12
ATOM     12  C   UNL     1       5.646  10.661  33.455  1.00  0.00    -0.000 C 
BRANCH  12  13
ATOM     13  C   UNL     1       5.127  12.107  33.334  1.00  0.00    -0.000 C 
BRANCH  13  14
ATOM     14  C   UNL     1       5.094  12.901  34.655  1.00  0.00    -0.000 C 
BRANCH  14  15
ATOM     15  C   UNL     1       5.484  14.385  34.527  1.00  0.00    -0.003 C 
ATOM     16  C   UNL     1       6.166  14.933  35.780  1.00  0.00     0.004 C 
ENDBRANCH  14  15
ENDBRANCH  13  14
ENDBRANCH  12  13
ENDBRANCH  11  12
ENDBRANCH  10  11
ENDBRANCH   1  10
TORSDOF 12
ENDMDL
MODEL 6
REMARK VINA RESULT:    -3.843      5.059      9.956
REMARK INTER + INTRA:          -7.065
REMARK INTER:                  -5.548
REMARK INTRA:                  -1.517
REMARK UNBOUND:                -0.526
REMARK SMILES CCCCCCCCCCCCCC(=O)[O-]
REMARK SMILES IDX 8 1 9 2 10 3 11 4 12 5 13 6 14 7 15 8 16 9 7 10 6 11 5 12
REMARK SMILES IDX 4 13 3 14 2 15 1 16
REMARK H PARENT
REMARK Flexibility Score: inf
ROOT
ATOM      1  C   UNL     1       7.495   7.287  33.719  1.00  0.00     0.000 C 
ENDROOT
BRANCH   1   2
ATOM      2  C   UNL     1       7.480   8.701  34.322  1.00  0.00     0.000 C 
BRANCH   2   3
ATOM      3  C   UNL     1       7.431   8.688  35.859  1.00  0.00     0.000 C 
BRANCH   3   4
ATOM      4  C   UNL     1       6.216   9.443  36.417  1.00  0.00     0.000 C 
BRANCH   4   5
ATOM      5  C   UNL     1       5.230   9.802  35.299  1.00  0.00     0.006 C 
BRANCH   5   6
ATOM      6  C   UNL     1       4.935  11.304  35.287  1.00  0.00     0.053 C 
BRANCH   6   7
ATOM      7  C   UNL     1       5.273  11.894  33.955  1.00  0.00     0.041 C 
ATOM      8  O   UNL     1       5.535  11.145  32.978  1.00  0.00    -0.550 OA
ATOM      9  O   UNL     1       5.348  13.273  33.803  1.00  0.00    -0.550 OA
ENDBRANCH   6   7
ENDBRANCH   5   6
ENDBRANCH   4   5
ENDBRANCH   3   4
ENDBRANCH   2   3
ENDBRANCH   1   2
BRANCH   1  10
ATOM     10  C   UNL     1       6.090   6.786  33.338  1.00  0.00     0.000 C 
BRANCH  10  11
ATOM     11  C   UNL     1       5.629   5.518  34.085  1.00  0.00    -0.000 C 
BRANCH  11  12
ATOM     12  C   UNL     1       5.486   5.676  35.613  1.00  0.00    -0.000 C 
BRANCH  12  13
ATOM     13  C   UNL     1       5.978   4.472  36.439  1.00  0.00    -0.000 C 
BRANCH  13  14
ATOM     14  C   UNL     1       7.275   3.815  35.927  1.00  0.00    -0.000 C 
BRANCH  14  15
ATOM     15  C   UNL     1       8.563   4.311  36.606  1.00  0.00    -0.003 C 
ATOM     16  C   UNL     1       9.372   5.265  35.729  1.00  0.00     0.004 C 
ENDBRANCH  14  15
ENDBRANCH  13  14
ENDBRANCH  12  13
ENDBRANCH  11  12
ENDBRANCH  10  11
ENDBRANCH   1  10
TORSDOF 12
ENDMDL
MODEL 7
REMARK VINA RESULT:    -3.653      4.609     10.110
REMARK INTER + INTRA:          -6.741
REMARK INTER:                  -5.720
REMARK INTRA:                  -1.021
REMARK UNBOUND:                -0.526
REMARK SMILES CCCCCCCCCCCCCC(=O)[O-]
REMARK SMILES IDX 8 1 9 2 10 3 11 4 12 5 13 6 14 7 15 8 16 9 7 10 6 11 5 12
REMARK SMILES IDX 4 13 3 14 2 15 1 16
REMARK H PARENT
REMARK Flexibility Score: inf
ROOT
ATOM      1  C   UNL     1       7.119   7.546  33.489  1.00  0.00     0.000 C 
ENDROOT
BRANCH   1   2
ATOM      2  C   UNL     1       7.518   9.008  33.230  1.00  0.00     0.000 C 
BRANCH   2   3
ATOM      3  C   UNL     1       6.330   9.975  33.349  1.00  0.00     0.000 C 
BRANCH   3   4
ATOM      4  C   UNL     1       5.492   9.728  34.612  1.00  0.00     0.000 C 
BRANCH   4   5
ATOM      5  C   UNL     1       4.919  11.041  35.158  1.00  0.00     0.006 C 
BRANCH   5   6
ATOM      6  C   UNL     1       5.256  12.213  34.233  1.00  0.00     0.053 C 
BRANCH   6   7
ATOM      7  C   UNL     1       5.419  13.473  35.023  1.00  0.00     0.041 C 
ATOM      8  O   UNL     1       5.747  14.544  34.448  1.00  0.00    -0.550 OA
ATOM      9  O   UNL     1       5.257  13.456  36.403  1.00  0.00    -0.550 OA
ENDBRANCH   6   7
ENDBRANCH   5   6
ENDBRANCH   4   5
ENDBRANCH   3   4
ENDBRANCH   2   3
ENDBRANCH   1   2
BRANCH   1  10
ATOM     10  C   UNL     1       8.020   6.857  34.529  1.00  0.00     0.000 C 
BRANCH  10  11
ATOM     11  C   UNL     1       7.508   6.929  35.982  1.00  0.00    -0.000 C 
BRANCH  11  12
ATOM     12  C   UNL     1       7.137   5.571  36.611  1.00  0.00    -0.000 C 
BRANCH  12  13
ATOM     13  C   UNL     1       7.029   4.401  35.614  1.00  0.00    -0.000 C 
BRANCH  13  14
ATOM     14  C   UNL     1       5.795   3.497  35.801  1.00  0.00    -0.000 C 
BRANCH  14  15
ATOM     15  C   UNL     1       4.898   3.362  34.558  1.00  0.00    -0.003 C 
ATOM     16  C   UNL     1       5.049   4.528  33.582  1.00  0.00     0.004 C 
ENDBRANCH  14  15
ENDBRANCH  13  14
ENDBRANCH  12  13
ENDBRANCH  11  12
ENDBRANCH  10  11
ENDBRANCH   1  10
TORSDOF 12
ENDMDL
MODEL 8
REMARK VINA RESULT:    -3.631      3.714      6.623
REMARK INTER + INTRA:          -6.704
REMARK INTER:                  -5.926
REMARK INTRA:                  -0.778
REMARK UNBOUND:                -0.526
REMARK SMILES CCCCCCCCCCCCCC(=O)[O-]
REMARK SMILES IDX 8 1 9 2 10 3 11 4 12 5 13 6 14 7 15 8 16 9 7 10 6 11 5 12
REMARK SMILES IDX 4 13 3 14 2 15 1 16
REMARK H PARENT
REMARK Flexibility Score: inf
ROOT
ATOM      1  C   UNL     1       7.248   8.537  33.113  1.00  0.00     0.000 C 
ENDROOT
BRANCH   1   2
ATOM      2  C   UNL     1       6.328   7.328  33.354  1.00  0.00     0.000 C 
BRANCH   2   3
ATOM      3  C   UNL     1       6.938   6.306  34.326  1.00  0.00     0.000 C 
BRANCH   3   4
ATOM      4  C   UNL     1       8.432   6.554  34.582  1.00  0.00     0.000 C 
BRANCH   4   5
ATOM      5  C   UNL     1       8.969   5.610  35.664  1.00  0.00     0.006 C 
BRANCH   5   6
ATOM      6  C   UNL     1       7.930   4.547  36.030  1.00  0.00     0.053 C 
BRANCH   6   7
ATOM      7  C   UNL     1       8.589   3.222  36.247  1.00  0.00     0.041 C 
ATOM      8  O   UNL     1       7.904   2.221  36.584  1.00  0.00    -0.550 OA
ATOM      9  O   UNL     1       9.968   3.103  36.124  1.00  0.00    -0.550 OA
ENDBRANCH   6   7
ENDBRANCH   5   6
ENDBRANCH   4   5
ENDBRANCH   3   4
ENDBRANCH   2   3
ENDBRANCH   1   2
BRANCH   1  10
ATOM     10  C   UNL     1       6.490   9.876  33.139  1.00  0.00     0.000 C 
BRANCH  10  11
ATOM     11  C   UNL     1       5.411   9.991  34.235  1.00  0.00    -0.000 C 
BRANCH  11  12
ATOM     12  C   UNL     1       5.949  10.253  35.656  1.00  0.00    -0.000 C 
BRANCH  12  13
ATOM     13  C   UNL     1       5.453  11.558  36.308  1.00  0.00    -0.000 C 
BRANCH  13  14
ATOM     14  C   UNL     1       5.283  12.747  35.341  1.00  0.00    -0.000 C 
BRANCH  14  15
ATOM     15  C   UNL     1       5.816  14.091  35.869  1.00  0.00    -0.003 C 
ATOM     16  C   UNL     1       6.084  15.105  34.758  1.00  0.00     0.004 C 
ENDBRANCH  14  15
ENDBRANCH  13  14
ENDBRANCH  12  13
ENDBRANCH  11  12
ENDBRANCH  10  11
ENDBRANCH   1  10
TORSDOF 12
ENDMDL
MODEL 9
REMARK VINA RESULT:    -3.590      4.175      8.892
REMARK INTER + INTRA:          -6.635
REMARK INTER:                  -5.627
REMARK INTRA:                  -1.008
REMARK UNBOUND:                -0.526
REMARK SMILES CCCCCCCCCCCCCC(=O)[O-]
REMARK SMILES IDX 8 1 9 2 10 3 11 4 12 5 13 6 14 7 15 8 16 9 7 10 6 11 5 12
REMARK SMILES IDX 4 13 3 14 2 15 1 16
REMARK H PARENT
REMARK Flexibility Score: inf
ROOT
ATOM      1  C   UNL     1       5.780  10.808  33.880  1.00  0.00     0.000 C 
ENDROOT
BRANCH   1   2
ATOM      2  C   UNL     1       4.875  11.892  33.271  1.00  0.00     0.000 C 
BRANCH   2   3
ATOM      3  C   UNL     1       5.162  13.290  33.840  1.00  0.00     0.000 C 
BRANCH   3   4
ATOM      4  C   UNL     1       5.105  13.326  35.374  1.00  0.00     0.000 C 
BRANCH   4   5
ATOM      5  C   UNL     1       5.875  14.531  35.925  1.00  0.00     0.006 C 
BRANCH   5   6
ATOM      6  C   UNL     1       6.377  15.428  34.791  1.00  0.00     0.053 C 
BRANCH   6   7
ATOM      7  C   UNL     1       5.947  16.844  35.012  1.00  0.00     0.041 C 
ATOM      8  O   UNL     1       6.223  17.730  34.162  1.00  0.00    -0.550 OA
ATOM      9  O   UNL     1       5.284  17.194  36.182  1.00  0.00    -0.550 OA
ENDBRANCH   6   7
ENDBRANCH   5   6
ENDBRANCH   4   5
ENDBRANCH   3   4
ENDBRANCH   2   3
ENDBRANCH   1   2
BRANCH   1  10
ATOM     10  C   UNL     1       4.994   9.762  34.691  1.00  0.00     0.000 C 
BRANCH  10  11
ATOM     11  C   UNL     1       5.679   9.301  35.993  1.00  0.00    -0.000 C 
BRANCH  11  12
ATOM     12  C   UNL     1       7.161   8.900  35.844  1.00  0.00    -0.000 C 
BRANCH  12  13
ATOM     13  C   UNL     1       7.457   7.406  36.079  1.00  0.00    -0.000 C 
BRANCH  13  14
ATOM     14  C   UNL     1       7.804   6.603  34.810  1.00  0.00    -0.000 C 
BRANCH  14  15
ATOM     15  C   UNL     1       6.936   6.927  33.582  1.00  0.00    -0.003 C 
ATOM     16  C   UNL     1       5.643   6.114  33.533  1.00  0.00     0.004 C 
ENDBRANCH  14  15
ENDBRANCH  13  14
ENDBRANCH  12  13
ENDBRANCH  11  12
ENDBRANCH  10  11
ENDBRANCH   1  10
TORSDOF 12
ENDMDL
