MODEL 1
REMARK VINA RESULT:    -2.842      0.000      0.000
REMARK INTER + INTRA:          -3.779
REMARK INTER:                  -3.424
REMARK INTRA:                  -0.355
REMARK UNBOUND:                -0.355
REMARK SMILES O=c1c(O)c(-c2ccc(O)cc2O)oc2cc(O)cc(O)c12
REMARK SMILES IDX 5 1 3 2 2 3 1 4 22 5 20 6 19 7 17 8 16 9 15 10 14 11 6 12
REMARK SMILES IDX 8 13 7 14 9 15 11 16 12 17 10 18 13 20 4 22 21 24 18 26
REMARK H PARENT 10 19 13 21 4 23 21 25 18 27
REMARK Flexibility Score: inf
ROOT
ATOM      1  C   UNL     1      23.518   0.895 -26.978  1.00  0.00     0.184 A 
ATOM      2  C   UNL     1      23.915   0.733 -25.640  1.00  0.00     0.208 A 
ATOM      3  C   UNL     1      23.847  -0.543 -25.060  1.00  0.00     0.238 A 
ATOM      4  O   UNL     1      24.257  -0.692 -23.878  1.00  0.00    -0.285 OA
ATOM      5  C   UNL     1      23.366  -1.637 -25.818  1.00  0.00     0.111 A 
ATOM      6  C   UNL     1      23.217  -2.967 -25.319  1.00  0.00     0.134 A 
ATOM      7  C   UNL     1      22.852  -3.996 -26.195  1.00  0.00     0.093 A 
ATOM      8  C   UNL     1      22.567  -3.733 -27.537  1.00  0.00     0.123 A 
ATOM      9  C   UNL     1      22.651  -2.429 -28.020  1.00  0.00     0.094 A 
ATOM     10  C   UNL     1      23.049  -1.386 -27.178  1.00  0.00     0.146 A 
ATOM     11  O   UNL     1      23.128  -0.161 -27.682  1.00  0.00    -0.451 OA
ENDROOT
BRANCH   1  12
ATOM     12  C   UNL     1      23.541   2.218 -27.645  1.00  0.00     0.063 A 
ATOM     13  C   UNL     1      24.770   4.179 -28.402  1.00  0.00     0.047 A 
ATOM     14  C   UNL     1      24.751   2.918 -27.799  1.00  0.00     0.020 A 
ATOM     15  C   UNL     1      23.579   4.762 -28.849  1.00  0.00     0.119 A 
ATOM     16  C   UNL     1      22.370   4.081 -28.688  1.00  0.00     0.093 A 
ATOM     17  C   UNL     1      22.341   2.814 -28.086  1.00  0.00     0.130 A 
BRANCH  15  18
ATOM     18  O   UNL     1      23.586   6.018 -29.452  1.00  0.00    -0.508 OA
ATOM     19  H   UNL     1      22.732   6.550 -29.576  1.00  0.00     0.293 HD
ENDBRANCH  15  18
BRANCH  17  20
ATOM     20  O   UNL     1      21.127   2.143 -27.937  1.00  0.00    -0.507 OA
ATOM     21  H   UNL     1      20.497   2.004 -28.718  1.00  0.00     0.293 HD
ENDBRANCH  17  20
ENDBRANCH   1  12
BRANCH   2  22
ATOM     22  O   UNL     1      24.400   1.826 -24.916  1.00  0.00    -0.502 OA
ATOM     23  H   UNL     1      24.774   1.734 -23.979  1.00  0.00     0.293 HD
ENDBRANCH   2  22
BRANCH   6  24
ATOM     24  O   UNL     1      23.388  -3.320 -23.977  1.00  0.00    -0.507 OA
ATOM     25  H   UNL     1      24.261  -3.267 -23.475  1.00  0.00     0.293 HD
ENDBRANCH   6  24
BRANCH   8  26
ATOM     26  O   UNL     1      22.188  -4.760 -28.399  1.00  0.00    -0.508 OA
ATOM     27  H   UNL     1      21.925  -4.575 -29.360  1.00  0.00     0.293 HD
ENDBRANCH   8  26
TORSDOF 6
ENDMDL
MODEL 2
REMARK VINA RESULT:    -2.740      1.496      7.251
REMARK INTER + INTRA:          -3.656
REMARK INTER:                  -3.301
REMARK INTRA:                  -0.355
REMARK UNBOUND:                -0.355
REMARK SMILES O=c1c(O)c(-c2ccc(O)cc2O)oc2cc(O)cc(O)c12
REMARK SMILES IDX 5 1 3 2 2 3 1 4 22 5 20 6 19 7 17 8 16 9 15 10 14 11 6 12
REMARK SMILES IDX 8 13 7 14 9 15 11 16 12 17 10 18 13 20 4 22 21 24 18 26
REMARK H PARENT 10 19 13 21 4 23 21 25 18 27
REMARK Flexibility Score: inf
ROOT
ATOM      1  C   UNL     1      23.618   1.907 -27.394  1.00  0.00     0.184 A 
ATOM      2  C   UNL     1      22.477   2.491 -27.969  1.00  0.00     0.208 A 
ATOM      3  C   UNL     1      22.576   3.777 -28.523  1.00  0.00     0.238 A 
ATOM      4  O   UNL     1      21.565   4.272 -29.086  1.00  0.00    -0.285 OA
ATOM      5  C   UNL     1      23.809   4.470 -28.478  1.00  0.00     0.111 A 
ATOM      6  C   UNL     1      24.015   5.794 -28.973  1.00  0.00     0.134 A 
ATOM      7  C   UNL     1      25.306   6.331 -28.991  1.00  0.00     0.093 A 
ATOM      8  C   UNL     1      26.391   5.619 -28.472  1.00  0.00     0.123 A 
ATOM      9  C   UNL     1      26.192   4.351 -27.933  1.00  0.00     0.094 A 
ATOM     10  C   UNL     1      24.919   3.773 -27.934  1.00  0.00     0.146 A 
ATOM     11  O   UNL     1      24.775   2.557 -27.421  1.00  0.00    -0.451 OA
ENDROOT
BRANCH   1  12
ATOM     12  C   UNL     1      23.578   0.563 -26.771  1.00  0.00     0.063 A 
ATOM     13  C   UNL     1      23.182  -1.833 -26.944  1.00  0.00     0.047 A 
ATOM     14  C   UNL     1      23.249  -0.569 -27.538  1.00  0.00     0.020 A 
ATOM     15  C   UNL     1      23.433  -1.980 -25.575  1.00  0.00     0.119 A 
ATOM     16  C   UNL     1      23.747  -0.860 -24.802  1.00  0.00     0.093 A 
ATOM     17  C   UNL     1      23.818   0.412 -25.389  1.00  0.00     0.130 A 
BRANCH  15  18
ATOM     18  O   UNL     1      23.369  -3.236 -24.973  1.00  0.00    -0.508 OA
ATOM     19  H   UNL     1      22.915  -3.371 -24.077  1.00  0.00     0.293 HD
ENDBRANCH  15  18
BRANCH  17  20
ATOM     20  O   UNL     1      24.139   1.521 -24.606  1.00  0.00    -0.507 OA
ATOM     21  H   UNL     1      24.931   2.113 -24.822  1.00  0.00     0.293 HD
ENDBRANCH  17  20
ENDBRANCH   1  12
BRANCH   2  22
ATOM     22  O   UNL     1      21.273   1.781 -28.014  1.00  0.00    -0.502 OA
ATOM     23  H   UNL     1      20.566   1.865 -27.295  1.00  0.00     0.293 HD
ENDBRANCH   2  22
BRANCH   6  24
ATOM     24  O   UNL     1      22.986   6.624 -29.429  1.00  0.00    -0.507 OA
ATOM     25  H   UNL     1      22.053   6.647 -29.047  1.00  0.00     0.293 HD
ENDBRANCH   6  24
BRANCH   8  26
ATOM     26  O   UNL     1      27.672   6.168 -28.479  1.00  0.00    -0.508 OA
ATOM     27  H   UNL     1      28.032   6.682 -27.682  1.00  0.00     0.293 HD
ENDBRANCH   8  26
TORSDOF 6
ENDMDL
MODEL 3
REMARK VINA RESULT:    -2.658      1.640      7.015
REMARK INTER + INTRA:          -3.557
REMARK INTER:                  -3.223
REMARK INTRA:                  -0.333
REMARK UNBOUND:                -0.355
REMARK SMILES O=c1c(O)c(-c2ccc(O)cc2O)oc2cc(O)cc(O)c12
REMARK SMILES IDX 5 1 3 2 2 3 1 4 22 5 20 6 19 7 17 8 16 9 15 10 14 11 6 12
REMARK SMILES IDX 8 13 7 14 9 15 11 16 12 17 10 18 13 20 4 22 21 24 18 26
REMARK H PARENT 10 19 13 21 4 23 21 25 18 27
REMARK Flexibility Score: inf
ROOT
ATOM      1  C   UNL     1      23.457   1.140 -27.640  1.00  0.00     0.184 A 
ATOM      2  C   UNL     1      22.398   1.944 -28.094  1.00  0.00     0.208 A 
ATOM      3  C   UNL     1      22.625   3.312 -28.307  1.00  0.00     0.238 A 
ATOM      4  O   UNL     1      21.687   4.016 -28.767  1.00  0.00    -0.285 OA
ATOM      5  C   UNL     1      23.902   3.864 -28.045  1.00  0.00     0.111 A 
ATOM      6  C   UNL     1      24.234   5.246 -28.188  1.00  0.00     0.134 A 
ATOM      7  C   UNL     1      25.561   5.657 -28.023  1.00  0.00     0.093 A 
ATOM      8  C   UNL     1      26.558   4.748 -27.658  1.00  0.00     0.123 A 
ATOM      9  C   UNL     1      26.233   3.409 -27.458  1.00  0.00     0.094 A 
ATOM     10  C   UNL     1      24.923   2.961 -27.650  1.00  0.00     0.146 A 
ATOM     11  O   UNL     1      24.659   1.674 -27.461  1.00  0.00    -0.451 OA
ENDROOT
BRANCH   1  12
ATOM     12  C   UNL     1      23.280  -0.306 -27.372  1.00  0.00     0.063 A 
ATOM     13  C   UNL     1      22.669  -2.535 -28.137  1.00  0.00     0.047 A 
ATOM     14  C   UNL     1      22.864  -1.176 -28.396  1.00  0.00     0.020 A 
ATOM     15  C   UNL     1      22.877  -3.042 -26.849  1.00  0.00     0.119 A 
ATOM     16  C   UNL     1      23.277  -2.184 -25.822  1.00  0.00     0.093 A 
ATOM     17  C   UNL     1      23.477  -0.818 -26.072  1.00  0.00     0.130 A 
BRANCH  15  18
ATOM     18  O   UNL     1      22.686  -4.396 -26.579  1.00  0.00    -0.508 OA
ATOM     19  H   UNL     1      21.888  -4.722 -26.046  1.00  0.00     0.293 HD
ENDBRANCH  15  18
BRANCH  17  20
ATOM     20  O   UNL     1      23.883   0.026 -25.038  1.00  0.00    -0.507 OA
ATOM     21  H   UNL     1      24.713   0.600 -25.116  1.00  0.00     0.293 HD
ENDBRANCH  17  20
ENDBRANCH   1  12
BRANCH   2  22
ATOM     22  O   UNL     1      21.149   1.374 -28.359  1.00  0.00    -0.502 OA
ATOM     23  H   UNL     1      21.041   0.402 -28.620  1.00  0.00     0.293 HD
ENDBRANCH   2  22
BRANCH   6  24
ATOM     24  O   UNL     1      23.299   6.249 -28.461  1.00  0.00    -0.507 OA
ATOM     25  H   UNL     1      22.645   6.624 -27.791  1.00  0.00     0.293 HD
ENDBRANCH   6  24
BRANCH   8  26
ATOM     26  O   UNL     1      27.874   5.169 -27.480  1.00  0.00    -0.508 OA
ATOM     27  H   UNL     1      28.148   6.133 -27.637  1.00  0.00     0.293 HD
ENDBRANCH   8  26
TORSDOF 6
ENDMDL
MODEL 4
REMARK VINA RESULT:    -2.588     18.888     20.780
REMARK INTER + INTRA:          -3.472
REMARK INTER:                  -2.997
REMARK INTRA:                  -0.475
REMARK UNBOUND:                -0.355
REMARK SMILES O=c1c(O)c(-c2ccc(O)cc2O)oc2cc(O)cc(O)c12
REMARK SMILES IDX 5 1 3 2 2 3 1 4 22 5 20 6 19 7 17 8 16 9 15 10 14 11 6 12
REMARK SMILES IDX 8 13 7 14 9 15 11 16 12 17 10 18 13 20 4 22 21 24 18 26
REMARK H PARENT 10 19 13 21 4 23 21 25 18 27
REMARK Flexibility Score: inf
ROOT
ATOM      1  C   UNL     1      34.622  -6.274 -41.100  1.00  0.00     0.184 A 
ATOM      2  C   UNL     1      33.933  -5.289 -41.827  1.00  0.00     0.208 A 
ATOM      3  C   UNL     1      34.665  -4.392 -42.621  1.00  0.00     0.238 A 
ATOM      4  O   UNL     1      34.039  -3.547 -43.314  1.00  0.00    -0.285 OA
ATOM      5  C   UNL     1      36.077  -4.478 -42.662  1.00  0.00     0.111 A 
ATOM      6  C   UNL     1      36.923  -3.596 -43.400  1.00  0.00     0.134 A 
ATOM      7  C   UNL     1      38.297  -3.854 -43.469  1.00  0.00     0.093 A 
ATOM      8  C   UNL     1      38.866  -4.924 -42.774  1.00  0.00     0.123 A 
ATOM      9  C   UNL     1      38.058  -5.755 -42.002  1.00  0.00     0.094 A 
ATOM     10  C   UNL     1      36.677  -5.545 -41.943  1.00  0.00     0.146 A 
ATOM     11  O   UNL     1      35.942  -6.368 -41.206  1.00  0.00    -0.451 OA
ENDROOT
BRANCH   1  12
ATOM     12  C   UNL     1      33.913  -7.237 -40.224  1.00  0.00     0.063 A 
ATOM     13  C   UNL     1      32.894  -7.786 -38.083  1.00  0.00     0.047 A 
ATOM     14  C   UNL     1      33.537  -6.870 -38.920  1.00  0.00     0.020 A 
ATOM     15  C   UNL     1      32.628  -9.084 -38.534  1.00  0.00     0.119 A 
ATOM     16  C   UNL     1      33.010  -9.462 -39.824  1.00  0.00     0.093 A 
ATOM     17  C   UNL     1      33.655  -8.549 -40.672  1.00  0.00     0.130 A 
BRANCH  15  18
ATOM     18  O   UNL     1      31.988 -10.006 -37.709  1.00  0.00    -0.508 OA
ATOM     19  H   UNL     1      31.727  -9.773 -36.757  1.00  0.00     0.293 HD
ENDBRANCH  15  18
BRANCH  17  20
ATOM     20  O   UNL     1      34.025  -8.939 -41.959  1.00  0.00    -0.507 OA
ATOM     21  H   UNL     1      34.750  -8.454 -42.473  1.00  0.00     0.293 HD
ENDBRANCH  17  20
ENDBRANCH   1  12
BRANCH   2  22
ATOM     22  O   UNL     1      32.537  -5.232 -41.782  1.00  0.00    -0.502 OA
ATOM     23  H   UNL     1      31.951  -5.801 -42.381  1.00  0.00     0.293 HD
ENDBRANCH   2  22
BRANCH   6  24
ATOM     24  O   UNL     1      36.470  -2.447 -44.055  1.00  0.00    -0.507 OA
ATOM     25  H   UNL     1      35.654  -2.406 -44.646  1.00  0.00     0.293 HD
ENDBRANCH   6  24
BRANCH   8  26
ATOM     26  O   UNL     1      40.237  -5.164 -42.835  1.00  0.00    -0.508 OA
ATOM     27  H   UNL     1      40.893  -4.631 -42.276  1.00  0.00     0.293 HD
ENDBRANCH   8  26
TORSDOF 6
ENDMDL
MODEL 5
REMARK VINA RESULT:    -2.492      2.399      7.138
REMARK INTER + INTRA:          -3.357
REMARK INTER:                  -2.932
REMARK INTRA:                  -0.425
REMARK UNBOUND:                -0.355
REMARK SMILES O=c1c(O)c(-c2ccc(O)cc2O)oc2cc(O)cc(O)c12
REMARK SMILES IDX 5 1 3 2 2 3 1 4 22 5 20 6 19 7 17 8 16 9 15 10 14 11 6 12
REMARK SMILES IDX 8 13 7 14 9 15 11 16 12 17 10 18 13 20 4 22 21 24 18 26
REMARK H PARENT 10 19 13 21 4 23 21 25 18 27
REMARK Flexibility Score: inf
ROOT
ATOM      1  C   UNL     1      24.007   1.767 -27.387  1.00  0.00     0.184 A 
ATOM      2  C   UNL     1      22.783   1.587 -28.054  1.00  0.00     0.208 A 
ATOM      3  C   UNL     1      22.197   2.681 -28.707  1.00  0.00     0.238 A 
ATOM      4  O   UNL     1      21.129   2.500 -29.350  1.00  0.00    -0.285 OA
ATOM      5  C   UNL     1      22.830   3.947 -28.670  1.00  0.00     0.111 A 
ATOM      6  C   UNL     1      22.305   5.135 -29.263  1.00  0.00     0.134 A 
ATOM      7  C   UNL     1      23.078   6.301 -29.273  1.00  0.00     0.093 A 
ATOM      8  C   UNL     1      24.330   6.342 -28.654  1.00  0.00     0.123 A 
ATOM      9  C   UNL     1      24.825   5.205 -28.020  1.00  0.00     0.094 A 
ATOM     10  C   UNL     1      24.093   4.015 -28.025  1.00  0.00     0.146 A 
ATOM     11  O   UNL     1      24.607   2.951 -27.420  1.00  0.00    -0.451 OA
ENDROOT
BRANCH   1  12
ATOM     12  C   UNL     1      24.669   0.661 -26.657  1.00  0.00     0.063 A 
ATOM     13  C   UNL     1      25.913  -1.432 -26.674  1.00  0.00     0.047 A 
ATOM     14  C   UNL     1      25.314  -0.373 -27.361  1.00  0.00     0.020 A 
ATOM     15  C   UNL     1      25.869  -1.478 -25.276  1.00  0.00     0.119 A 
ATOM     16  C   UNL     1      25.220  -0.463 -24.568  1.00  0.00     0.093 A 
ATOM     17  C   UNL     1      24.616   0.605 -25.249  1.00  0.00     0.130 A 
BRANCH  15  18
ATOM     18  O   UNL     1      26.464  -2.529 -24.581  1.00  0.00    -0.508 OA
ATOM     19  H   UNL     1      27.471  -2.617 -24.514  1.00  0.00     0.293 HD
ENDBRANCH  15  18
BRANCH  17  20
ATOM     20  O   UNL     1      23.977   1.614 -24.529  1.00  0.00    -0.507 OA
ATOM     21  H   UNL     1      23.190   2.124 -24.912  1.00  0.00     0.293 HD
ENDBRANCH  17  20
ENDBRANCH   1  12
BRANCH   2  22
ATOM     22  O   UNL     1      22.184   0.324 -28.089  1.00  0.00    -0.502 OA
ATOM     23  H   UNL     1      21.704  -0.072 -27.290  1.00  0.00     0.293 HD
ENDBRANCH   2  22
BRANCH   6  24
ATOM     24  O   UNL     1      21.029   5.227 -29.827  1.00  0.00    -0.507 OA
ATOM     25  H   UNL     1      20.256   4.619 -29.604  1.00  0.00     0.293 HD
ENDBRANCH   6  24
BRANCH   8  26
ATOM     26  O   UNL     1      25.087   7.512 -28.654  1.00  0.00    -0.508 OA
ATOM     27  H   UNL     1      25.114   8.125 -27.847  1.00  0.00     0.293 HD
ENDBRANCH   8  26
TORSDOF 6
ENDMDL
MODEL 6
REMARK VINA RESULT:    -2.486      2.465      4.521
REMARK INTER + INTRA:          -3.349
REMARK INTER:                  -2.875
REMARK INTRA:                  -0.475
REMARK UNBOUND:                -0.355
REMARK SMILES O=c1c(O)c(-c2ccc(O)cc2O)oc2cc(O)cc(O)c12
REMARK SMILES IDX 5 1 3 2 2 3 1 4 22 5 20 6 19 7 17 8 16 9 15 10 14 11 6 12
REMARK SMILES IDX 8 13 7 14 9 15 11 16 12 17 10 18 13 20 4 22 21 24 18 26
REMARK H PARENT 10 19 13 21 4 23 21 25 18 27
REMARK Flexibility Score: inf
ROOT
ATOM      1  C   UNL     1      23.735   1.620 -27.768  1.00  0.00     0.184 A 
ATOM      2  C   UNL     1      23.493   0.333 -27.258  1.00  0.00     0.208 A 
ATOM      3  C   UNL     1      24.227  -0.107 -26.145  1.00  0.00     0.238 A 
ATOM      4  O   UNL     1      23.966  -1.238 -25.658  1.00  0.00    -0.285 OA
ATOM      5  C   UNL     1      25.208   0.736 -25.570  1.00  0.00     0.111 A 
ATOM      6  C   UNL     1      26.039   0.378 -24.465  1.00  0.00     0.134 A 
ATOM      7  C   UNL     1      26.885   1.337 -23.898  1.00  0.00     0.093 A 
ATOM      8  C   UNL     1      26.979   2.624 -24.436  1.00  0.00     0.123 A 
ATOM      9  C   UNL     1      26.217   2.965 -25.550  1.00  0.00     0.094 A 
ATOM     10  C   UNL     1      25.336   2.040 -26.116  1.00  0.00     0.146 A 
ATOM     11  O   UNL     1      24.619   2.410 -27.170  1.00  0.00    -0.451 OA
ENDROOT
BRANCH   1  12
ATOM     12  C   UNL     1      23.014   2.138 -28.954  1.00  0.00     0.063 A 
ATOM     13  C   UNL     1      22.777   2.310 -31.371  1.00  0.00     0.047 A 
ATOM     14  C   UNL     1      23.439   1.799 -30.251  1.00  0.00     0.020 A 
ATOM     15  C   UNL     1      21.689   3.175 -31.210  1.00  0.00     0.119 A 
ATOM     16  C   UNL     1      21.267   3.528 -29.926  1.00  0.00     0.093 A 
ATOM     17  C   UNL     1      21.924   3.019 -28.796  1.00  0.00     0.130 A 
BRANCH  15  18
ATOM     18  O   UNL     1      21.021   3.690 -32.319  1.00  0.00    -0.508 OA
ATOM     19  H   UNL     1      21.514   3.921 -33.174  1.00  0.00     0.293 HD
ENDBRANCH  15  18
BRANCH  17  20
ATOM     20  O   UNL     1      21.488   3.375 -27.520  1.00  0.00    -0.507 OA
ATOM     21  H   UNL     1      20.685   2.932 -27.089  1.00  0.00     0.293 HD
ENDBRANCH  17  20
ENDBRANCH   1  12
BRANCH   2  22
ATOM     22  O   UNL     1      22.509  -0.476 -27.834  1.00  0.00    -0.502 OA
ATOM     23  H   UNL     1      22.637  -0.931 -28.729  1.00  0.00     0.293 HD
ENDBRANCH   2  22
BRANCH   6  24
ATOM     24  O   UNL     1      26.089  -0.904 -23.910  1.00  0.00    -0.507 OA
ATOM     25  H   UNL     1      26.929  -1.359 -23.587  1.00  0.00     0.293 HD
ENDBRANCH   6  24
BRANCH   8  26
ATOM     26  O   UNL     1      27.837   3.568 -23.876  1.00  0.00    -0.508 OA
ATOM     27  H   UNL     1      28.455   4.129 -24.451  1.00  0.00     0.293 HD
ENDBRANCH   8  26
TORSDOF 6
ENDMDL
MODEL 7
REMARK VINA RESULT:    -2.463      1.720      6.718
REMARK INTER + INTRA:          -3.321
REMARK INTER:                  -2.842
REMARK INTRA:                  -0.480
REMARK UNBOUND:                -0.355
REMARK SMILES O=c1c(O)c(-c2ccc(O)cc2O)oc2cc(O)cc(O)c12
REMARK SMILES IDX 5 1 3 2 2 3 1 4 22 5 20 6 19 7 17 8 16 9 15 10 14 11 6 12
REMARK SMILES IDX 8 13 7 14 9 15 11 16 12 17 10 18 13 20 4 22 21 24 18 26
REMARK H PARENT 10 19 13 21 4 23 21 25 18 27
REMARK Flexibility Score: inf
ROOT
ATOM      1  C   UNL     1      23.868  -0.021 -27.046  1.00  0.00     0.184 A 
ATOM      2  C   UNL     1      25.144   0.093 -27.623  1.00  0.00     0.208 A 
ATOM      3  C   UNL     1      25.437   1.215 -28.413  1.00  0.00     0.238 A 
ATOM      4  O   UNL     1      26.599   1.340 -28.881  1.00  0.00    -0.285 OA
ATOM      5  C   UNL     1      24.444   2.200 -28.633  1.00  0.00     0.111 A 
ATOM      6  C   UNL     1      24.617   3.359 -29.449  1.00  0.00     0.134 A 
ATOM      7  C   UNL     1      23.610   4.330 -29.492  1.00  0.00     0.093 A 
ATOM      8  C   UNL     1      22.408   4.153 -28.800  1.00  0.00     0.123 A 
ATOM      9  C   UNL     1      22.206   2.999 -28.050  1.00  0.00     0.094 A 
ATOM     10  C   UNL     1      23.207   2.028 -27.958  1.00  0.00     0.146 A 
ATOM     11  O   UNL     1      22.978   0.948 -27.221  1.00  0.00    -0.451 OA
ENDROOT
BRANCH   1  12
ATOM     12  C   UNL     1      23.486  -1.191 -26.222  1.00  0.00     0.063 A 
ATOM     13  C   UNL     1      22.695  -3.487 -26.056  1.00  0.00     0.047 A 
ATOM     14  C   UNL     1      23.083  -2.392 -26.832  1.00  0.00     0.020 A 
ATOM     15  C   UNL     1      22.693  -3.394 -24.659  1.00  0.00     0.119 A 
ATOM     16  C   UNL     1      23.078  -2.200 -24.043  1.00  0.00     0.093 A 
ATOM     17  C   UNL     1      23.471  -1.096 -24.814  1.00  0.00     0.130 A 
BRANCH  15  18
ATOM     18  O   UNL     1      22.307  -4.479 -23.875  1.00  0.00    -0.508 OA
ATOM     19  H   UNL     1      21.332  -4.727 -23.757  1.00  0.00     0.293 HD
ENDBRANCH  15  18
BRANCH  17  20
ATOM     20  O   UNL     1      23.859   0.087 -24.185  1.00  0.00    -0.507 OA
ATOM     21  H   UNL     1      24.002   0.134 -23.184  1.00  0.00     0.293 HD
ENDBRANCH  17  20
ENDBRANCH   1  12
BRANCH   2  22
ATOM     22  O   UNL     1      26.113  -0.885 -27.380  1.00  0.00    -0.502 OA
ATOM     23  H   UNL     1      26.088  -1.482 -26.563  1.00  0.00     0.293 HD
ENDBRANCH   2  22
BRANCH   6  24
ATOM     24  O   UNL     1      25.739   3.588 -30.251  1.00  0.00    -0.507 OA
ATOM     25  H   UNL     1      25.707   3.894 -31.211  1.00  0.00     0.293 HD
ENDBRANCH   6  24
BRANCH   8  26
ATOM     26  O   UNL     1      21.404   5.117 -28.862  1.00  0.00    -0.508 OA
ATOM     27  H   UNL     1      20.438   4.865 -29.039  1.00  0.00     0.293 HD
ENDBRANCH   8  26
TORSDOF 6
ENDMDL
MODEL 8
REMARK VINA RESULT:    -2.392      2.201      6.959
REMARK INTER + INTRA:          -3.236
REMARK INTER:                  -2.755
REMARK INTRA:                  -0.481
REMARK UNBOUND:                -0.355
REMARK SMILES O=c1c(O)c(-c2ccc(O)cc2O)oc2cc(O)cc(O)c12
REMARK SMILES IDX 5 1 3 2 2 3 1 4 22 5 20 6 19 7 17 8 16 9 15 10 14 11 6 12
REMARK SMILES IDX 8 13 7 14 9 15 11 16 12 17 10 18 13 20 4 22 21 24 18 26
REMARK H PARENT 10 19 13 21 4 23 21 25 18 27
REMARK Flexibility Score: inf
ROOT
ATOM      1  C   UNL     1      23.518   1.923 -28.333  1.00  0.00     0.184 A 
ATOM      2  C   UNL     1      22.572   2.961 -28.275  1.00  0.00     0.208 A 
ATOM      3  C   UNL     1      22.631   3.990 -29.228  1.00  0.00     0.238 A 
ATOM      4  O   UNL     1      21.747   4.886 -29.205  1.00  0.00    -0.285 OA
ATOM      5  C   UNL     1      23.646   3.979 -30.215  1.00  0.00     0.111 A 
ATOM      6  C   UNL     1      23.825   4.991 -31.206  1.00  0.00     0.134 A 
ATOM      7  C   UNL     1      24.784   4.813 -32.210  1.00  0.00     0.093 A 
ATOM      8  C   UNL     1      25.614   3.689 -32.222  1.00  0.00     0.123 A 
ATOM      9  C   UNL     1      25.488   2.725 -31.225  1.00  0.00     0.094 A 
ATOM     10  C   UNL     1      24.516   2.857 -30.230  1.00  0.00     0.146 A 
ATOM     11  O   UNL     1      24.420   1.909 -29.306  1.00  0.00    -0.451 OA
ENDROOT
BRANCH   1  12
ATOM     12  C   UNL     1      23.528   0.820 -27.344  1.00  0.00     0.063 A 
ATOM     13  C   UNL     1      24.045  -0.011 -25.116  1.00  0.00     0.047 A 
ATOM     14  C   UNL     1      24.008   1.036 -26.040  1.00  0.00     0.020 A 
ATOM     15  C   UNL     1      23.612  -1.290 -25.484  1.00  0.00     0.119 A 
ATOM     16  C   UNL     1      23.146  -1.518 -26.781  1.00  0.00     0.093 A 
ATOM     17  C   UNL     1      23.103  -0.473 -27.716  1.00  0.00     0.130 A 
BRANCH  15  18
ATOM     18  O   UNL     1      23.645  -2.341 -24.570  1.00  0.00    -0.508 OA
ATOM     19  H   UNL     1      23.413  -2.201 -23.593  1.00  0.00     0.293 HD
ENDBRANCH  15  18
BRANCH  17  20
ATOM     20  O   UNL     1      22.629  -0.714 -29.005  1.00  0.00    -0.507 OA
ATOM     21  H   UNL     1      23.131  -0.393 -29.825  1.00  0.00     0.293 HD
ENDBRANCH  17  20
ENDBRANCH   1  12
BRANCH   2  22
ATOM     22  O   UNL     1      21.570   2.943 -27.300  1.00  0.00    -0.502 OA
ATOM     23  H   UNL     1      20.628   3.262 -27.484  1.00  0.00     0.293 HD
ENDBRANCH   2  22
BRANCH   6  24
ATOM     24  O   UNL     1      23.111   6.193 -31.231  1.00  0.00    -0.507 OA
ATOM     25  H   UNL     1      23.428   7.059 -30.824  1.00  0.00     0.293 HD
ENDBRANCH   6  24
BRANCH   8  26
ATOM     26  O   UNL     1      26.577   3.527 -33.216  1.00  0.00    -0.508 OA
ATOM     27  H   UNL     1      27.366   4.159 -33.297  1.00  0.00     0.293 HD
ENDBRANCH   8  26
TORSDOF 6
ENDMDL
