MODEL 1
REMARK VINA RESULT:    -5.596      0.000      0.000
REMARK INTER + INTRA:          -6.973
REMARK INTER:                  -6.740
REMARK INTRA:                  -0.232
REMARK UNBOUND:                -0.232
REMARK SMILES O=c1c(O)c(-c2ccc(O)c(O)c2)oc2cc(O)cc(O)c12
REMARK SMILES IDX 5 1 3 2 2 3 1 4 22 5 20 6 19 7 17 8 16 9 15 10 14 11 6 12
REMARK SMILES IDX 7 13 8 14 9 15 13 16 11 17 10 18 12 20 4 22 21 24 18 26
REMARK H PARENT 10 19 12 21 4 23 21 25 18 27
REMARK Flexibility Score: inf
ROOT
ATOM      1  C   UNL     1      40.223  30.840  26.437  1.00  0.00     0.180 A 
ATOM      2  C   UNL     1      40.534  29.478  26.581  1.00  0.00     0.208 A 
ATOM      3  C   UNL     1      40.660  28.681  25.431  1.00  0.00     0.238 A 
ATOM      4  O   UNL     1      40.884  27.450  25.570  1.00  0.00    -0.285 OA
ATOM      5  C   UNL     1      40.491  29.261  24.151  1.00  0.00     0.111 A 
ATOM      6  C   UNL     1      40.635  28.558  22.917  1.00  0.00     0.134 A 
ATOM      7  C   UNL     1      40.315  29.201  21.715  1.00  0.00     0.093 A 
ATOM      8  C   UNL     1      39.921  30.537  21.695  1.00  0.00     0.123 A 
ATOM      9  C   UNL     1      39.833  31.252  22.891  1.00  0.00     0.094 A 
ATOM     10  C   UNL     1      40.111  30.628  24.109  1.00  0.00     0.146 A 
ATOM     11  O   UNL     1      40.006  31.339  25.225  1.00  0.00    -0.452 OA
ENDROOT
BRANCH   1  12
ATOM     12  C   UNL     1      40.099  31.748  27.600  1.00  0.00     0.025 A 
ATOM     13  C   UNL     1      41.124  32.668  27.870  1.00  0.00     0.016 A 
ATOM     14  C   UNL     1      41.038  33.520  28.974  1.00  0.00     0.051 A 
ATOM     15  C   UNL     1      39.934  33.453  29.833  1.00  0.00     0.157 A 
ATOM     16  C   UNL     1      39.003  31.669  28.476  1.00  0.00     0.062 A 
ATOM     17  C   UNL     1      38.914  32.520  29.585  1.00  0.00     0.158 A 
BRANCH  15  18
ATOM     18  O   UNL     1      39.849  34.306  30.933  1.00  0.00    -0.504 OA
ATOM     19  H   UNL     1      40.606  34.933  31.177  1.00  0.00     0.293 HD
ENDBRANCH  15  18
BRANCH  17  20
ATOM     20  O   UNL     1      37.809  32.418  30.429  1.00  0.00    -0.504 OA
ATOM     21  H   UNL     1      36.936  32.004  30.126  1.00  0.00     0.293 HD
ENDBRANCH  17  20
ENDBRANCH   1  12
BRANCH   2  22
ATOM     22  O   UNL     1      40.676  28.920  27.855  1.00  0.00    -0.502 OA
ATOM     23  H   UNL     1      41.008  27.974  28.002  1.00  0.00     0.293 HD
ENDBRANCH   2  22
BRANCH   6  24
ATOM     24  O   UNL     1      41.111  27.248  22.817  1.00  0.00    -0.507 OA
ATOM     25  H   UNL     1      41.092  26.692  21.976  1.00  0.00     0.293 HD
ENDBRANCH   6  24
BRANCH   8  26
ATOM     26  O   UNL     1      39.626  31.150  20.479  1.00  0.00    -0.508 OA
ATOM     27  H   UNL     1      39.654  32.157  20.372  1.00  0.00     0.293 HD
ENDBRANCH   8  26
TORSDOF 6
ENDMDL
MODEL 2
REMARK VINA RESULT:    -5.313      2.045      6.708
REMARK INTER + INTRA:          -6.633
REMARK INTER:                  -6.915
REMARK INTRA:                   0.282
REMARK UNBOUND:                -0.232
REMARK SMILES O=c1c(O)c(-c2ccc(O)c(O)c2)oc2cc(O)cc(O)c12
REMARK SMILES IDX 5 1 3 2 2 3 1 4 22 5 20 6 19 7 17 8 16 9 15 10 14 11 6 12
REMARK SMILES IDX 7 13 8 14 9 15 13 16 11 17 10 18 12 20 4 22 21 24 18 26
REMARK H PARENT 10 19 12 21 4 23 21 25 18 27
REMARK Flexibility Score: inf
ROOT
ATOM      1  C   UNL     1      40.158  30.473  25.540  1.00  0.00     0.180 A 
ATOM      2  C   UNL     1      40.301  31.584  26.388  1.00  0.00     0.208 A 
ATOM      3  C   UNL     1      40.491  31.371  27.764  1.00  0.00     0.238 A 
ATOM      4  O   UNL     1      40.563  32.370  28.526  1.00  0.00    -0.285 OA
ATOM      5  C   UNL     1      40.552  30.051  28.270  1.00  0.00     0.111 A 
ATOM      6  C   UNL     1      40.782  29.718  29.639  1.00  0.00     0.134 A 
ATOM      7  C   UNL     1      40.691  28.381  30.049  1.00  0.00     0.093 A 
ATOM      8  C   UNL     1      40.446  27.361  29.132  1.00  0.00     0.123 A 
ATOM      9  C   UNL     1      40.280  27.669  27.781  1.00  0.00     0.094 A 
ATOM     10  C   UNL     1      40.328  28.996  27.347  1.00  0.00     0.146 A 
ATOM     11  O   UNL     1      40.154  29.249  26.055  1.00  0.00    -0.452 OA
ENDROOT
BRANCH   1  12
ATOM     12  C   UNL     1      39.980  30.616  24.077  1.00  0.00     0.025 A 
ATOM     13  C   UNL     1      40.514  29.644  23.218  1.00  0.00     0.016 A 
ATOM     14  C   UNL     1      40.376  29.770  21.833  1.00  0.00     0.051 A 
ATOM     15  C   UNL     1      39.717  30.878  21.287  1.00  0.00     0.157 A 
ATOM     16  C   UNL     1      39.336  31.738  23.525  1.00  0.00     0.062 A 
ATOM     17  C   UNL     1      39.198  31.868  22.138  1.00  0.00     0.158 A 
BRANCH  15  18
ATOM     18  O   UNL     1      39.578  31.000  19.905  1.00  0.00    -0.504 OA
ATOM     19  H   UNL     1      38.666  31.007  19.463  1.00  0.00     0.293 HD
ENDBRANCH  15  18
BRANCH  17  20
ATOM     20  O   UNL     1      38.549  32.991  21.625  1.00  0.00    -0.504 OA
ATOM     21  H   UNL     1      38.836  33.934  21.862  1.00  0.00     0.293 HD
ENDBRANCH  17  20
ENDBRANCH   1  12
BRANCH   2  22
ATOM     22  O   UNL     1      40.215  32.879  25.872  1.00  0.00    -0.502 OA
ATOM     23  H   UNL     1      39.680  33.612  26.323  1.00  0.00     0.293 HD
ENDBRANCH   2  22
BRANCH   6  24
ATOM     24  O   UNL     1      41.124  30.650  30.622  1.00  0.00    -0.507 OA
ATOM     25  H   UNL     1      40.713  30.695  31.541  1.00  0.00     0.293 HD
ENDBRANCH   6  24
BRANCH   8  26
ATOM     26  O   UNL     1      40.380  26.041  29.573  1.00  0.00    -0.508 OA
ATOM     27  H   UNL     1      40.715  25.771  30.490  1.00  0.00     0.293 HD
ENDBRANCH   8  26
TORSDOF 6
ENDMDL
MODEL 3
REMARK VINA RESULT:    -5.179      1.549      1.806
REMARK INTER + INTRA:          -6.471
REMARK INTER:                  -6.796
REMARK INTRA:                   0.325
REMARK UNBOUND:                -0.232
REMARK SMILES O=c1c(O)c(-c2ccc(O)c(O)c2)oc2cc(O)cc(O)c12
REMARK SMILES IDX 5 1 3 2 2 3 1 4 22 5 20 6 19 7 17 8 16 9 15 10 14 11 6 12
REMARK SMILES IDX 7 13 8 14 9 15 13 16 11 17 10 18 12 20 4 22 21 24 18 26
REMARK H PARENT 10 19 12 21 4 23 21 25 18 27
REMARK Flexibility Score: inf
ROOT
ATOM      1  C   UNL     1      40.147  30.471  26.424  1.00  0.00     0.180 A 
ATOM      2  C   UNL     1      40.655  29.279  25.878  1.00  0.00     0.208 A 
ATOM      3  C   UNL     1      40.671  29.121  24.483  1.00  0.00     0.238 A 
ATOM      4  O   UNL     1      41.076  28.030  24.003  1.00  0.00    -0.285 OA
ATOM      5  C   UNL     1      40.197  30.163  23.650  1.00  0.00     0.111 A 
ATOM      6  C   UNL     1      40.205  30.127  22.223  1.00  0.00     0.134 A 
ATOM      7  C   UNL     1      39.589  31.160  21.504  1.00  0.00     0.093 A 
ATOM      8  C   UNL     1      39.027  32.256  22.155  1.00  0.00     0.123 A 
ATOM      9  C   UNL     1      39.067  32.330  23.548  1.00  0.00     0.094 A 
ATOM     10  C   UNL     1      39.641  31.299  24.295  1.00  0.00     0.146 A 
ATOM     11  O   UNL     1      39.649  31.402  25.618  1.00  0.00    -0.452 OA
ENDROOT
BRANCH   1  12
ATOM     12  C   UNL     1      40.120  30.720  27.883  1.00  0.00     0.025 A 
ATOM     13  C   UNL     1      41.076  30.105  28.706  1.00  0.00     0.016 A 
ATOM     14  C   UNL     1      41.057  30.310  30.088  1.00  0.00     0.051 A 
ATOM     15  C   UNL     1      40.073  31.119  30.669  1.00  0.00     0.157 A 
ATOM     16  C   UNL     1      39.121  31.515  28.471  1.00  0.00     0.062 A 
ATOM     17  C   UNL     1      39.098  31.721  29.856  1.00  0.00     0.158 A 
BRANCH  15  18
ATOM     18  O   UNL     1      40.057  31.324  32.048  1.00  0.00    -0.504 OA
ATOM     19  H   UNL     1      40.171  32.247  32.448  1.00  0.00     0.293 HD
ENDBRANCH  15  18
BRANCH  17  20
ATOM     20  O   UNL     1      38.095  32.520  30.405  1.00  0.00    -0.504 OA
ATOM     21  H   UNL     1      37.211  32.673  29.935  1.00  0.00     0.293 HD
ENDBRANCH  17  20
ENDBRANCH   1  12
BRANCH   2  22
ATOM     22  O   UNL     1      41.098  28.254  26.718  1.00  0.00    -0.502 OA
ATOM     23  H   UNL     1      42.077  28.110  26.934  1.00  0.00     0.293 HD
ENDBRANCH   2  22
BRANCH   6  24
ATOM     24  O   UNL     1      40.820  29.124  21.471  1.00  0.00    -0.507 OA
ATOM     25  H   UNL     1      40.523  28.828  20.554  1.00  0.00     0.293 HD
ENDBRANCH   6  24
BRANCH   8  26
ATOM     26  O   UNL     1      38.438  33.273  21.406  1.00  0.00    -0.508 OA
ATOM     27  H   UNL     1      38.189  34.162  21.824  1.00  0.00     0.293 HD
ENDBRANCH   8  26
TORSDOF 6
ENDMDL
MODEL 4
REMARK VINA RESULT:    -5.163      2.406      6.751
REMARK INTER + INTRA:          -6.452
REMARK INTER:                  -6.846
REMARK INTRA:                   0.394
REMARK UNBOUND:                -0.232
REMARK SMILES O=c1c(O)c(-c2ccc(O)c(O)c2)oc2cc(O)cc(O)c12
REMARK SMILES IDX 5 1 3 2 2 3 1 4 22 5 20 6 19 7 17 8 16 9 15 10 14 11 6 12
REMARK SMILES IDX 7 13 8 14 9 15 13 16 11 17 10 18 12 20 4 22 21 24 18 26
REMARK H PARENT 10 19 12 21 4 23 21 25 18 27
REMARK Flexibility Score: inf
ROOT
ATOM      1  C   UNL     1      40.250  30.157  26.375  1.00  0.00     0.180 A 
ATOM      2  C   UNL     1      40.291  31.155  27.363  1.00  0.00     0.208 A 
ATOM      3  C   UNL     1      40.476  30.780  28.704  1.00  0.00     0.238 A 
ATOM      4  O   UNL     1      40.457  31.674  29.590  1.00  0.00    -0.285 OA
ATOM      5  C   UNL     1      40.636  29.414  29.038  1.00  0.00     0.111 A 
ATOM      6  C   UNL     1      40.871  28.924  30.358  1.00  0.00     0.134 A 
ATOM      7  C   UNL     1      40.882  27.543  30.589  1.00  0.00     0.093 A 
ATOM      8  C   UNL     1      40.734  26.635  29.542  1.00  0.00     0.123 A 
ATOM      9  C   UNL     1      40.564  27.103  28.238  1.00  0.00     0.094 A 
ATOM     10  C   UNL     1      40.512  28.475  27.981  1.00  0.00     0.146 A 
ATOM     11  O   UNL     1      40.337  28.880  26.728  1.00  0.00    -0.452 OA
ENDROOT
BRANCH   1  12
ATOM     12  C   UNL     1      40.083  30.476  24.939  1.00  0.00     0.025 A 
ATOM     13  C   UNL     1      39.440  31.667  24.567  1.00  0.00     0.016 A 
ATOM     14  C   UNL     1      39.253  31.979  23.218  1.00  0.00     0.051 A 
ATOM     15  C   UNL     1      39.690  31.098  22.222  1.00  0.00     0.157 A 
ATOM     16  C   UNL     1      40.502  29.584  23.937  1.00  0.00     0.062 A 
ATOM     17  C   UNL     1      40.314  29.892  22.585  1.00  0.00     0.158 A 
BRANCH  15  18
ATOM     18  O   UNL     1      39.505  31.412  20.876  1.00  0.00    -0.504 OA
ATOM     19  H   UNL     1      40.283  31.664  20.279  1.00  0.00     0.293 HD
ENDBRANCH  15  18
BRANCH  17  20
ATOM     20  O   UNL     1      40.748  28.986  21.617  1.00  0.00    -0.504 OA
ATOM     21  H   UNL     1      41.372  28.219  21.839  1.00  0.00     0.293 HD
ENDBRANCH  17  20
ENDBRANCH   1  12
BRANCH   2  22
ATOM     22  O   UNL     1      40.108  32.497  27.016  1.00  0.00    -0.502 OA
ATOM     23  H   UNL     1      39.478  33.109  27.519  1.00  0.00     0.293 HD
ENDBRANCH   2  22
BRANCH   6  24
ATOM     24  O   UNL     1      41.123  29.744  31.461  1.00  0.00    -0.507 OA
ATOM     25  H   UNL     1      41.941  29.684  32.047  1.00  0.00     0.293 HD
ENDBRANCH   6  24
BRANCH   8  26
ATOM     26  O   UNL     1      40.768  25.268  29.807  1.00  0.00    -0.508 OA
ATOM     27  H   UNL     1      41.555  24.693  29.529  1.00  0.00     0.293 HD
ENDBRANCH   8  26
TORSDOF 6
ENDMDL
MODEL 5
REMARK VINA RESULT:    -4.883      1.525      6.665
REMARK INTER + INTRA:          -6.114
REMARK INTER:                  -6.570
REMARK INTRA:                   0.457
REMARK UNBOUND:                -0.232
REMARK SMILES O=c1c(O)c(-c2ccc(O)c(O)c2)oc2cc(O)cc(O)c12
REMARK SMILES IDX 5 1 3 2 2 3 1 4 22 5 20 6 19 7 17 8 16 9 15 10 14 11 6 12
REMARK SMILES IDX 7 13 8 14 9 15 13 16 11 17 10 18 12 20 4 22 21 24 18 26
REMARK H PARENT 10 19 12 21 4 23 21 25 18 27
REMARK Flexibility Score: inf
ROOT
ATOM      1  C   UNL     1      40.175  30.617  26.278  1.00  0.00     0.180 A 
ATOM      2  C   UNL     1      40.593  29.395  26.832  1.00  0.00     0.208 A 
ATOM      3  C   UNL     1      40.697  29.279  28.228  1.00  0.00     0.238 A 
ATOM      4  O   UNL     1      41.125  28.200  28.715  1.00  0.00    -0.285 OA
ATOM      5  C   UNL     1      40.364  30.380  29.052  1.00  0.00     0.111 A 
ATOM      6  C   UNL     1      40.393  30.362  30.480  1.00  0.00     0.134 A 
ATOM      7  C   UNL     1      40.170  31.549  31.190  1.00  0.00     0.093 A 
ATOM      8  C   UNL     1      39.856  32.735  30.530  1.00  0.00     0.123 A 
ATOM      9  C   UNL     1      39.766  32.751  29.137  1.00  0.00     0.094 A 
ATOM     10  C   UNL     1      40.018  31.592  28.399  1.00  0.00     0.146 A 
ATOM     11  O   UNL     1      39.933  31.651  27.076  1.00  0.00    -0.452 OA
ENDROOT
BRANCH   1  12
ATOM     12  C   UNL     1      40.018  30.807  24.818  1.00  0.00     0.025 A 
ATOM     13  C   UNL     1      39.345  31.942  24.338  1.00  0.00     0.016 A 
ATOM     14  C   UNL     1      39.167  32.131  22.966  1.00  0.00     0.051 A 
ATOM     15  C   UNL     1      39.644  31.182  22.054  1.00  0.00     0.157 A 
ATOM     16  C   UNL     1      40.478  29.846  23.901  1.00  0.00     0.062 A 
ATOM     17  C   UNL     1      40.299  30.032  22.525  1.00  0.00     0.158 A 
BRANCH  15  18
ATOM     18  O   UNL     1      39.468  31.375  20.684  1.00  0.00    -0.504 OA
ATOM     19  H   UNL     1      38.874  32.113  20.325  1.00  0.00     0.293 HD
ENDBRANCH  15  18
BRANCH  17  20
ATOM     20  O   UNL     1      40.773  29.061  21.643  1.00  0.00    -0.504 OA
ATOM     21  H   UNL     1      40.328  28.156  21.550  1.00  0.00     0.293 HD
ENDBRANCH  17  20
ENDBRANCH   1  12
BRANCH   2  22
ATOM     22  O   UNL     1      40.939  28.327  25.999  1.00  0.00    -0.502 OA
ATOM     23  H   UNL     1      40.320  27.542  25.834  1.00  0.00     0.293 HD
ENDBRANCH   2  22
BRANCH   6  24
ATOM     24  O   UNL     1      40.607  29.210  31.241  1.00  0.00    -0.507 OA
ATOM     25  H   UNL     1      40.743  29.198  32.240  1.00  0.00     0.293 HD
ENDBRANCH   6  24
BRANCH   8  26
ATOM     26  O   UNL     1      39.624  33.893  31.269  1.00  0.00    -0.508 OA
ATOM     27  H   UNL     1      38.727  34.364  31.249  1.00  0.00     0.293 HD
ENDBRANCH   8  26
TORSDOF 6
ENDMDL
MODEL 6
REMARK VINA RESULT:    -4.664      2.145      3.660
REMARK INTER + INTRA:          -5.850
REMARK INTER:                  -6.253
REMARK INTRA:                   0.403
REMARK UNBOUND:                -0.232
REMARK SMILES O=c1c(O)c(-c2ccc(O)c(O)c2)oc2cc(O)cc(O)c12
REMARK SMILES IDX 5 1 3 2 2 3 1 4 22 5 20 6 19 7 17 8 16 9 15 10 14 11 6 12
REMARK SMILES IDX 7 13 8 14 9 15 13 16 11 17 10 18 12 20 4 22 21 24 18 26
REMARK H PARENT 10 19 12 21 4 23 21 25 18 27
REMARK Flexibility Score: inf
ROOT
ATOM      1  C   UNL     1      40.364  30.091  26.358  1.00  0.00     0.180 A 
ATOM      2  C   UNL     1      40.084  31.429  26.034  1.00  0.00     0.208 A 
ATOM      3  C   UNL     1      39.914  31.783  24.685  1.00  0.00     0.238 A 
ATOM      4  O   UNL     1      39.719  32.992  24.397  1.00  0.00    -0.285 OA
ATOM      5  C   UNL     1      40.008  30.791  23.680  1.00  0.00     0.111 A 
ATOM      6  C   UNL     1      39.813  31.029  22.286  1.00  0.00     0.134 A 
ATOM      7  C   UNL     1      40.061  29.999  21.369  1.00  0.00     0.093 A 
ATOM      8  C   UNL     1      40.431  28.726  21.798  1.00  0.00     0.123 A 
ATOM      9  C   UNL     1      40.566  28.466  23.162  1.00  0.00     0.094 A 
ATOM     10  C   UNL     1      40.362  29.482  24.099  1.00  0.00     0.146 A 
ATOM     11  O   UNL     1      40.511  29.197  25.387  1.00  0.00    -0.452 OA
ENDROOT
BRANCH   1  12
ATOM     12  C   UNL     1      40.532  29.638  27.758  1.00  0.00     0.025 A 
ATOM     13  C   UNL     1      40.940  30.557  28.737  1.00  0.00     0.016 A 
ATOM     14  C   UNL     1      41.124  30.147  30.059  1.00  0.00     0.051 A 
ATOM     15  C   UNL     1      40.920  28.809  30.420  1.00  0.00     0.157 A 
ATOM     16  C   UNL     1      40.347  28.291  28.118  1.00  0.00     0.062 A 
ATOM     17  C   UNL     1      40.533  27.877  29.442  1.00  0.00     0.158 A 
BRANCH  15  18
ATOM     18  O   UNL     1      41.101  28.403  31.741  1.00  0.00    -0.504 OA
ATOM     19  H   UNL     1      40.426  28.626  32.462  1.00  0.00     0.293 HD
ENDBRANCH  15  18
BRANCH  17  20
ATOM     20  O   UNL     1      40.335  26.535  29.766  1.00  0.00    -0.504 OA
ATOM     21  H   UNL     1      40.297  25.811  29.058  1.00  0.00     0.293 HD
ENDBRANCH  17  20
ENDBRANCH   1  12
BRANCH   2  22
ATOM     22  O   UNL     1      40.018  32.398  27.040  1.00  0.00    -0.502 OA
ATOM     23  H   UNL     1      40.639  33.197  27.069  1.00  0.00     0.293 HD
ENDBRANCH   2  22
BRANCH   6  24
ATOM     24  O   UNL     1      39.356  32.239  21.757  1.00  0.00    -0.507 OA
ATOM     25  H   UNL     1      39.124  32.392  20.788  1.00  0.00     0.293 HD
ENDBRANCH   6  24
BRANCH   8  26
ATOM     26  O   UNL     1      40.652  27.721  20.858  1.00  0.00    -0.508 OA
ATOM     27  H   UNL     1      40.227  27.752  19.939  1.00  0.00     0.293 HD
ENDBRANCH   8  26
TORSDOF 6
ENDMDL
MODEL 7
REMARK VINA RESULT:    -4.419      3.196      5.164
REMARK INTER + INTRA:          -5.556
REMARK INTER:                  -6.020
REMARK INTRA:                   0.465
REMARK UNBOUND:                -0.232
REMARK SMILES O=c1c(O)c(-c2ccc(O)c(O)c2)oc2cc(O)cc(O)c12
REMARK SMILES IDX 5 1 3 2 2 3 1 4 22 5 20 6 19 7 17 8 16 9 15 10 14 11 6 12
REMARK SMILES IDX 7 13 8 14 9 15 13 16 11 17 10 18 12 20 4 22 21 24 18 26
REMARK H PARENT 10 19 12 21 4 23 21 25 18 27
REMARK Flexibility Score: inf
ROOT
ATOM      1  C   UNL     1      40.705  28.336  27.726  1.00  0.00     0.180 A 
ATOM      2  C   UNL     1      40.584  29.657  28.190  1.00  0.00     0.208 A 
ATOM      3  C   UNL     1      40.442  30.697  27.257  1.00  0.00     0.238 A 
ATOM      4  O   UNL     1      40.390  31.883  27.677  1.00  0.00    -0.285 OA
ATOM      5  C   UNL     1      40.406  30.402  25.873  1.00  0.00     0.111 A 
ATOM      6  C   UNL     1      40.225  31.372  24.842  1.00  0.00     0.134 A 
ATOM      7  C   UNL     1      40.337  30.983  23.501  1.00  0.00     0.093 A 
ATOM      8  C   UNL     1      40.557  29.652  23.153  1.00  0.00     0.123 A 
ATOM      9  C   UNL     1      40.676  28.684  24.152  1.00  0.00     0.094 A 
ATOM     10  C   UNL     1      40.605  29.047  25.499  1.00  0.00     0.146 A 
ATOM     11  O   UNL     1      40.733  28.099  26.419  1.00  0.00    -0.452 OA
ENDROOT
BRANCH   1  12
ATOM     12  C   UNL     1      40.833  27.185  28.649  1.00  0.00     0.025 A 
ATOM     13  C   UNL     1      40.984  25.892  28.123  1.00  0.00     0.016 A 
ATOM     14  C   UNL     1      41.086  24.790  28.975  1.00  0.00     0.051 A 
ATOM     15  C   UNL     1      41.020  24.961  30.363  1.00  0.00     0.157 A 
ATOM     16  C   UNL     1      40.747  27.351  30.042  1.00  0.00     0.062 A 
ATOM     17  C   UNL     1      40.846  26.248  30.898  1.00  0.00     0.158 A 
BRANCH  15  18
ATOM     18  O   UNL     1      41.124  23.859  31.211  1.00  0.00    -0.504 OA
ATOM     19  H   UNL     1      41.509  23.943  32.144  1.00  0.00     0.293 HD
ENDBRANCH  15  18
BRANCH  17  20
ATOM     20  O   UNL     1      40.762  26.451  32.276  1.00  0.00    -0.504 OA
ATOM     21  H   UNL     1      40.264  25.812  32.884  1.00  0.00     0.293 HD
ENDBRANCH  17  20
ENDBRANCH   1  12
BRANCH   2  22
ATOM     22  O   UNL     1      40.645  29.930  29.560  1.00  0.00    -0.502 OA
ATOM     23  H   UNL     1      41.203  29.380  30.201  1.00  0.00     0.293 HD
ENDBRANCH   2  22
BRANCH   6  24
ATOM     24  O   UNL     1      39.910  32.713  25.079  1.00  0.00    -0.507 OA
ATOM     25  H   UNL     1      39.389  33.301  24.448  1.00  0.00     0.293 HD
ENDBRANCH   6  24
BRANCH   8  26
ATOM     26  O   UNL     1      40.646  29.298  21.808  1.00  0.00    -0.508 OA
ATOM     27  H   UNL     1      40.346  29.929  21.073  1.00  0.00     0.293 HD
ENDBRANCH   8  26
TORSDOF 6
ENDMDL
MODEL 8
REMARK VINA RESULT:    -4.102     11.676     14.110
REMARK INTER + INTRA:          -5.173
REMARK INTER:                  -5.413
REMARK INTRA:                   0.241
REMARK UNBOUND:                -0.232
REMARK SMILES O=c1c(O)c(-c2ccc(O)c(O)c2)oc2cc(O)cc(O)c12
REMARK SMILES IDX 5 1 3 2 2 3 1 4 22 5 20 6 19 7 17 8 16 9 15 10 14 11 6 12
REMARK SMILES IDX 7 13 8 14 9 15 13 16 11 17 10 18 12 20 4 22 21 24 18 26
REMARK H PARENT 10 19 12 21 4 23 21 25 18 27
REMARK Flexibility Score: inf
ROOT
ATOM      1  C   UNL     1      35.626  27.180  37.378  1.00  0.00     0.180 A 
ATOM      2  C   UNL     1      36.734  27.849  36.830  1.00  0.00     0.208 A 
ATOM      3  C   UNL     1      36.683  29.244  36.682  1.00  0.00     0.238 A 
ATOM      4  O   UNL     1      37.656  29.831  36.140  1.00  0.00    -0.285 OA
ATOM      5  C   UNL     1      35.533  29.956  37.100  1.00  0.00     0.111 A 
ATOM      6  C   UNL     1      35.389  31.375  37.036  1.00  0.00     0.134 A 
ATOM      7  C   UNL     1      34.157  31.959  37.355  1.00  0.00     0.093 A 
ATOM      8  C   UNL     1      33.086  31.185  37.799  1.00  0.00     0.123 A 
ATOM      9  C   UNL     1      33.234  29.803  37.923  1.00  0.00     0.094 A 
ATOM     10  C   UNL     1      34.440  29.187  37.577  1.00  0.00     0.146 A 
ATOM     11  O   UNL     1      34.537  27.869  37.699  1.00  0.00    -0.452 OA
ENDROOT
BRANCH   1  12
ATOM     12  C   UNL     1      35.615  25.715  37.587  1.00  0.00     0.025 A 
ATOM     13  C   UNL     1      36.804  25.059  37.941  1.00  0.00     0.016 A 
ATOM     14  C   UNL     1      36.821  23.674  38.124  1.00  0.00     0.051 A 
ATOM     15  C   UNL     1      35.655  22.922  37.939  1.00  0.00     0.157 A 
ATOM     16  C   UNL     1      34.450  24.955  37.383  1.00  0.00     0.062 A 
ATOM     17  C   UNL     1      34.464  23.566  37.563  1.00  0.00     0.158 A 
BRANCH  15  18
ATOM     18  O   UNL     1      35.674  21.540  38.125  1.00  0.00    -0.504 OA
ATOM     19  H   UNL     1      35.090  21.091  38.820  1.00  0.00     0.293 HD
ENDBRANCH  15  18
BRANCH  17  20
ATOM     20  O   UNL     1      33.288  22.845  37.357  1.00  0.00    -0.504 OA
ATOM     21  H   UNL     1      32.422  23.294  37.084  1.00  0.00     0.293 HD
ENDBRANCH  17  20
ENDBRANCH   1  12
BRANCH   2  22
ATOM     22  O   UNL     1      37.851  27.126  36.402  1.00  0.00    -0.502 OA
ATOM     23  H   UNL     1      38.690  27.036  36.963  1.00  0.00     0.293 HD
ENDBRANCH   2  22
BRANCH   6  24
ATOM     24  O   UNL     1      36.424  32.249  36.693  1.00  0.00    -0.507 OA
ATOM     25  H   UNL     1      36.862  32.898  37.327  1.00  0.00     0.293 HD
ENDBRANCH   6  24
BRANCH   8  26
ATOM     26  O   UNL     1      31.880  31.802  38.124  1.00  0.00    -0.508 OA
ATOM     27  H   UNL     1      31.548  31.846  39.080  1.00  0.00     0.293 HD
ENDBRANCH   8  26
TORSDOF 6
ENDMDL
