MODEL 1
REMARK VINA RESULT:    -6.316      0.000      0.000
REMARK INTER + INTRA:          -7.409
REMARK INTER:                  -7.608
REMARK INTRA:                   0.198
REMARK UNBOUND:                 0.198
REMARK SMILES O=c1c(O)c(-c2ccc(O)c(O)c2)oc2cc(O)cc(O)c12
REMARK SMILES IDX 5 1 3 2 2 3 1 4 22 5 20 6 19 7 17 8 16 9 15 10 14 11 6 12
REMARK SMILES IDX 7 13 8 14 9 15 13 16 11 17 10 18 12 20 4 22 21 24 18 26
REMARK H PARENT 10 19 12 21 4 23 21 25 18 27
REMARK Flexibility Score: inf
ROOT
ATOM      1  C   UNL     1      55.968  29.578 -33.689  1.00  0.00     0.180 A 
ATOM      2  C   UNL     1      55.931  28.208 -34.006  1.00  0.00     0.208 A 
ATOM      3  C   UNL     1      55.659  27.823 -35.329  1.00  0.00     0.238 A 
ATOM      4  O   UNL     1      55.680  26.597 -35.616  1.00  0.00    -0.285 OA
ATOM      5  C   UNL     1      55.412  28.808 -36.313  1.00  0.00     0.111 A 
ATOM      6  C   UNL     1      55.085  28.530 -37.675  1.00  0.00     0.134 A 
ATOM      7  C   UNL     1      54.990  29.585 -38.591  1.00  0.00     0.093 A 
ATOM      8  C   UNL     1      55.143  30.909 -38.184  1.00  0.00     0.123 A 
ATOM      9  C   UNL     1      55.403  31.196 -36.843  1.00  0.00     0.094 A 
ATOM     10  C   UNL     1      55.540  30.164 -35.912  1.00  0.00     0.146 A 
ATOM     11  O   UNL     1      55.798  30.480 -34.649  1.00  0.00    -0.452 OA
ENDROOT
BRANCH   1  12
ATOM     12  C   UNL     1      56.225  30.061 -32.313  1.00  0.00     0.025 A 
ATOM     13  C   UNL     1      56.885  31.286 -32.123  1.00  0.00     0.016 A 
ATOM     14  C   UNL     1      57.118  31.771 -30.833  1.00  0.00     0.051 A 
ATOM     15  C   UNL     1      56.681  31.047 -29.717  1.00  0.00     0.157 A 
ATOM     16  C   UNL     1      55.770  29.347 -31.190  1.00  0.00     0.062 A 
ATOM     17  C   UNL     1      56.002  29.835 -29.895  1.00  0.00     0.158 A 
BRANCH  15  18
ATOM     18  O   UNL     1      56.913  31.526 -28.429  1.00  0.00    -0.504 OA
ATOM     19  H   UNL     1      57.287  32.455 -28.269  1.00  0.00     0.293 HD
ENDBRANCH  15  18
BRANCH  17  20
ATOM     20  O   UNL     1      55.555  29.123 -28.783  1.00  0.00    -0.504 OA
ATOM     21  H   UNL     1      55.317  29.590 -27.916  1.00  0.00     0.293 HD
ENDBRANCH  17  20
ENDBRANCH   1  12
BRANCH   2  22
ATOM     22  O   UNL     1      56.200  27.252 -33.023  1.00  0.00    -0.502 OA
ATOM     23  H   UNL     1      55.491  26.620 -32.671  1.00  0.00     0.293 HD
ENDBRANCH   2  22
BRANCH   6  24
ATOM     24  O   UNL     1      54.821  27.249 -38.168  1.00  0.00    -0.507 OA
ATOM     25  H   UNL     1      54.020  27.003 -38.730  1.00  0.00     0.293 HD
ENDBRANCH   6  24
BRANCH   8  26
ATOM     26  O   UNL     1      55.026  31.934 -39.120  1.00  0.00    -0.508 OA
ATOM     27  H   UNL     1      54.378  32.702 -38.988  1.00  0.00     0.293 HD
ENDBRANCH   8  26
TORSDOF 6
ENDMDL
MODEL 2
REMARK VINA RESULT:    -4.705      1.365      2.884
REMARK INTER + INTRA:          -5.469
REMARK INTER:                  -5.981
REMARK INTRA:                   0.512
REMARK UNBOUND:                 0.198
REMARK SMILES O=c1c(O)c(-c2ccc(O)c(O)c2)oc2cc(O)cc(O)c12
REMARK SMILES IDX 5 1 3 2 2 3 1 4 22 5 20 6 19 7 17 8 16 9 15 10 14 11 6 12
REMARK SMILES IDX 7 13 8 14 9 15 13 16 11 17 10 18 12 20 4 22 21 24 18 26
REMARK H PARENT 10 19 12 21 4 23 21 25 18 27
REMARK Flexibility Score: inf
ROOT
ATOM      1  C   UNL     1      56.166  29.720 -33.627  1.00  0.00     0.180 A 
ATOM      2  C   UNL     1      56.141  30.837 -34.480  1.00  0.00     0.208 A 
ATOM      3  C   UNL     1      55.907  30.642 -35.851  1.00  0.00     0.238 A 
ATOM      4  O   UNL     1      55.833  31.651 -36.600  1.00  0.00    -0.285 OA
ATOM      5  C   UNL     1      55.718  29.334 -36.355  1.00  0.00     0.111 A 
ATOM      6  C   UNL     1      55.514  29.016 -37.732  1.00  0.00     0.134 A 
ATOM      7  C   UNL     1      55.207  27.699 -38.098  1.00  0.00     0.093 A 
ATOM      8  C   UNL     1      55.161  26.680 -37.149  1.00  0.00     0.123 A 
ATOM      9  C   UNL     1      55.417  26.968 -35.809  1.00  0.00     0.094 A 
ATOM     10  C   UNL     1      55.691  28.277 -35.406  1.00  0.00     0.146 A 
ATOM     11  O   UNL     1      55.918  28.511 -34.119  1.00  0.00    -0.452 OA
ENDROOT
BRANCH   1  12
ATOM     12  C   UNL     1      56.430  29.842 -32.175  1.00  0.00     0.025 A 
ATOM     13  C   UNL     1      56.391  31.109 -31.571  1.00  0.00     0.016 A 
ATOM     14  C   UNL     1      56.617  31.245 -30.198  1.00  0.00     0.051 A 
ATOM     15  C   UNL     1      56.868  30.116 -29.409  1.00  0.00     0.157 A 
ATOM     16  C   UNL     1      56.663  28.709 -31.376  1.00  0.00     0.062 A 
ATOM     17  C   UNL     1      56.888  28.845 -29.998  1.00  0.00     0.158 A 
BRANCH  15  18
ATOM     18  O   UNL     1      57.096  30.247 -28.041  1.00  0.00    -0.504 OA
ATOM     19  H   UNL     1      56.364  30.066 -27.362  1.00  0.00     0.293 HD
ENDBRANCH  15  18
BRANCH  17  20
ATOM     20  O   UNL     1      57.125  27.721 -29.208  1.00  0.00    -0.504 OA
ATOM     21  H   UNL     1      57.905  27.101 -29.389  1.00  0.00     0.293 HD
ENDBRANCH  17  20
ENDBRANCH   1  12
BRANCH   2  22
ATOM     22  O   UNL     1      56.309  32.123 -33.959  1.00  0.00    -0.502 OA
ATOM     23  H   UNL     1      56.819  32.847 -34.451  1.00  0.00     0.293 HD
ENDBRANCH   2  22
BRANCH   6  24
ATOM     24  O   UNL     1      55.629  29.943 -38.771  1.00  0.00    -0.507 OA
ATOM     25  H   UNL     1      56.502  30.266 -39.160  1.00  0.00     0.293 HD
ENDBRANCH   6  24
BRANCH   8  26
ATOM     26  O   UNL     1      54.868  25.378 -37.552  1.00  0.00    -0.508 OA
ATOM     27  H   UNL     1      54.258  25.192 -38.340  1.00  0.00     0.293 HD
ENDBRANCH   8  26
TORSDOF 6
ENDMDL
