MODEL 1
REMARK VINA RESULT:    -5.783      0.000      0.000
REMARK INTER + INTRA:          -7.085
REMARK INTER:                  -6.798
REMARK INTRA:                  -0.288
REMARK UNBOUND:                -0.288
REMARK SMILES O=C([O-])C=Cc1ccc(O)c(O)c1
REMARK SMILES IDX 6 1 13 2 7 3 11 4 8 5 9 6 5 7 4 8 2 9 1 10 3 11 12 12 10 14
REMARK H PARENT 12 13 10 15
REMARK Flexibility Score: inf
ROOT
ATOM      1  C   UNL     1       0.987 -20.342   5.948  1.00  0.00    -0.022 A 
ATOM      2  C   UNL     1       2.209 -20.334   5.262  1.00  0.00     0.058 A 
ATOM      3  C   UNL     1      -0.158 -19.838   5.315  1.00  0.00     0.012 A 
ATOM      4  C   UNL     1       2.309 -19.781   3.979  1.00  0.00     0.157 A 
ATOM      5  C   UNL     1      -0.069 -19.284   4.036  1.00  0.00     0.051 A 
ATOM      6  C   UNL     1       1.156 -19.243   3.360  1.00  0.00     0.157 A 
ENDROOT
BRANCH   1   7
ATOM      7  C   UNL     1       0.908 -20.982   7.279  1.00  0.00     0.010 C 
ATOM      8  C   UNL     1       0.974 -20.339   8.455  1.00  0.00     0.025 C 
BRANCH   8   9
ATOM      9  C   UNL     1       1.316 -18.916   8.642  1.00  0.00     0.064 C 
ATOM     10  O   UNL     1       2.483 -18.552   8.942  1.00  0.00    -0.545 OA
ATOM     11  O   UNL     1       0.311 -17.961   8.551  1.00  0.00    -0.545 OA
ENDBRANCH   8   9
ENDBRANCH   1   7
BRANCH   4  12
ATOM     12  O   UNL     1       3.561 -19.791   3.361  1.00  0.00    -0.504 OA
ATOM     13  H   UNL     1       3.955 -19.001   2.869  1.00  0.00     0.293 HD
ENDBRANCH   4  12
BRANCH   6  14
ATOM     14  O   UNL     1       1.180 -18.670   2.087  1.00  0.00    -0.504 OA
ATOM     15  H   UNL     1       0.396 -18.676   1.450  1.00  0.00     0.293 HD
ENDBRANCH   6  14
TORSDOF 4
ENDMDL
MODEL 2
REMARK VINA RESULT:    -5.740     14.612     15.685
REMARK INTER + INTRA:          -7.035
REMARK INTER:                  -6.750
REMARK INTRA:                  -0.285
REMARK UNBOUND:                -0.288
REMARK SMILES O=C([O-])C=Cc1ccc(O)c(O)c1
REMARK SMILES IDX 6 1 13 2 7 3 11 4 8 5 9 6 5 7 4 8 2 9 1 10 3 11 12 12 10 14
REMARK H PARENT 12 13 10 15
REMARK Flexibility Score: inf
ROOT
ATOM      1  C   UNL     1      15.381 -26.663   8.327  1.00  0.00    -0.022 A 
ATOM      2  C   UNL     1      14.330 -26.702   7.400  1.00  0.00     0.058 A 
ATOM      3  C   UNL     1      15.778 -27.847   8.963  1.00  0.00     0.012 A 
ATOM      4  C   UNL     1      13.643 -27.895   7.144  1.00  0.00     0.157 A 
ATOM      5  C   UNL     1      15.098 -29.042   8.716  1.00  0.00     0.051 A 
ATOM      6  C   UNL     1      14.027 -29.080   7.816  1.00  0.00     0.157 A 
ENDROOT
BRANCH   1   7
ATOM      7  C   UNL     1      16.118 -25.398   8.532  1.00  0.00     0.010 C 
ATOM      8  C   UNL     1      15.864 -24.498   9.494  1.00  0.00     0.025 C 
BRANCH   8   9
ATOM      9  C   UNL     1      14.703 -24.512  10.403  1.00  0.00     0.064 C 
ATOM     10  O   UNL     1      14.808 -24.884  11.601  1.00  0.00    -0.545 OA
ATOM     11  O   UNL     1      13.451 -24.169   9.907  1.00  0.00    -0.545 OA
ENDBRANCH   8   9
ENDBRANCH   1   7
BRANCH   4  12
ATOM     12  O   UNL     1      12.595 -27.859   6.221  1.00  0.00    -0.504 OA
ATOM     13  H   UNL     1      11.929 -27.102   6.152  1.00  0.00     0.293 HD
ENDBRANCH   4  12
BRANCH   6  14
ATOM     14  O   UNL     1      13.385 -30.304   7.617  1.00  0.00    -0.504 OA
ATOM     15  H   UNL     1      12.634 -30.447   6.958  1.00  0.00     0.293 HD
ENDBRANCH   6  14
TORSDOF 4
ENDMDL
MODEL 3
REMARK VINA RESULT:    -5.685      1.055      2.198
REMARK INTER + INTRA:          -6.970
REMARK INTER:                  -6.737
REMARK INTRA:                  -0.233
REMARK UNBOUND:                -0.288
REMARK SMILES O=C([O-])C=Cc1ccc(O)c(O)c1
REMARK SMILES IDX 6 1 13 2 7 3 11 4 8 5 9 6 5 7 4 8 2 9 1 10 3 11 12 12 10 14
REMARK H PARENT 12 13 10 15
REMARK Flexibility Score: inf
ROOT
ATOM      1  C   UNL     1       0.868 -20.080   5.125  1.00  0.00    -0.022 A 
ATOM      2  C   UNL     1       0.169 -19.376   4.136  1.00  0.00     0.058 A 
ATOM      3  C   UNL     1       2.246 -20.292   4.972  1.00  0.00     0.012 A 
ATOM      4  C   UNL     1       0.818 -18.930   2.977  1.00  0.00     0.157 A 
ATOM      5  C   UNL     1       2.902 -19.853   3.820  1.00  0.00     0.051 A 
ATOM      6  C   UNL     1       2.201 -19.178   2.814  1.00  0.00     0.157 A 
ENDROOT
BRANCH   1   7
ATOM      7  C   UNL     1       0.163 -20.488   6.358  1.00  0.00     0.010 C 
ATOM      8  C   UNL     1       0.177 -19.818   7.520  1.00  0.00     0.025 C 
BRANCH   8   9
ATOM      9  C   UNL     1       1.034 -18.659   7.837  1.00  0.00     0.064 C 
ATOM     10  O   UNL     1       0.649 -17.478   7.633  1.00  0.00    -0.545 OA
ATOM     11  O   UNL     1       2.322 -18.879   8.308  1.00  0.00    -0.545 OA
ENDBRANCH   8   9
ENDBRANCH   1   7
BRANCH   4  12
ATOM     12  O   UNL     1       0.056 -18.249   2.025  1.00  0.00    -0.504 OA
ATOM     13  H   UNL     1      -0.427 -17.380   2.205  1.00  0.00     0.293 HD
ENDBRANCH   4  12
BRANCH   6  14
ATOM     14  O   UNL     1       2.914 -18.770   1.684  1.00  0.00    -0.504 OA
ATOM     15  H   UNL     1       3.421 -19.399   1.079  1.00  0.00     0.293 HD
ENDBRANCH   6  14
TORSDOF 4
ENDMDL
MODEL 4
REMARK VINA RESULT:    -5.543      1.950      2.700
REMARK INTER + INTRA:          -6.803
REMARK INTER:                  -6.547
REMARK INTRA:                  -0.256
REMARK UNBOUND:                -0.288
REMARK SMILES O=C([O-])C=Cc1ccc(O)c(O)c1
REMARK SMILES IDX 6 1 13 2 7 3 11 4 8 5 9 6 5 7 4 8 2 9 1 10 3 11 12 12 10 14
REMARK H PARENT 12 13 10 15
REMARK Flexibility Score: inf
ROOT
ATOM      1  C   UNL     1       1.356 -19.200   6.101  1.00  0.00    -0.022 A 
ATOM      2  C   UNL     1       0.250 -18.499   5.600  1.00  0.00     0.058 A 
ATOM      3  C   UNL     1       2.253 -19.797   5.204  1.00  0.00     0.012 A 
ATOM      4  C   UNL     1       0.005 -18.435   4.222  1.00  0.00     0.157 A 
ATOM      5  C   UNL     1       2.017 -19.740   3.829  1.00  0.00     0.051 A 
ATOM      6  C   UNL     1       0.896 -19.069   3.325  1.00  0.00     0.157 A 
ENDROOT
BRANCH   1   7
ATOM      7  C   UNL     1       1.613 -19.201   7.557  1.00  0.00     0.010 C 
ATOM      8  C   UNL     1       1.172 -20.126   8.423  1.00  0.00     0.025 C 
BRANCH   8   9
ATOM      9  C   UNL     1       0.209 -21.202   8.120  1.00  0.00     0.064 C 
ATOM     10  O   UNL     1       0.555 -22.239   7.496  1.00  0.00    -0.545 OA
ATOM     11  O   UNL     1      -1.124 -21.036   8.472  1.00  0.00    -0.545 OA
ENDBRANCH   8   9
ENDBRANCH   1   7
BRANCH   4  12
ATOM     12  O   UNL     1      -1.125 -17.734   3.794  1.00  0.00    -0.504 OA
ATOM     13  H   UNL     1      -1.327 -17.526   2.826  1.00  0.00     0.293 HD
ENDBRANCH   4  12
BRANCH   6  14
ATOM     14  O   UNL     1       0.713 -19.054   1.941  1.00  0.00    -0.504 OA
ATOM     15  H   UNL     1      -0.093 -18.654   1.482  1.00  0.00     0.293 HD
ENDBRANCH   6  14
TORSDOF 4
ENDMDL
MODEL 5
REMARK VINA RESULT:    -5.482     10.511     11.902
REMARK INTER + INTRA:          -6.732
REMARK INTER:                  -6.614
REMARK INTRA:                  -0.117
REMARK UNBOUND:                -0.288
REMARK SMILES O=C([O-])C=Cc1ccc(O)c(O)c1
REMARK SMILES IDX 6 1 13 2 7 3 11 4 8 5 9 6 5 7 4 8 2 9 1 10 3 11 12 12 10 14
REMARK H PARENT 12 13 10 15
REMARK Flexibility Score: inf
ROOT
ATOM      1  C   UNL     1      10.086 -26.741   8.690  1.00  0.00    -0.022 A 
ATOM      2  C   UNL     1       9.012 -27.346   8.024  1.00  0.00     0.058 A 
ATOM      3  C   UNL     1      10.006 -25.383   9.027  1.00  0.00     0.012 A 
ATOM      4  C   UNL     1       7.888 -26.600   7.647  1.00  0.00     0.157 A 
ATOM      5  C   UNL     1       8.891 -24.629   8.655  1.00  0.00     0.051 A 
ATOM      6  C   UNL     1       7.830 -25.221   7.961  1.00  0.00     0.157 A 
ENDROOT
BRANCH   1   7
ATOM      7  C   UNL     1      11.232 -27.571   9.119  1.00  0.00     0.010 C 
ATOM      8  C   UNL     1      12.445 -27.577   8.547  1.00  0.00     0.025 C 
BRANCH   8   9
ATOM      9  C   UNL     1      12.808 -26.900   7.287  1.00  0.00     0.064 C 
ATOM     10  O   UNL     1      12.137 -27.062   6.234  1.00  0.00    -0.545 OA
ATOM     11  O   UNL     1      13.956 -26.118   7.245  1.00  0.00    -0.545 OA
ENDBRANCH   8   9
ENDBRANCH   1   7
BRANCH   4  12
ATOM     12  O   UNL     1       6.862 -27.263   6.971  1.00  0.00    -0.504 OA
ATOM     13  H   UNL     1       6.224 -26.813   6.330  1.00  0.00     0.293 HD
ENDBRANCH   4  12
BRANCH   6  14
ATOM     14  O   UNL     1       6.746 -24.412   7.612  1.00  0.00    -0.504 OA
ATOM     15  H   UNL     1       5.883 -24.369   8.133  1.00  0.00     0.293 HD
ENDBRANCH   6  14
TORSDOF 4
ENDMDL
MODEL 6
REMARK VINA RESULT:    -5.475     10.709     12.257
REMARK INTER + INTRA:          -6.723
REMARK INTER:                  -6.478
REMARK INTRA:                  -0.245
REMARK UNBOUND:                -0.288
REMARK SMILES O=C([O-])C=Cc1ccc(O)c(O)c1
REMARK SMILES IDX 6 1 13 2 7 3 11 4 8 5 9 6 5 7 4 8 2 9 1 10 3 11 12 12 10 14
REMARK H PARENT 12 13 10 15
REMARK Flexibility Score: inf
ROOT
ATOM      1  C   UNL     1      11.165 -25.772   8.290  1.00  0.00    -0.022 A 
ATOM      2  C   UNL     1      10.557 -24.660   7.690  1.00  0.00     0.058 A 
ATOM      3  C   UNL     1      10.385 -26.895   8.600  1.00  0.00     0.012 A 
ATOM      4  C   UNL     1       9.178 -24.640   7.447  1.00  0.00     0.157 A 
ATOM      5  C   UNL     1       9.009 -26.884   8.363  1.00  0.00     0.051 A 
ATOM      6  C   UNL     1       8.392 -25.764   7.794  1.00  0.00     0.157 A 
ENDROOT
BRANCH   1   7
ATOM      7  C   UNL     1      12.630 -25.779   8.483  1.00  0.00     0.010 C 
ATOM      8  C   UNL     1      13.526 -26.267   7.611  1.00  0.00     0.025 C 
BRANCH   8   9
ATOM      9  C   UNL     1      13.213 -27.041   6.394  1.00  0.00     0.064 C 
ATOM     10  O   UNL     1      13.403 -28.284   6.336  1.00  0.00    -0.545 OA
ATOM     11  O   UNL     1      12.761 -26.371   5.264  1.00  0.00    -0.545 OA
ENDBRANCH   8   9
ENDBRANCH   1   7
BRANCH   4  12
ATOM     12  O   UNL     1       8.636 -23.493   6.862  1.00  0.00    -0.504 OA
ATOM     13  H   UNL     1       8.066 -23.500   6.028  1.00  0.00     0.293 HD
ENDBRANCH   4  12
BRANCH   6  14
ATOM     14  O   UNL     1       7.012 -25.814   7.588  1.00  0.00    -0.504 OA
ATOM     15  H   UNL     1       6.500 -26.662   7.394  1.00  0.00     0.293 HD
ENDBRANCH   6  14
TORSDOF 4
ENDMDL
MODEL 7
REMARK VINA RESULT:    -5.474     14.026     15.649
REMARK INTER + INTRA:          -6.722
REMARK INTER:                  -6.457
REMARK INTRA:                  -0.265
REMARK UNBOUND:                -0.288
REMARK SMILES O=C([O-])C=Cc1ccc(O)c(O)c1
REMARK SMILES IDX 6 1 13 2 7 3 11 4 8 5 9 6 5 7 4 8 2 9 1 10 3 11 12 12 10 14
REMARK H PARENT 12 13 10 15
REMARK Flexibility Score: inf
ROOT
ATOM      1  C   UNL     1      15.149 -26.616   8.505  1.00  0.00    -0.022 A 
ATOM      2  C   UNL     1      14.404 -26.219   9.625  1.00  0.00     0.058 A 
ATOM      3  C   UNL     1      16.240 -25.835   8.096  1.00  0.00     0.012 A 
ATOM      4  C   UNL     1      14.704 -25.030  10.302  1.00  0.00     0.157 A 
ATOM      5  C   UNL     1      16.546 -24.648   8.764  1.00  0.00     0.051 A 
ATOM      6  C   UNL     1      15.785 -24.230   9.862  1.00  0.00     0.157 A 
ENDROOT
BRANCH   1   7
ATOM      7  C   UNL     1      14.838 -27.902   7.848  1.00  0.00     0.010 C 
ATOM      8  C   UNL     1      13.946 -28.075   6.861  1.00  0.00     0.025 C 
BRANCH   8   9
ATOM      9  C   UNL     1      12.990 -27.062   6.375  1.00  0.00     0.064 C 
ATOM     10  O   UNL     1      13.202 -26.406   5.322  1.00  0.00    -0.545 OA
ATOM     11  O   UNL     1      11.862 -26.777   7.134  1.00  0.00    -0.545 OA
ENDBRANCH   8   9
ENDBRANCH   1   7
BRANCH   4  12
ATOM     12  O   UNL     1      13.910 -24.688  11.399  1.00  0.00    -0.504 OA
ATOM     13  H   UNL     1      13.272 -23.904  11.412  1.00  0.00     0.293 HD
ENDBRANCH   4  12
BRANCH   6  14
ATOM     14  O   UNL     1      16.139 -23.030  10.483  1.00  0.00    -0.504 OA
ATOM     15  H   UNL     1      16.999 -22.890  10.992  1.00  0.00     0.293 HD
ENDBRANCH   6  14
TORSDOF 4
ENDMDL
MODEL 8
REMARK VINA RESULT:    -5.394     14.166     15.859
REMARK INTER + INTRA:          -6.628
REMARK INTER:                  -6.469
REMARK INTRA:                  -0.159
REMARK UNBOUND:                -0.288
REMARK SMILES O=C([O-])C=Cc1ccc(O)c(O)c1
REMARK SMILES IDX 6 1 13 2 7 3 11 4 8 5 9 6 5 7 4 8 2 9 1 10 3 11 12 12 10 14
REMARK H PARENT 12 13 10 15
REMARK Flexibility Score: inf
ROOT
ATOM      1  C   UNL     1      14.122 -28.805   7.240  1.00  0.00    -0.022 A 
ATOM      2  C   UNL     1      13.025 -28.064   7.701  1.00  0.00     0.058 A 
ATOM      3  C   UNL     1      15.376 -28.616   7.838  1.00  0.00     0.012 A 
ATOM      4  C   UNL     1      13.178 -27.106   8.711  1.00  0.00     0.157 A 
ATOM      5  C   UNL     1      15.540 -27.662   8.845  1.00  0.00     0.051 A 
ATOM      6  C   UNL     1      14.454 -26.897   9.286  1.00  0.00     0.157 A 
ENDROOT
BRANCH   1   7
ATOM      7  C   UNL     1      13.912 -29.845   6.211  1.00  0.00     0.010 C 
ATOM      8  C   UNL     1      13.675 -29.614   4.910  1.00  0.00     0.025 C 
BRANCH   8   9
ATOM      9  C   UNL     1      13.403 -28.297   4.303  1.00  0.00     0.064 C 
ATOM     10  O   UNL     1      14.334 -27.551   3.902  1.00  0.00    -0.545 OA
ATOM     11  O   UNL     1      12.092 -27.842   4.234  1.00  0.00    -0.545 OA
ENDBRANCH   8   9
ENDBRANCH   1   7
BRANCH   4  12
ATOM     12  O   UNL     1      12.045 -26.393   9.110  1.00  0.00    -0.504 OA
ATOM     13  H   UNL     1      11.114 -26.783   9.140  1.00  0.00     0.293 HD
ENDBRANCH   4  12
BRANCH   6  14
ATOM     14  O   UNL     1      14.685 -25.955  10.291  1.00  0.00    -0.504 OA
ATOM     15  H   UNL     1      13.957 -25.541  10.855  1.00  0.00     0.293 HD
ENDBRANCH   6  14
TORSDOF 4
ENDMDL
MODEL 9
REMARK VINA RESULT:    -4.027      1.736      1.923
REMARK INTER + INTRA:          -5.021
REMARK INTER:                  -4.851
REMARK INTRA:                  -0.170
REMARK UNBOUND:                -0.288
REMARK SMILES O=C([O-])C=Cc1ccc(O)c(O)c1
REMARK SMILES IDX 6 1 13 2 7 3 11 4 8 5 9 6 5 7 4 8 2 9 1 10 3 11 12 12 10 14
REMARK H PARENT 12 13 10 15
REMARK Flexibility Score: inf
ROOT
ATOM      1  C   UNL     1       1.192 -18.999   6.067  1.00  0.00    -0.022 A 
ATOM      2  C   UNL     1       2.288 -19.509   5.356  1.00  0.00     0.058 A 
ATOM      3  C   UNL     1       0.026 -18.649   5.371  1.00  0.00     0.012 A 
ATOM      4  C   UNL     1       2.249 -19.621   3.961  1.00  0.00     0.157 A 
ATOM      5  C   UNL     1      -0.022 -18.757   3.980  1.00  0.00     0.051 A 
ATOM      6  C   UNL     1       1.081 -19.234   3.262  1.00  0.00     0.157 A 
ENDROOT
BRANCH   1   7
ATOM      7  C   UNL     1       1.249 -18.945   7.543  1.00  0.00     0.010 C 
ATOM      8  C   UNL     1       0.883 -19.934   8.372  1.00  0.00     0.025 C 
BRANCH   8   9
ATOM      9  C   UNL     1       0.194 -21.178   7.979  1.00  0.00     0.064 C 
ATOM     10  O   UNL     1       0.752 -22.039   7.250  1.00  0.00    -0.545 OA
ATOM     11  O   UNL     1      -1.125 -21.373   8.369  1.00  0.00    -0.545 OA
ENDBRANCH   8   9
ENDBRANCH   1   7
BRANCH   4  12
ATOM     12  O   UNL     1       3.382 -20.122   3.316  1.00  0.00    -0.504 OA
ATOM     13  H   UNL     1       4.311 -20.108   3.714  1.00  0.00     0.293 HD
ENDBRANCH   4  12
BRANCH   6  14
ATOM     14  O   UNL     1       0.971 -19.312   1.872  1.00  0.00    -0.504 OA
ATOM     15  H   UNL     1       0.389 -18.702   1.317  1.00  0.00     0.293 HD
ENDBRANCH   6  14
TORSDOF 4
ENDMDL
