MODEL 1
REMARK VINA RESULT:    -4.534      0.000      0.000
REMARK INTER + INTRA:         -10.081
REMARK INTER:                  -8.510
REMARK INTRA:                  -1.571
REMARK UNBOUND:                -1.571
REMARK SMILES CCCCCCCCC=CCCCCCCCC(=O)[O-]
REMARK SMILES IDX 10 1 9 2 11 3 12 4 13 5 14 6 15 7 16 8 17 9 18 10 19 11
REMARK SMILES IDX 20 12 8 13 7 14 6 15 5 16 4 17 3 18 2 19 1 20
REMARK H PARENT
REMARK Flexibility Score: inf
ROOT
ATOM      1  C   UNL     1       8.721  -9.150  30.660  1.00  0.00    -0.031 C 
ATOM      2  C   UNL     1       8.594 -10.153  31.548  1.00  0.00    -0.031 C 
ENDROOT
BRANCH   1   3
ATOM      3  C   UNL     1       9.858  -8.995  29.683  1.00  0.00     0.027 C 
BRANCH   3   4
ATOM      4  C   UNL     1       9.322  -8.895  28.250  1.00  0.00     0.004 C 
BRANCH   4   5
ATOM      5  C   UNL     1      10.441  -8.519  27.269  1.00  0.00     0.000 C 
BRANCH   5   6
ATOM      6  C   UNL     1      10.578  -6.998  27.076  1.00  0.00     0.000 C 
BRANCH   6   7
ATOM      7  C   UNL     1       9.341  -6.305  26.470  1.00  0.00     0.000 C 
BRANCH   7   8
ATOM      8  C   UNL     1       9.253  -6.347  24.930  1.00  0.00     0.006 C 
BRANCH   8   9
ATOM      9  C   UNL     1       8.355  -5.264  24.313  1.00  0.00     0.053 C 
BRANCH   9  10
ATOM     10  C   UNL     1       7.320  -5.848  23.399  1.00  0.00     0.041 C 
ATOM     11  O   UNL     1       7.648  -6.260  22.255  1.00  0.00    -0.550 OA
ATOM     12  O   UNL     1       5.984  -5.873  23.782  1.00  0.00    -0.550 OA
ENDBRANCH   9  10
ENDBRANCH   8   9
ENDBRANCH   7   8
ENDBRANCH   6   7
ENDBRANCH   5   6
ENDBRANCH   4   5
ENDBRANCH   3   4
ENDBRANCH   1   3
BRANCH   2  13
ATOM     13  C   UNL     1       9.590 -11.267  31.749  1.00  0.00     0.027 C 
BRANCH  13  14
ATOM     14  C   UNL     1       9.972 -11.498  33.223  1.00  0.00     0.004 C 
BRANCH  14  15
ATOM     15  C   UNL     1       8.776 -11.423  34.192  1.00  0.00     0.000 C 
BRANCH  15  16
ATOM     16  C   UNL     1       8.759 -10.125  35.019  1.00  0.00     0.000 C 
BRANCH  16  17
ATOM     17  C   UNL     1      10.075  -9.331  34.887  1.00  0.00    -0.000 C 
BRANCH  17  18
ATOM     18  C   UNL     1       9.909  -7.956  34.208  1.00  0.00    -0.000 C 
BRANCH  18  19
ATOM     19  C   UNL     1      10.996  -7.607  33.179  1.00  0.00    -0.003 C 
ATOM     20  C   UNL     1      10.680  -6.341  32.381  1.00  0.00     0.004 C 
ENDBRANCH  18  19
ENDBRANCH  17  18
ENDBRANCH  16  17
ENDBRANCH  15  16
ENDBRANCH  14  15
ENDBRANCH  13  14
ENDBRANCH   2  13
TORSDOF 15
ENDMDL
MODEL 2
REMARK VINA RESULT:    -4.460      6.131      9.272
REMARK INTER + INTRA:          -9.942
REMARK INTER:                  -7.402
REMARK INTRA:                  -2.540
REMARK UNBOUND:                -1.571
REMARK SMILES CCCCCCCCC=CCCCCCCCC(=O)[O-]
REMARK SMILES IDX 10 1 9 2 11 3 12 4 13 5 14 6 15 7 16 8 17 9 18 10 19 11
REMARK SMILES IDX 20 12 8 13 7 14 6 15 5 16 4 17 3 18 2 19 1 20
REMARK H PARENT
REMARK Flexibility Score: inf
ROOT
ATOM      1  C   UNL     1      14.614 -15.447  25.941  1.00  0.00    -0.031 C 
ATOM      2  C   UNL     1      13.288 -15.283  26.103  1.00  0.00    -0.031 C 
ENDROOT
BRANCH   1   3
ATOM      3  C   UNL     1      15.627 -14.332  25.891  1.00  0.00     0.027 C 
BRANCH   3   4
ATOM      4  C   UNL     1      15.763 -13.799  24.459  1.00  0.00     0.004 C 
BRANCH   4   5
ATOM      5  C   UNL     1      15.886 -12.269  24.451  1.00  0.00     0.000 C 
BRANCH   5   6
ATOM      6  C   UNL     1      15.283 -11.617  25.707  1.00  0.00     0.000 C 
BRANCH   6   7
ATOM      7  C   UNL     1      14.168 -10.586  25.434  1.00  0.00     0.000 C 
BRANCH   7   8
ATOM      8  C   UNL     1      13.149 -10.402  26.577  1.00  0.00     0.006 C 
BRANCH   8   9
ATOM      9  C   UNL     1      11.699 -10.197  26.111  1.00  0.00     0.053 C 
BRANCH   9  10
ATOM     10  C   UNL     1      11.060  -9.013  26.772  1.00  0.00     0.041 C 
ATOM     11  O   UNL     1      10.121  -9.180  27.595  1.00  0.00    -0.550 OA
ATOM     12  O   UNL     1      11.452  -7.725  26.429  1.00  0.00    -0.550 OA
ENDBRANCH   9  10
ENDBRANCH   8   9
ENDBRANCH   7   8
ENDBRANCH   6   7
ENDBRANCH   5   6
ENDBRANCH   4   5
ENDBRANCH   3   4
ENDBRANCH   1   3
BRANCH   2  13
ATOM     13  C   UNL     1      12.584 -13.955  26.217  1.00  0.00     0.027 C 
BRANCH  13  14
ATOM     14  C   UNL     1      11.651 -13.644  25.032  1.00  0.00     0.004 C 
BRANCH  14  15
ATOM     15  C   UNL     1      12.194 -14.127  23.674  1.00  0.00     0.000 C 
BRANCH  15  16
ATOM     16  C   UNL     1      12.692 -12.974  22.785  1.00  0.00     0.000 C 
BRANCH  16  17
ATOM     17  C   UNL     1      11.833 -11.702  22.943  1.00  0.00    -0.000 C 
BRANCH  17  18
ATOM     18  C   UNL     1      10.515 -11.737  22.143  1.00  0.00    -0.000 C 
BRANCH  18  19
ATOM     19  C   UNL     1      10.579 -11.068  20.761  1.00  0.00    -0.003 C 
ATOM     20  C   UNL     1       9.481 -10.023  20.550  1.00  0.00     0.004 C 
ENDBRANCH  18  19
ENDBRANCH  17  18
ENDBRANCH  16  17
ENDBRANCH  15  16
ENDBRANCH  14  15
ENDBRANCH  13  14
ENDBRANCH   2  13
TORSDOF 15
ENDMDL
MODEL 3
REMARK VINA RESULT:    -4.454      5.519      8.037
REMARK INTER + INTRA:          -9.931
REMARK INTER:                  -7.637
REMARK INTRA:                  -2.294
REMARK UNBOUND:                -1.571
REMARK SMILES CCCCCCCCC=CCCCCCCCC(=O)[O-]
REMARK SMILES IDX 10 1 9 2 11 3 12 4 13 5 14 6 15 7 16 8 17 9 18 10 19 11
REMARK SMILES IDX 20 12 8 13 7 14 6 15 5 16 4 17 3 18 2 19 1 20
REMARK H PARENT
REMARK Flexibility Score: inf
ROOT
ATOM      1  C   UNL     1      15.326 -11.739  24.455  1.00  0.00    -0.031 C 
ATOM      2  C   UNL     1      16.247 -12.704  24.632  1.00  0.00    -0.031 C 
ENDROOT
BRANCH   1   3
ATOM      3  C   UNL     1      14.646 -10.975  25.562  1.00  0.00     0.027 C 
BRANCH   3   4
ATOM      4  C   UNL     1      14.426  -9.515  25.147  1.00  0.00     0.004 C 
BRANCH   4   5
ATOM      5  C   UNL     1      12.943  -9.132  25.252  1.00  0.00     0.000 C 
BRANCH   5   6
ATOM      6  C   UNL     1      12.191  -9.947  26.319  1.00  0.00     0.000 C 
BRANCH   6   7
ATOM      7  C   UNL     1      10.894  -9.296  26.840  1.00  0.00     0.000 C 
BRANCH   7   8
ATOM      8  C   UNL     1      10.867  -7.754  26.796  1.00  0.00     0.006 C 
BRANCH   8   9
ATOM      9  C   UNL     1      10.098  -7.164  25.603  1.00  0.00     0.053 C 
BRANCH   9  10
ATOM     10  C   UNL     1       9.019  -6.222  26.044  1.00  0.00     0.041 C 
ATOM     11  O   UNL     1       8.291  -6.513  27.031  1.00  0.00    -0.550 OA
ATOM     12  O   UNL     1       8.769  -5.059  25.325  1.00  0.00    -0.550 OA
ENDBRANCH   9  10
ENDBRANCH   8   9
ENDBRANCH   7   8
ENDBRANCH   6   7
ENDBRANCH   5   6
ENDBRANCH   4   5
ENDBRANCH   3   4
ENDBRANCH   1   3
BRANCH   2  13
ATOM     13  C   UNL     1      16.724 -13.217  25.968  1.00  0.00     0.027 C 
BRANCH  13  14
ATOM     14  C   UNL     1      15.885 -14.385  26.518  1.00  0.00     0.004 C 
BRANCH  14  15
ATOM     15  C   UNL     1      15.400 -15.364  25.432  1.00  0.00     0.000 C 
BRANCH  15  16
ATOM     16  C   UNL     1      13.868 -15.510  25.401  1.00  0.00     0.000 C 
BRANCH  16  17
ATOM     17  C   UNL     1      13.169 -14.541  26.377  1.00  0.00    -0.000 C 
BRANCH  17  18
ATOM     18  C   UNL     1      12.148 -13.604  25.700  1.00  0.00    -0.000 C 
BRANCH  18  19
ATOM     19  C   UNL     1      12.065 -13.734  24.171  1.00  0.00    -0.003 C 
ATOM     20  C   UNL     1      11.681 -12.424  23.479  1.00  0.00     0.004 C 
ENDBRANCH  18  19
ENDBRANCH  17  18
ENDBRANCH  16  17
ENDBRANCH  15  16
ENDBRANCH  14  15
ENDBRANCH  13  14
ENDBRANCH   2  13
TORSDOF 15
ENDMDL
MODEL 4
REMARK VINA RESULT:    -4.441      1.290      2.618
REMARK INTER + INTRA:          -9.907
REMARK INTER:                  -8.794
REMARK INTRA:                  -1.112
REMARK UNBOUND:                -1.571
REMARK SMILES CCCCCCCCC=CCCCCCCCC(=O)[O-]
REMARK SMILES IDX 10 1 9 2 11 3 12 4 13 5 14 6 15 7 16 8 17 9 18 10 19 11
REMARK SMILES IDX 20 12 8 13 7 14 6 15 5 16 4 17 3 18 2 19 1 20
REMARK H PARENT
REMARK Flexibility Score: inf
ROOT
ATOM      1  C   UNL     1      10.522  -9.586  27.806  1.00  0.00    -0.031 C 
ATOM      2  C   UNL     1      10.132 -10.058  29.005  1.00  0.00    -0.031 C 
ENDROOT
BRANCH   1   3
ATOM      3  C   UNL     1      10.820  -8.142  27.498  1.00  0.00     0.027 C 
BRANCH   3   4
ATOM      4  C   UNL     1       9.613  -7.480  26.822  1.00  0.00     0.004 C 
BRANCH   4   5
ATOM      5  C   UNL     1       9.948  -7.068  25.381  1.00  0.00     0.000 C 
BRANCH   5   6
ATOM      6  C   UNL     1       9.693  -5.574  25.114  1.00  0.00     0.000 C 
BRANCH   6   7
ATOM      7  C   UNL     1       8.255  -5.226  24.679  1.00  0.00     0.000 C 
BRANCH   7   8
ATOM      8  C   UNL     1       7.786  -5.890  23.368  1.00  0.00     0.006 C 
BRANCH   8   9
ATOM      9  C   UNL     1       6.444  -5.367  22.833  1.00  0.00     0.053 C 
BRANCH   9  10
ATOM     10  C   UNL     1       6.607  -4.622  21.542  1.00  0.00     0.041 C 
ATOM     11  O   UNL     1       6.806  -5.253  20.470  1.00  0.00    -0.550 OA
ATOM     12  O   UNL     1       6.612  -3.233  21.534  1.00  0.00    -0.550 OA
ENDBRANCH   9  10
ENDBRANCH   8   9
ENDBRANCH   7   8
ENDBRANCH   6   7
ENDBRANCH   5   6
ENDBRANCH   4   5
ENDBRANCH   3   4
ENDBRANCH   1   3
BRANCH   2  13
ATOM     13  C   UNL     1       9.886  -9.217  30.232  1.00  0.00     0.027 C 
BRANCH  13  14
ATOM     14  C   UNL     1       8.427  -9.254  30.725  1.00  0.00     0.004 C 
BRANCH  14  15
ATOM     15  C   UNL     1       8.152 -10.360  31.762  1.00  0.00     0.000 C 
BRANCH  15  16
ATOM     16  C   UNL     1       9.358 -11.292  31.975  1.00  0.00     0.000 C 
BRANCH  16  17
ATOM     17  C   UNL     1       9.831 -11.308  33.444  1.00  0.00    -0.000 C 
BRANCH  17  18
ATOM     18  C   UNL     1       9.632  -9.966  34.177  1.00  0.00    -0.000 C 
BRANCH  18  19
ATOM     19  C   UNL     1      10.818  -8.994  34.080  1.00  0.00    -0.003 C 
ATOM     20  C   UNL     1      10.431  -7.635  33.493  1.00  0.00     0.004 C 
ENDBRANCH  18  19
ENDBRANCH  17  18
ENDBRANCH  16  17
ENDBRANCH  15  16
ENDBRANCH  14  15
ENDBRANCH  13  14
ENDBRANCH   2  13
TORSDOF 15
ENDMDL
MODEL 5
REMARK VINA RESULT:    -4.392      1.710      3.165
REMARK INTER + INTRA:          -9.815
REMARK INTER:                  -8.176
REMARK INTRA:                  -1.639
REMARK UNBOUND:                -1.571
REMARK SMILES CCCCCCCCC=CCCCCCCCC(=O)[O-]
REMARK SMILES IDX 10 1 9 2 11 3 12 4 13 5 14 6 15 7 16 8 17 9 18 10 19 11
REMARK SMILES IDX 20 12 8 13 7 14 6 15 5 16 4 17 3 18 2 19 1 20
REMARK H PARENT
REMARK Flexibility Score: inf
ROOT
ATOM      1  C   UNL     1       9.683 -10.255  31.545  1.00  0.00    -0.031 C 
ATOM      2  C   UNL     1      10.165 -10.587  32.757  1.00  0.00    -0.031 C 
ENDROOT
BRANCH   1   3
ATOM      3  C   UNL     1       9.652  -8.860  30.975  1.00  0.00     0.027 C 
BRANCH   3   4
ATOM      4  C   UNL     1       9.178  -8.890  29.517  1.00  0.00     0.004 C 
BRANCH   4   5
ATOM      5  C   UNL     1      10.166  -9.664  28.633  1.00  0.00     0.000 C 
BRANCH   5   6
ATOM      6  C   UNL     1      10.510  -8.920  27.331  1.00  0.00     0.000 C 
BRANCH   6   7
ATOM      7  C   UNL     1      10.638  -7.389  27.469  1.00  0.00     0.000 C 
BRANCH   7   8
ATOM      8  C   UNL     1      11.232  -6.666  26.243  1.00  0.00     0.006 C 
BRANCH   8   9
ATOM      9  C   UNL     1      10.376  -5.505  25.712  1.00  0.00     0.053 C 
BRANCH   9  10
ATOM     10  C   UNL     1       9.003  -5.957  25.315  1.00  0.00     0.041 C 
ATOM     11  O   UNL     1       8.784  -6.350  24.138  1.00  0.00    -0.550 OA
ATOM     12  O   UNL     1       7.953  -5.879  26.221  1.00  0.00    -0.550 OA
ENDBRANCH   9  10
ENDBRANCH   8   9
ENDBRANCH   7   8
ENDBRANCH   6   7
ENDBRANCH   5   6
ENDBRANCH   4   5
ENDBRANCH   3   4
ENDBRANCH   1   3
BRANCH   2  13
ATOM     13  C   UNL     1      10.715  -9.614  33.769  1.00  0.00     0.027 C 
BRANCH  13  14
ATOM     14  C   UNL     1       9.721  -9.258  34.890  1.00  0.00     0.004 C 
BRANCH  14  15
ATOM     15  C   UNL     1       8.497 -10.191  34.952  1.00  0.00     0.000 C 
BRANCH  15  16
ATOM     16  C   UNL     1       7.162  -9.425  34.971  1.00  0.00     0.000 C 
BRANCH  16  17
ATOM     17  C   UNL     1       6.065 -10.146  34.160  1.00  0.00    -0.000 C 
BRANCH  17  18
ATOM     18  C   UNL     1       6.462 -11.561  33.694  1.00  0.00    -0.000 C 
BRANCH  18  19
ATOM     19  C   UNL     1       6.516 -11.749  32.169  1.00  0.00    -0.003 C 
ATOM     20  C   UNL     1       5.738 -10.675  31.407  1.00  0.00     0.004 C 
ENDBRANCH  18  19
ENDBRANCH  17  18
ENDBRANCH  16  17
ENDBRANCH  15  16
ENDBRANCH  14  15
ENDBRANCH  13  14
ENDBRANCH   2  13
TORSDOF 15
ENDMDL
MODEL 6
REMARK VINA RESULT:    -4.359      4.927      8.362
REMARK INTER + INTRA:          -9.753
REMARK INTER:                  -8.769
REMARK INTRA:                  -0.983
REMARK UNBOUND:                -1.571
REMARK SMILES CCCCCCCCC=CCCCCCCCC(=O)[O-]
REMARK SMILES IDX 10 1 9 2 11 3 12 4 13 5 14 6 15 7 16 8 17 9 18 10 19 11
REMARK SMILES IDX 20 12 8 13 7 14 6 15 5 16 4 17 3 18 2 19 1 20
REMARK H PARENT
REMARK Flexibility Score: inf
ROOT
ATOM      1  C   UNL     1      11.146  -9.677  27.318  1.00  0.00    -0.031 C 
ATOM      2  C   UNL     1      10.224  -8.724  27.085  1.00  0.00    -0.031 C 
ENDROOT
BRANCH   1   3
ATOM      3  C   UNL     1      12.410  -9.874  26.522  1.00  0.00     0.027 C 
BRANCH   3   4
ATOM      4  C   UNL     1      12.139 -10.761  25.300  1.00  0.00     0.004 C 
BRANCH   4   5
ATOM      5  C   UNL     1      12.097 -12.243  25.696  1.00  0.00     0.000 C 
BRANCH   5   6
ATOM      6  C   UNL     1      11.811 -13.171  24.501  1.00  0.00     0.000 C 
BRANCH   6   7
ATOM      7  C   UNL     1      12.281 -12.634  23.134  1.00  0.00     0.000 C 
BRANCH   7   8
ATOM      8  C   UNL     1      11.161 -12.411  22.096  1.00  0.00     0.006 C 
BRANCH   8   9
ATOM      9  C   UNL     1      10.626 -10.971  22.036  1.00  0.00     0.053 C 
BRANCH   9  10
ATOM     10  C   UNL     1       9.919 -10.690  20.744  1.00  0.00     0.041 C 
ATOM     11  O   UNL     1       8.663 -10.767  20.682  1.00  0.00    -0.550 OA
ATOM     12  O   UNL     1      10.649 -10.413  19.594  1.00  0.00    -0.550 OA
ENDBRANCH   9  10
ENDBRANCH   8   9
ENDBRANCH   7   8
ENDBRANCH   6   7
ENDBRANCH   5   6
ENDBRANCH   4   5
ENDBRANCH   3   4
ENDBRANCH   1   3
BRANCH   2  13
ATOM     13  C   UNL     1      10.278  -7.719  25.962  1.00  0.00     0.027 C 
BRANCH  13  14
ATOM     14  C   UNL     1       9.769  -6.320  26.358  1.00  0.00     0.004 C 
BRANCH  14  15
ATOM     15  C   UNL     1       9.405  -5.430  25.156  1.00  0.00     0.000 C 
BRANCH  15  16
ATOM     16  C   UNL     1       8.495  -6.143  24.139  1.00  0.00     0.000 C 
BRANCH  16  17
ATOM     17  C   UNL     1       7.304  -5.263  23.704  1.00  0.00    -0.000 C 
BRANCH  17  18
ATOM     18  C   UNL     1       6.883  -5.468  22.234  1.00  0.00    -0.000 C 
BRANCH  18  19
ATOM     19  C   UNL     1       6.241  -4.240  21.568  1.00  0.00    -0.003 C 
ATOM     20  C   UNL     1       6.741  -2.915  22.149  1.00  0.00     0.004 C 
ENDBRANCH  18  19
ENDBRANCH  17  18
ENDBRANCH  16  17
ENDBRANCH  15  16
ENDBRANCH  14  15
ENDBRANCH  13  14
ENDBRANCH   2  13
TORSDOF 15
ENDMDL
MODEL 7
REMARK VINA RESULT:    -4.347      5.751      7.820
REMARK INTER + INTRA:          -9.731
REMARK INTER:                  -7.981
REMARK INTRA:                  -1.750
REMARK UNBOUND:                -1.571
REMARK SMILES CCCCCCCCC=CCCCCCCCC(=O)[O-]
REMARK SMILES IDX 10 1 9 2 11 3 12 4 13 5 14 6 15 7 16 8 17 9 18 10 19 11
REMARK SMILES IDX 20 12 8 13 7 14 6 15 5 16 4 17 3 18 2 19 1 20
REMARK H PARENT
REMARK Flexibility Score: inf
ROOT
ATOM      1  C   UNL     1      12.129 -13.082  26.404  1.00  0.00    -0.031 C 
ATOM      2  C   UNL     1      12.611 -14.337  26.334  1.00  0.00    -0.031 C 
ENDROOT
BRANCH   1   3
ATOM      3  C   UNL     1      12.424 -11.984  25.416  1.00  0.00     0.027 C 
BRANCH   3   4
ATOM      4  C   UNL     1      13.024 -10.768  26.133  1.00  0.00     0.004 C 
BRANCH   4   5
ATOM      5  C   UNL     1      12.060  -9.574  26.090  1.00  0.00     0.000 C 
BRANCH   5   6
ATOM      6  C   UNL     1      11.020  -9.607  27.225  1.00  0.00     0.000 C 
BRANCH   6   7
ATOM      7  C   UNL     1      10.242  -8.292  27.433  1.00  0.00     0.000 C 
BRANCH   7   8
ATOM      8  C   UNL     1       9.905  -7.516  26.143  1.00  0.00     0.006 C 
BRANCH   8   9
ATOM      9  C   UNL     1       9.011  -6.284  26.355  1.00  0.00     0.053 C 
BRANCH   9  10
ATOM     10  C   UNL     1       8.991  -5.392  25.150  1.00  0.00     0.041 C 
ATOM     11  O   UNL     1       8.225  -5.652  24.185  1.00  0.00    -0.550 OA
ATOM     12  O   UNL     1       9.868  -4.318  25.062  1.00  0.00    -0.550 OA
ENDBRANCH   9  10
ENDBRANCH   8   9
ENDBRANCH   7   8
ENDBRANCH   6   7
ENDBRANCH   5   6
ENDBRANCH   4   5
ENDBRANCH   3   4
ENDBRANCH   1   3
BRANCH   2  13
ATOM     13  C   UNL     1      13.563 -14.846  25.281  1.00  0.00     0.027 C 
BRANCH  13  14
ATOM     14  C   UNL     1      14.398 -16.058  25.735  1.00  0.00     0.004 C 
BRANCH  14  15
ATOM     15  C   UNL     1      15.910 -15.891  25.499  1.00  0.00     0.000 C 
BRANCH  15  16
ATOM     16  C   UNL     1      16.609 -15.114  26.629  1.00  0.00     0.000 C 
BRANCH  16  17
ATOM     17  C   UNL     1      17.250 -13.803  26.127  1.00  0.00    -0.000 C 
BRANCH  17  18
ATOM     18  C   UNL     1      16.258 -12.627  26.018  1.00  0.00    -0.000 C 
BRANCH  18  19
ATOM     19  C   UNL     1      16.405 -11.773  24.748  1.00  0.00    -0.003 C 
ATOM     20  C   UNL     1      15.693 -12.378  23.535  1.00  0.00     0.004 C 
ENDBRANCH  18  19
ENDBRANCH  17  18
ENDBRANCH  16  17
ENDBRANCH  15  16
ENDBRANCH  14  15
ENDBRANCH  13  14
ENDBRANCH   2  13
TORSDOF 15
ENDMDL
MODEL 8
REMARK VINA RESULT:    -4.283      5.872      8.754
REMARK INTER + INTRA:          -9.611
REMARK INTER:                  -8.232
REMARK INTRA:                  -1.379
REMARK UNBOUND:                -1.571
REMARK SMILES CCCCCCCCC=CCCCCCCCC(=O)[O-]
REMARK SMILES IDX 10 1 9 2 11 3 12 4 13 5 14 6 15 7 16 8 17 9 18 10 19 11
REMARK SMILES IDX 20 12 8 13 7 14 6 15 5 16 4 17 3 18 2 19 1 20
REMARK H PARENT
REMARK Flexibility Score: inf
ROOT
ATOM      1  C   UNL     1      11.258 -10.427  27.848  1.00  0.00    -0.031 C 
ATOM      2  C   UNL     1      11.771 -11.607  27.452  1.00  0.00    -0.031 C 
ENDROOT
BRANCH   1   3
ATOM      3  C   UNL     1      10.973  -9.257  26.941  1.00  0.00     0.027 C 
BRANCH   3   4
ATOM      4  C   UNL     1      10.413  -8.080  27.748  1.00  0.00     0.004 C 
BRANCH   4   5
ATOM      5  C   UNL     1       8.911  -8.259  28.012  1.00  0.00     0.000 C 
BRANCH   5   6
ATOM      6  C   UNL     1       8.594  -8.520  29.495  1.00  0.00     0.000 C 
BRANCH   6   7
ATOM      7  C   UNL     1       9.818  -8.520  30.433  1.00  0.00     0.000 C 
BRANCH   7   8
ATOM      8  C   UNL     1       9.572  -9.116  31.834  1.00  0.00     0.006 C 
BRANCH   8   9
ATOM      9  C   UNL     1       8.829 -10.461  31.833  1.00  0.00     0.053 C 
BRANCH   9  10
ATOM     10  C   UNL     1       9.773 -11.623  31.909  1.00  0.00     0.041 C 
ATOM     11  O   UNL     1      10.132 -12.214  30.856  1.00  0.00    -0.550 OA
ATOM     12  O   UNL     1      10.201 -12.097  33.143  1.00  0.00    -0.550 OA
ENDBRANCH   9  10
ENDBRANCH   8   9
ENDBRANCH   7   8
ENDBRANCH   6   7
ENDBRANCH   5   6
ENDBRANCH   4   5
ENDBRANCH   3   4
ENDBRANCH   1   3
BRANCH   2  13
ATOM     13  C   UNL     1      12.188 -11.945  26.043  1.00  0.00     0.027 C 
BRANCH  13  14
ATOM     14  C   UNL     1      12.491 -13.440  25.829  1.00  0.00     0.004 C 
BRANCH  14  15
ATOM     15  C   UNL     1      12.587 -13.846  24.346  1.00  0.00     0.000 C 
BRANCH  15  16
ATOM     16  C   UNL     1      13.663 -14.916  24.088  1.00  0.00     0.000 C 
BRANCH  16  17
ATOM     17  C   UNL     1      14.217 -15.515  25.398  1.00  0.00    -0.000 C 
BRANCH  17  18
ATOM     18  C   UNL     1      15.735 -15.313  25.582  1.00  0.00    -0.000 C 
BRANCH  18  19
ATOM     19  C   UNL     1      16.126 -14.126  26.477  1.00  0.00    -0.003 C 
ATOM     20  C   UNL     1      16.419 -12.851  25.684  1.00  0.00     0.004 C 
ENDBRANCH  18  19
ENDBRANCH  17  18
ENDBRANCH  16  17
ENDBRANCH  15  16
ENDBRANCH  14  15
ENDBRANCH  13  14
ENDBRANCH   2  13
TORSDOF 15
ENDMDL
MODEL 9
REMARK VINA RESULT:    -4.271      6.284     10.243
REMARK INTER + INTRA:          -9.587
REMARK INTER:                  -7.504
REMARK INTRA:                  -2.083
REMARK UNBOUND:                -1.571
REMARK SMILES CCCCCCCCC=CCCCCCCCC(=O)[O-]
REMARK SMILES IDX 10 1 9 2 11 3 12 4 13 5 14 6 15 7 16 8 17 9 18 10 19 11
REMARK SMILES IDX 20 12 8 13 7 14 6 15 5 16 4 17 3 18 2 19 1 20
REMARK H PARENT
REMARK Flexibility Score: inf
ROOT
ATOM      1  C   UNL     1      13.569  -2.040  26.714  1.00  0.00    -0.031 C 
ATOM      2  C   UNL     1      12.712  -1.045  27.007  1.00  0.00    -0.031 C 
ENDROOT
BRANCH   1   3
ATOM      3  C   UNL     1      13.465  -2.950  25.517  1.00  0.00     0.027 C 
BRANCH   3   4
ATOM      4  C   UNL     1      13.577  -4.417  25.950  1.00  0.00     0.004 C 
BRANCH   4   5
ATOM      5  C   UNL     1      12.242  -4.929  26.509  1.00  0.00     0.000 C 
BRANCH   5   6
ATOM      6  C   UNL     1      11.065  -4.698  25.544  1.00  0.00     0.000 C 
BRANCH   6   7
ATOM      7  C   UNL     1       9.954  -5.766  25.604  1.00  0.00     0.000 C 
BRANCH   7   8
ATOM      8  C   UNL     1      10.122  -6.827  26.712  1.00  0.00     0.006 C 
BRANCH   8   9
ATOM      9  C   UNL     1      10.457  -8.237  26.199  1.00  0.00     0.053 C 
BRANCH   9  10
ATOM     10  C   UNL     1      10.767  -9.182  27.320  1.00  0.00     0.041 C 
ATOM     11  O   UNL     1      11.718 -10.001  27.210  1.00  0.00    -0.550 OA
ATOM     12  O   UNL     1       9.965  -9.207  28.454  1.00  0.00    -0.550 OA
ENDBRANCH   9  10
ENDBRANCH   8   9
ENDBRANCH   7   8
ENDBRANCH   6   7
ENDBRANCH   5   6
ENDBRANCH   4   5
ENDBRANCH   3   4
ENDBRANCH   1   3
BRANCH   2  13
ATOM     13  C   UNL     1      11.479  -0.697  26.212  1.00  0.00     0.027 C 
BRANCH  13  14
ATOM     14  C   UNL     1      11.693   0.450  25.207  1.00  0.00     0.004 C 
BRANCH  14  15
ATOM     15  C   UNL     1      12.908   1.338  25.531  1.00  0.00     0.000 C 
BRANCH  15  16
ATOM     16  C   UNL     1      13.833   1.551  24.319  1.00  0.00     0.000 C 
BRANCH  16  17
ATOM     17  C   UNL     1      14.310   0.217  23.707  1.00  0.00    -0.000 C 
BRANCH  17  18
ATOM     18  C   UNL     1      15.689  -0.246  24.221  1.00  0.00    -0.000 C 
BRANCH  18  19
ATOM     19  C   UNL     1      16.398   0.748  25.155  1.00  0.00    -0.003 C 
ATOM     20  C   UNL     1      16.534   0.230  26.588  1.00  0.00     0.004 C 
ENDBRANCH  18  19
ENDBRANCH  17  18
ENDBRANCH  16  17
ENDBRANCH  15  16
ENDBRANCH  14  15
ENDBRANCH  13  14
ENDBRANCH   2  13
TORSDOF 15
ENDMDL
