MODEL 1
REMARK VINA RESULT:    -5.986      0.000      0.000
REMARK INTER + INTRA:          -7.300
REMARK INTER:                  -7.035
REMARK INTRA:                  -0.265
REMARK UNBOUND:                -0.265
REMARK SMILES O=c1cc(-c2ccc(O)c(O)c2)oc2cc(O)cc(O)c12
REMARK SMILES IDX 4 1 3 2 2 3 1 4 21 5 19 6 18 7 16 8 15 9 14 10 13 11 5 12
REMARK SMILES IDX 6 13 7 14 8 15 12 16 10 17 9 18 11 20 20 22 17 24
REMARK H PARENT 9 19 11 21 20 23 17 25
REMARK Flexibility Score: inf
ROOT
ATOM      1  C   UNL     1      25.882  43.572 140.849  1.00  0.00     0.138 A 
ATOM      2  C   UNL     1      24.508  43.307 140.937  1.00  0.00     0.100 A 
ATOM      3  C   UNL     1      23.663  43.691 139.894  1.00  0.00     0.197 A 
ATOM      4  O   UNL     1      22.445  43.384 139.975  1.00  0.00    -0.289 OA
ATOM      5  C   UNL     1      24.194  44.370 138.773  1.00  0.00     0.107 A 
ATOM      6  C   UNL     1      23.422  44.845 137.671  1.00  0.00     0.134 A 
ATOM      7  C   UNL     1      24.071  45.401 136.562  1.00  0.00     0.093 A 
ATOM      8  C   UNL     1      25.460  45.555 136.543  1.00  0.00     0.123 A 
ATOM      9  C   UNL     1      26.217  45.144 137.637  1.00  0.00     0.094 A 
ATOM     10  C   UNL     1      25.602  44.554 138.743  1.00  0.00     0.146 A 
ATOM     11  O   UNL     1      26.362  44.163 139.760  1.00  0.00    -0.456 OA
ENDROOT
BRANCH   1  12
ATOM     12  C   UNL     1      26.825  43.187 141.929  1.00  0.00     0.021 A 
ATOM     13  C   UNL     1      27.540  41.980 141.825  1.00  0.00     0.016 A 
ATOM     14  C   UNL     1      28.438  41.598 142.824  1.00  0.00     0.051 A 
ATOM     15  C   UNL     1      28.647  42.419 143.938  1.00  0.00     0.157 A 
ATOM     16  C   UNL     1      27.050  44.014 143.047  1.00  0.00     0.062 A 
ATOM     17  C   UNL     1      27.954  43.631 144.048  1.00  0.00     0.158 A 
BRANCH  15  18
ATOM     18  O   UNL     1      29.542  42.041 144.937  1.00  0.00    -0.504 OA
ATOM     19  H   UNL     1      29.807  41.073 145.072  1.00  0.00     0.293 HD
ENDBRANCH  15  18
BRANCH  17  20
ATOM     20  O   UNL     1      28.172  44.451 145.154  1.00  0.00    -0.504 OA
ATOM     21  H   UNL     1      29.089  44.535 145.579  1.00  0.00     0.293 HD
ENDBRANCH  17  20
ENDBRANCH   1  12
BRANCH   6  22
ATOM     22  O   UNL     1      22.024  44.817 137.625  1.00  0.00    -0.507 OA
ATOM     23  H   UNL     1      21.460  45.308 136.949  1.00  0.00     0.293 HD
ENDBRANCH   6  22
BRANCH   8  24
ATOM     24  O   UNL     1      26.096  46.123 135.441  1.00  0.00    -0.508 OA
ATOM     25  H   UNL     1      26.205  45.615 134.571  1.00  0.00     0.293 HD
ENDBRANCH   8  24
TORSDOF 5
ENDMDL
MODEL 2
REMARK VINA RESULT:    -5.851      3.606      7.624
REMARK INTER + INTRA:          -7.142
REMARK INTER:                  -6.850
REMARK INTRA:                  -0.292
REMARK UNBOUND:                -0.265
REMARK SMILES O=c1cc(-c2ccc(O)c(O)c2)oc2cc(O)cc(O)c12
REMARK SMILES IDX 4 1 3 2 2 3 1 4 21 5 19 6 18 7 16 8 15 9 14 10 13 11 5 12
REMARK SMILES IDX 6 13 7 14 8 15 12 16 10 17 9 18 11 20 20 22 17 24
REMARK H PARENT 9 19 11 21 20 23 17 25
REMARK Flexibility Score: inf
ROOT
ATOM      1  C   UNL     1      28.790  43.048 143.242  1.00  0.00     0.138 A 
ATOM      2  C   UNL     1      29.009  42.350 144.438  1.00  0.00     0.100 A 
ATOM      3  C   UNL     1      30.226  41.700 144.645  1.00  0.00     0.197 A 
ATOM      4  O   UNL     1      30.417  41.134 145.753  1.00  0.00    -0.289 OA
ATOM      5  C   UNL     1      31.216  41.723 143.634  1.00  0.00     0.107 A 
ATOM      6  C   UNL     1      32.478  41.061 143.718  1.00  0.00     0.134 A 
ATOM      7  C   UNL     1      33.424  41.250 142.704  1.00  0.00     0.093 A 
ATOM      8  C   UNL     1      33.132  42.029 141.580  1.00  0.00     0.123 A 
ATOM      9  C   UNL     1      31.883  42.635 141.465  1.00  0.00     0.094 A 
ATOM     10  C   UNL     1      30.930  42.493 142.476  1.00  0.00     0.146 A 
ATOM     11  O   UNL     1      29.757  43.099 142.332  1.00  0.00    -0.456 OA
ENDROOT
BRANCH   1  12
ATOM     12  C   UNL     1      27.513  43.756 142.971  1.00  0.00     0.021 A 
ATOM     13  C   UNL     1      27.484  44.785 142.013  1.00  0.00     0.016 A 
ATOM     14  C   UNL     1      26.294  45.462 141.734  1.00  0.00     0.051 A 
ATOM     15  C   UNL     1      25.112  45.116 142.399  1.00  0.00     0.157 A 
ATOM     16  C   UNL     1      26.317  43.404 143.626  1.00  0.00     0.062 A 
ATOM     17  C   UNL     1      25.123  44.082 143.344  1.00  0.00     0.158 A 
BRANCH  15  18
ATOM     18  O   UNL     1      23.923  45.790 142.123  1.00  0.00    -0.504 OA
ATOM     19  H   UNL     1      23.024  45.413 142.401  1.00  0.00     0.293 HD
ENDBRANCH  15  18
BRANCH  17  20
ATOM     20  O   UNL     1      23.941  43.733 143.995  1.00  0.00    -0.504 OA
ATOM     21  H   UNL     1      23.060  44.183 143.773  1.00  0.00     0.293 HD
ENDBRANCH  17  20
ENDBRANCH   1  12
BRANCH   6  22
ATOM     22  O   UNL     1      32.839  40.194 144.754  1.00  0.00    -0.507 OA
ATOM     23  H   UNL     1      32.730  39.191 144.730  1.00  0.00     0.293 HD
ENDBRANCH   6  22
BRANCH   8  24
ATOM     24  O   UNL     1      34.075  42.200 140.570  1.00  0.00    -0.508 OA
ATOM     25  H   UNL     1      35.017  41.837 140.656  1.00  0.00     0.293 HD
ENDBRANCH   8  24
TORSDOF 5
ENDMDL
MODEL 3
REMARK VINA RESULT:    -5.799     12.136     13.583
REMARK INTER + INTRA:          -7.080
REMARK INTER:                  -6.791
REMARK INTRA:                  -0.290
REMARK UNBOUND:                -0.265
REMARK SMILES O=c1cc(-c2ccc(O)c(O)c2)oc2cc(O)cc(O)c12
REMARK SMILES IDX 4 1 3 2 2 3 1 4 21 5 19 6 18 7 16 8 15 9 14 10 13 11 5 12
REMARK SMILES IDX 6 13 7 14 8 15 12 16 10 17 9 18 11 20 20 22 17 24
REMARK H PARENT 9 19 11 21 20 23 17 25
REMARK Flexibility Score: inf
ROOT
ATOM      1  C   UNL     1      28.456  31.752 137.785  1.00  0.00     0.138 A 
ATOM      2  C   UNL     1      28.710  30.548 138.456  1.00  0.00     0.100 A 
ATOM      3  C   UNL     1      27.645  29.807 138.970  1.00  0.00     0.197 A 
ATOM      4  O   UNL     1      27.900  28.700 139.513  1.00  0.00    -0.289 OA
ATOM      5  C   UNL     1      26.323  30.291 138.837  1.00  0.00     0.107 A 
ATOM      6  C   UNL     1      25.164  29.641 139.358  1.00  0.00     0.134 A 
ATOM      7  C   UNL     1      23.895  30.154 139.065  1.00  0.00     0.093 A 
ATOM      8  C   UNL     1      23.746  31.328 138.322  1.00  0.00     0.123 A 
ATOM      9  C   UNL     1      24.874  31.999 137.855  1.00  0.00     0.094 A 
ATOM     10  C   UNL     1      26.152  31.494 138.102  1.00  0.00     0.146 A 
ATOM     11  O   UNL     1      27.200  32.157 137.626  1.00  0.00    -0.456 OA
ENDROOT
BRANCH   1  12
ATOM     12  C   UNL     1      29.551  32.580 137.219  1.00  0.00     0.021 A 
ATOM     13  C   UNL     1      29.285  33.428 136.130  1.00  0.00     0.016 A 
ATOM     14  C   UNL     1      30.296  34.223 135.584  1.00  0.00     0.051 A 
ATOM     15  C   UNL     1      31.587  34.193 136.124  1.00  0.00     0.157 A 
ATOM     16  C   UNL     1      30.850  32.565 137.766  1.00  0.00     0.062 A 
ATOM     17  C   UNL     1      31.864  33.365 137.219  1.00  0.00     0.158 A 
BRANCH  15  18
ATOM     18  O   UNL     1      32.599  34.984 135.582  1.00  0.00    -0.504 OA
ATOM     19  H   UNL     1      32.432  35.582 134.781  1.00  0.00     0.293 HD
ENDBRANCH  15  18
BRANCH  17  20
ATOM     20  O   UNL     1      33.148  33.345 137.761  1.00  0.00    -0.504 OA
ATOM     21  H   UNL     1      33.913  32.871 137.294  1.00  0.00     0.293 HD
ENDBRANCH  17  20
ENDBRANCH   1  12
BRANCH   6  22
ATOM     22  O   UNL     1      25.205  28.512 140.182  1.00  0.00    -0.507 OA
ATOM     23  H   UNL     1      25.055  28.521 141.180  1.00  0.00     0.293 HD
ENDBRANCH   6  22
BRANCH   8  24
ATOM     24  O   UNL     1      22.479  31.839 138.047  1.00  0.00    -0.508 OA
ATOM     25  H   UNL     1      22.348  32.620 137.414  1.00  0.00     0.293 HD
ENDBRANCH   8  24
TORSDOF 5
ENDMDL
MODEL 4
REMARK VINA RESULT:    -5.672     12.045     14.750
REMARK INTER + INTRA:          -6.931
REMARK INTER:                  -6.668
REMARK INTRA:                  -0.263
REMARK UNBOUND:                -0.265
REMARK SMILES O=c1cc(-c2ccc(O)c(O)c2)oc2cc(O)cc(O)c12
REMARK SMILES IDX 4 1 3 2 2 3 1 4 21 5 19 6 18 7 16 8 15 9 14 10 13 11 5 12
REMARK SMILES IDX 6 13 7 14 8 15 12 16 10 17 9 18 11 20 20 22 17 24
REMARK H PARENT 9 19 11 21 20 23 17 25
REMARK Flexibility Score: inf
ROOT
ATOM      1  C   UNL     1      27.052  31.110 140.559  1.00  0.00     0.138 A 
ATOM      2  C   UNL     1      25.693  31.202 140.887  1.00  0.00     0.100 A 
ATOM      3  C   UNL     1      25.255  30.773 142.141  1.00  0.00     0.197 A 
ATOM      4  O   UNL     1      24.040  30.926 142.430  1.00  0.00    -0.289 OA
ATOM      5  C   UNL     1      26.181  30.222 143.058  1.00  0.00     0.107 A 
ATOM      6  C   UNL     1      25.842  29.715 144.349  1.00  0.00     0.134 A 
ATOM      7  C   UNL     1      26.859  29.299 145.215  1.00  0.00     0.093 A 
ATOM      8  C   UNL     1      28.198  29.315 144.815  1.00  0.00     0.123 A 
ATOM      9  C   UNL     1      28.534  29.758 143.538  1.00  0.00     0.094 A 
ATOM     10  C   UNL     1      27.545  30.211 142.663  1.00  0.00     0.146 A 
ATOM     11  O   UNL     1      27.909  30.638 141.459  1.00  0.00    -0.456 OA
ENDROOT
BRANCH   1  12
ATOM     12  C   UNL     1      27.571  31.550 139.239  1.00  0.00     0.021 A 
ATOM     13  C   UNL     1      28.096  32.847 139.100  1.00  0.00     0.016 A 
ATOM     14  C   UNL     1      28.597  33.283 137.872  1.00  0.00     0.051 A 
ATOM     15  C   UNL     1      28.593  32.428 136.763  1.00  0.00     0.157 A 
ATOM     16  C   UNL     1      27.583  30.690 138.123  1.00  0.00     0.062 A 
ATOM     17  C   UNL     1      28.088  31.128 136.890  1.00  0.00     0.158 A 
BRANCH  15  18
ATOM     18  O   UNL     1      29.092  32.860 135.535  1.00  0.00    -0.504 OA
ATOM     19  H   UNL     1      29.588  33.738 135.445  1.00  0.00     0.293 HD
ENDBRANCH  15  18
BRANCH  17  20
ATOM     20  O   UNL     1      28.095  30.276 135.787  1.00  0.00    -0.504 OA
ATOM     21  H   UNL     1      27.296  29.695 135.561  1.00  0.00     0.293 HD
ENDBRANCH  17  20
ENDBRANCH   1  12
BRANCH   6  22
ATOM     22  O   UNL     1      24.530  29.576 144.814  1.00  0.00    -0.507 OA
ATOM     23  H   UNL     1      23.746  29.287 144.250  1.00  0.00     0.293 HD
ENDBRANCH   6  22
BRANCH   8  24
ATOM     24  O   UNL     1      29.203  28.886 145.680  1.00  0.00    -0.508 OA
ATOM     25  H   UNL     1      29.855  28.157 145.416  1.00  0.00     0.293 HD
ENDBRANCH   8  24
TORSDOF 5
ENDMDL
MODEL 5
REMARK VINA RESULT:    -5.615      7.755     12.173
REMARK INTER + INTRA:          -6.865
REMARK INTER:                  -6.550
REMARK INTRA:                  -0.315
REMARK UNBOUND:                -0.265
REMARK SMILES O=c1cc(-c2ccc(O)c(O)c2)oc2cc(O)cc(O)c12
REMARK SMILES IDX 4 1 3 2 2 3 1 4 21 5 19 6 18 7 16 8 15 9 14 10 13 11 5 12
REMARK SMILES IDX 6 13 7 14 8 15 12 16 10 17 9 18 11 20 20 22 17 24
REMARK H PARENT 9 19 11 21 20 23 17 25
REMARK Flexibility Score: inf
ROOT
ATOM      1  C   UNL     1      35.455  42.186 141.698  1.00  0.00     0.138 A 
ATOM      2  C   UNL     1      36.663  42.081 140.996  1.00  0.00     0.100 A 
ATOM      3  C   UNL     1      37.872  42.249 141.674  1.00  0.00     0.197 A 
ATOM      4  O   UNL     1      38.941  42.088 141.029  1.00  0.00    -0.289 OA
ATOM      5  C   UNL     1      37.867  42.555 143.055  1.00  0.00     0.107 A 
ATOM      6  C   UNL     1      39.036  42.789 143.839  1.00  0.00     0.134 A 
ATOM      7  C   UNL     1      38.914  42.969 145.222  1.00  0.00     0.093 A 
ATOM      8  C   UNL     1      37.660  42.985 145.840  1.00  0.00     0.123 A 
ATOM      9  C   UNL     1      36.510  42.811 145.074  1.00  0.00     0.094 A 
ATOM     10  C   UNL     1      36.601  42.596 143.697  1.00  0.00     0.146 A 
ATOM     11  O   UNL     1      35.480  42.420 143.006  1.00  0.00    -0.456 OA
ENDROOT
BRANCH   1  12
ATOM     12  C   UNL     1      34.141  42.017 141.027  1.00  0.00     0.021 A 
ATOM     13  C   UNL     1      34.088  41.424 139.753  1.00  0.00     0.016 A 
ATOM     14  C   UNL     1      32.864  41.246 139.103  1.00  0.00     0.051 A 
ATOM     15  C   UNL     1      31.672  41.647 139.718  1.00  0.00     0.157 A 
ATOM     16  C   UNL     1      32.937  42.406 141.646  1.00  0.00     0.062 A 
ATOM     17  C   UNL     1      31.709  42.225 140.994  1.00  0.00     0.158 A 
BRANCH  15  18
ATOM     18  O   UNL     1      30.450  41.473 139.072  1.00  0.00    -0.504 OA
ATOM     19  H   UNL     1      29.774  40.789 139.393  1.00  0.00     0.293 HD
ENDBRANCH  15  18
BRANCH  17  20
ATOM     20  O   UNL     1      30.519  42.614 141.607  1.00  0.00    -0.504 OA
ATOM     21  H   UNL     1      30.047  42.015 142.275  1.00  0.00     0.293 HD
ENDBRANCH  17  20
ENDBRANCH   1  12
BRANCH   6  22
ATOM     22  O   UNL     1      40.328  42.878 143.310  1.00  0.00    -0.507 OA
ATOM     23  H   UNL     1      41.172  42.941 143.858  1.00  0.00     0.293 HD
ENDBRANCH   6  22
BRANCH   8  24
ATOM     24  O   UNL     1      37.548  43.179 147.215  1.00  0.00    -0.508 OA
ATOM     25  H   UNL     1      36.688  42.977 147.711  1.00  0.00     0.293 HD
ENDBRANCH   8  24
TORSDOF 5
ENDMDL
MODEL 6
REMARK VINA RESULT:    -5.541      5.007      9.056
REMARK INTER + INTRA:          -6.777
REMARK INTER:                  -6.470
REMARK INTRA:                  -0.307
REMARK UNBOUND:                -0.265
REMARK SMILES O=c1cc(-c2ccc(O)c(O)c2)oc2cc(O)cc(O)c12
REMARK SMILES IDX 4 1 3 2 2 3 1 4 21 5 19 6 18 7 16 8 15 9 14 10 13 11 5 12
REMARK SMILES IDX 6 13 7 14 8 15 12 16 10 17 9 18 11 20 20 22 17 24
REMARK H PARENT 9 19 11 21 20 23 17 25
REMARK Flexibility Score: inf
ROOT
ATOM      1  C   UNL     1      31.556  42.435 142.268  1.00  0.00     0.138 A 
ATOM      2  C   UNL     1      31.948  42.130 140.957  1.00  0.00     0.100 A 
ATOM      3  C   UNL     1      33.303  41.978 140.660  1.00  0.00     0.197 A 
ATOM      4  O   UNL     1      33.619  41.643 139.488  1.00  0.00    -0.289 OA
ATOM      5  C   UNL     1      34.271  42.164 141.674  1.00  0.00     0.107 A 
ATOM      6  C   UNL     1      35.682  42.075 141.478  1.00  0.00     0.134 A 
ATOM      7  C   UNL     1      36.539  42.164 142.580  1.00  0.00     0.093 A 
ATOM      8  C   UNL     1      36.040  42.399 143.865  1.00  0.00     0.123 A 
ATOM      9  C   UNL     1      34.668  42.541 144.058  1.00  0.00     0.094 A 
ATOM     10  C   UNL     1      33.785  42.423 142.983  1.00  0.00     0.146 A 
ATOM     11  O   UNL     1      32.483  42.550 143.214  1.00  0.00    -0.456 OA
ENDROOT
BRANCH   1  12
ATOM     12  C   UNL     1      30.129  42.608 142.639  1.00  0.00     0.021 A 
ATOM     13  C   UNL     1      29.138  41.920 141.915  1.00  0.00     0.016 A 
ATOM     14  C   UNL     1      27.789  42.060 142.249  1.00  0.00     0.051 A 
ATOM     15  C   UNL     1      27.407  42.879 143.318  1.00  0.00     0.157 A 
ATOM     16  C   UNL     1      29.738  43.420 143.722  1.00  0.00     0.062 A 
ATOM     17  C   UNL     1      28.383  43.558 144.058  1.00  0.00     0.158 A 
BRANCH  15  18
ATOM     18  O   UNL     1      26.061  43.021 143.653  1.00  0.00    -0.504 OA
ATOM     19  H   UNL     1      25.763  43.120 144.616  1.00  0.00     0.293 HD
ENDBRANCH  15  18
BRANCH  17  20
ATOM     20  O   UNL     1      27.999  44.364 145.128  1.00  0.00    -0.504 OA
ATOM     21  H   UNL     1      27.040  44.673 145.241  1.00  0.00     0.293 HD
ENDBRANCH  17  20
ENDBRANCH   1  12
BRANCH   6  22
ATOM     22  O   UNL     1      36.289  41.927 140.226  1.00  0.00    -0.507 OA
ATOM     23  H   UNL     1      35.972  41.300 139.503  1.00  0.00     0.293 HD
ENDBRANCH   6  22
BRANCH   8  24
ATOM     24  O   UNL     1      36.902  42.500 144.954  1.00  0.00    -0.508 OA
ATOM     25  H   UNL     1      36.594  42.287 145.896  1.00  0.00     0.293 HD
ENDBRANCH   8  24
TORSDOF 5
ENDMDL
MODEL 7
REMARK VINA RESULT:    -5.480     12.516     13.410
REMARK INTER + INTRA:          -6.706
REMARK INTER:                  -6.444
REMARK INTRA:                  -0.262
REMARK UNBOUND:                -0.265
REMARK SMILES O=c1cc(-c2ccc(O)c(O)c2)oc2cc(O)cc(O)c12
REMARK SMILES IDX 4 1 3 2 2 3 1 4 21 5 19 6 18 7 16 8 15 9 14 10 13 11 5 12
REMARK SMILES IDX 6 13 7 14 8 15 12 16 10 17 9 18 11 20 20 22 17 24
REMARK H PARENT 9 19 11 21 20 23 17 25
REMARK Flexibility Score: inf
ROOT
ATOM      1  C   UNL     1      28.242  30.933 141.523  1.00  0.00     0.138 A 
ATOM      2  C   UNL     1      27.412  30.099 140.761  1.00  0.00     0.100 A 
ATOM      3  C   UNL     1      27.504  30.120 139.368  1.00  0.00     0.197 A 
ATOM      4  O   UNL     1      26.790  29.316 138.714  1.00  0.00    -0.289 OA
ATOM      5  C   UNL     1      28.411  31.003 138.737  1.00  0.00     0.107 A 
ATOM      6  C   UNL     1      28.561  31.140 137.325  1.00  0.00     0.134 A 
ATOM      7  C   UNL     1      29.573  31.962 136.815  1.00  0.00     0.093 A 
ATOM      8  C   UNL     1      30.400  32.700 137.667  1.00  0.00     0.123 A 
ATOM      9  C   UNL     1      30.225  32.614 139.046  1.00  0.00     0.094 A 
ATOM     10  C   UNL     1      29.247  31.776 139.585  1.00  0.00     0.146 A 
ATOM     11  O   UNL     1      29.123  31.713 140.907  1.00  0.00    -0.456 OA
ENDROOT
BRANCH   1  12
ATOM     12  C   UNL     1      28.184  30.951 143.007  1.00  0.00     0.021 A 
ATOM     13  C   UNL     1      27.720  32.102 143.667  1.00  0.00     0.016 A 
ATOM     14  C   UNL     1      27.649  32.142 145.061  1.00  0.00     0.051 A 
ATOM     15  C   UNL     1      28.030  31.029 145.820  1.00  0.00     0.157 A 
ATOM     16  C   UNL     1      28.554  29.830 143.777  1.00  0.00     0.062 A 
ATOM     17  C   UNL     1      28.480  29.870 145.176  1.00  0.00     0.158 A 
BRANCH  15  18
ATOM     18  O   UNL     1      27.961  31.066 147.212  1.00  0.00    -0.504 OA
ATOM     19  H   UNL     1      28.333  31.847 147.740  1.00  0.00     0.293 HD
ENDBRANCH  15  18
BRANCH  17  20
ATOM     20  O   UNL     1      28.849  28.761 145.935  1.00  0.00    -0.504 OA
ATOM     21  H   UNL     1      29.469  28.048 145.566  1.00  0.00     0.293 HD
ENDBRANCH  17  20
ENDBRANCH   1  12
BRANCH   6  22
ATOM     22  O   UNL     1      27.734  30.515 136.386  1.00  0.00    -0.507 OA
ATOM     23  H   UNL     1      28.007  30.278 135.445  1.00  0.00     0.293 HD
ENDBRANCH   6  22
BRANCH   8  24
ATOM     24  O   UNL     1      31.395  33.527 137.150  1.00  0.00    -0.508 OA
ATOM     25  H   UNL     1      32.058  33.193 136.461  1.00  0.00     0.293 HD
ENDBRANCH   8  24
TORSDOF 5
ENDMDL
MODEL 8
REMARK VINA RESULT:    -5.374      4.959      7.947
REMARK INTER + INTRA:          -6.581
REMARK INTER:                  -6.291
REMARK INTRA:                  -0.291
REMARK UNBOUND:                -0.265
REMARK SMILES O=c1cc(-c2ccc(O)c(O)c2)oc2cc(O)cc(O)c12
REMARK SMILES IDX 4 1 3 2 2 3 1 4 21 5 19 6 18 7 16 8 15 9 14 10 13 11 5 12
REMARK SMILES IDX 6 13 7 14 8 15 12 16 10 17 9 18 11 20 20 22 17 24
REMARK H PARENT 9 19 11 21 20 23 17 25
REMARK Flexibility Score: inf
ROOT
ATOM      1  C   UNL     1      31.225  42.300 141.784  1.00  0.00     0.138 A 
ATOM      2  C   UNL     1      32.384  42.429 142.561  1.00  0.00     0.100 A 
ATOM      3  C   UNL     1      33.631  42.174 141.987  1.00  0.00     0.197 A 
ATOM      4  O   UNL     1      34.657  42.359 142.692  1.00  0.00    -0.289 OA
ATOM      5  C   UNL     1      33.712  41.758 140.638  1.00  0.00     0.107 A 
ATOM      6  C   UNL     1      34.925  41.430 139.961  1.00  0.00     0.134 A 
ATOM      7  C   UNL     1      34.894  41.142 138.592  1.00  0.00     0.093 A 
ATOM      8  C   UNL     1      33.687  41.109 137.888  1.00  0.00     0.123 A 
ATOM      9  C   UNL     1      32.492  41.375 138.553  1.00  0.00     0.094 A 
ATOM     10  C   UNL     1      32.494  41.699 139.911  1.00  0.00     0.146 A 
ATOM     11  O   UNL     1      31.333  41.960 140.503  1.00  0.00    -0.456 OA
ENDROOT
BRANCH   1  12
ATOM     12  C   UNL     1      29.874  42.558 142.343  1.00  0.00     0.021 A 
ATOM     13  C   UNL     1      28.751  41.959 141.745  1.00  0.00     0.016 A 
ATOM     14  C   UNL     1      27.471  42.179 142.256  1.00  0.00     0.051 A 
ATOM     15  C   UNL     1      27.290  42.994 143.381  1.00  0.00     0.157 A 
ATOM     16  C   UNL     1      29.685  43.365 143.483  1.00  0.00     0.062 A 
ATOM     17  C   UNL     1      28.400  43.585 143.997  1.00  0.00     0.158 A 
BRANCH  15  18
ATOM     18  O   UNL     1      26.013  43.217 143.894  1.00  0.00    -0.504 OA
ATOM     19  H   UNL     1      25.181  43.003 143.356  1.00  0.00     0.293 HD
ENDBRANCH  15  18
BRANCH  17  20
ATOM     20  O   UNL     1      28.216  44.386 145.123  1.00  0.00    -0.504 OA
ATOM     21  H   UNL     1      27.540  45.141 145.131  1.00  0.00     0.293 HD
ENDBRANCH  17  20
ENDBRANCH   1  12
BRANCH   6  22
ATOM     22  O   UNL     1      36.173  41.350 140.587  1.00  0.00    -0.507 OA
ATOM     23  H   UNL     1      36.996  40.931 140.181  1.00  0.00     0.293 HD
ENDBRANCH   6  22
BRANCH   8  24
ATOM     24  O   UNL     1      33.664  40.807 136.528  1.00  0.00    -0.508 OA
ATOM     25  H   UNL     1      33.095  41.335 135.877  1.00  0.00     0.293 HD
ENDBRANCH   8  24
TORSDOF 5
ENDMDL
MODEL 9
REMARK VINA RESULT:    -5.174     12.056     14.664
REMARK INTER + INTRA:          -6.346
REMARK INTER:                  -6.082
REMARK INTRA:                  -0.264
REMARK UNBOUND:                -0.265
REMARK SMILES O=c1cc(-c2ccc(O)c(O)c2)oc2cc(O)cc(O)c12
REMARK SMILES IDX 4 1 3 2 2 3 1 4 21 5 19 6 18 7 16 8 15 9 14 10 13 11 5 12
REMARK SMILES IDX 6 13 7 14 8 15 12 16 10 17 9 18 11 20 20 22 17 24
REMARK H PARENT 9 19 11 21 20 23 17 25
REMARK Flexibility Score: inf
ROOT
ATOM      1  C   UNL     1      27.566  31.028 140.606  1.00  0.00     0.138 A 
ATOM      2  C   UNL     1      28.516  30.467 141.471  1.00  0.00     0.100 A 
ATOM      3  C   UNL     1      28.124  30.034 142.739  1.00  0.00     0.197 A 
ATOM      4  O   UNL     1      28.986  29.479 143.469  1.00  0.00    -0.289 OA
ATOM      5  C   UNL     1      26.781  30.194 143.152  1.00  0.00     0.107 A 
ATOM      6  C   UNL     1      26.277  29.827 144.436  1.00  0.00     0.134 A 
ATOM      7  C   UNL     1      24.904  29.925 144.692  1.00  0.00     0.093 A 
ATOM      8  C   UNL     1      24.026  30.433 143.731  1.00  0.00     0.123 A 
ATOM      9  C   UNL     1      24.516  30.843 142.493  1.00  0.00     0.094 A 
ATOM     10  C   UNL     1      25.876  30.726 142.196  1.00  0.00     0.146 A 
ATOM     11  O   UNL     1      26.300  31.116 140.999  1.00  0.00    -0.456 OA
ENDROOT
BRANCH   1  12
ATOM     12  C   UNL     1      27.929  31.505 139.248  1.00  0.00     0.021 A 
ATOM     13  C   UNL     1      28.378  32.826 139.076  1.00  0.00     0.016 A 
ATOM     14  C   UNL     1      28.733  33.297 137.810  1.00  0.00     0.051 A 
ATOM     15  C   UNL     1      28.656  32.454 136.695  1.00  0.00     0.157 A 
ATOM     16  C   UNL     1      27.867  30.658 138.124  1.00  0.00     0.062 A 
ATOM     17  C   UNL     1      28.225  31.130 136.853  1.00  0.00     0.158 A 
BRANCH  15  18
ATOM     18  O   UNL     1      29.008  32.920 135.430  1.00  0.00    -0.504 OA
ATOM     19  H   UNL     1      29.399  33.845 135.296  1.00  0.00     0.293 HD
ENDBRANCH  15  18
BRANCH  17  20
ATOM     20  O   UNL     1      28.160  30.291 135.743  1.00  0.00    -0.504 OA
ATOM     21  H   UNL     1      27.790  29.349 135.811  1.00  0.00     0.293 HD
ENDBRANCH  17  20
ENDBRANCH   1  12
BRANCH   6  22
ATOM     22  O   UNL     1      27.079  29.390 145.495  1.00  0.00    -0.507 OA
ATOM     23  H   UNL     1      26.797  28.718 146.192  1.00  0.00     0.293 HD
ENDBRANCH   6  22
BRANCH   8  24
ATOM     24  O   UNL     1      22.663  30.539 143.999  1.00  0.00    -0.508 OA
ATOM     25  H   UNL     1      22.053  31.114 143.430  1.00  0.00     0.293 HD
ENDBRANCH   8  24
TORSDOF 5
ENDMDL
