MODEL 1
REMARK VINA RESULT:    -5.622      0.000      0.000
REMARK INTER + INTRA:         -15.482
REMARK INTER:                 -12.853
REMARK INTRA:                  -2.629
REMARK UNBOUND:                -2.629
REMARK SMILES CCCCCCCCCCCCCCCCCCCCCCCC(=O)[O-]
REMARK SMILES IDX 13 1 14 2 15 3 16 4 17 5 18 6 19 7 20 8 21 9 22 10 23 11
REMARK SMILES IDX 24 12 25 13 26 14 12 15 11 16 10 17 9 18 8 19 7 20 6 21 5 22
REMARK SMILES IDX 4 23 3 24 2 25 1 26
REMARK H PARENT
REMARK Flexibility Score: inf
ROOT
ATOM      1  C   UNL     1      15.602 -41.637 -21.404  1.00  0.00     0.000 C 
ENDROOT
BRANCH   1   2
ATOM      2  C   UNL     1      16.686 -41.827 -20.328  1.00  0.00     0.000 C 
BRANCH   2   3
ATOM      3  C   UNL     1      17.880 -40.875 -20.509  1.00  0.00     0.000 C 
BRANCH   3   4
ATOM      4  C   UNL     1      19.175 -41.538 -21.025  1.00  0.00     0.000 C 
BRANCH   4   5
ATOM      5  C   UNL     1      19.138 -43.075 -21.116  1.00  0.00     0.000 C 
BRANCH   5   6
ATOM      6  C   UNL     1      20.243 -43.649 -22.020  1.00  0.00     0.000 C 
BRANCH   6   7
ATOM      7  C   UNL     1      20.150 -45.178 -22.181  1.00  0.00     0.000 C 
BRANCH   7   8
ATOM      8  C   UNL     1      18.763 -45.784 -21.902  1.00  0.00     0.000 C 
BRANCH   8   9
ATOM      9  C   UNL     1      18.442 -46.989 -22.797  1.00  0.00     0.000 C 
BRANCH   9  10
ATOM     10  C   UNL     1      17.545 -47.995 -22.062  1.00  0.00     0.006 C 
BRANCH  10  11
ATOM     11  C   UNL     1      16.083 -47.534 -22.000  1.00  0.00     0.053 C 
BRANCH  11  12
ATOM     12  C   UNL     1      15.241 -48.469 -21.186  1.00  0.00     0.041 C 
ATOM     13  O   UNL     1      15.732 -49.538 -20.739  1.00  0.00    -0.550 OA
ATOM     14  O   UNL     1      13.922 -48.142 -20.895  1.00  0.00    -0.550 OA
ENDBRANCH  11  12
ENDBRANCH  10  11
ENDBRANCH   9  10
ENDBRANCH   8   9
ENDBRANCH   7   8
ENDBRANCH   6   7
ENDBRANCH   5   6
ENDBRANCH   4   5
ENDBRANCH   3   4
ENDBRANCH   2   3
ENDBRANCH   1   2
BRANCH   1  15
ATOM     15  C   UNL     1      15.869 -42.469 -22.667  1.00  0.00     0.000 C 
BRANCH  15  16
ATOM     16  C   UNL     1      16.456 -41.630 -23.817  1.00  0.00     0.000 C 
BRANCH  16  17
ATOM     17  C   UNL     1      17.747 -42.237 -24.406  1.00  0.00     0.000 C 
BRANCH  17  18
ATOM     18  C   UNL     1      17.670 -43.757 -24.655  1.00  0.00    -0.000 C 
BRANCH  18  19
ATOM     19  C   UNL     1      18.640 -44.297 -25.722  1.00  0.00    -0.000 C 
BRANCH  19  20
ATOM     20  C   UNL     1      18.168 -45.571 -26.455  1.00  0.00    -0.000 C 
BRANCH  20  21
ATOM     21  C   UNL     1      17.546 -45.336 -27.844  1.00  0.00    -0.000 C 
BRANCH  21  22
ATOM     22  C   UNL     1      17.750 -46.525 -28.797  1.00  0.00    -0.000 C 
BRANCH  22  23
ATOM     23  C   UNL     1      17.898 -46.092 -30.267  1.00  0.00    -0.000 C 
BRANCH  23  24
ATOM     24  C   UNL     1      19.067 -46.748 -31.027  1.00  0.00    -0.000 C 
BRANCH  24  25
ATOM     25  C   UNL     1      18.797 -48.208 -31.447  1.00  0.00    -0.003 C 
ATOM     26  C   UNL     1      20.085 -48.991 -31.700  1.00  0.00     0.004 C 
ENDBRANCH  24  25
ENDBRANCH  23  24
ENDBRANCH  22  23
ENDBRANCH  21  22
ENDBRANCH  20  21
ENDBRANCH  19  20
ENDBRANCH  18  19
ENDBRANCH  17  18
ENDBRANCH  16  17
ENDBRANCH  15  16
ENDBRANCH   1  15
TORSDOF 22
ENDMDL
MODEL 2
REMARK VINA RESULT:    -5.556      3.872      8.681
REMARK INTER + INTRA:         -15.331
REMARK INTER:                 -13.285
REMARK INTRA:                  -2.046
REMARK UNBOUND:                -2.629
REMARK SMILES CCCCCCCCCCCCCCCCCCCCCCCC(=O)[O-]
REMARK SMILES IDX 13 1 14 2 15 3 16 4 17 5 18 6 19 7 20 8 21 9 22 10 23 11
REMARK SMILES IDX 24 12 25 13 26 14 12 15 11 16 10 17 9 18 8 19 7 20 6 21 5 22
REMARK SMILES IDX 4 23 3 24 2 25 1 26
REMARK H PARENT
REMARK Flexibility Score: inf
ROOT
ATOM      1  C   UNL     1      19.693 -43.492 -25.410  1.00  0.00     0.000 C 
ENDROOT
BRANCH   1   2
ATOM      2  C   UNL     1      18.268 -44.011 -25.676  1.00  0.00     0.000 C 
BRANCH   2   3
ATOM      3  C   UNL     1      18.254 -45.379 -26.379  1.00  0.00     0.000 C 
BRANCH   3   4
ATOM      4  C   UNL     1      17.680 -45.373 -27.812  1.00  0.00     0.000 C 
BRANCH   4   5
ATOM      5  C   UNL     1      17.915 -46.663 -28.621  1.00  0.00     0.000 C 
BRANCH   5   6
ATOM      6  C   UNL     1      16.994 -46.776 -29.849  1.00  0.00     0.000 C 
BRANCH   6   7
ATOM      7  C   UNL     1      17.760 -46.679 -31.182  1.00  0.00     0.000 C 
BRANCH   7   8
ATOM      8  C   UNL     1      18.919 -47.678 -31.347  1.00  0.00     0.000 C 
BRANCH   8   9
ATOM      9  C   UNL     1      19.618 -47.567 -32.710  1.00  0.00     0.000 C 
BRANCH   9  10
ATOM     10  C   UNL     1      20.197 -48.922 -33.140  1.00  0.00     0.006 C 
BRANCH  10  11
ATOM     11  C   UNL     1      19.983 -50.010 -32.079  1.00  0.00     0.053 C 
BRANCH  11  12
ATOM     12  C   UNL     1      20.115 -51.385 -32.661  1.00  0.00     0.041 C 
ATOM     13  O   UNL     1      19.089 -52.078 -32.888  1.00  0.00    -0.550 OA
ATOM     14  O   UNL     1      21.370 -51.887 -32.981  1.00  0.00    -0.550 OA
ENDBRANCH  11  12
ENDBRANCH  10  11
ENDBRANCH   9  10
ENDBRANCH   8   9
ENDBRANCH   7   8
ENDBRANCH   6   7
ENDBRANCH   5   6
ENDBRANCH   4   5
ENDBRANCH   3   4
ENDBRANCH   2   3
ENDBRANCH   1   2
BRANCH   1  15
ATOM     15  C   UNL     1      19.714 -42.272 -24.477  1.00  0.00     0.000 C 
BRANCH  15  16
ATOM     16  C   UNL     1      18.328 -41.618 -24.324  1.00  0.00     0.000 C 
BRANCH  16  17
ATOM     17  C   UNL     1      17.863 -41.532 -22.855  1.00  0.00     0.000 C 
BRANCH  17  18
ATOM     18  C   UNL     1      16.684 -42.464 -22.512  1.00  0.00    -0.000 C 
BRANCH  18  19
ATOM     19  C   UNL     1      17.065 -43.928 -22.228  1.00  0.00    -0.000 C 
BRANCH  19  20
ATOM     20  C   UNL     1      18.502 -44.144 -21.704  1.00  0.00    -0.000 C 
BRANCH  20  21
ATOM     21  C   UNL     1      18.970 -45.610 -21.662  1.00  0.00    -0.000 C 
BRANCH  21  22
ATOM     22  C   UNL     1      18.825 -46.322 -23.017  1.00  0.00    -0.000 C 
BRANCH  22  23
ATOM     23  C   UNL     1      17.589 -47.236 -23.081  1.00  0.00    -0.000 C 
BRANCH  23  24
ATOM     24  C   UNL     1      16.945 -47.560 -21.719  1.00  0.00    -0.000 C 
BRANCH  24  25
ATOM     25  C   UNL     1      15.472 -48.009 -21.816  1.00  0.00    -0.003 C 
ATOM     26  C   UNL     1      15.150 -49.167 -20.871  1.00  0.00     0.004 C 
ENDBRANCH  24  25
ENDBRANCH  23  24
ENDBRANCH  22  23
ENDBRANCH  21  22
ENDBRANCH  20  21
ENDBRANCH  19  20
ENDBRANCH  18  19
ENDBRANCH  17  18
ENDBRANCH  16  17
ENDBRANCH  15  16
ENDBRANCH   1  15
TORSDOF 22
ENDMDL
MODEL 3
REMARK VINA RESULT:    -5.533      4.579      9.773
REMARK INTER + INTRA:         -15.279
REMARK INTER:                 -12.964
REMARK INTRA:                  -2.315
REMARK UNBOUND:                -2.629
REMARK SMILES CCCCCCCCCCCCCCCCCCCCCCCC(=O)[O-]
REMARK SMILES IDX 13 1 14 2 15 3 16 4 17 5 18 6 19 7 20 8 21 9 22 10 23 11
REMARK SMILES IDX 24 12 25 13 26 14 12 15 11 16 10 17 9 18 8 19 7 20 6 21 5 22
REMARK SMILES IDX 4 23 3 24 2 25 1 26
REMARK H PARENT
REMARK Flexibility Score: inf
ROOT
ATOM      1  C   UNL     1      17.991 -45.592 -26.565  1.00  0.00     0.000 C 
ENDROOT
BRANCH   1   2
ATOM      2  C   UNL     1      18.267 -45.722 -28.073  1.00  0.00     0.000 C 
BRANCH   2   3
ATOM      3  C   UNL     1      17.019 -46.133 -28.874  1.00  0.00     0.000 C 
BRANCH   3   4
ATOM      4  C   UNL     1      17.237 -47.278 -29.886  1.00  0.00     0.000 C 
BRANCH   4   5
ATOM      5  C   UNL     1      18.614 -47.296 -30.575  1.00  0.00     0.000 C 
BRANCH   5   6
ATOM      6  C   UNL     1      18.873 -48.592 -31.363  1.00  0.00     0.000 C 
BRANCH   6   7
ATOM      7  C   UNL     1      19.849 -48.394 -32.537  1.00  0.00     0.000 C 
BRANCH   7   8
ATOM      8  C   UNL     1      20.343 -49.689 -33.205  1.00  0.00     0.000 C 
BRANCH   8   9
ATOM      9  C   UNL     1      19.898 -50.957 -32.463  1.00  0.00     0.000 C 
BRANCH   9  10
ATOM     10  C   UNL     1      21.017 -52.008 -32.452  1.00  0.00     0.006 C 
BRANCH  10  11
ATOM     11  C   UNL     1      21.193 -52.685 -33.818  1.00  0.00     0.053 C 
BRANCH  11  12
ATOM     12  C   UNL     1      20.727 -54.109 -33.795  1.00  0.00     0.041 C 
ATOM     13  O   UNL     1      19.529 -54.380 -33.520  1.00  0.00    -0.550 OA
ATOM     14  O   UNL     1      21.610 -55.134 -34.111  1.00  0.00    -0.550 OA
ENDBRANCH  11  12
ENDBRANCH  10  11
ENDBRANCH   9  10
ENDBRANCH   8   9
ENDBRANCH   7   8
ENDBRANCH   6   7
ENDBRANCH   5   6
ENDBRANCH   4   5
ENDBRANCH   3   4
ENDBRANCH   2   3
ENDBRANCH   1   2
BRANCH   1  15
ATOM     15  C   UNL     1      18.406 -44.223 -26.003  1.00  0.00     0.000 C 
BRANCH  15  16
ATOM     16  C   UNL     1      19.590 -44.319 -25.022  1.00  0.00     0.000 C 
BRANCH  16  17
ATOM     17  C   UNL     1      19.986 -42.953 -24.424  1.00  0.00     0.000 C 
BRANCH  17  18
ATOM     18  C   UNL     1      19.018 -41.806 -24.779  1.00  0.00    -0.000 C 
BRANCH  18  19
ATOM     19  C   UNL     1      17.914 -41.533 -23.742  1.00  0.00    -0.000 C 
BRANCH  19  20
ATOM     20  C   UNL     1      18.218 -42.031 -22.311  1.00  0.00    -0.000 C 
BRANCH  20  21
ATOM     21  C   UNL     1      17.187 -43.012 -21.725  1.00  0.00    -0.000 C 
BRANCH  21  22
ATOM     22  C   UNL     1      16.133 -43.455 -22.755  1.00  0.00    -0.000 C 
BRANCH  22  23
ATOM     23  C   UNL     1      16.343 -44.901 -23.236  1.00  0.00    -0.000 C 
BRANCH  23  24
ATOM     24  C   UNL     1      16.813 -45.890 -22.152  1.00  0.00    -0.000 C 
BRANCH  24  25
ATOM     25  C   UNL     1      18.174 -46.550 -22.459  1.00  0.00    -0.003 C 
ATOM     26  C   UNL     1      19.331 -45.872 -21.725  1.00  0.00     0.004 C 
ENDBRANCH  24  25
ENDBRANCH  23  24
ENDBRANCH  22  23
ENDBRANCH  21  22
ENDBRANCH  20  21
ENDBRANCH  19  20
ENDBRANCH  18  19
ENDBRANCH  17  18
ENDBRANCH  16  17
ENDBRANCH  15  16
ENDBRANCH   1  15
TORSDOF 22
ENDMDL
MODEL 4
REMARK VINA RESULT:    -5.529      2.643      5.392
REMARK INTER + INTRA:         -15.268
REMARK INTER:                 -11.685
REMARK INTRA:                  -3.583
REMARK UNBOUND:                -2.629
REMARK SMILES CCCCCCCCCCCCCCCCCCCCCCCC(=O)[O-]
REMARK SMILES IDX 13 1 14 2 15 3 16 4 17 5 18 6 19 7 20 8 21 9 22 10 23 11
REMARK SMILES IDX 24 12 25 13 26 14 12 15 11 16 10 17 9 18 8 19 7 20 6 21 5 22
REMARK SMILES IDX 4 23 3 24 2 25 1 26
REMARK H PARENT
REMARK Flexibility Score: inf
ROOT
ATOM      1  C   UNL     1      19.913 -47.491 -21.535  1.00  0.00     0.000 C 
ENDROOT
BRANCH   1   2
ATOM      2  C   UNL     1      18.552 -48.073 -21.955  1.00  0.00     0.000 C 
BRANCH   2   3
ATOM      3  C   UNL     1      17.781 -47.154 -22.918  1.00  0.00     0.000 C 
BRANCH   3   4
ATOM      4  C   UNL     1      16.614 -46.369 -22.281  1.00  0.00     0.000 C 
BRANCH   4   5
ATOM      5  C   UNL     1      16.713 -44.836 -22.391  1.00  0.00     0.000 C 
BRANCH   5   6
ATOM      6  C   UNL     1      15.751 -44.247 -23.438  1.00  0.00     0.000 C 
BRANCH   6   7
ATOM      7  C   UNL     1      15.187 -42.874 -23.027  1.00  0.00     0.000 C 
BRANCH   7   8
ATOM      8  C   UNL     1      16.135 -41.682 -23.251  1.00  0.00     0.000 C 
BRANCH   8   9
ATOM      9  C   UNL     1      16.696 -41.106 -21.944  1.00  0.00     0.000 C 
BRANCH   9  10
ATOM     10  C   UNL     1      15.906 -41.622 -20.733  1.00  0.00     0.006 C 
BRANCH  10  11
ATOM     11  C   UNL     1      16.824 -42.109 -19.603  1.00  0.00     0.053 C 
BRANCH  11  12
ATOM     12  C   UNL     1      16.205 -41.896 -18.255  1.00  0.00     0.041 C 
ATOM     13  O   UNL     1      16.934 -41.769 -17.237  1.00  0.00    -0.550 OA
ATOM     14  O   UNL     1      14.825 -41.805 -18.130  1.00  0.00    -0.550 OA
ENDBRANCH  11  12
ENDBRANCH  10  11
ENDBRANCH   9  10
ENDBRANCH   8   9
ENDBRANCH   7   8
ENDBRANCH   6   7
ENDBRANCH   5   6
ENDBRANCH   4   5
ENDBRANCH   3   4
ENDBRANCH   2   3
ENDBRANCH   1   2
BRANCH   1  15
ATOM     15  C   UNL     1      20.359 -46.323 -22.429  1.00  0.00     0.000 C 
BRANCH  15  16
ATOM     16  C   UNL     1      20.808 -45.094 -21.617  1.00  0.00     0.000 C 
BRANCH  16  17
ATOM     17  C   UNL     1      21.062 -43.853 -22.498  1.00  0.00     0.000 C 
BRANCH  17  18
ATOM     18  C   UNL     1      19.906 -42.833 -22.498  1.00  0.00    -0.000 C 
BRANCH  18  19
ATOM     19  C   UNL     1      19.637 -42.145 -23.848  1.00  0.00    -0.000 C 
BRANCH  19  20
ATOM     20  C   UNL     1      19.812 -43.045 -25.091  1.00  0.00    -0.000 C 
BRANCH  20  21
ATOM     21  C   UNL     1      18.545 -43.792 -25.543  1.00  0.00    -0.000 C 
BRANCH  21  22
ATOM     22  C   UNL     1      18.736 -45.317 -25.587  1.00  0.00    -0.000 C 
BRANCH  22  23
ATOM     23  C   UNL     1      17.952 -45.983 -26.733  1.00  0.00    -0.000 C 
BRANCH  23  24
ATOM     24  C   UNL     1      17.462 -45.022 -27.834  1.00  0.00    -0.000 C 
BRANCH  24  25
ATOM     25  C   UNL     1      17.487 -45.633 -29.251  1.00  0.00    -0.003 C 
ATOM     26  C   UNL     1      17.565 -47.160 -29.227  1.00  0.00     0.004 C 
ENDBRANCH  24  25
ENDBRANCH  23  24
ENDBRANCH  22  23
ENDBRANCH  21  22
ENDBRANCH  20  21
ENDBRANCH  19  20
ENDBRANCH  18  19
ENDBRANCH  17  18
ENDBRANCH  16  17
ENDBRANCH  15  16
ENDBRANCH   1  15
TORSDOF 22
ENDMDL
MODEL 5
REMARK VINA RESULT:    -5.424      2.528      4.456
REMARK INTER + INTRA:         -15.028
REMARK INTER:                 -12.311
REMARK INTRA:                  -2.717
REMARK UNBOUND:                -2.629
REMARK SMILES CCCCCCCCCCCCCCCCCCCCCCCC(=O)[O-]
REMARK SMILES IDX 13 1 14 2 15 3 16 4 17 5 18 6 19 7 20 8 21 9 22 10 23 11
REMARK SMILES IDX 24 12 25 13 26 14 12 15 11 16 10 17 9 18 8 19 7 20 6 21 5 22
REMARK SMILES IDX 4 23 3 24 2 25 1 26
REMARK H PARENT
REMARK Flexibility Score: inf
ROOT
ATOM      1  C   UNL     1      19.176 -46.824 -21.739  1.00  0.00     0.000 C 
ENDROOT
BRANCH   1   2
ATOM      2  C   UNL     1      20.611 -46.275 -21.649  1.00  0.00     0.000 C 
BRANCH   2   3
ATOM      3  C   UNL     1      20.678 -44.748 -21.825  1.00  0.00     0.000 C 
BRANCH   3   4
ATOM      4  C   UNL     1      21.413 -44.266 -23.094  1.00  0.00     0.000 C 
BRANCH   4   5
ATOM      5  C   UNL     1      20.569 -43.417 -24.063  1.00  0.00     0.000 C 
BRANCH   5   6
ATOM      6  C   UNL     1      19.685 -42.386 -23.341  1.00  0.00     0.000 C 
BRANCH   6   7
ATOM      7  C   UNL     1      18.806 -41.570 -24.307  1.00  0.00     0.000 C 
BRANCH   7   8
ATOM      8  C   UNL     1      17.289 -41.691 -24.075  1.00  0.00     0.000 C 
BRANCH   8   9
ATOM      9  C   UNL     1      16.835 -41.084 -22.740  1.00  0.00     0.000 C 
BRANCH   9  10
ATOM     10  C   UNL     1      16.386 -42.180 -21.763  1.00  0.00     0.006 C 
BRANCH  10  11
ATOM     11  C   UNL     1      15.703 -41.603 -20.516  1.00  0.00     0.053 C 
BRANCH  11  12
ATOM     12  C   UNL     1      16.566 -41.741 -19.298  1.00  0.00     0.041 C 
ATOM     13  O   UNL     1      17.811 -41.578 -19.382  1.00  0.00    -0.550 OA
ATOM     14  O   UNL     1      15.989 -42.016 -18.065  1.00  0.00    -0.550 OA
ENDBRANCH  11  12
ENDBRANCH  10  11
ENDBRANCH   9  10
ENDBRANCH   8   9
ENDBRANCH   7   8
ENDBRANCH   6   7
ENDBRANCH   5   6
ENDBRANCH   4   5
ENDBRANCH   3   4
ENDBRANCH   2   3
ENDBRANCH   1   2
BRANCH   1  15
ATOM     15  C   UNL     1      18.112 -45.720 -21.635  1.00  0.00     0.000 C 
BRANCH  15  16
ATOM     16  C   UNL     1      16.958 -45.913 -22.637  1.00  0.00     0.000 C 
BRANCH  16  17
ATOM     17  C   UNL     1      17.160 -45.119 -23.945  1.00  0.00     0.000 C 
BRANCH  17  18
ATOM     18  C   UNL     1      18.000 -45.858 -25.006  1.00  0.00    -0.000 C 
BRANCH  18  19
ATOM     19  C   UNL     1      18.177 -45.110 -26.340  1.00  0.00    -0.000 C 
BRANCH  19  20
ATOM     20  C   UNL     1      17.940 -45.959 -27.607  1.00  0.00    -0.000 C 
BRANCH  20  21
ATOM     21  C   UNL     1      17.043 -45.307 -28.676  1.00  0.00    -0.000 C 
BRANCH  21  22
ATOM     22  C   UNL     1      17.682 -45.312 -30.074  1.00  0.00    -0.000 C 
BRANCH  22  23
ATOM     23  C   UNL     1      17.815 -46.728 -30.663  1.00  0.00    -0.000 C 
BRANCH  23  24
ATOM     24  C   UNL     1      19.259 -47.188 -30.939  1.00  0.00    -0.000 C 
BRANCH  24  25
ATOM     25  C   UNL     1      19.352 -48.546 -31.666  1.00  0.00    -0.003 C 
ATOM     26  C   UNL     1      19.914 -48.413 -33.082  1.00  0.00     0.004 C 
ENDBRANCH  24  25
ENDBRANCH  23  24
ENDBRANCH  22  23
ENDBRANCH  21  22
ENDBRANCH  20  21
ENDBRANCH  19  20
ENDBRANCH  18  19
ENDBRANCH  17  18
ENDBRANCH  16  17
ENDBRANCH  15  16
ENDBRANCH   1  15
TORSDOF 22
ENDMDL
MODEL 6
REMARK VINA RESULT:    -5.396      2.610      5.819
REMARK INTER + INTRA:         -14.964
REMARK INTER:                 -12.931
REMARK INTRA:                  -2.033
REMARK UNBOUND:                -2.629
REMARK SMILES CCCCCCCCCCCCCCCCCCCCCCCC(=O)[O-]
REMARK SMILES IDX 13 1 14 2 15 3 16 4 17 5 18 6 19 7 20 8 21 9 22 10 23 11
REMARK SMILES IDX 24 12 25 13 26 14 12 15 11 16 10 17 9 18 8 19 7 20 6 21 5 22
REMARK SMILES IDX 4 23 3 24 2 25 1 26
REMARK H PARENT
REMARK Flexibility Score: inf
ROOT
ATOM      1  C   UNL     1      18.340 -45.485 -27.116  1.00  0.00     0.000 C 
ENDROOT
BRANCH   1   2
ATOM      2  C   UNL     1      18.118 -44.575 -25.894  1.00  0.00     0.000 C 
BRANCH   2   3
ATOM      3  C   UNL     1      19.435 -44.070 -25.280  1.00  0.00     0.000 C 
BRANCH   3   4
ATOM      4  C   UNL     1      19.496 -42.550 -25.017  1.00  0.00     0.000 C 
BRANCH   4   5
ATOM      5  C   UNL     1      19.161 -42.116 -23.578  1.00  0.00     0.000 C 
BRANCH   5   6
ATOM      6  C   UNL     1      17.870 -41.284 -23.489  1.00  0.00     0.000 C 
BRANCH   6   7
ATOM      7  C   UNL     1      16.597 -42.142 -23.610  1.00  0.00     0.000 C 
BRANCH   7   8
ATOM      8  C   UNL     1      16.483 -43.294 -22.596  1.00  0.00     0.000 C 
BRANCH   8   9
ATOM      9  C   UNL     1      15.812 -44.546 -23.179  1.00  0.00     0.000 C 
BRANCH   9  10
ATOM     10  C   UNL     1      16.523 -45.821 -22.705  1.00  0.00     0.006 C 
BRANCH  10  11
ATOM     11  C   UNL     1      17.872 -45.521 -22.037  1.00  0.00     0.053 C 
BRANCH  11  12
ATOM     12  C   UNL     1      18.849 -46.640 -22.234  1.00  0.00     0.041 C 
ATOM     13  O   UNL     1      20.048 -46.390 -22.527  1.00  0.00    -0.550 OA
ATOM     14  O   UNL     1      18.443 -47.957 -22.062  1.00  0.00    -0.550 OA
ENDBRANCH  11  12
ENDBRANCH  10  11
ENDBRANCH   9  10
ENDBRANCH   8   9
ENDBRANCH   7   8
ENDBRANCH   6   7
ENDBRANCH   5   6
ENDBRANCH   4   5
ENDBRANCH   3   4
ENDBRANCH   2   3
ENDBRANCH   1   2
BRANCH   1  15
ATOM     15  C   UNL     1      17.208 -45.377 -28.148  1.00  0.00     0.000 C 
BRANCH  15  16
ATOM     16  C   UNL     1      17.727 -45.382 -29.599  1.00  0.00     0.000 C 
BRANCH  16  17
ATOM     17  C   UNL     1      18.738 -46.515 -29.871  1.00  0.00     0.000 C 
BRANCH  17  18
ATOM     18  C   UNL     1      18.334 -47.456 -31.023  1.00  0.00    -0.000 C 
BRANCH  18  19
ATOM     19  C   UNL     1      19.409 -48.473 -31.448  1.00  0.00    -0.000 C 
BRANCH  19  20
ATOM     20  C   UNL     1      19.869 -48.369 -32.919  1.00  0.00    -0.000 C 
BRANCH  20  21
ATOM     21  C   UNL     1      20.545 -49.631 -33.485  1.00  0.00    -0.000 C 
BRANCH  21  22
ATOM     22  C   UNL     1      20.236 -50.893 -32.663  1.00  0.00    -0.000 C 
BRANCH  22  23
ATOM     23  C   UNL     1      21.303 -51.989 -32.830  1.00  0.00    -0.000 C 
BRANCH  23  24
ATOM     24  C   UNL     1      21.898 -52.111 -34.246  1.00  0.00    -0.000 C 
BRANCH  24  25
ATOM     25  C   UNL     1      21.553 -53.437 -34.956  1.00  0.00    -0.003 C 
ATOM     26  C   UNL     1      20.793 -54.405 -34.048  1.00  0.00     0.004 C 
ENDBRANCH  24  25
ENDBRANCH  23  24
ENDBRANCH  22  23
ENDBRANCH  21  22
ENDBRANCH  20  21
ENDBRANCH  19  20
ENDBRANCH  18  19
ENDBRANCH  17  18
ENDBRANCH  16  17
ENDBRANCH  15  16
ENDBRANCH   1  15
TORSDOF 22
ENDMDL
MODEL 7
REMARK VINA RESULT:    -5.386      2.450      4.317
REMARK INTER + INTRA:         -14.942
REMARK INTER:                 -11.824
REMARK INTRA:                  -3.117
REMARK UNBOUND:                -2.629
REMARK SMILES CCCCCCCCCCCCCCCCCCCCCCCC(=O)[O-]
REMARK SMILES IDX 13 1 14 2 15 3 16 4 17 5 18 6 19 7 20 8 21 9 22 10 23 11
REMARK SMILES IDX 24 12 25 13 26 14 12 15 11 16 10 17 9 18 8 19 7 20 6 21 5 22
REMARK SMILES IDX 4 23 3 24 2 25 1 26
REMARK H PARENT
REMARK Flexibility Score: inf
ROOT
ATOM      1  C   UNL     1      20.255 -42.831 -22.577  1.00  0.00     0.000 C 
ENDROOT
BRANCH   1   2
ATOM      2  C   UNL     1      21.294 -43.848 -22.069  1.00  0.00     0.000 C 
BRANCH   2   3
ATOM      3  C   UNL     1      20.653 -45.148 -21.555  1.00  0.00     0.000 C 
BRANCH   3   4
ATOM      4  C   UNL     1      20.590 -46.299 -22.582  1.00  0.00     0.000 C 
BRANCH   4   5
ATOM      5  C   UNL     1      19.175 -46.684 -23.055  1.00  0.00     0.000 C 
BRANCH   5   6
ATOM      6  C   UNL     1      18.076 -46.244 -22.073  1.00  0.00     0.000 C 
BRANCH   6   7
ATOM      7  C   UNL     1      16.670 -46.260 -22.703  1.00  0.00     0.000 C 
BRANCH   7   8
ATOM      8  C   UNL     1      16.018 -44.878 -22.888  1.00  0.00     0.000 C 
BRANCH   8   9
ATOM      9  C   UNL     1      16.864 -43.732 -22.316  1.00  0.00     0.000 C 
BRANCH   9  10
ATOM     10  C   UNL     1      16.439 -42.384 -22.916  1.00  0.00     0.006 C 
BRANCH  10  11
ATOM     11  C   UNL     1      16.986 -41.194 -22.116  1.00  0.00     0.053 C 
BRANCH  11  12
ATOM     12  C   UNL     1      16.898 -41.431 -20.639  1.00  0.00     0.041 C 
ATOM     13  O   UNL     1      17.947 -41.518 -19.948  1.00  0.00    -0.550 OA
ATOM     14  O   UNL     1      15.657 -41.524 -20.022  1.00  0.00    -0.550 OA
ENDBRANCH  11  12
ENDBRANCH  10  11
ENDBRANCH   9  10
ENDBRANCH   8   9
ENDBRANCH   7   8
ENDBRANCH   6   7
ENDBRANCH   5   6
ENDBRANCH   4   5
ENDBRANCH   3   4
ENDBRANCH   2   3
ENDBRANCH   1   2
BRANCH   1  15
ATOM     15  C   UNL     1      20.761 -42.015 -23.776  1.00  0.00     0.000 C 
BRANCH  15  16
ATOM     16  C   UNL     1      19.897 -42.213 -25.035  1.00  0.00     0.000 C 
BRANCH  16  17
ATOM     17  C   UNL     1      19.680 -43.699 -25.387  1.00  0.00     0.000 C 
BRANCH  17  18
ATOM     18  C   UNL     1      18.202 -44.088 -25.596  1.00  0.00    -0.000 C 
BRANCH  18  19
ATOM     19  C   UNL     1      17.971 -45.438 -26.297  1.00  0.00    -0.000 C 
BRANCH  19  20
ATOM     20  C   UNL     1      18.383 -45.486 -27.785  1.00  0.00    -0.000 C 
BRANCH  20  21
ATOM     21  C   UNL     1      17.269 -45.907 -28.761  1.00  0.00    -0.000 C 
BRANCH  21  22
ATOM     22  C   UNL     1      17.569 -47.240 -29.467  1.00  0.00    -0.000 C 
BRANCH  22  23
ATOM     23  C   UNL     1      18.794 -47.159 -30.395  1.00  0.00    -0.000 C 
BRANCH  23  24
ATOM     24  C   UNL     1      19.004 -48.382 -31.308  1.00  0.00    -0.000 C 
BRANCH  24  25
ATOM     25  C   UNL     1      19.579 -48.032 -32.697  1.00  0.00    -0.003 C 
ATOM     26  C   UNL     1      19.182 -46.630 -33.157  1.00  0.00     0.004 C 
ENDBRANCH  24  25
ENDBRANCH  23  24
ENDBRANCH  22  23
ENDBRANCH  21  22
ENDBRANCH  20  21
ENDBRANCH  19  20
ENDBRANCH  18  19
ENDBRANCH  17  18
ENDBRANCH  16  17
ENDBRANCH  15  16
ENDBRANCH   1  15
TORSDOF 22
ENDMDL
MODEL 8
REMARK VINA RESULT:    -5.384      2.555      4.623
REMARK INTER + INTRA:         -14.938
REMARK INTER:                 -12.369
REMARK INTRA:                  -2.570
REMARK UNBOUND:                -2.629
REMARK SMILES CCCCCCCCCCCCCCCCCCCCCCCC(=O)[O-]
REMARK SMILES IDX 13 1 14 2 15 3 16 4 17 5 18 6 19 7 20 8 21 9 22 10 23 11
REMARK SMILES IDX 24 12 25 13 26 14 12 15 11 16 10 17 9 18 8 19 7 20 6 21 5 22
REMARK SMILES IDX 4 23 3 24 2 25 1 26
REMARK H PARENT
REMARK Flexibility Score: inf
ROOT
ATOM      1  C   UNL     1      18.018 -47.027 -23.434  1.00  0.00     0.000 C 
ENDROOT
BRANCH   1   2
ATOM      2  C   UNL     1      18.676 -47.111 -22.045  1.00  0.00     0.000 C 
BRANCH   2   3
ATOM      3  C   UNL     1      19.404 -45.814 -21.651  1.00  0.00     0.000 C 
BRANCH   3   4
ATOM      4  C   UNL     1      20.939 -45.931 -21.538  1.00  0.00     0.000 C 
BRANCH   4   5
ATOM      5  C   UNL     1      21.741 -44.925 -22.385  1.00  0.00     0.000 C 
BRANCH   5   6
ATOM      6  C   UNL     1      21.149 -44.719 -23.790  1.00  0.00     0.000 C 
BRANCH   6   7
ATOM      7  C   UNL     1      21.062 -43.234 -24.190  1.00  0.00     0.000 C 
BRANCH   7   8
ATOM      8  C   UNL     1      19.853 -42.471 -23.622  1.00  0.00     0.000 C 
BRANCH   8   9
ATOM      9  C   UNL     1      19.102 -41.657 -24.685  1.00  0.00     0.000 C 
BRANCH   9  10
ATOM     10  C   UNL     1      17.697 -41.279 -24.196  1.00  0.00     0.006 C 
BRANCH  10  11
ATOM     11  C   UNL     1      17.481 -41.632 -22.718  1.00  0.00     0.053 C 
BRANCH  11  12
ATOM     12  C   UNL     1      16.028 -41.810 -22.396  1.00  0.00     0.041 C 
ATOM     13  O   UNL     1      15.606 -41.595 -21.230  1.00  0.00    -0.550 OA
ATOM     14  O   UNL     1      15.135 -42.180 -23.394  1.00  0.00    -0.550 OA
ENDBRANCH  11  12
ENDBRANCH  10  11
ENDBRANCH   9  10
ENDBRANCH   8   9
ENDBRANCH   7   8
ENDBRANCH   6   7
ENDBRANCH   5   6
ENDBRANCH   4   5
ENDBRANCH   3   4
ENDBRANCH   2   3
ENDBRANCH   1   2
BRANCH   1  15
ATOM     15  C   UNL     1      17.084 -45.815 -23.574  1.00  0.00     0.000 C 
BRANCH  15  16
ATOM     16  C   UNL     1      17.476 -44.898 -24.747  1.00  0.00     0.000 C 
BRANCH  16  17
ATOM     17  C   UNL     1      18.125 -45.665 -25.918  1.00  0.00     0.000 C 
BRANCH  17  18
ATOM     18  C   UNL     1      17.671 -45.187 -27.312  1.00  0.00    -0.000 C 
BRANCH  18  19
ATOM     19  C   UNL     1      18.268 -45.965 -28.499  1.00  0.00    -0.000 C 
BRANCH  19  20
ATOM     20  C   UNL     1      17.592 -47.319 -28.805  1.00  0.00    -0.000 C 
BRANCH  20  21
ATOM     21  C   UNL     1      17.795 -47.845 -30.238  1.00  0.00    -0.000 C 
BRANCH  21  22
ATOM     22  C   UNL     1      18.792 -46.998 -31.047  1.00  0.00    -0.000 C 
BRANCH  22  23
ATOM     23  C   UNL     1      19.414 -47.772 -32.223  1.00  0.00    -0.000 C 
BRANCH  23  24
ATOM     24  C   UNL     1      20.183 -49.048 -31.831  1.00  0.00    -0.000 C 
BRANCH  24  25
ATOM     25  C   UNL     1      20.002 -50.215 -32.825  1.00  0.00    -0.003 C 
ATOM     26  C   UNL     1      20.576 -51.529 -32.294  1.00  0.00     0.004 C 
ENDBRANCH  24  25
ENDBRANCH  23  24
ENDBRANCH  22  23
ENDBRANCH  21  22
ENDBRANCH  20  21
ENDBRANCH  19  20
ENDBRANCH  18  19
ENDBRANCH  17  18
ENDBRANCH  16  17
ENDBRANCH  15  16
ENDBRANCH   1  15
TORSDOF 22
ENDMDL
MODEL 9
REMARK VINA RESULT:    -5.312      4.374      9.235
REMARK INTER + INTRA:         -14.772
REMARK INTER:                 -12.318
REMARK INTRA:                  -2.455
REMARK UNBOUND:                -2.629
REMARK SMILES CCCCCCCCCCCCCCCCCCCCCCCC(=O)[O-]
REMARK SMILES IDX 13 1 14 2 15 3 16 4 17 5 18 6 19 7 20 8 21 9 22 10 23 11
REMARK SMILES IDX 24 12 25 13 26 14 12 15 11 16 10 17 9 18 8 19 7 20 6 21 5 22
REMARK SMILES IDX 4 23 3 24 2 25 1 26
REMARK H PARENT
REMARK Flexibility Score: inf
ROOT
ATOM      1  C   UNL     1      19.396 -44.402 -25.727  1.00  0.00     0.000 C 
ENDROOT
BRANCH   1   2
ATOM      2  C   UNL     1      18.010 -44.654 -26.348  1.00  0.00     0.000 C 
BRANCH   2   3
ATOM      3  C   UNL     1      17.981 -45.895 -27.257  1.00  0.00     0.000 C 
BRANCH   3   4
ATOM      4  C   UNL     1      17.628 -45.619 -28.734  1.00  0.00     0.000 C 
BRANCH   4   5
ATOM      5  C   UNL     1      18.360 -46.502 -29.762  1.00  0.00     0.000 C 
BRANCH   5   6
ATOM      6  C   UNL     1      17.559 -47.757 -30.151  1.00  0.00     0.000 C 
BRANCH   6   7
ATOM      7  C   UNL     1      18.377 -48.749 -30.998  1.00  0.00     0.000 C 
BRANCH   7   8
ATOM      8  C   UNL     1      19.504 -48.122 -31.837  1.00  0.00     0.000 C 
BRANCH   8   9
ATOM      9  C   UNL     1      20.244 -49.144 -32.711  1.00  0.00     0.000 C 
BRANCH   9  10
ATOM     10  C   UNL     1      19.781 -50.574 -32.394  1.00  0.00     0.006 C 
BRANCH  10  11
ATOM     11  C   UNL     1      20.960 -51.540 -32.210  1.00  0.00     0.053 C 
BRANCH  11  12
ATOM     12  C   UNL     1      21.243 -52.314 -33.461  1.00  0.00     0.041 C 
ATOM     13  O   UNL     1      20.801 -53.485 -33.595  1.00  0.00    -0.550 OA
ATOM     14  O   UNL     1      21.967 -51.728 -34.492  1.00  0.00    -0.550 OA
ENDBRANCH  11  12
ENDBRANCH  10  11
ENDBRANCH   9  10
ENDBRANCH   8   9
ENDBRANCH   7   8
ENDBRANCH   6   7
ENDBRANCH   5   6
ENDBRANCH   4   5
ENDBRANCH   3   4
ENDBRANCH   2   3
ENDBRANCH   1   2
BRANCH   1  15
ATOM     15  C   UNL     1      19.530 -42.994 -25.128  1.00  0.00     0.000 C 
BRANCH  15  16
ATOM     16  C   UNL     1      20.075 -43.012 -23.688  1.00  0.00     0.000 C 
BRANCH  16  17
ATOM     17  C   UNL     1      19.675 -41.760 -22.879  1.00  0.00     0.000 C 
BRANCH  17  18
ATOM     18  C   UNL     1      19.497 -42.016 -21.369  1.00  0.00    -0.000 C 
BRANCH  18  19
ATOM     19  C   UNL     1      18.402 -41.177 -20.686  1.00  0.00    -0.000 C 
BRANCH  19  20
ATOM     20  C   UNL     1      17.106 -40.994 -21.506  1.00  0.00    -0.000 C 
BRANCH  20  21
ATOM     21  C   UNL     1      16.152 -42.203 -21.503  1.00  0.00    -0.000 C 
BRANCH  21  22
ATOM     22  C   UNL     1      15.844 -42.721 -22.918  1.00  0.00    -0.000 C 
BRANCH  22  23
ATOM     23  C   UNL     1      16.378 -44.144 -23.159  1.00  0.00    -0.000 C 
BRANCH  23  24
ATOM     24  C   UNL     1      17.238 -44.722 -22.019  1.00  0.00    -0.000 C 
BRANCH  24  25
ATOM     25  C   UNL     1      17.255 -46.265 -21.971  1.00  0.00    -0.003 C 
ATOM     26  C   UNL     1      17.823 -46.883 -23.249  1.00  0.00     0.004 C 
ENDBRANCH  24  25
ENDBRANCH  23  24
ENDBRANCH  22  23
ENDBRANCH  21  22
ENDBRANCH  20  21
ENDBRANCH  19  20
ENDBRANCH  18  19
ENDBRANCH  17  18
ENDBRANCH  16  17
ENDBRANCH  15  16
ENDBRANCH   1  15
TORSDOF 22
ENDMDL
