MODEL 1
REMARK VINA RESULT:    -4.889      0.000      0.000
REMARK INTER + INTRA:          -8.994
REMARK INTER:                  -8.319
REMARK INTRA:                  -0.675
REMARK UNBOUND:                -0.675
REMARK SMILES CCCCCCCCCCCCCC(=O)[O-]
REMARK SMILES IDX 8 1 9 2 10 3 11 4 12 5 13 6 14 7 15 8 16 9 7 10 6 11 5 12
REMARK SMILES IDX 4 13 3 14 2 15 1 16
REMARK H PARENT
REMARK Flexibility Score: inf
ROOT
ATOM      1  C   UNL     1      19.317 117.457 296.368  1.00  0.00     0.000 C 
ENDROOT
BRANCH   1   2
ATOM      2  C   UNL     1      20.244 116.589 297.227  1.00  0.00     0.000 C 
BRANCH   2   3
ATOM      3  C   UNL     1      21.719 116.852 296.885  1.00  0.00     0.000 C 
BRANCH   3   4
ATOM      4  C   UNL     1      21.992 118.315 296.491  1.00  0.00     0.000 C 
BRANCH   4   5
ATOM      5  C   UNL     1      23.362 118.567 295.836  1.00  0.00     0.006 C 
BRANCH   5   6
ATOM      6  C   UNL     1      23.660 117.602 294.681  1.00  0.00     0.053 C 
BRANCH   6   7
ATOM      7  C   UNL     1      24.558 118.252 293.677  1.00  0.00     0.041 C 
ATOM      8  O   UNL     1      25.700 118.659 294.017  1.00  0.00    -0.550 OA
ATOM      9  O   UNL     1      24.154 118.362 292.352  1.00  0.00    -0.550 OA
ENDBRANCH   6   7
ENDBRANCH   5   6
ENDBRANCH   4   5
ENDBRANCH   3   4
ENDBRANCH   2   3
ENDBRANCH   1   2
BRANCH   1  10
ATOM     10  C   UNL     1      17.857 116.995 296.497  1.00  0.00     0.000 C 
BRANCH  10  11
ATOM     11  C   UNL     1      17.234 116.608 295.146  1.00  0.00    -0.000 C 
BRANCH  11  12
ATOM     12  C   UNL     1      16.921 117.832 294.267  1.00  0.00    -0.000 C 
BRANCH  12  13
ATOM     13  C   UNL     1      17.222 117.582 292.779  1.00  0.00    -0.000 C 
BRANCH  13  14
ATOM     14  C   UNL     1      17.548 116.108 292.482  1.00  0.00    -0.000 C 
BRANCH  14  15
ATOM     15  C   UNL     1      17.946 115.878 291.016  1.00  0.00    -0.003 C 
ATOM     16  C   UNL     1      17.301 114.630 290.414  1.00  0.00     0.004 C 
ENDBRANCH  14  15
ENDBRANCH  13  14
ENDBRANCH  12  13
ENDBRANCH  11  12
ENDBRANCH  10  11
ENDBRANCH   1  10
TORSDOF 12
ENDMDL
MODEL 2
REMARK VINA RESULT:    -4.794      2.325      2.916
REMARK INTER + INTRA:          -8.832
REMARK INTER:                  -7.863
REMARK INTRA:                  -0.969
REMARK UNBOUND:                -0.675
REMARK SMILES CCCCCCCCCCCCCC(=O)[O-]
REMARK SMILES IDX 8 1 9 2 10 3 11 4 12 5 13 6 14 7 15 8 16 9 7 10 6 11 5 12
REMARK SMILES IDX 4 13 3 14 2 15 1 16
REMARK H PARENT
REMARK Flexibility Score: inf
ROOT
ATOM      1  C   UNL     1      18.029 118.899 296.216  1.00  0.00     0.000 C 
ENDROOT
BRANCH   1   2
ATOM      2  C   UNL     1      19.511 119.007 296.594  1.00  0.00     0.000 C 
BRANCH   2   3
ATOM      3  C   UNL     1      20.346 117.949 295.858  1.00  0.00     0.000 C 
BRANCH   3   4
ATOM      4  C   UNL     1      21.283 117.164 296.795  1.00  0.00     0.000 C 
BRANCH   4   5
ATOM      5  C   UNL     1      21.511 117.808 298.175  1.00  0.00     0.006 C 
BRANCH   5   6
ATOM      6  C   UNL     1      22.998 117.962 298.524  1.00  0.00     0.053 C 
BRANCH   6   7
ATOM      7  C   UNL     1      23.436 119.378 298.324  1.00  0.00     0.041 C 
ATOM      8  O   UNL     1      23.808 119.772 297.188  1.00  0.00    -0.550 OA
ATOM      9  O   UNL     1      23.388 120.276 299.383  1.00  0.00    -0.550 OA
ENDBRANCH   6   7
ENDBRANCH   5   6
ENDBRANCH   4   5
ENDBRANCH   3   4
ENDBRANCH   2   3
ENDBRANCH   1   2
BRANCH   1  10
ATOM     10  C   UNL     1      17.507 117.472 296.443  1.00  0.00     0.000 C 
BRANCH  10  11
ATOM     11  C   UNL     1      16.929 116.840 295.167  1.00  0.00    -0.000 C 
BRANCH  11  12
ATOM     12  C   UNL     1      17.073 117.755 293.937  1.00  0.00    -0.000 C 
BRANCH  12  13
ATOM     13  C   UNL     1      18.009 117.164 292.869  1.00  0.00    -0.000 C 
BRANCH  13  14
ATOM     14  C   UNL     1      17.386 115.960 292.140  1.00  0.00    -0.000 C 
BRANCH  14  15
ATOM     15  C   UNL     1      18.164 115.574 290.872  1.00  0.00    -0.003 C 
ATOM     16  C   UNL     1      17.401 114.593 289.982  1.00  0.00     0.004 C 
ENDBRANCH  14  15
ENDBRANCH  13  14
ENDBRANCH  12  13
ENDBRANCH  11  12
ENDBRANCH  10  11
ENDBRANCH   1  10
TORSDOF 12
ENDMDL
MODEL 3
REMARK VINA RESULT:    -4.792      2.159      2.373
REMARK INTER + INTRA:          -8.828
REMARK INTER:                  -7.725
REMARK INTRA:                  -1.103
REMARK UNBOUND:                -0.675
REMARK SMILES CCCCCCCCCCCCCC(=O)[O-]
REMARK SMILES IDX 8 1 9 2 10 3 11 4 12 5 13 6 14 7 15 8 16 9 7 10 6 11 5 12
REMARK SMILES IDX 4 13 3 14 2 15 1 16
REMARK H PARENT
REMARK Flexibility Score: inf
ROOT
ATOM      1  C   UNL     1      19.324 116.786 296.753  1.00  0.00     0.000 C 
ENDROOT
BRANCH   1   2
ATOM      2  C   UNL     1      20.625 117.113 297.495  1.00  0.00     0.000 C 
BRANCH   2   3
ATOM      3  C   UNL     1      21.848 116.620 296.707  1.00  0.00     0.000 C 
BRANCH   3   4
ATOM      4  C   UNL     1      22.707 117.770 296.151  1.00  0.00     0.000 C 
BRANCH   4   5
ATOM      5  C   UNL     1      22.338 118.230 294.730  1.00  0.00     0.006 C 
BRANCH   5   6
ATOM      6  C   UNL     1      22.496 119.744 294.531  1.00  0.00     0.053 C 
BRANCH   6   7
ATOM      7  C   UNL     1      21.231 120.454 294.896  1.00  0.00     0.041 C 
ATOM      8  O   UNL     1      20.950 120.667 296.105  1.00  0.00    -0.550 OA
ATOM      9  O   UNL     1      20.386 120.924 293.899  1.00  0.00    -0.550 OA
ENDBRANCH   6   7
ENDBRANCH   5   6
ENDBRANCH   4   5
ENDBRANCH   3   4
ENDBRANCH   2   3
ENDBRANCH   1   2
BRANCH   1  10
ATOM     10  C   UNL     1      18.830 117.998 295.949  1.00  0.00     0.000 C 
BRANCH  10  11
ATOM     11  C   UNL     1      18.732 117.712 294.441  1.00  0.00    -0.000 C 
BRANCH  11  12
ATOM     12  C   UNL     1      17.278 117.698 293.936  1.00  0.00    -0.000 C 
BRANCH  12  13
ATOM     13  C   UNL     1      17.152 117.112 292.519  1.00  0.00    -0.000 C 
BRANCH  13  14
ATOM     14  C   UNL     1      18.438 116.405 292.056  1.00  0.00    -0.000 C 
BRANCH  14  15
ATOM     15  C   UNL     1      18.281 115.742 290.679  1.00  0.00    -0.003 C 
ATOM     16  C   UNL     1      17.294 114.574 290.691  1.00  0.00     0.004 C 
ENDBRANCH  14  15
ENDBRANCH  13  14
ENDBRANCH  12  13
ENDBRANCH  11  12
ENDBRANCH  10  11
ENDBRANCH   1  10
TORSDOF 12
ENDMDL
MODEL 4
REMARK VINA RESULT:    -4.748      2.686      3.291
REMARK INTER + INTRA:          -8.754
REMARK INTER:                  -8.303
REMARK INTRA:                  -0.451
REMARK UNBOUND:                -0.675
REMARK SMILES CCCCCCCCCCCCCC(=O)[O-]
REMARK SMILES IDX 8 1 9 2 10 3 11 4 12 5 13 6 14 7 15 8 16 9 7 10 6 11 5 12
REMARK SMILES IDX 4 13 3 14 2 15 1 16
REMARK H PARENT
REMARK Flexibility Score: inf
ROOT
ATOM      1  C   UNL     1      19.182 116.809 296.679  1.00  0.00     0.000 C 
ENDROOT
BRANCH   1   2
ATOM      2  C   UNL     1      20.434 117.641 296.379  1.00  0.00     0.000 C 
BRANCH   2   3
ATOM      3  C   UNL     1      21.705 116.909 296.838  1.00  0.00     0.000 C 
BRANCH   3   4
ATOM      4  C   UNL     1      22.817 117.868 297.300  1.00  0.00     0.000 C 
BRANCH   4   5
ATOM      5  C   UNL     1      22.833 118.166 298.810  1.00  0.00     0.006 C 
BRANCH   5   6
ATOM      6  C   UNL     1      23.150 119.634 299.127  1.00  0.00     0.053 C 
BRANCH   6   7
ATOM      7  C   UNL     1      24.578 119.781 299.547  1.00  0.00     0.041 C 
ATOM      8  O   UNL     1      24.981 120.860 300.055  1.00  0.00    -0.550 OA
ATOM      9  O   UNL     1      25.453 118.709 299.422  1.00  0.00    -0.550 OA
ENDBRANCH   6   7
ENDBRANCH   5   6
ENDBRANCH   4   5
ENDBRANCH   3   4
ENDBRANCH   2   3
ENDBRANCH   1   2
BRANCH   1  10
ATOM     10  C   UNL     1      17.911 117.554 296.246  1.00  0.00     0.000 C 
BRANCH  10  11
ATOM     11  C   UNL     1      17.224 116.906 295.033  1.00  0.00    -0.000 C 
BRANCH  11  12
ATOM     12  C   UNL     1      17.831 117.365 293.696  1.00  0.00    -0.000 C 
BRANCH  12  13
ATOM     13  C   UNL     1      17.275 116.581 292.495  1.00  0.00    -0.000 C 
BRANCH  13  14
ATOM     14  C   UNL     1      18.375 116.149 291.510  1.00  0.00    -0.000 C 
BRANCH  14  15
ATOM     15  C   UNL     1      17.810 115.738 290.141  1.00  0.00    -0.003 C 
ATOM     16  C   UNL     1      17.226 114.325 290.140  1.00  0.00     0.004 C 
ENDBRANCH  14  15
ENDBRANCH  13  14
ENDBRANCH  12  13
ENDBRANCH  11  12
ENDBRANCH  10  11
ENDBRANCH   1  10
TORSDOF 12
ENDMDL
MODEL 5
REMARK VINA RESULT:    -4.721      2.845      6.500
REMARK INTER + INTRA:          -8.708
REMARK INTER:                  -7.387
REMARK INTRA:                  -1.320
REMARK UNBOUND:                -0.675
REMARK SMILES CCCCCCCCCCCCCC(=O)[O-]
REMARK SMILES IDX 8 1 9 2 10 3 11 4 12 5 13 6 14 7 15 8 16 9 7 10 6 11 5 12
REMARK SMILES IDX 4 13 3 14 2 15 1 16
REMARK H PARENT
REMARK Flexibility Score: inf
ROOT
ATOM      1  C   UNL     1      18.411 118.795 296.181  1.00  0.00     0.000 C 
ENDROOT
BRANCH   1   2
ATOM      2  C   UNL     1      18.590 117.304 295.869  1.00  0.00     0.000 C 
BRANCH   2   3
ATOM      3  C   UNL     1      17.323 116.720 295.226  1.00  0.00     0.000 C 
BRANCH   3   4
ATOM      4  C   UNL     1      16.913 117.451 293.935  1.00  0.00     0.000 C 
BRANCH   4   5
ATOM      5  C   UNL     1      17.696 117.038 292.676  1.00  0.00     0.006 C 
BRANCH   5   6
ATOM      6  C   UNL     1      17.271 115.668 292.130  1.00  0.00     0.053 C 
BRANCH   6   7
ATOM      7  C   UNL     1      17.984 115.373 290.848  1.00  0.00     0.041 C 
ATOM      8  O   UNL     1      17.383 114.789 289.909  1.00  0.00    -0.550 OA
ATOM      9  O   UNL     1      19.298 115.787 290.673  1.00  0.00    -0.550 OA
ENDBRANCH   6   7
ENDBRANCH   5   6
ENDBRANCH   4   5
ENDBRANCH   3   4
ENDBRANCH   2   3
ENDBRANCH   1   2
BRANCH   1  10
ATOM     10  C   UNL     1      19.354 119.652 295.323  1.00  0.00     0.000 C 
BRANCH  10  11
ATOM     11  C   UNL     1      20.458 118.825 294.644  1.00  0.00    -0.000 C 
BRANCH  11  12
ATOM     12  C   UNL     1      21.823 118.978 295.339  1.00  0.00    -0.000 C 
BRANCH  12  13
ATOM     13  C   UNL     1      22.448 117.624 295.716  1.00  0.00    -0.000 C 
BRANCH  13  14
ATOM     14  C   UNL     1      22.120 117.204 297.160  1.00  0.00    -0.000 C 
BRANCH  14  15
ATOM     15  C   UNL     1      21.776 118.404 298.057  1.00  0.00    -0.003 C 
ATOM     16  C   UNL     1      22.336 118.266 299.472  1.00  0.00     0.004 C 
ENDBRANCH  14  15
ENDBRANCH  13  14
ENDBRANCH  12  13
ENDBRANCH  11  12
ENDBRANCH  10  11
ENDBRANCH   1  10
TORSDOF 12
ENDMDL
MODEL 6
REMARK VINA RESULT:    -4.715      2.705      3.748
REMARK INTER + INTRA:          -8.697
REMARK INTER:                  -7.429
REMARK INTRA:                  -1.269
REMARK UNBOUND:                -0.675
REMARK SMILES CCCCCCCCCCCCCC(=O)[O-]
REMARK SMILES IDX 8 1 9 2 10 3 11 4 12 5 13 6 14 7 15 8 16 9 7 10 6 11 5 12
REMARK SMILES IDX 4 13 3 14 2 15 1 16
REMARK H PARENT
REMARK Flexibility Score: inf
ROOT
ATOM      1  C   UNL     1      16.955 120.328 294.181  1.00  0.00     0.000 C 
ENDROOT
BRANCH   1   2
ATOM      2  C   UNL     1      17.700 120.357 295.522  1.00  0.00     0.000 C 
BRANCH   2   3
ATOM      3  C   UNL     1      19.154 120.814 295.334  1.00  0.00     0.000 C 
BRANCH   3   4
ATOM      4  C   UNL     1      20.155 119.989 296.164  1.00  0.00     0.000 C 
BRANCH   4   5
ATOM      5  C   UNL     1      20.419 118.566 295.639  1.00  0.00     0.006 C 
BRANCH   5   6
ATOM      6  C   UNL     1      20.167 117.482 296.695  1.00  0.00     0.053 C 
BRANCH   6   7
ATOM      7  C   UNL     1      21.230 117.521 297.747  1.00  0.00     0.041 C 
ATOM      8  O   UNL     1      22.431 117.298 297.442  1.00  0.00    -0.550 OA
ATOM      9  O   UNL     1      20.902 117.853 299.055  1.00  0.00    -0.550 OA
ENDBRANCH   6   7
ENDBRANCH   5   6
ENDBRANCH   4   5
ENDBRANCH   3   4
ENDBRANCH   2   3
ENDBRANCH   1   2
BRANCH   1  10
ATOM     10  C   UNL     1      16.082 119.070 294.065  1.00  0.00     0.000 C 
BRANCH  10  11
ATOM     11  C   UNL     1      16.436 118.001 295.112  1.00  0.00    -0.000 C 
BRANCH  11  12
ATOM     12  C   UNL     1      17.203 116.812 294.505  1.00  0.00    -0.000 C 
BRANCH  12  13
ATOM     13  C   UNL     1      17.619 117.062 293.045  1.00  0.00    -0.000 C 
BRANCH  13  14
ATOM     14  C   UNL     1      17.171 115.932 292.101  1.00  0.00    -0.000 C 
BRANCH  14  15
ATOM     15  C   UNL     1      18.180 115.675 290.972  1.00  0.00    -0.003 C 
ATOM     16  C   UNL     1      17.636 114.741 289.891  1.00  0.00     0.004 C 
ENDBRANCH  14  15
ENDBRANCH  13  14
ENDBRANCH  12  13
ENDBRANCH  11  12
ENDBRANCH  10  11
ENDBRANCH   1  10
TORSDOF 12
ENDMDL
MODEL 7
REMARK VINA RESULT:    -4.671      4.061      5.954
REMARK INTER + INTRA:          -8.622
REMARK INTER:                  -7.444
REMARK INTRA:                  -1.178
REMARK UNBOUND:                -0.675
REMARK SMILES CCCCCCCCCCCCCC(=O)[O-]
REMARK SMILES IDX 8 1 9 2 10 3 11 4 12 5 13 6 14 7 15 8 16 9 7 10 6 11 5 12
REMARK SMILES IDX 4 13 3 14 2 15 1 16
REMARK H PARENT
REMARK Flexibility Score: inf
ROOT
ATOM      1  C   UNL     1      16.744 117.844 296.770  1.00  0.00     0.000 C 
ENDROOT
BRANCH   1   2
ATOM      2  C   UNL     1      15.328 117.610 296.230  1.00  0.00     0.000 C 
BRANCH   2   3
ATOM      3  C   UNL     1      14.564 118.936 296.095  1.00  0.00     0.000 C 
BRANCH   3   4
ATOM      4  C   UNL     1      14.553 119.479 294.655  1.00  0.00     0.000 C 
BRANCH   4   5
ATOM      5  C   UNL     1      15.366 120.768 294.439  1.00  0.00     0.006 C 
BRANCH   5   6
ATOM      6  C   UNL     1      15.580 121.099 292.955  1.00  0.00     0.053 C 
BRANCH   6   7
ATOM      7  C   UNL     1      16.465 122.296 292.810  1.00  0.00     0.041 C 
ATOM      8  O   UNL     1      16.097 123.275 292.108  1.00  0.00    -0.550 OA
ATOM      9  O   UNL     1      17.674 122.354 293.491  1.00  0.00    -0.550 OA
ENDBRANCH   6   7
ENDBRANCH   5   6
ENDBRANCH   4   5
ENDBRANCH   3   4
ENDBRANCH   2   3
ENDBRANCH   1   2
BRANCH   1  10
ATOM     10  C   UNL     1      17.755 116.914 296.083  1.00  0.00     0.000 C 
BRANCH  10  11
ATOM     11  C   UNL     1      18.687 117.660 295.114  1.00  0.00    -0.000 C 
BRANCH  11  12
ATOM     12  C   UNL     1      17.979 118.065 293.809  1.00  0.00    -0.000 C 
BRANCH  12  13
ATOM     13  C   UNL     1      17.213 116.896 293.166  1.00  0.00    -0.000 C 
BRANCH  13  14
ATOM     14  C   UNL     1      17.923 116.338 291.921  1.00  0.00    -0.000 C 
BRANCH  14  15
ATOM     15  C   UNL     1      17.232 115.083 291.363  1.00  0.00    -0.003 C 
ATOM     16  C   UNL     1      17.532 114.848 289.883  1.00  0.00     0.004 C 
ENDBRANCH  14  15
ENDBRANCH  13  14
ENDBRANCH  12  13
ENDBRANCH  11  12
ENDBRANCH  10  11
ENDBRANCH   1  10
TORSDOF 12
ENDMDL
MODEL 8
REMARK VINA RESULT:    -4.646      4.466      6.307
REMARK INTER + INTRA:          -8.580
REMARK INTER:                  -7.203
REMARK INTRA:                  -1.378
REMARK UNBOUND:                -0.675
REMARK SMILES CCCCCCCCCCCCCC(=O)[O-]
REMARK SMILES IDX 8 1 9 2 10 3 11 4 12 5 13 6 14 7 15 8 16 9 7 10 6 11 5 12
REMARK SMILES IDX 4 13 3 14 2 15 1 16
REMARK H PARENT
REMARK Flexibility Score: inf
ROOT
ATOM      1  C   UNL     1      19.585 119.883 294.839  1.00  0.00     0.000 C 
ENDROOT
BRANCH   1   2
ATOM      2  C   UNL     1      18.285 120.612 295.198  1.00  0.00     0.000 C 
BRANCH   2   3
ATOM      3  C   UNL     1      18.010 121.763 294.218  1.00  0.00     0.000 C 
BRANCH   3   4
ATOM      4  C   UNL     1      16.612 121.688 293.580  1.00  0.00     0.000 C 
BRANCH   4   5
ATOM      5  C   UNL     1      15.990 120.280 293.537  1.00  0.00     0.006 C 
BRANCH   5   6
ATOM      6  C   UNL     1      14.570 120.235 294.117  1.00  0.00     0.053 C 
BRANCH   6   7
ATOM      7  C   UNL     1      14.533 119.372 295.338  1.00  0.00     0.041 C 
ATOM      8  O   UNL     1      13.881 118.294 295.333  1.00  0.00    -0.550 OA
ATOM      9  O   UNL     1      15.258 119.733 296.467  1.00  0.00    -0.550 OA
ENDBRANCH   6   7
ENDBRANCH   5   6
ENDBRANCH   4   5
ENDBRANCH   3   4
ENDBRANCH   2   3
ENDBRANCH   1   2
BRANCH   1  10
ATOM     10  C   UNL     1      19.293 118.489 294.262  1.00  0.00     0.000 C 
BRANCH  10  11
ATOM     11  C   UNL     1      18.475 117.608 295.221  1.00  0.00    -0.000 C 
BRANCH  11  12
ATOM     12  C   UNL     1      17.275 116.938 294.528  1.00  0.00    -0.000 C 
BRANCH  12  13
ATOM     13  C   UNL     1      17.312 117.099 292.999  1.00  0.00    -0.000 C 
BRANCH  13  14
ATOM     14  C   UNL     1      17.266 115.750 292.261  1.00  0.00    -0.000 C 
BRANCH  14  15
ATOM     15  C   UNL     1      18.076 115.765 290.955  1.00  0.00    -0.003 C 
ATOM     16  C   UNL     1      17.537 114.789 289.910  1.00  0.00     0.004 C 
ENDBRANCH  14  15
ENDBRANCH  13  14
ENDBRANCH  12  13
ENDBRANCH  11  12
ENDBRANCH  10  11
ENDBRANCH   1  10
TORSDOF 12
ENDMDL
MODEL 9
REMARK VINA RESULT:    -4.571      3.686      4.678
REMARK INTER + INTRA:          -8.451
REMARK INTER:                  -7.024
REMARK INTRA:                  -1.427
REMARK UNBOUND:                -0.675
REMARK SMILES CCCCCCCCCCCCCC(=O)[O-]
REMARK SMILES IDX 8 1 9 2 10 3 11 4 12 5 13 6 14 7 15 8 16 9 7 10 6 11 5 12
REMARK SMILES IDX 4 13 3 14 2 15 1 16
REMARK H PARENT
REMARK Flexibility Score: inf
ROOT
ATOM      1  C   UNL     1      19.830 117.238 296.615  1.00  0.00     0.000 C 
ENDROOT
BRANCH   1   2
ATOM      2  C   UNL     1      19.720 118.747 296.362  1.00  0.00     0.000 C 
BRANCH   2   3
ATOM      3  C   UNL     1      20.175 119.102 294.938  1.00  0.00     0.000 C 
BRANCH   3   4
ATOM      4  C   UNL     1      19.702 120.495 294.487  1.00  0.00     0.000 C 
BRANCH   4   5
ATOM      5  C   UNL     1      18.389 120.977 295.129  1.00  0.00     0.006 C 
BRANCH   5   6
ATOM      6  C   UNL     1      17.355 121.447 294.097  1.00  0.00     0.053 C 
BRANCH   6   7
ATOM      7  C   UNL     1      17.637 122.855 293.679  1.00  0.00     0.041 C 
ATOM      8  O   UNL     1      18.123 123.675 294.502  1.00  0.00    -0.550 OA
ATOM      9  O   UNL     1      17.410 123.249 292.367  1.00  0.00    -0.550 OA
ENDBRANCH   6   7
ENDBRANCH   5   6
ENDBRANCH   4   5
ENDBRANCH   3   4
ENDBRANCH   2   3
ENDBRANCH   1   2
BRANCH   1  10
ATOM     10  C   UNL     1      18.455 116.562 296.513  1.00  0.00     0.000 C 
BRANCH  10  11
ATOM     11  C   UNL     1      17.300 117.572 296.417  1.00  0.00    -0.000 C 
BRANCH  11  12
ATOM     12  C   UNL     1      16.654 117.599 295.020  1.00  0.00    -0.000 C 
BRANCH  12  13
ATOM     13  C   UNL     1      17.221 116.515 294.087  1.00  0.00    -0.000 C 
BRANCH  13  14
ATOM     14  C   UNL     1      17.624 117.072 292.711  1.00  0.00    -0.000 C 
BRANCH  14  15
ATOM     15  C   UNL     1      17.430 116.047 291.582  1.00  0.00    -0.003 C 
ATOM     16  C   UNL     1      18.741 115.664 290.896  1.00  0.00     0.004 C 
ENDBRANCH  14  15
ENDBRANCH  13  14
ENDBRANCH  12  13
ENDBRANCH  11  12
ENDBRANCH  10  11
ENDBRANCH   1  10
TORSDOF 12
ENDMDL
