MODEL 1
REMARK VINA RESULT:    -4.895      0.000      0.000
REMARK INTER + INTRA:          -5.881
REMARK INTER:                  -5.754
REMARK INTRA:                  -0.127
REMARK UNBOUND:                -0.127
REMARK SMILES O=C([O-])C=Cc1ccc(O)c(O)c1
REMARK SMILES IDX 6 1 13 2 7 3 11 4 8 5 9 6 5 7 4 8 2 9 1 10 3 11 12 12 10 14
REMARK H PARENT 12 13 10 15
REMARK Flexibility Score: inf
ROOT
ATOM      1  C   UNL     1     -10.545   7.781  25.013  1.00  0.00    -0.022 A 
ATOM      2  C   UNL     1      -9.319   7.100  25.098  1.00  0.00     0.058 A 
ATOM      3  C   UNL     1     -11.724   7.035  24.817  1.00  0.00     0.012 A 
ATOM      4  C   UNL     1      -9.266   5.703  25.016  1.00  0.00     0.157 A 
ATOM      5  C   UNL     1     -11.674   5.641  24.734  1.00  0.00     0.051 A 
ATOM      6  C   UNL     1     -10.450   4.968  24.837  1.00  0.00     0.157 A 
ENDROOT
BRANCH   1   7
ATOM      7  C   UNL     1     -10.541   9.263  25.095  1.00  0.00     0.010 C 
ATOM      8  C   UNL     1     -10.452  10.066  24.027  1.00  0.00     0.025 C 
BRANCH   8   9
ATOM      9  C   UNL     1     -10.464  11.533  24.154  1.00  0.00     0.064 C 
ATOM     10  O   UNL     1      -9.868  12.078  25.118  1.00  0.00    -0.545 OA
ATOM     11  O   UNL     1     -11.127  12.327  23.225  1.00  0.00    -0.545 OA
ENDBRANCH   8   9
ENDBRANCH   1   7
BRANCH   4  12
ATOM     12  O   UNL     1      -8.030   5.065  25.115  1.00  0.00    -0.504 OA
ATOM     13  H   UNL     1      -7.391   5.006  24.331  1.00  0.00     0.293 HD
ENDBRANCH   4  12
BRANCH   6  14
ATOM     14  O   UNL     1     -10.405   3.577  24.755  1.00  0.00    -0.504 OA
ATOM     15  H   UNL     1     -10.033   3.106  23.940  1.00  0.00     0.293 HD
ENDBRANCH   6  14
TORSDOF 4
ENDMDL
MODEL 2
REMARK VINA RESULT:    -4.803      3.509      4.952
REMARK INTER + INTRA:          -5.772
REMARK INTER:                  -5.646
REMARK INTRA:                  -0.125
REMARK UNBOUND:                -0.127
REMARK SMILES O=C([O-])C=Cc1ccc(O)c(O)c1
REMARK SMILES IDX 6 1 13 2 7 3 11 4 8 5 9 6 5 7 4 8 2 9 1 10 3 11 12 12 10 14
REMARK H PARENT 12 13 10 15
REMARK Flexibility Score: inf
ROOT
ATOM      1  C   UNL     1      -7.782   4.118  24.318  1.00  0.00    -0.022 A 
ATOM      2  C   UNL     1      -6.453   4.571  24.253  1.00  0.00     0.058 A 
ATOM      3  C   UNL     1      -8.023   2.751  24.558  1.00  0.00     0.012 A 
ATOM      4  C   UNL     1      -5.384   3.689  24.449  1.00  0.00     0.157 A 
ATOM      5  C   UNL     1      -6.956   1.869  24.753  1.00  0.00     0.051 A 
ATOM      6  C   UNL     1      -5.635   2.332  24.704  1.00  0.00     0.157 A 
ENDROOT
BRANCH   1   7
ATOM      7  C   UNL     1      -8.877   5.094  24.091  1.00  0.00     0.010 C 
ATOM      8  C   UNL     1      -9.102   6.155  24.877  1.00  0.00     0.025 C 
BRANCH   8   9
ATOM      9  C   UNL     1     -10.193   7.106  24.607  1.00  0.00     0.064 C 
ATOM     10  O   UNL     1      -9.926   8.236  24.122  1.00  0.00    -0.545 OA
ATOM     11  O   UNL     1     -11.515   6.776  24.881  1.00  0.00    -0.545 OA
ENDBRANCH   8   9
ENDBRANCH   1   7
BRANCH   4  12
ATOM     12  O   UNL     1      -4.081   4.181  24.387  1.00  0.00    -0.504 OA
ATOM     13  H   UNL     1      -3.630   4.616  25.184  1.00  0.00     0.293 HD
ENDBRANCH   4  12
BRANCH   6  14
ATOM     14  O   UNL     1      -4.575   1.448  24.901  1.00  0.00    -0.504 OA
ATOM     15  H   UNL     1      -4.593   0.755  25.639  1.00  0.00     0.293 HD
ENDBRANCH   6  14
TORSDOF 4
ENDMDL
MODEL 3
REMARK VINA RESULT:    -4.487      3.390      5.728
REMARK INTER + INTRA:          -5.400
REMARK INTER:                  -5.269
REMARK INTRA:                  -0.132
REMARK UNBOUND:                -0.127
REMARK SMILES O=C([O-])C=Cc1ccc(O)c(O)c1
REMARK SMILES IDX 6 1 13 2 7 3 11 4 8 5 9 6 5 7 4 8 2 9 1 10 3 11 12 12 10 14
REMARK H PARENT 12 13 10 15
REMARK Flexibility Score: inf
ROOT
ATOM      1  C   UNL     1      -9.482   5.492  24.545  1.00  0.00    -0.022 A 
ATOM      2  C   UNL     1     -10.307   4.650  23.779  1.00  0.00     0.058 A 
ATOM      3  C   UNL     1     -10.030   6.672  25.085  1.00  0.00     0.012 A 
ATOM      4  C   UNL     1     -11.657   4.961  23.575  1.00  0.00     0.157 A 
ATOM      5  C   UNL     1     -11.377   6.984  24.881  1.00  0.00     0.051 A 
ATOM      6  C   UNL     1     -12.196   6.132  24.130  1.00  0.00     0.157 A 
ENDROOT
BRANCH   1   7
ATOM      7  C   UNL     1      -8.056   5.120  24.721  1.00  0.00     0.010 C 
ATOM      8  C   UNL     1      -7.409   4.257  23.927  1.00  0.00     0.025 C 
BRANCH   8   9
ATOM      9  C   UNL     1      -5.989   3.926  24.131  1.00  0.00     0.064 C 
ATOM     10  O   UNL     1      -5.117   4.456  23.395  1.00  0.00    -0.545 OA
ATOM     11  O   UNL     1      -5.596   3.036  25.123  1.00  0.00    -0.545 OA
ENDBRANCH   8   9
ENDBRANCH   1   7
BRANCH   4  12
ATOM     12  O   UNL     1     -12.443   4.094  22.817  1.00  0.00    -0.504 OA
ATOM     13  H   UNL     1     -12.854   4.373  21.934  1.00  0.00     0.293 HD
ENDBRANCH   4  12
BRANCH   6  14
ATOM     14  O   UNL     1     -13.540   6.447  23.931  1.00  0.00    -0.504 OA
ATOM     15  H   UNL     1     -14.134   5.884  23.335  1.00  0.00     0.293 HD
ENDBRANCH   6  14
TORSDOF 4
ENDMDL
MODEL 4
REMARK VINA RESULT:    -4.469      3.179      6.339
REMARK INTER + INTRA:          -5.380
REMARK INTER:                  -5.248
REMARK INTRA:                  -0.132
REMARK UNBOUND:                -0.127
REMARK SMILES O=C([O-])C=Cc1ccc(O)c(O)c1
REMARK SMILES IDX 6 1 13 2 7 3 11 4 8 5 9 6 5 7 4 8 2 9 1 10 3 11 12 12 10 14
REMARK H PARENT 12 13 10 15
REMARK Flexibility Score: inf
ROOT
ATOM      1  C   UNL     1     -12.130   5.001  23.550  1.00  0.00    -0.022 A 
ATOM      2  C   UNL     1     -10.770   4.716  23.343  1.00  0.00     0.058 A 
ATOM      3  C   UNL     1     -12.479   6.133  24.313  1.00  0.00     0.012 A 
ATOM      4  C   UNL     1      -9.774   5.553  23.861  1.00  0.00     0.157 A 
ATOM      5  C   UNL     1     -11.485   6.969  24.832  1.00  0.00     0.051 A 
ATOM      6  C   UNL     1     -10.133   6.687  24.607  1.00  0.00     0.157 A 
ENDROOT
BRANCH   1   7
ATOM      7  C   UNL     1     -13.144   4.075  22.987  1.00  0.00     0.010 C 
ATOM      8  C   UNL     1     -12.881   3.178  22.027  1.00  0.00     0.025 C 
BRANCH   8   9
ATOM      9  C   UNL     1     -13.915   2.269  21.507  1.00  0.00     0.064 C 
ATOM     10  O   UNL     1     -14.622   2.627  20.530  1.00  0.00    -0.545 OA
ATOM     11  O   UNL     1     -14.126   1.020  22.081  1.00  0.00    -0.545 OA
ENDBRANCH   8   9
ENDBRANCH   1   7
BRANCH   4  12
ATOM     12  O   UNL     1      -8.436   5.239  23.624  1.00  0.00    -0.504 OA
ATOM     13  H   UNL     1      -8.146   4.680  22.830  1.00  0.00     0.293 HD
ENDBRANCH   4  12
BRANCH   6  14
ATOM     14  O   UNL     1      -9.146   7.525  25.125  1.00  0.00    -0.504 OA
ATOM     15  H   UNL     1      -8.937   7.548  26.115  1.00  0.00     0.293 HD
ENDBRANCH   6  14
TORSDOF 4
ENDMDL
MODEL 5
REMARK VINA RESULT:    -4.279      3.418      5.514
REMARK INTER + INTRA:          -5.157
REMARK INTER:                  -5.021
REMARK INTRA:                  -0.136
REMARK UNBOUND:                -0.127
REMARK SMILES O=C([O-])C=Cc1ccc(O)c(O)c1
REMARK SMILES IDX 6 1 13 2 7 3 11 4 8 5 9 6 5 7 4 8 2 9 1 10 3 11 12 12 10 14
REMARK H PARENT 12 13 10 15
REMARK Flexibility Score: inf
ROOT
ATOM      1  C   UNL     1     -12.519   4.506  23.261  1.00  0.00    -0.022 A 
ATOM      2  C   UNL     1     -12.099   3.409  22.489  1.00  0.00     0.058 A 
ATOM      3  C   UNL     1     -13.881   4.866  23.247  1.00  0.00     0.012 A 
ATOM      4  C   UNL     1     -13.019   2.666  21.739  1.00  0.00     0.157 A 
ATOM      5  C   UNL     1     -14.800   4.126  22.497  1.00  0.00     0.051 A 
ATOM      6  C   UNL     1     -14.376   3.024  21.744  1.00  0.00     0.157 A 
ENDROOT
BRANCH   1   7
ATOM      7  C   UNL     1     -11.500   5.265  24.029  1.00  0.00     0.010 C 
ATOM      8  C   UNL     1     -10.187   5.005  23.983  1.00  0.00     0.025 C 
BRANCH   8   9
ATOM      9  C   UNL     1      -9.210   5.792  24.752  1.00  0.00     0.064 C 
ATOM     10  O   UNL     1      -9.485   6.976  25.077  1.00  0.00    -0.545 OA
ATOM     11  O   UNL     1      -7.986   5.249  25.125  1.00  0.00    -0.545 OA
ENDBRANCH   8   9
ENDBRANCH   1   7
BRANCH   4  12
ATOM     12  O   UNL     1     -12.563   1.579  20.995  1.00  0.00    -0.504 OA
ATOM     13  H   UNL     1     -11.581   1.335  20.944  1.00  0.00     0.293 HD
ENDBRANCH   4  12
BRANCH   6  14
ATOM     14  O   UNL     1     -15.297   2.288  21.000  1.00  0.00    -0.504 OA
ATOM     15  H   UNL     1     -16.208   2.047  21.371  1.00  0.00     0.293 HD
ENDBRANCH   6  14
TORSDOF 4
ENDMDL
