MODEL 1
REMARK VINA RESULT:    -4.311      0.000      0.000
REMARK INTER + INTRA:         -13.763
REMARK INTER:                  -9.856
REMARK INTRA:                  -3.907
REMARK UNBOUND:                -3.907
REMARK SMILES CCCCCCCCCCCCCCCCCCCCCCCC(=O)[O-]
REMARK SMILES IDX 13 1 14 2 15 3 16 4 17 5 18 6 19 7 20 8 21 9 22 10 23 11
REMARK SMILES IDX 24 12 25 13 26 14 12 15 11 16 10 17 9 18 8 19 7 20 6 21 5 22
REMARK SMILES IDX 4 23 3 24 2 25 1 26
REMARK H PARENT
REMARK Flexibility Score: inf
ROOT
ATOM      1  C   UNL     1      -3.237  27.440  59.202  1.00  0.00     0.000 C 
ENDROOT
BRANCH   1   2
ATOM      2  C   UNL     1      -2.111  28.472  59.392  1.00  0.00     0.000 C 
BRANCH   2   3
ATOM      3  C   UNL     1      -2.598  29.923  59.236  1.00  0.00     0.000 C 
BRANCH   3   4
ATOM      4  C   UNL     1      -2.311  30.505  57.840  1.00  0.00     0.000 C 
BRANCH   4   5
ATOM      5  C   UNL     1      -1.048  29.959  57.147  1.00  0.00     0.000 C 
BRANCH   5   6
ATOM      6  C   UNL     1      -1.094  30.097  55.619  1.00  0.00     0.000 C 
BRANCH   6   7
ATOM      7  C   UNL     1      -1.700  28.842  54.971  1.00  0.00     0.000 C 
BRANCH   7   8
ATOM      8  C   UNL     1      -3.132  29.069  54.463  1.00  0.00     0.000 C 
BRANCH   8   9
ATOM      9  C   UNL     1      -4.187  28.372  55.336  1.00  0.00     0.000 C 
BRANCH   9  10
ATOM     10  C   UNL     1      -5.216  29.383  55.863  1.00  0.00     0.006 C 
BRANCH  10  11
ATOM     11  C   UNL     1      -5.460  30.532  54.877  1.00  0.00     0.053 C 
BRANCH  11  12
ATOM     12  C   UNL     1      -6.744  31.248  55.165  1.00  0.00     0.041 C 
ATOM     13  O   UNL     1      -7.383  31.805  54.235  1.00  0.00    -0.550 OA
ATOM     14  O   UNL     1      -7.218  31.328  56.468  1.00  0.00    -0.550 OA
ENDBRANCH  11  12
ENDBRANCH  10  11
ENDBRANCH   9  10
ENDBRANCH   8   9
ENDBRANCH   7   8
ENDBRANCH   6   7
ENDBRANCH   5   6
ENDBRANCH   4   5
ENDBRANCH   3   4
ENDBRANCH   2   3
ENDBRANCH   1   2
BRANCH   1  15
ATOM     15  C   UNL     1      -2.818  26.121  58.520  1.00  0.00     0.000 C 
BRANCH  15  16
ATOM     16  C   UNL     1      -1.930  26.277  57.273  1.00  0.00     0.000 C 
BRANCH  16  17
ATOM     17  C   UNL     1      -1.456  24.928  56.706  1.00  0.00     0.000 C 
BRANCH  17  18
ATOM     18  C   UNL     1      -2.242  24.495  55.454  1.00  0.00    -0.000 C 
BRANCH  18  19
ATOM     19  C   UNL     1      -2.741  23.036  55.464  1.00  0.00    -0.000 C 
BRANCH  19  20
ATOM     20  C   UNL     1      -4.120  22.822  56.117  1.00  0.00    -0.000 C 
BRANCH  20  21
ATOM     21  C   UNL     1      -5.148  23.940  55.852  1.00  0.00    -0.000 C 
BRANCH  21  22
ATOM     22  C   UNL     1      -5.819  24.522  57.109  1.00  0.00    -0.000 C 
BRANCH  22  23
ATOM     23  C   UNL     1      -6.424  25.916  56.872  1.00  0.00    -0.000 C 
BRANCH  23  24
ATOM     24  C   UNL     1      -6.720  26.661  58.184  1.00  0.00    -0.000 C 
BRANCH  24  25
ATOM     25  C   UNL     1      -7.842  26.001  58.998  1.00  0.00    -0.003 C 
ATOM     26  C   UNL     1      -7.498  25.974  60.486  1.00  0.00     0.004 C 
ENDBRANCH  24  25
ENDBRANCH  23  24
ENDBRANCH  22  23
ENDBRANCH  21  22
ENDBRANCH  20  21
ENDBRANCH  19  20
ENDBRANCH  18  19
ENDBRANCH  17  18
ENDBRANCH  16  17
ENDBRANCH  15  16
ENDBRANCH   1  15
TORSDOF 22
ENDMDL
MODEL 2
REMARK VINA RESULT:    -4.205      1.429      2.762
REMARK INTER + INTRA:         -13.521
REMARK INTER:                  -9.369
REMARK INTRA:                  -4.152
REMARK UNBOUND:                -3.907
REMARK SMILES CCCCCCCCCCCCCCCCCCCCCCCC(=O)[O-]
REMARK SMILES IDX 13 1 14 2 15 3 16 4 17 5 18 6 19 7 20 8 21 9 22 10 23 11
REMARK SMILES IDX 24 12 25 13 26 14 12 15 11 16 10 17 9 18 8 19 7 20 6 21 5 22
REMARK SMILES IDX 4 23 3 24 2 25 1 26
REMARK H PARENT
REMARK Flexibility Score: inf
ROOT
ATOM      1  C   UNL     1      -1.915  27.714  58.112  1.00  0.00     0.000 C 
ENDROOT
BRANCH   1   2
ATOM      2  C   UNL     1      -2.025  26.341  57.424  1.00  0.00     0.000 C 
BRANCH   2   3
ATOM      3  C   UNL     1      -1.235  26.270  56.106  1.00  0.00     0.000 C 
BRANCH   3   4
ATOM      4  C   UNL     1      -0.751  27.649  55.621  1.00  0.00     0.000 C 
BRANCH   4   5
ATOM      5  C   UNL     1      -1.648  28.327  54.569  1.00  0.00     0.000 C 
BRANCH   5   6
ATOM      6  C   UNL     1      -1.235  29.775  54.271  1.00  0.00     0.000 C 
BRANCH   6   7
ATOM      7  C   UNL     1      -1.599  30.702  55.441  1.00  0.00     0.000 C 
BRANCH   7   8
ATOM      8  C   UNL     1      -3.089  31.080  55.459  1.00  0.00     0.000 C 
BRANCH   8   9
ATOM      9  C   UNL     1      -3.629  31.423  54.062  1.00  0.00     0.000 C 
BRANCH   9  10
ATOM     10  C   UNL     1      -5.152  31.236  54.002  1.00  0.00     0.006 C 
BRANCH  10  11
ATOM     11  C   UNL     1      -5.859  31.834  55.225  1.00  0.00     0.053 C 
BRANCH  11  12
ATOM     12  C   UNL     1      -7.329  31.998  54.992  1.00  0.00     0.041 C 
ATOM     13  O   UNL     1      -8.159  31.533  55.816  1.00  0.00    -0.550 OA
ATOM     14  O   UNL     1      -7.784  32.637  53.845  1.00  0.00    -0.550 OA
ENDBRANCH  11  12
ENDBRANCH  10  11
ENDBRANCH   9  10
ENDBRANCH   8   9
ENDBRANCH   7   8
ENDBRANCH   6   7
ENDBRANCH   5   6
ENDBRANCH   4   5
ENDBRANCH   3   4
ENDBRANCH   2   3
ENDBRANCH   1   2
BRANCH   1  15
ATOM     15  C   UNL     1      -3.212  28.552  58.130  1.00  0.00     0.000 C 
BRANCH  15  16
ATOM     16  C   UNL     1      -4.497  27.783  57.776  1.00  0.00     0.000 C 
BRANCH  16  17
ATOM     17  C   UNL     1      -5.244  28.390  56.576  1.00  0.00     0.000 C 
BRANCH  17  18
ATOM     18  C   UNL     1      -5.074  27.566  55.286  1.00  0.00    -0.000 C 
BRANCH  18  19
ATOM     19  C   UNL     1      -5.718  26.164  55.313  1.00  0.00    -0.000 C 
BRANCH  19  20
ATOM     20  C   UNL     1      -4.726  24.992  55.428  1.00  0.00    -0.000 C 
BRANCH  20  21
ATOM     21  C   UNL     1      -5.082  23.938  56.497  1.00  0.00    -0.000 C 
BRANCH  21  22
ATOM     22  C   UNL     1      -5.320  24.497  57.912  1.00  0.00    -0.000 C 
BRANCH  22  23
ATOM     23  C   UNL     1      -6.748  24.241  58.423  1.00  0.00    -0.000 C 
BRANCH  23  24
ATOM     24  C   UNL     1      -7.697  25.416  58.136  1.00  0.00    -0.000 C 
BRANCH  24  25
ATOM     25  C   UNL     1      -7.655  26.491  59.232  1.00  0.00    -0.003 C 
ATOM     26  C   UNL     1      -7.561  25.858  60.618  1.00  0.00     0.004 C 
ENDBRANCH  24  25
ENDBRANCH  23  24
ENDBRANCH  22  23
ENDBRANCH  21  22
ENDBRANCH  20  21
ENDBRANCH  19  20
ENDBRANCH  18  19
ENDBRANCH  17  18
ENDBRANCH  16  17
ENDBRANCH  15  16
ENDBRANCH   1  15
TORSDOF 22
ENDMDL
MODEL 3
REMARK VINA RESULT:    -4.143      1.436      4.384
REMARK INTER + INTRA:         -13.377
REMARK INTER:                  -9.960
REMARK INTRA:                  -3.418
REMARK UNBOUND:                -3.907
REMARK SMILES CCCCCCCCCCCCCCCCCCCCCCCC(=O)[O-]
REMARK SMILES IDX 13 1 14 2 15 3 16 4 17 5 18 6 19 7 20 8 21 9 22 10 23 11
REMARK SMILES IDX 24 12 25 13 26 14 12 15 11 16 10 17 9 18 8 19 7 20 6 21 5 22
REMARK SMILES IDX 4 23 3 24 2 25 1 26
REMARK H PARENT
REMARK Flexibility Score: inf
ROOT
ATOM      1  C   UNL     1      -3.155  26.132  58.965  1.00  0.00     0.000 C 
ENDROOT
BRANCH   1   2
ATOM      2  C   UNL     1      -2.451  27.491  58.797  1.00  0.00     0.000 C 
BRANCH   2   3
ATOM      3  C   UNL     1      -1.482  27.518  57.603  1.00  0.00     0.000 C 
BRANCH   3   4
ATOM      4  C   UNL     1      -1.563  26.248  56.736  1.00  0.00     0.000 C 
BRANCH   4   5
ATOM      5  C   UNL     1      -2.158  26.449  55.330  1.00  0.00     0.000 C 
BRANCH   5   6
ATOM      6  C   UNL     1      -3.481  27.229  55.343  1.00  0.00     0.000 C 
BRANCH   6   7
ATOM      7  C   UNL     1      -3.330  28.578  54.624  1.00  0.00     0.000 C 
BRANCH   7   8
ATOM      8  C   UNL     1      -3.371  29.774  55.588  1.00  0.00     0.000 C 
BRANCH   8   9
ATOM      9  C   UNL     1      -4.618  29.767  56.486  1.00  0.00     0.000 C 
BRANCH   9  10
ATOM     10  C   UNL     1      -5.288  31.149  56.504  1.00  0.00     0.006 C 
BRANCH  10  11
ATOM     11  C   UNL     1      -5.664  31.630  55.096  1.00  0.00     0.053 C 
BRANCH  11  12
ATOM     12  C   UNL     1      -7.134  31.887  54.971  1.00  0.00     0.041 C 
ATOM     13  O   UNL     1      -7.910  31.607  55.922  1.00  0.00    -0.550 OA
ATOM     14  O   UNL     1      -7.651  32.405  53.791  1.00  0.00    -0.550 OA
ENDBRANCH  11  12
ENDBRANCH  10  11
ENDBRANCH   9  10
ENDBRANCH   8   9
ENDBRANCH   7   8
ENDBRANCH   6   7
ENDBRANCH   5   6
ENDBRANCH   4   5
ENDBRANCH   3   4
ENDBRANCH   2   3
ENDBRANCH   1   2
BRANCH   1  15
ATOM     15  C   UNL     1      -4.622  26.200  59.437  1.00  0.00     0.000 C 
BRANCH  15  16
ATOM     16  C   UNL     1      -5.632  26.685  58.382  1.00  0.00     0.000 C 
BRANCH  16  17
ATOM     17  C   UNL     1      -7.007  26.009  58.517  1.00  0.00     0.000 C 
BRANCH  17  18
ATOM     18  C   UNL     1      -7.398  25.193  57.271  1.00  0.00    -0.000 C 
BRANCH  18  19
ATOM     19  C   UNL     1      -6.530  25.446  56.021  1.00  0.00    -0.000 C 
BRANCH  19  20
ATOM     20  C   UNL     1      -5.761  24.216  55.501  1.00  0.00    -0.000 C 
BRANCH  20  21
ATOM     21  C   UNL     1      -4.652  23.696  56.439  1.00  0.00    -0.000 C 
BRANCH  21  22
ATOM     22  C   UNL     1      -3.874  22.475  55.915  1.00  0.00    -0.000 C 
BRANCH  22  23
ATOM     23  C   UNL     1      -2.415  22.805  55.557  1.00  0.00    -0.000 C 
BRANCH  23  24
ATOM     24  C   UNL     1      -1.944  22.086  54.283  1.00  0.00    -0.000 C 
BRANCH  24  25
ATOM     25  C   UNL     1      -1.983  20.557  54.417  1.00  0.00    -0.003 C 
ATOM     26  C   UNL     1      -0.575  19.981  54.549  1.00  0.00     0.004 C 
ENDBRANCH  24  25
ENDBRANCH  23  24
ENDBRANCH  22  23
ENDBRANCH  21  22
ENDBRANCH  20  21
ENDBRANCH  19  20
ENDBRANCH  18  19
ENDBRANCH  17  18
ENDBRANCH  16  17
ENDBRANCH  15  16
ENDBRANCH   1  15
TORSDOF 22
ENDMDL
MODEL 4
REMARK VINA RESULT:    -4.138      1.181      2.212
REMARK INTER + INTRA:         -13.366
REMARK INTER:                 -10.049
REMARK INTRA:                  -3.317
REMARK UNBOUND:                -3.907
REMARK SMILES CCCCCCCCCCCCCCCCCCCCCCCC(=O)[O-]
REMARK SMILES IDX 13 1 14 2 15 3 16 4 17 5 18 6 19 7 20 8 21 9 22 10 23 11
REMARK SMILES IDX 24 12 25 13 26 14 12 15 11 16 10 17 9 18 8 19 7 20 6 21 5 22
REMARK SMILES IDX 4 23 3 24 2 25 1 26
REMARK H PARENT
REMARK Flexibility Score: inf
ROOT
ATOM      1  C   UNL     1      -2.796  26.438  57.388  1.00  0.00     0.000 C 
ENDROOT
BRANCH   1   2
ATOM      2  C   UNL     1      -3.080  26.218  58.885  1.00  0.00     0.000 C 
BRANCH   2   3
ATOM      3  C   UNL     1      -3.280  27.535  59.654  1.00  0.00     0.000 C 
BRANCH   3   4
ATOM      4  C   UNL     1      -2.169  28.565  59.378  1.00  0.00     0.000 C 
BRANCH   4   5
ATOM      5  C   UNL     1      -2.648  30.020  59.215  1.00  0.00     0.000 C 
BRANCH   5   6
ATOM      6  C   UNL     1      -3.238  30.306  57.826  1.00  0.00     0.000 C 
BRANCH   6   7
ATOM      7  C   UNL     1      -2.293  29.820  56.717  1.00  0.00     0.000 C 
BRANCH   7   8
ATOM      8  C   UNL     1      -3.014  29.594  55.379  1.00  0.00     0.000 C 
BRANCH   8   9
ATOM      9  C   UNL     1      -3.806  30.828  54.918  1.00  0.00     0.000 C 
BRANCH   9  10
ATOM     10  C   UNL     1      -5.312  30.532  54.887  1.00  0.00     0.006 C 
BRANCH  10  11
ATOM     11  C   UNL     1      -6.129  31.601  55.624  1.00  0.00     0.053 C 
BRANCH  11  12
ATOM     12  C   UNL     1      -7.472  31.808  54.992  1.00  0.00     0.041 C 
ATOM     13  O   UNL     1      -8.508  31.347  55.538  1.00  0.00    -0.550 OA
ATOM     14  O   UNL     1      -7.574  32.482  53.782  1.00  0.00    -0.550 OA
ENDBRANCH  11  12
ENDBRANCH  10  11
ENDBRANCH   9  10
ENDBRANCH   8   9
ENDBRANCH   7   8
ENDBRANCH   6   7
ENDBRANCH   5   6
ENDBRANCH   4   5
ENDBRANCH   3   4
ENDBRANCH   2   3
ENDBRANCH   1   2
BRANCH   1  15
ATOM     15  C   UNL     1      -1.496  25.795  56.859  1.00  0.00     0.000 C 
BRANCH  15  16
ATOM     16  C   UNL     1      -0.933  26.413  55.567  1.00  0.00     0.000 C 
BRANCH  16  17
ATOM     17  C   UNL     1      -0.722  25.375  54.452  1.00  0.00     0.000 C 
BRANCH  17  18
ATOM     18  C   UNL     1      -0.635  23.932  54.986  1.00  0.00    -0.000 C 
BRANCH  18  19
ATOM     19  C   UNL     1      -1.729  22.975  54.471  1.00  0.00    -0.000 C 
BRANCH  19  20
ATOM     20  C   UNL     1      -2.375  22.083  55.548  1.00  0.00    -0.000 C 
BRANCH  20  21
ATOM     21  C   UNL     1      -3.852  22.403  55.860  1.00  0.00    -0.000 C 
BRANCH  21  22
ATOM     22  C   UNL     1      -4.376  23.720  55.262  1.00  0.00    -0.000 C 
BRANCH  22  23
ATOM     23  C   UNL     1      -5.409  24.416  56.164  1.00  0.00    -0.000 C 
BRANCH  23  24
ATOM     24  C   UNL     1      -5.560  23.726  57.529  1.00  0.00    -0.000 C 
BRANCH  24  25
ATOM     25  C   UNL     1      -6.645  24.372  58.402  1.00  0.00    -0.003 C 
ATOM     26  C   UNL     1      -6.826  25.847  58.051  1.00  0.00     0.004 C 
ENDBRANCH  24  25
ENDBRANCH  23  24
ENDBRANCH  22  23
ENDBRANCH  21  22
ENDBRANCH  20  21
ENDBRANCH  19  20
ENDBRANCH  18  19
ENDBRANCH  17  18
ENDBRANCH  16  17
ENDBRANCH  15  16
ENDBRANCH   1  15
TORSDOF 22
ENDMDL
MODEL 5
REMARK VINA RESULT:    -4.079      1.645      2.966
REMARK INTER + INTRA:         -13.233
REMARK INTER:                  -8.898
REMARK INTRA:                  -4.334
REMARK UNBOUND:                -3.907
REMARK SMILES CCCCCCCCCCCCCCCCCCCCCCCC(=O)[O-]
REMARK SMILES IDX 13 1 14 2 15 3 16 4 17 5 18 6 19 7 20 8 21 9 22 10 23 11
REMARK SMILES IDX 24 12 25 13 26 14 12 15 11 16 10 17 9 18 8 19 7 20 6 21 5 22
REMARK SMILES IDX 4 23 3 24 2 25 1 26
REMARK H PARENT
REMARK Flexibility Score: inf
ROOT
ATOM      1  C   UNL     1      -3.683  29.636  56.829  1.00  0.00     0.000 C 
ENDROOT
BRANCH   1   2
ATOM      2  C   UNL     1      -3.088  29.967  58.210  1.00  0.00     0.000 C 
BRANCH   2   3
ATOM      3  C   UNL     1      -1.551  30.020  58.199  1.00  0.00     0.000 C 
BRANCH   3   4
ATOM      4  C   UNL     1      -0.962  30.063  56.777  1.00  0.00     0.000 C 
BRANCH   4   5
ATOM      5  C   UNL     1      -0.456  31.443  56.317  1.00  0.00     0.000 C 
BRANCH   5   6
ATOM      6  C   UNL     1      -1.284  32.033  55.166  1.00  0.00     0.000 C 
BRANCH   6   7
ATOM      7  C   UNL     1      -1.644  30.951  54.137  1.00  0.00     0.000 C 
BRANCH   7   8
ATOM      8  C   UNL     1      -2.971  31.234  53.416  1.00  0.00     0.000 C 
BRANCH   8   9
ATOM      9  C   UNL     1      -3.898  32.157  54.223  1.00  0.00     0.000 C 
BRANCH   9  10
ATOM     10  C   UNL     1      -5.221  32.391  53.479  1.00  0.00     0.006 C 
BRANCH  10  11
ATOM     11  C   UNL     1      -6.361  32.779  54.431  1.00  0.00     0.053 C 
BRANCH  11  12
ATOM     12  C   UNL     1      -7.122  31.578  54.903  1.00  0.00     0.041 C 
ATOM     13  O   UNL     1      -7.102  30.511  54.236  1.00  0.00    -0.550 OA
ATOM     14  O   UNL     1      -7.881  31.649  56.064  1.00  0.00    -0.550 OA
ENDBRANCH  11  12
ENDBRANCH  10  11
ENDBRANCH   9  10
ENDBRANCH   8   9
ENDBRANCH   7   8
ENDBRANCH   6   7
ENDBRANCH   5   6
ENDBRANCH   4   5
ENDBRANCH   3   4
ENDBRANCH   2   3
ENDBRANCH   1   2
BRANCH   1  15
ATOM     15  C   UNL     1      -5.039  28.899  56.852  1.00  0.00     0.000 C 
BRANCH  15  16
ATOM     16  C   UNL     1      -5.261  27.892  55.709  1.00  0.00     0.000 C 
BRANCH  16  17
ATOM     17  C   UNL     1      -4.365  28.166  54.490  1.00  0.00     0.000 C 
BRANCH  17  18
ATOM     18  C   UNL     1      -3.374  27.022  54.206  1.00  0.00    -0.000 C 
BRANCH  18  19
ATOM     19  C   UNL     1      -2.105  27.019  55.084  1.00  0.00    -0.000 C 
BRANCH  19  20
ATOM     20  C   UNL     1      -1.554  25.623  55.430  1.00  0.00    -0.000 C 
BRANCH  20  21
ATOM     21  C   UNL     1      -1.695  25.215  56.911  1.00  0.00    -0.000 C 
BRANCH  21  22
ATOM     22  C   UNL     1      -3.062  25.523  57.547  1.00  0.00    -0.000 C 
BRANCH  22  23
ATOM     23  C   UNL     1      -2.947  26.333  58.849  1.00  0.00    -0.000 C 
BRANCH  23  24
ATOM     24  C   UNL     1      -4.279  26.417  59.611  1.00  0.00    -0.000 C 
BRANCH  24  25
ATOM     25  C   UNL     1      -5.461  25.869  58.799  1.00  0.00    -0.003 C 
ATOM     26  C   UNL     1      -6.744  25.867  59.627  1.00  0.00     0.004 C 
ENDBRANCH  24  25
ENDBRANCH  23  24
ENDBRANCH  22  23
ENDBRANCH  21  22
ENDBRANCH  20  21
ENDBRANCH  19  20
ENDBRANCH  18  19
ENDBRANCH  17  18
ENDBRANCH  16  17
ENDBRANCH  15  16
ENDBRANCH   1  15
TORSDOF 22
ENDMDL
MODEL 6
REMARK VINA RESULT:    -4.046      1.379      3.372
REMARK INTER + INTRA:         -13.156
REMARK INTER:                  -9.216
REMARK INTRA:                  -3.940
REMARK UNBOUND:                -3.907
REMARK SMILES CCCCCCCCCCCCCCCCCCCCCCCC(=O)[O-]
REMARK SMILES IDX 13 1 14 2 15 3 16 4 17 5 18 6 19 7 20 8 21 9 22 10 23 11
REMARK SMILES IDX 24 12 25 13 26 14 12 15 11 16 10 17 9 18 8 19 7 20 6 21 5 22
REMARK SMILES IDX 4 23 3 24 2 25 1 26
REMARK H PARENT
REMARK Flexibility Score: inf
ROOT
ATOM      1  C   UNL     1      -5.810  27.324  55.060  1.00  0.00     0.000 C 
ENDROOT
BRANCH   1   2
ATOM      2  C   UNL     1      -5.065  27.458  56.401  1.00  0.00     0.000 C 
BRANCH   2   3
ATOM      3  C   UNL     1      -3.551  27.219  56.268  1.00  0.00     0.000 C 
BRANCH   3   4
ATOM      4  C   UNL     1      -2.906  26.719  57.573  1.00  0.00     0.000 C 
BRANCH   4   5
ATOM      5  C   UNL     1      -3.440  27.371  58.862  1.00  0.00     0.000 C 
BRANCH   5   6
ATOM      6  C   UNL     1      -2.552  28.517  59.369  1.00  0.00     0.000 C 
BRANCH   6   7
ATOM      7  C   UNL     1      -2.958  29.852  58.728  1.00  0.00     0.000 C 
BRANCH   7   8
ATOM      8  C   UNL     1      -1.847  30.454  57.854  1.00  0.00     0.000 C 
BRANCH   8   9
ATOM      9  C   UNL     1      -2.269  30.613  56.385  1.00  0.00     0.000 C 
BRANCH   9  10
ATOM     10  C   UNL     1      -3.596  31.378  56.276  1.00  0.00     0.006 C 
BRANCH  10  11
ATOM     11  C   UNL     1      -4.494  30.826  55.161  1.00  0.00     0.053 C 
BRANCH  11  12
ATOM     12  C   UNL     1      -5.918  31.262  55.328  1.00  0.00     0.041 C 
ATOM     13  O   UNL     1      -6.637  30.750  56.225  1.00  0.00    -0.550 OA
ATOM     14  O   UNL     1      -6.459  32.212  54.472  1.00  0.00    -0.550 OA
ENDBRANCH  11  12
ENDBRANCH  10  11
ENDBRANCH   9  10
ENDBRANCH   8   9
ENDBRANCH   7   8
ENDBRANCH   6   7
ENDBRANCH   5   6
ENDBRANCH   4   5
ENDBRANCH   3   4
ENDBRANCH   2   3
ENDBRANCH   1   2
BRANCH   1  15
ATOM     15  C   UNL     1      -6.375  25.921  54.753  1.00  0.00     0.000 C 
BRANCH  15  16
ATOM     16  C   UNL     1      -5.521  25.060  53.805  1.00  0.00     0.000 C 
BRANCH  16  17
ATOM     17  C   UNL     1      -5.221  23.663  54.375  1.00  0.00     0.000 C 
BRANCH  17  18
ATOM     18  C   UNL     1      -3.969  23.638  55.271  1.00  0.00    -0.000 C 
BRANCH  18  19
ATOM     19  C   UNL     1      -4.246  23.664  56.788  1.00  0.00    -0.000 C 
BRANCH  19  20
ATOM     20  C   UNL     1      -5.728  23.522  57.183  1.00  0.00    -0.000 C 
BRANCH  20  21
ATOM     21  C   UNL     1      -6.174  24.401  58.370  1.00  0.00    -0.000 C 
BRANCH  21  22
ATOM     22  C   UNL     1      -7.436  25.245  58.119  1.00  0.00    -0.000 C 
BRANCH  22  23
ATOM     23  C   UNL     1      -7.562  26.433  59.088  1.00  0.00    -0.000 C 
BRANCH  23  24
ATOM     24  C   UNL     1      -7.928  25.995  60.515  1.00  0.00    -0.000 C 
BRANCH  24  25
ATOM     25  C   UNL     1      -6.826  26.318  61.534  1.00  0.00    -0.003 C 
ATOM     26  C   UNL     1      -7.279  25.989  62.955  1.00  0.00     0.004 C 
ENDBRANCH  24  25
ENDBRANCH  23  24
ENDBRANCH  22  23
ENDBRANCH  21  22
ENDBRANCH  20  21
ENDBRANCH  19  20
ENDBRANCH  18  19
ENDBRANCH  17  18
ENDBRANCH  16  17
ENDBRANCH  15  16
ENDBRANCH   1  15
TORSDOF 22
ENDMDL
MODEL 7
REMARK VINA RESULT:    -4.043      1.427      4.356
REMARK INTER + INTRA:         -13.149
REMARK INTER:                  -8.283
REMARK INTRA:                  -4.867
REMARK UNBOUND:                -3.907
REMARK SMILES CCCCCCCCCCCCCCCCCCCCCCCC(=O)[O-]
REMARK SMILES IDX 13 1 14 2 15 3 16 4 17 5 18 6 19 7 20 8 21 9 22 10 23 11
REMARK SMILES IDX 24 12 25 13 26 14 12 15 11 16 10 17 9 18 8 19 7 20 6 21 5 22
REMARK SMILES IDX 4 23 3 24 2 25 1 26
REMARK H PARENT
REMARK Flexibility Score: inf
ROOT
ATOM      1  C   UNL     1      -5.510  25.956  56.455  1.00  0.00     0.000 C 
ENDROOT
BRANCH   1   2
ATOM      2  C   UNL     1      -5.735  26.013  57.977  1.00  0.00     0.000 C 
BRANCH   2   3
ATOM      3  C   UNL     1      -4.524  25.505  58.778  1.00  0.00     0.000 C 
BRANCH   3   4
ATOM      4  C   UNL     1      -3.837  26.615  59.595  1.00  0.00     0.000 C 
BRANCH   4   5
ATOM      5  C   UNL     1      -2.602  27.250  58.930  1.00  0.00     0.000 C 
BRANCH   5   6
ATOM      6  C   UNL     1      -2.208  28.596  59.556  1.00  0.00     0.000 C 
BRANCH   6   7
ATOM      7  C   UNL     1      -2.806  29.767  58.761  1.00  0.00     0.000 C 
BRANCH   7   8
ATOM      8  C   UNL     1      -1.857  30.293  57.673  1.00  0.00     0.000 C 
BRANCH   8   9
ATOM      9  C   UNL     1      -2.592  31.073  56.573  1.00  0.00     0.000 C 
BRANCH   9  10
ATOM     10  C   UNL     1      -4.104  31.107  56.841  1.00  0.00     0.006 C 
BRANCH  10  11
ATOM     11  C   UNL     1      -4.896  31.630  55.636  1.00  0.00     0.053 C 
BRANCH  11  12
ATOM     12  C   UNL     1      -6.281  31.061  55.593  1.00  0.00     0.041 C 
ATOM     13  O   UNL     1      -7.075  31.250  56.551  1.00  0.00    -0.550 OA
ATOM     14  O   UNL     1      -6.684  30.294  54.507  1.00  0.00    -0.550 OA
ENDBRANCH  11  12
ENDBRANCH  10  11
ENDBRANCH   9  10
ENDBRANCH   8   9
ENDBRANCH   7   8
ENDBRANCH   6   7
ENDBRANCH   5   6
ENDBRANCH   4   5
ENDBRANCH   3   4
ENDBRANCH   2   3
ENDBRANCH   1   2
BRANCH   1  15
ATOM     15  C   UNL     1      -5.275  27.319  55.768  1.00  0.00     0.000 C 
BRANCH  15  16
ATOM     16  C   UNL     1      -3.803  27.756  55.658  1.00  0.00     0.000 C 
BRANCH  16  17
ATOM     17  C   UNL     1      -3.447  28.304  54.266  1.00  0.00     0.000 C 
BRANCH  17  18
ATOM     18  C   UNL     1      -1.949  28.166  53.933  1.00  0.00    -0.000 C 
BRANCH  18  19
ATOM     19  C   UNL     1      -1.047  27.770  55.120  1.00  0.00    -0.000 C 
BRANCH  19  20
ATOM     20  C   UNL     1      -0.471  26.342  55.054  1.00  0.00    -0.000 C 
BRANCH  20  21
ATOM     21  C   UNL     1      -0.763  25.463  56.288  1.00  0.00    -0.000 C 
BRANCH  21  22
ATOM     22  C   UNL     1      -2.015  24.576  56.176  1.00  0.00    -0.000 C 
BRANCH  22  23
ATOM     23  C   UNL     1      -2.426  24.304  54.718  1.00  0.00    -0.000 C 
BRANCH  23  24
ATOM     24  C   UNL     1      -3.637  23.362  54.613  1.00  0.00    -0.000 C 
BRANCH  24  25
ATOM     25  C   UNL     1      -4.689  23.861  53.612  1.00  0.00    -0.003 C 
ATOM     26  C   UNL     1      -4.144  25.013  52.771  1.00  0.00     0.004 C 
ENDBRANCH  24  25
ENDBRANCH  23  24
ENDBRANCH  22  23
ENDBRANCH  21  22
ENDBRANCH  20  21
ENDBRANCH  19  20
ENDBRANCH  18  19
ENDBRANCH  17  18
ENDBRANCH  16  17
ENDBRANCH  15  16
ENDBRANCH   1  15
TORSDOF 22
ENDMDL
MODEL 8
REMARK VINA RESULT:    -4.036      1.447      4.721
REMARK INTER + INTRA:         -13.133
REMARK INTER:                  -9.087
REMARK INTRA:                  -4.046
REMARK UNBOUND:                -3.907
REMARK SMILES CCCCCCCCCCCCCCCCCCCCCCCC(=O)[O-]
REMARK SMILES IDX 13 1 14 2 15 3 16 4 17 5 18 6 19 7 20 8 21 9 22 10 23 11
REMARK SMILES IDX 24 12 25 13 26 14 12 15 11 16 10 17 9 18 8 19 7 20 6 21 5 22
REMARK SMILES IDX 4 23 3 24 2 25 1 26
REMARK H PARENT
REMARK Flexibility Score: inf
ROOT
ATOM      1  C   UNL     1      -7.561  25.503  58.046  1.00  0.00     0.000 C 
ENDROOT
BRANCH   1   2
ATOM      2  C   UNL     1      -6.652  25.967  59.198  1.00  0.00     0.000 C 
BRANCH   2   3
ATOM      3  C   UNL     1      -5.178  25.580  58.987  1.00  0.00     0.000 C 
BRANCH   3   4
ATOM      4  C   UNL     1      -4.204  26.480  59.769  1.00  0.00     0.000 C 
BRANCH   4   5
ATOM      5  C   UNL     1      -2.999  27.001  58.964  1.00  0.00     0.000 C 
BRANCH   5   6
ATOM      6  C   UNL     1      -3.078  28.506  58.670  1.00  0.00     0.000 C 
BRANCH   6   7
ATOM      7  C   UNL     1      -3.444  28.760  57.199  1.00  0.00     0.000 C 
BRANCH   7   8
ATOM      8  C   UNL     1      -4.954  28.652  56.936  1.00  0.00     0.000 C 
BRANCH   8   9
ATOM      9  C   UNL     1      -5.325  28.971  55.479  1.00  0.00     0.000 C 
BRANCH   9  10
ATOM     10  C   UNL     1      -4.891  30.395  55.102  1.00  0.00     0.006 C 
BRANCH  10  11
ATOM     11  C   UNL     1      -5.640  31.463  55.908  1.00  0.00     0.053 C 
BRANCH  11  12
ATOM     12  C   UNL     1      -7.044  31.645  55.419  1.00  0.00     0.041 C 
ATOM     13  O   UNL     1      -8.014  31.520  56.211  1.00  0.00    -0.550 OA
ATOM     14  O   UNL     1      -7.283  31.921  54.078  1.00  0.00    -0.550 OA
ENDBRANCH  11  12
ENDBRANCH  10  11
ENDBRANCH   9  10
ENDBRANCH   8   9
ENDBRANCH   7   8
ENDBRANCH   6   7
ENDBRANCH   5   6
ENDBRANCH   4   5
ENDBRANCH   3   4
ENDBRANCH   2   3
ENDBRANCH   1   2
BRANCH   1  15
ATOM     15  C   UNL     1      -6.891  24.586  57.001  1.00  0.00     0.000 C 
BRANCH  15  16
ATOM     16  C   UNL     1      -6.350  25.299  55.749  1.00  0.00     0.000 C 
BRANCH  16  17
ATOM     17  C   UNL     1      -5.065  24.653  55.204  1.00  0.00     0.000 C 
BRANCH  17  18
ATOM     18  C   UNL     1      -3.786  25.356  55.696  1.00  0.00    -0.000 C 
BRANCH  18  19
ATOM     19  C   UNL     1      -2.544  24.449  55.820  1.00  0.00    -0.000 C 
BRANCH  19  20
ATOM     20  C   UNL     1      -1.333  25.093  56.520  1.00  0.00    -0.000 C 
BRANCH  20  21
ATOM     21  C   UNL     1      -0.828  26.402  55.880  1.00  0.00    -0.000 C 
BRANCH  21  22
ATOM     22  C   UNL     1      -0.236  26.253  54.468  1.00  0.00    -0.000 C 
BRANCH  22  23
ATOM     23  C   UNL     1      -1.076  26.959  53.390  1.00  0.00    -0.000 C 
BRANCH  23  24
ATOM     24  C   UNL     1      -2.048  27.992  53.983  1.00  0.00    -0.000 C 
BRANCH  24  25
ATOM     25  C   UNL     1      -1.453  29.406  54.030  1.00  0.00    -0.003 C 
ATOM     26  C   UNL     1      -1.767  30.177  52.750  1.00  0.00     0.004 C 
ENDBRANCH  24  25
ENDBRANCH  23  24
ENDBRANCH  22  23
ENDBRANCH  21  22
ENDBRANCH  20  21
ENDBRANCH  19  20
ENDBRANCH  18  19
ENDBRANCH  17  18
ENDBRANCH  16  17
ENDBRANCH  15  16
ENDBRANCH   1  15
TORSDOF 22
ENDMDL
MODEL 9
REMARK VINA RESULT:    -4.003      2.393      5.666
REMARK INTER + INTRA:         -13.057
REMARK INTER:                  -8.527
REMARK INTRA:                  -4.531
REMARK UNBOUND:                -3.907
REMARK SMILES CCCCCCCCCCCCCCCCCCCCCCCC(=O)[O-]
REMARK SMILES IDX 13 1 14 2 15 3 16 4 17 5 18 6 19 7 20 8 21 9 22 10 23 11
REMARK SMILES IDX 24 12 25 13 26 14 12 15 11 16 10 17 9 18 8 19 7 20 6 21 5 22
REMARK SMILES IDX 4 23 3 24 2 25 1 26
REMARK H PARENT
REMARK Flexibility Score: inf
ROOT
ATOM      1  C   UNL     1      -1.525  21.663  53.843  1.00  0.00     0.000 C 
ENDROOT
BRANCH   1   2
ATOM      2  C   UNL     1      -0.543  22.845  53.942  1.00  0.00     0.000 C 
BRANCH   2   3
ATOM      3  C   UNL     1      -1.182  24.187  53.546  1.00  0.00     0.000 C 
BRANCH   3   4
ATOM      4  C   UNL     1      -1.041  25.263  54.638  1.00  0.00     0.000 C 
BRANCH   4   5
ATOM      5  C   UNL     1      -0.867  24.726  56.071  1.00  0.00     0.000 C 
BRANCH   5   6
ATOM      6  C   UNL     1      -2.009  25.139  57.011  1.00  0.00     0.000 C 
BRANCH   6   7
ATOM      7  C   UNL     1      -1.853  26.602  57.455  1.00  0.00     0.000 C 
BRANCH   7   8
ATOM      8  C   UNL     1      -2.884  27.014  58.516  1.00  0.00     0.000 C 
BRANCH   8   9
ATOM      9  C   UNL     1      -3.880  25.890  58.841  1.00  0.00     0.000 C 
BRANCH   9  10
ATOM     10  C   UNL     1      -5.304  26.278  58.416  1.00  0.00     0.006 C 
BRANCH  10  11
ATOM     11  C   UNL     1      -6.246  25.068  58.368  1.00  0.00     0.053 C 
BRANCH  11  12
ATOM     12  C   UNL     1      -7.685  25.485  58.368  1.00  0.00     0.041 C 
ATOM     13  O   UNL     1      -8.153  26.148  59.329  1.00  0.00    -0.550 OA
ATOM     14  O   UNL     1      -8.517  25.112  57.320  1.00  0.00    -0.550 OA
ENDBRANCH  11  12
ENDBRANCH  10  11
ENDBRANCH   9  10
ENDBRANCH   8   9
ENDBRANCH   7   8
ENDBRANCH   6   7
ENDBRANCH   5   6
ENDBRANCH   4   5
ENDBRANCH   3   4
ENDBRANCH   2   3
ENDBRANCH   1   2
BRANCH   1  15
ATOM     15  C   UNL     1      -1.926  21.021  55.188  1.00  0.00     0.000 C 
BRANCH  15  16
ATOM     16  C   UNL     1      -3.194  21.598  55.842  1.00  0.00     0.000 C 
BRANCH  16  17
ATOM     17  C   UNL     1      -4.132  22.276  54.828  1.00  0.00     0.000 C 
BRANCH  17  18
ATOM     18  C   UNL     1      -4.833  23.522  55.401  1.00  0.00    -0.000 C 
BRANCH  18  19
ATOM     19  C   UNL     1      -4.727  24.792  54.533  1.00  0.00    -0.000 C 
BRANCH  19  20
ATOM     20  C   UNL     1      -5.978  25.690  54.534  1.00  0.00    -0.000 C 
BRANCH  20  21
ATOM     21  C   UNL     1      -5.732  27.153  54.960  1.00  0.00    -0.000 C 
BRANCH  21  22
ATOM     22  C   UNL     1      -4.256  27.588  54.976  1.00  0.00    -0.000 C 
BRANCH  22  23
ATOM     23  C   UNL     1      -4.083  29.108  55.135  1.00  0.00    -0.000 C 
BRANCH  23  24
ATOM     24  C   UNL     1      -2.614  29.518  55.324  1.00  0.00    -0.000 C 
BRANCH  24  25
ATOM     25  C   UNL     1      -2.404  30.422  56.548  1.00  0.00    -0.003 C 
ATOM     26  C   UNL     1      -3.658  30.468  57.418  1.00  0.00     0.004 C 
ENDBRANCH  24  25
ENDBRANCH  23  24
ENDBRANCH  22  23
ENDBRANCH  21  22
ENDBRANCH  20  21
ENDBRANCH  19  20
ENDBRANCH  18  19
ENDBRANCH  17  18
ENDBRANCH  16  17
ENDBRANCH  15  16
ENDBRANCH   1  15
TORSDOF 22
ENDMDL
