MODEL 1
REMARK VINA RESULT:    -5.421      0.000      0.000
REMARK INTER + INTRA:         -12.851
REMARK INTER:                 -10.492
REMARK INTRA:                  -2.359
REMARK UNBOUND:                -2.359
REMARK SMILES CCCCCCCCCCCCCCCCCC(=O)[O-]
REMARK SMILES IDX 10 1 11 2 12 3 13 4 14 5 15 6 16 7 17 8 18 9 19 10 20 11
REMARK SMILES IDX 9 12 8 13 7 14 6 15 5 16 4 17 3 18 2 19 1 20
REMARK H PARENT
REMARK Flexibility Score: inf
ROOT
ATOM      1  C   UNL     1      34.915  42.799  47.188  1.00  0.00     0.000 C 
ENDROOT
BRANCH   1   2
ATOM      2  C   UNL     1      35.263  44.288  47.356  1.00  0.00     0.000 C 
BRANCH   2   3
ATOM      3  C   UNL     1      34.335  45.009  48.349  1.00  0.00     0.000 C 
BRANCH   3   4
ATOM      4  C   UNL     1      35.061  45.433  49.635  1.00  0.00     0.000 C 
BRANCH   4   5
ATOM      5  C   UNL     1      34.512  44.730  50.887  1.00  0.00     0.000 C 
BRANCH   5   6
ATOM      6  C   UNL     1      35.628  43.975  51.625  1.00  0.00     0.000 C 
BRANCH   6   7
ATOM      7  C   UNL     1      36.244  42.846  50.778  1.00  0.00     0.006 C 
BRANCH   7   8
ATOM      8  C   UNL     1      37.780  42.874  50.706  1.00  0.00     0.053 C 
BRANCH   8   9
ATOM      9  C   UNL     1      38.305  42.024  49.591  1.00  0.00     0.041 C 
ATOM     10  O   UNL     1      37.934  42.232  48.406  1.00  0.00    -0.550 OA
ATOM     11  O   UNL     1      39.230  41.021  49.857  1.00  0.00    -0.550 OA
ENDBRANCH   8   9
ENDBRANCH   7   8
ENDBRANCH   6   7
ENDBRANCH   5   6
ENDBRANCH   4   5
ENDBRANCH   3   4
ENDBRANCH   2   3
ENDBRANCH   1   2
BRANCH   1  12
ATOM     12  C   UNL     1      33.633  42.335  47.909  1.00  0.00     0.000 C 
BRANCH  12  13
ATOM     13  C   UNL     1      32.768  41.331  47.126  1.00  0.00    -0.000 C 
BRANCH  13  14
ATOM     14  C   UNL     1      31.645  42.008  46.326  1.00  0.00    -0.000 C 
BRANCH  14  15
ATOM     15  C   UNL     1      31.256  43.352  46.953  1.00  0.00    -0.000 C 
BRANCH  15  16
ATOM     16  C   UNL     1      31.494  44.507  45.968  1.00  0.00    -0.000 C 
BRANCH  16  17
ATOM     17  C   UNL     1      32.031  44.028  44.610  1.00  0.00    -0.000 C 
BRANCH  17  18
ATOM     18  C   UNL     1      33.397  44.647  44.263  1.00  0.00    -0.000 C 
BRANCH  18  19
ATOM     19  C   UNL     1      33.335  45.550  43.021  1.00  0.00    -0.003 C 
ATOM     20  C   UNL     1      32.009  45.435  42.269  1.00  0.00     0.004 C 
ENDBRANCH  18  19
ENDBRANCH  17  18
ENDBRANCH  16  17
ENDBRANCH  15  16
ENDBRANCH  14  15
ENDBRANCH  13  14
ENDBRANCH  12  13
ENDBRANCH   1  12
TORSDOF 16
ENDMDL
MODEL 2
REMARK VINA RESULT:    -5.339      2.092      3.205
REMARK INTER + INTRA:         -12.691
REMARK INTER:                 -10.390
REMARK INTRA:                  -2.301
REMARK UNBOUND:                -2.359
REMARK SMILES CCCCCCCCCCCCCCCCCC(=O)[O-]
REMARK SMILES IDX 10 1 11 2 12 3 13 4 14 5 15 6 16 7 17 8 18 9 19 10 20 11
REMARK SMILES IDX 9 12 8 13 7 14 6 15 5 16 4 17 3 18 2 19 1 20
REMARK H PARENT
REMARK Flexibility Score: inf
ROOT
ATOM      1  C   UNL     1      35.330  44.359  46.609  1.00  0.00     0.000 C 
ENDROOT
BRANCH   1   2
ATOM      2  C   UNL     1      36.452  43.342  46.338  1.00  0.00     0.000 C 
BRANCH   2   3
ATOM      3  C   UNL     1      36.594  42.297  47.459  1.00  0.00     0.000 C 
BRANCH   3   4
ATOM      4  C   UNL     1      37.988  42.310  48.106  1.00  0.00     0.000 C 
BRANCH   4   5
ATOM      5  C   UNL     1      37.966  41.855  49.574  1.00  0.00     0.000 C 
BRANCH   5   6
ATOM      6  C   UNL     1      38.252  43.033  50.518  1.00  0.00     0.000 C 
BRANCH   6   7
ATOM      7  C   UNL     1      36.968  43.676  51.074  1.00  0.00     0.006 C 
BRANCH   7   8
ATOM      8  C   UNL     1      35.751  42.737  51.105  1.00  0.00     0.053 C 
BRANCH   8   9
ATOM      9  C   UNL     1      34.550  43.396  51.709  1.00  0.00     0.041 C 
ATOM     10  O   UNL     1      33.664  42.703  52.275  1.00  0.00    -0.550 OA
ATOM     11  O   UNL     1      34.424  44.780  51.674  1.00  0.00    -0.550 OA
ENDBRANCH   8   9
ENDBRANCH   7   8
ENDBRANCH   6   7
ENDBRANCH   5   6
ENDBRANCH   4   5
ENDBRANCH   3   4
ENDBRANCH   2   3
ENDBRANCH   1   2
BRANCH   1  12
ATOM     12  C   UNL     1      34.837  44.424  48.069  1.00  0.00     0.000 C 
BRANCH  12  13
ATOM     13  C   UNL     1      33.388  43.957  48.292  1.00  0.00    -0.000 C 
BRANCH  13  14
ATOM     14  C   UNL     1      33.261  42.429  48.384  1.00  0.00    -0.000 C 
BRANCH  14  15
ATOM     15  C   UNL     1      32.527  41.864  47.162  1.00  0.00    -0.000 C 
BRANCH  15  16
ATOM     16  C   UNL     1      31.395  42.803  46.718  1.00  0.00    -0.000 C 
BRANCH  16  17
ATOM     17  C   UNL     1      31.456  43.139  45.219  1.00  0.00    -0.000 C 
BRANCH  17  18
ATOM     18  C   UNL     1      32.063  44.527  44.949  1.00  0.00    -0.000 C 
BRANCH  18  19
ATOM     19  C   UNL     1      32.865  44.573  43.639  1.00  0.00    -0.003 C 
ATOM     20  C   UNL     1      32.204  45.441  42.568  1.00  0.00     0.004 C 
ENDBRANCH  18  19
ENDBRANCH  17  18
ENDBRANCH  16  17
ENDBRANCH  15  16
ENDBRANCH  14  15
ENDBRANCH  13  14
ENDBRANCH  12  13
ENDBRANCH   1  12
TORSDOF 16
ENDMDL
MODEL 3
REMARK VINA RESULT:    -5.317      3.057      6.973
REMARK INTER + INTRA:         -12.649
REMARK INTER:                 -10.258
REMARK INTRA:                  -2.391
REMARK UNBOUND:                -2.359
REMARK SMILES CCCCCCCCCCCCCCCCCC(=O)[O-]
REMARK SMILES IDX 10 1 11 2 12 3 13 4 14 5 15 6 16 7 17 8 18 9 19 10 20 11
REMARK SMILES IDX 9 12 8 13 7 14 6 15 5 16 4 17 3 18 2 19 1 20
REMARK H PARENT
REMARK Flexibility Score: inf
ROOT
ATOM      1  C   UNL     1      35.317  44.297  46.543  1.00  0.00     0.000 C 
ENDROOT
BRANCH   1   2
ATOM      2  C   UNL     1      34.963  44.522  48.024  1.00  0.00     0.000 C 
BRANCH   2   3
ATOM      3  C   UNL     1      33.484  44.232  48.334  1.00  0.00     0.000 C 
BRANCH   3   4
ATOM      4  C   UNL     1      33.218  42.742  48.602  1.00  0.00     0.000 C 
BRANCH   4   5
ATOM      5  C   UNL     1      32.514  42.043  47.427  1.00  0.00     0.000 C 
BRANCH   5   6
ATOM      6  C   UNL     1      31.463  42.965  46.792  1.00  0.00     0.000 C 
BRANCH   6   7
ATOM      7  C   UNL     1      31.692  43.181  45.285  1.00  0.00     0.006 C 
BRANCH   7   8
ATOM      8  C   UNL     1      32.116  44.609  44.906  1.00  0.00     0.053 C 
BRANCH   8   9
ATOM      9  C   UNL     1      32.471  44.723  43.456  1.00  0.00     0.041 C 
ATOM     10  O   UNL     1      31.983  43.919  42.619  1.00  0.00    -0.550 OA
ATOM     11  O   UNL     1      33.314  45.740  43.024  1.00  0.00    -0.550 OA
ENDBRANCH   8   9
ENDBRANCH   7   8
ENDBRANCH   6   7
ENDBRANCH   5   6
ENDBRANCH   4   5
ENDBRANCH   3   4
ENDBRANCH   2   3
ENDBRANCH   1   2
BRANCH   1  12
ATOM     12  C   UNL     1      36.372  43.205  46.275  1.00  0.00     0.000 C 
BRANCH  12  13
ATOM     13  C   UNL     1      36.654  42.264  47.461  1.00  0.00    -0.000 C 
BRANCH  13  14
ATOM     14  C   UNL     1      38.062  42.448  48.046  1.00  0.00    -0.000 C 
BRANCH  14  15
ATOM     15  C   UNL     1      38.273  41.542  49.266  1.00  0.00    -0.000 C 
BRANCH  15  16
ATOM     16  C   UNL     1      38.585  42.372  50.520  1.00  0.00    -0.000 C 
BRANCH  16  17
ATOM     17  C   UNL     1      37.466  43.367  50.867  1.00  0.00    -0.000 C 
BRANCH  17  18
ATOM     18  C   UNL     1      36.103  42.679  51.061  1.00  0.00    -0.000 C 
BRANCH  18  19
ATOM     19  C   UNL     1      35.124  43.534  51.880  1.00  0.00    -0.003 C 
ATOM     20  C   UNL     1      35.327  45.034  51.671  1.00  0.00     0.004 C 
ENDBRANCH  18  19
ENDBRANCH  17  18
ENDBRANCH  16  17
ENDBRANCH  15  16
ENDBRANCH  14  15
ENDBRANCH  13  14
ENDBRANCH  12  13
ENDBRANCH   1  12
TORSDOF 16
ENDMDL
MODEL 4
REMARK VINA RESULT:    -5.210      1.264      3.101
REMARK INTER + INTRA:         -12.442
REMARK INTER:                 -10.032
REMARK INTRA:                  -2.410
REMARK UNBOUND:                -2.359
REMARK SMILES CCCCCCCCCCCCCCCCCC(=O)[O-]
REMARK SMILES IDX 10 1 11 2 12 3 13 4 14 5 15 6 16 7 17 8 18 9 19 10 20 11
REMARK SMILES IDX 9 12 8 13 7 14 6 15 5 16 4 17 3 18 2 19 1 20
REMARK H PARENT
REMARK Flexibility Score: inf
ROOT
ATOM      1  C   UNL     1      31.901  42.619  47.721  1.00  0.00     0.000 C 
ENDROOT
BRANCH   1   2
ATOM      2  C   UNL     1      33.223  42.339  48.458  1.00  0.00     0.000 C 
BRANCH   2   3
ATOM      3  C   UNL     1      33.378  43.172  49.742  1.00  0.00     0.000 C 
BRANCH   3   4
ATOM      4  C   UNL     1      34.080  44.516  49.495  1.00  0.00     0.000 C 
BRANCH   4   5
ATOM      5  C   UNL     1      35.528  44.535  50.010  1.00  0.00     0.000 C 
BRANCH   5   6
ATOM      6  C   UNL     1      35.708  43.548  51.174  1.00  0.00     0.000 C 
BRANCH   6   7
ATOM      7  C   UNL     1      36.707  42.422  50.852  1.00  0.00     0.006 C 
BRANCH   7   8
ATOM      8  C   UNL     1      38.176  42.876  50.798  1.00  0.00     0.053 C 
BRANCH   8   9
ATOM      9  C   UNL     1      39.119  41.714  50.731  1.00  0.00     0.041 C 
ATOM     10  O   UNL     1      39.143  40.975  49.712  1.00  0.00    -0.550 OA
ATOM     11  O   UNL     1      39.995  41.468  51.781  1.00  0.00    -0.550 OA
ENDBRANCH   8   9
ENDBRANCH   7   8
ENDBRANCH   6   7
ENDBRANCH   5   6
ENDBRANCH   4   5
ENDBRANCH   3   4
ENDBRANCH   2   3
ENDBRANCH   1   2
BRANCH   1  12
ATOM     12  C   UNL     1      31.858  42.165  46.248  1.00  0.00     0.000 C 
BRANCH  12  13
ATOM     13  C   UNL     1      31.162  43.141  45.282  1.00  0.00    -0.000 C 
BRANCH  13  14
ATOM     14  C   UNL     1      31.917  44.470  45.130  1.00  0.00    -0.000 C 
BRANCH  14  15
ATOM     15  C   UNL     1      32.817  44.452  43.888  1.00  0.00    -0.000 C 
BRANCH  15  16
ATOM     16  C   UNL     1      34.298  44.568  44.280  1.00  0.00    -0.000 C 
BRANCH  16  17
ATOM     17  C   UNL     1      34.497  44.803  45.786  1.00  0.00    -0.000 C 
BRANCH  17  18
ATOM     18  C   UNL     1      35.883  44.349  46.277  1.00  0.00    -0.000 C 
BRANCH  18  19
ATOM     19  C   UNL     1      36.005  42.820  46.360  1.00  0.00    -0.003 C 
ATOM     20  C   UNL     1      37.078  42.363  47.349  1.00  0.00     0.004 C 
ENDBRANCH  18  19
ENDBRANCH  17  18
ENDBRANCH  16  17
ENDBRANCH  15  16
ENDBRANCH  14  15
ENDBRANCH  13  14
ENDBRANCH  12  13
ENDBRANCH   1  12
TORSDOF 16
ENDMDL
MODEL 5
REMARK VINA RESULT:    -5.194      1.398      4.388
REMARK INTER + INTRA:         -12.412
REMARK INTER:                  -9.892
REMARK INTRA:                  -2.519
REMARK UNBOUND:                -2.359
REMARK SMILES CCCCCCCCCCCCCCCCCC(=O)[O-]
REMARK SMILES IDX 10 1 11 2 12 3 13 4 14 5 15 6 16 7 17 8 18 9 19 10 20 11
REMARK SMILES IDX 9 12 8 13 7 14 6 15 5 16 4 17 3 18 2 19 1 20
REMARK H PARENT
REMARK Flexibility Score: inf
ROOT
ATOM      1  C   UNL     1      33.446  44.992  43.780  1.00  0.00     0.000 C 
ENDROOT
BRANCH   1   2
ATOM      2  C   UNL     1      34.725  44.399  44.398  1.00  0.00     0.000 C 
BRANCH   2   3
ATOM      3  C   UNL     1      34.994  44.915  45.823  1.00  0.00     0.000 C 
BRANCH   3   4
ATOM      4  C   UNL     1      36.185  44.211  46.491  1.00  0.00     0.000 C 
BRANCH   4   5
ATOM      5  C   UNL     1      36.084  42.678  46.424  1.00  0.00     0.000 C 
BRANCH   5   6
ATOM      6  C   UNL     1      36.463  42.045  47.771  1.00  0.00     0.000 C 
BRANCH   6   7
ATOM      7  C   UNL     1      37.863  42.464  48.254  1.00  0.00     0.006 C 
BRANCH   7   8
ATOM      8  C   UNL     1      38.599  41.389  49.072  1.00  0.00     0.053 C 
BRANCH   8   9
ATOM      9  C   UNL     1      38.699  41.757  50.520  1.00  0.00     0.041 C 
ATOM     10  O   UNL     1      38.640  40.865  51.406  1.00  0.00    -0.550 OA
ATOM     11  O   UNL     1      38.891  43.083  50.889  1.00  0.00    -0.550 OA
ENDBRANCH   8   9
ENDBRANCH   7   8
ENDBRANCH   6   7
ENDBRANCH   5   6
ENDBRANCH   4   5
ENDBRANCH   3   4
ENDBRANCH   2   3
ENDBRANCH   1   2
BRANCH   1  12
ATOM     12  C   UNL     1      32.150  44.208  44.068  1.00  0.00     0.000 C 
BRANCH  12  13
ATOM     13  C   UNL     1      31.787  44.069  45.558  1.00  0.00    -0.000 C 
BRANCH  13  14
ATOM     14  C   UNL     1      31.723  42.607  46.022  1.00  0.00    -0.000 C 
BRANCH  14  15
ATOM     15  C   UNL     1      32.445  42.423  47.363  1.00  0.00    -0.000 C 
BRANCH  15  16
ATOM     16  C   UNL     1      32.316  43.682  48.234  1.00  0.00    -0.000 C 
BRANCH  16  17
ATOM     17  C   UNL     1      33.564  43.940  49.094  1.00  0.00    -0.000 C 
BRANCH  17  18
ATOM     18  C   UNL     1      33.800  42.834  50.138  1.00  0.00    -0.000 C 
BRANCH  18  19
ATOM     19  C   UNL     1      35.064  43.080  50.977  1.00  0.00    -0.003 C 
ATOM     20  C   UNL     1      35.688  44.452  50.724  1.00  0.00     0.004 C 
ENDBRANCH  18  19
ENDBRANCH  17  18
ENDBRANCH  16  17
ENDBRANCH  15  16
ENDBRANCH  14  15
ENDBRANCH  13  14
ENDBRANCH  12  13
ENDBRANCH   1  12
TORSDOF 16
ENDMDL
MODEL 6
REMARK VINA RESULT:    -5.166      2.058      6.030
REMARK INTER + INTRA:         -12.358
REMARK INTER:                 -10.656
REMARK INTRA:                  -1.702
REMARK UNBOUND:                -2.359
REMARK SMILES CCCCCCCCCCCCCCCCCC(=O)[O-]
REMARK SMILES IDX 10 1 11 2 12 3 13 4 14 5 15 6 16 7 17 8 18 9 19 10 20 11
REMARK SMILES IDX 9 12 8 13 7 14 6 15 5 16 4 17 3 18 2 19 1 20
REMARK H PARENT
REMARK Flexibility Score: inf
ROOT
ATOM      1  C   UNL     1      32.885  44.569  44.120  1.00  0.00     0.000 C 
ENDROOT
BRANCH   1   2
ATOM      2  C   UNL     1      31.927  44.375  45.308  1.00  0.00     0.000 C 
BRANCH   2   3
ATOM      3  C   UNL     1      31.343  42.953  45.378  1.00  0.00     0.000 C 
BRANCH   3   4
ATOM      4  C   UNL     1      31.937  42.126  46.529  1.00  0.00     0.000 C 
BRANCH   4   5
ATOM      5  C   UNL     1      31.899  42.868  47.875  1.00  0.00     0.000 C 
BRANCH   5   6
ATOM      6  C   UNL     1      33.110  42.490  48.742  1.00  0.00     0.000 C 
BRANCH   6   7
ATOM      7  C   UNL     1      33.102  43.189  50.114  1.00  0.00     0.006 C 
BRANCH   7   8
ATOM      8  C   UNL     1      34.373  42.959  50.949  1.00  0.00     0.053 C 
BRANCH   8   9
ATOM      9  C   UNL     1      35.066  44.244  51.281  1.00  0.00     0.041 C 
ATOM     10  O   UNL     1      34.558  45.344  50.941  1.00  0.00    -0.550 OA
ATOM     11  O   UNL     1      36.259  44.227  51.994  1.00  0.00    -0.550 OA
ENDBRANCH   8   9
ENDBRANCH   7   8
ENDBRANCH   6   7
ENDBRANCH   5   6
ENDBRANCH   4   5
ENDBRANCH   3   4
ENDBRANCH   2   3
ENDBRANCH   1   2
BRANCH   1  12
ATOM     12  C   UNL     1      34.369  44.760  44.493  1.00  0.00     0.000 C 
BRANCH  12  13
ATOM     13  C   UNL     1      34.725  44.427  45.953  1.00  0.00    -0.000 C 
BRANCH  13  14
ATOM     14  C   UNL     1      36.179  43.965  46.122  1.00  0.00    -0.000 C 
BRANCH  14  15
ATOM     15  C   UNL     1      36.243  42.566  46.748  1.00  0.00    -0.000 C 
BRANCH  15  16
ATOM     16  C   UNL     1      36.594  42.647  48.241  1.00  0.00    -0.000 C 
BRANCH  16  17
ATOM     17  C   UNL     1      37.993  42.091  48.553  1.00  0.00    -0.000 C 
BRANCH  17  18
ATOM     18  C   UNL     1      38.459  42.429  49.981  1.00  0.00    -0.000 C 
BRANCH  18  19
ATOM     19  C   UNL     1      38.827  41.177  50.791  1.00  0.00    -0.003 C 
ATOM     20  C   UNL     1      39.927  41.438  51.820  1.00  0.00     0.004 C 
ENDBRANCH  18  19
ENDBRANCH  17  18
ENDBRANCH  16  17
ENDBRANCH  15  16
ENDBRANCH  14  15
ENDBRANCH  13  14
ENDBRANCH  12  13
ENDBRANCH   1  12
TORSDOF 16
ENDMDL
MODEL 7
REMARK VINA RESULT:    -5.057      1.235      2.581
REMARK INTER + INTRA:         -12.147
REMARK INTER:                  -9.582
REMARK INTRA:                  -2.565
REMARK UNBOUND:                -2.359
REMARK SMILES CCCCCCCCCCCCCCCCCC(=O)[O-]
REMARK SMILES IDX 10 1 11 2 12 3 13 4 14 5 15 6 16 7 17 8 18 9 19 10 20 11
REMARK SMILES IDX 9 12 8 13 7 14 6 15 5 16 4 17 3 18 2 19 1 20
REMARK H PARENT
REMARK Flexibility Score: inf
ROOT
ATOM      1  C   UNL     1      34.415  44.231  50.257  1.00  0.00     0.000 C 
ENDROOT
BRANCH   1   2
ATOM      2  C   UNL     1      34.927  45.244  49.217  1.00  0.00     0.000 C 
BRANCH   2   3
ATOM      3  C   UNL     1      34.533  44.871  47.777  1.00  0.00     0.000 C 
BRANCH   3   4
ATOM      4  C   UNL     1      35.750  44.549  46.896  1.00  0.00     0.000 C 
BRANCH   4   5
ATOM      5  C   UNL     1      35.727  43.111  46.353  1.00  0.00     0.000 C 
BRANCH   5   6
ATOM      6  C   UNL     1      36.214  42.116  47.418  1.00  0.00     0.000 C 
BRANCH   6   7
ATOM      7  C   UNL     1      37.574  42.508  48.023  1.00  0.00     0.006 C 
BRANCH   7   8
ATOM      8  C   UNL     1      37.628  42.438  49.558  1.00  0.00     0.053 C 
BRANCH   8   9
ATOM      9  C   UNL     1      38.789  41.625  50.042  1.00  0.00     0.041 C 
ATOM     10  O   UNL     1      39.250  41.804  51.199  1.00  0.00    -0.550 OA
ATOM     11  O   UNL     1      39.340  40.645  49.224  1.00  0.00    -0.550 OA
ENDBRANCH   8   9
ENDBRANCH   7   8
ENDBRANCH   6   7
ENDBRANCH   5   6
ENDBRANCH   4   5
ENDBRANCH   3   4
ENDBRANCH   2   3
ENDBRANCH   1   2
BRANCH   1  12
ATOM     12  C   UNL     1      33.534  43.097  49.694  1.00  0.00     0.000 C 
BRANCH  12  13
ATOM     13  C   UNL     1      32.017  43.357  49.751  1.00  0.00    -0.000 C 
BRANCH  13  14
ATOM     14  C   UNL     1      31.300  42.990  48.444  1.00  0.00    -0.000 C 
BRANCH  14  15
ATOM     15  C   UNL     1      32.219  42.183  47.519  1.00  0.00    -0.000 C 
BRANCH  15  16
ATOM     16  C   UNL     1      31.821  42.373  46.047  1.00  0.00    -0.000 C 
BRANCH  16  17
ATOM     17  C   UNL     1      32.132  43.784  45.525  1.00  0.00    -0.000 C 
BRANCH  17  18
ATOM     18  C   UNL     1      31.734  43.970  44.049  1.00  0.00    -0.000 C 
BRANCH  18  19
ATOM     19  C   UNL     1      32.560  45.061  43.351  1.00  0.00    -0.003 C 
ATOM     20  C   UNL     1      34.018  45.087  43.810  1.00  0.00     0.004 C 
ENDBRANCH  18  19
ENDBRANCH  17  18
ENDBRANCH  16  17
ENDBRANCH  15  16
ENDBRANCH  14  15
ENDBRANCH  13  14
ENDBRANCH  12  13
ENDBRANCH   1  12
TORSDOF 16
ENDMDL
MODEL 8
REMARK VINA RESULT:    -5.046      2.851      6.962
REMARK INTER + INTRA:         -12.126
REMARK INTER:                  -9.918
REMARK INTRA:                  -2.207
REMARK UNBOUND:                -2.359
REMARK SMILES CCCCCCCCCCCCCCCCCC(=O)[O-]
REMARK SMILES IDX 10 1 11 2 12 3 13 4 14 5 15 6 16 7 17 8 18 9 19 10 20 11
REMARK SMILES IDX 9 12 8 13 7 14 6 15 5 16 4 17 3 18 2 19 1 20
REMARK H PARENT
REMARK Flexibility Score: inf
ROOT
ATOM      1  C   UNL     1      35.761  42.346  47.089  1.00  0.00     0.000 C 
ENDROOT
BRANCH   1   2
ATOM      2  C   UNL     1      36.237  43.468  46.149  1.00  0.00     0.000 C 
BRANCH   2   3
ATOM      3  C   UNL     1      35.178  44.566  45.947  1.00  0.00     0.000 C 
BRANCH   3   4
ATOM      4  C   UNL     1      34.600  44.575  44.523  1.00  0.00     0.000 C 
BRANCH   4   5
ATOM      5  C   UNL     1      33.094  44.887  44.495  1.00  0.00     0.000 C 
BRANCH   5   6
ATOM      6  C   UNL     1      32.267  43.610  44.705  1.00  0.00     0.000 C 
BRANCH   6   7
ATOM      7  C   UNL     1      31.033  43.840  45.597  1.00  0.00     0.006 C 
BRANCH   7   8
ATOM      8  C   UNL     1      31.348  44.466  46.965  1.00  0.00     0.053 C 
BRANCH   8   9
ATOM      9  C   UNL     1      30.606  43.789  48.076  1.00  0.00     0.041 C 
ATOM     10  O   UNL     1      30.649  42.537  48.197  1.00  0.00    -0.550 OA
ATOM     11  O   UNL     1      29.893  44.546  48.998  1.00  0.00    -0.550 OA
ENDBRANCH   8   9
ENDBRANCH   7   8
ENDBRANCH   6   7
ENDBRANCH   5   6
ENDBRANCH   4   5
ENDBRANCH   3   4
ENDBRANCH   2   3
ENDBRANCH   1   2
BRANCH   1  12
ATOM     12  C   UNL     1      34.282  42.429  47.519  1.00  0.00     0.000 C 
BRANCH  12  13
ATOM     13  C   UNL     1      34.049  42.559  49.035  1.00  0.00    -0.000 C 
BRANCH  13  14
ATOM     14  C   UNL     1      34.530  43.904  49.600  1.00  0.00    -0.000 C 
BRANCH  14  15
ATOM     15  C   UNL     1      35.053  43.743  51.033  1.00  0.00    -0.000 C 
BRANCH  15  16
ATOM     16  C   UNL     1      36.155  42.674  51.099  1.00  0.00    -0.000 C 
BRANCH  16  17
ATOM     17  C   UNL     1      37.532  43.214  50.682  1.00  0.00    -0.000 C 
BRANCH  17  18
ATOM     18  C   UNL     1      38.195  42.360  49.587  1.00  0.00    -0.000 C 
BRANCH  18  19
ATOM     19  C   UNL     1      38.979  41.170  50.164  1.00  0.00    -0.003 C 
ATOM     20  C   UNL     1      39.710  41.514  51.462  1.00  0.00     0.004 C 
ENDBRANCH  18  19
ENDBRANCH  17  18
ENDBRANCH  16  17
ENDBRANCH  15  16
ENDBRANCH  14  15
ENDBRANCH  13  14
ENDBRANCH  12  13
ENDBRANCH   1  12
TORSDOF 16
ENDMDL
MODEL 9
REMARK VINA RESULT:    -5.015      2.972      6.519
REMARK INTER + INTRA:         -12.065
REMARK INTER:                  -9.533
REMARK INTRA:                  -2.532
REMARK UNBOUND:                -2.359
REMARK SMILES CCCCCCCCCCCCCCCCCC(=O)[O-]
REMARK SMILES IDX 10 1 11 2 12 3 13 4 14 5 15 6 16 7 17 8 18 9 19 10 20 11
REMARK SMILES IDX 9 12 8 13 7 14 6 15 5 16 4 17 3 18 2 19 1 20
REMARK H PARENT
REMARK Flexibility Score: inf
ROOT
ATOM      1  C   UNL     1      34.085  42.351  50.204  1.00  0.00     0.000 C 
ENDROOT
BRANCH   1   2
ATOM      2  C   UNL     1      33.123  43.536  50.006  1.00  0.00     0.000 C 
BRANCH   2   3
ATOM      3  C   UNL     1      32.156  43.328  48.827  1.00  0.00     0.000 C 
BRANCH   3   4
ATOM      4  C   UNL     1      32.576  42.163  47.917  1.00  0.00     0.000 C 
BRANCH   4   5
ATOM      5  C   UNL     1      31.910  42.221  46.532  1.00  0.00     0.000 C 
BRANCH   5   6
ATOM      6  C   UNL     1      31.050  43.487  46.391  1.00  0.00     0.000 C 
BRANCH   6   7
ATOM      7  C   UNL     1      31.660  44.517  45.422  1.00  0.00     0.006 C 
BRANCH   7   8
ATOM      8  C   UNL     1      32.304  43.903  44.168  1.00  0.00     0.053 C 
BRANCH   8   9
ATOM      9  C   UNL     1      32.635  44.942  43.142  1.00  0.00     0.041 C 
ATOM     10  O   UNL     1      33.635  45.691  43.299  1.00  0.00    -0.550 OA
ATOM     11  O   UNL     1      31.858  45.062  41.996  1.00  0.00    -0.550 OA
ENDBRANCH   8   9
ENDBRANCH   7   8
ENDBRANCH   6   7
ENDBRANCH   5   6
ENDBRANCH   4   5
ENDBRANCH   3   4
ENDBRANCH   2   3
ENDBRANCH   1   2
BRANCH   1  12
ATOM     12  C   UNL     1      35.256  42.607  51.176  1.00  0.00     0.000 C 
BRANCH  12  13
ATOM     13  C   UNL     1      36.365  43.526  50.634  1.00  0.00    -0.000 C 
BRANCH  13  14
ATOM     14  C   UNL     1      37.775  42.976  50.895  1.00  0.00    -0.000 C 
BRANCH  14  15
ATOM     15  C   UNL     1      38.501  42.676  49.577  1.00  0.00    -0.000 C 
BRANCH  15  16
ATOM     16  C   UNL     1      37.595  41.889  48.618  1.00  0.00    -0.000 C 
BRANCH  16  17
ATOM     17  C   UNL     1      37.416  42.590  47.262  1.00  0.00    -0.000 C 
BRANCH  17  18
ATOM     18  C   UNL     1      35.978  42.477  46.724  1.00  0.00    -0.000 C 
BRANCH  18  19
ATOM     19  C   UNL     1      35.448  43.812  46.178  1.00  0.00    -0.003 C 
ATOM     20  C   UNL     1      35.127  44.819  47.283  1.00  0.00     0.004 C 
ENDBRANCH  18  19
ENDBRANCH  17  18
ENDBRANCH  16  17
ENDBRANCH  15  16
ENDBRANCH  14  15
ENDBRANCH  13  14
ENDBRANCH  12  13
ENDBRANCH   1  12
TORSDOF 16
ENDMDL
