MODEL 1
REMARK VINA RESULT:    -6.560      0.000      0.000
REMARK INTER + INTRA:         -17.973
REMARK INTER:                 -14.997
REMARK INTRA:                  -2.977
REMARK UNBOUND:                -2.977
REMARK SMILES CCCCCCCCCCCCCCCCCCCCCCCC(=O)[O-]
REMARK SMILES IDX 13 1 14 2 15 3 16 4 17 5 18 6 19 7 20 8 21 9 22 10 23 11
REMARK SMILES IDX 24 12 25 13 26 14 12 15 11 16 10 17 9 18 8 19 7 20 6 21 5 22
REMARK SMILES IDX 4 23 3 24 2 25 1 26
REMARK H PARENT
REMARK Flexibility Score: inf
ROOT
ATOM      1  C   UNL     1      94.113  -5.041  10.124  1.00  0.00     0.000 C 
ENDROOT
BRANCH   1   2
ATOM      2  C   UNL     1      95.519  -4.817  10.719  1.00  0.00     0.000 C 
BRANCH   2   3
ATOM      3  C   UNL     1      95.885  -3.345  10.995  1.00  0.00     0.000 C 
BRANCH   3   4
ATOM      4  C   UNL     1      97.014  -2.781  10.115  1.00  0.00     0.000 C 
BRANCH   4   5
ATOM      5  C   UNL     1      97.275  -3.638   8.863  1.00  0.00     0.000 C 
BRANCH   5   6
ATOM      6  C   UNL     1      96.908  -2.907   7.562  1.00  0.00     0.000 C 
BRANCH   6   7
ATOM      7  C   UNL     1      98.147  -2.413   6.793  1.00  0.00     0.000 C 
BRANCH   7   8
ATOM      8  C   UNL     1      99.277  -3.455   6.763  1.00  0.00     0.000 C 
BRANCH   8   9
ATOM      9  C   UNL     1      99.182  -4.392   5.548  1.00  0.00     0.000 C 
BRANCH   9  10
ATOM     10  C   UNL     1      98.989  -5.867   5.948  1.00  0.00     0.006 C 
BRANCH  10  11
ATOM     11  C   UNL     1      97.537  -6.365   5.856  1.00  0.00     0.053 C 
BRANCH  11  12
ATOM     12  C   UNL     1      97.382  -7.467   4.854  1.00  0.00     0.041 C 
ATOM     13  O   UNL     1      97.515  -7.230   3.625  1.00  0.00    -0.550 OA
ATOM     14  O   UNL     1      97.075  -8.755   5.278  1.00  0.00    -0.550 OA
ENDBRANCH  11  12
ENDBRANCH  10  11
ENDBRANCH   9  10
ENDBRANCH   8   9
ENDBRANCH   7   8
ENDBRANCH   6   7
ENDBRANCH   5   6
ENDBRANCH   4   5
ENDBRANCH   3   4
ENDBRANCH   2   3
ENDBRANCH   1   2
BRANCH   1  15
ATOM     15  C   UNL     1      93.438  -3.779   9.555  1.00  0.00     0.000 C 
BRANCH  15  16
ATOM     16  C   UNL     1      93.247  -3.776   8.026  1.00  0.00     0.000 C 
BRANCH  16  17
ATOM     17  C   UNL     1      92.629  -2.472   7.478  1.00  0.00     0.000 C 
BRANCH  17  18
ATOM     18  C   UNL     1      93.600  -1.695   6.571  1.00  0.00    -0.000 C 
BRANCH  18  19
ATOM     19  C   UNL     1      92.881  -0.712   5.633  1.00  0.00    -0.000 C 
BRANCH  19  20
ATOM     20  C   UNL     1      91.461  -0.369   6.115  1.00  0.00    -0.000 C 
BRANCH  20  21
ATOM     21  C   UNL     1      90.404  -0.499   5.003  1.00  0.00    -0.000 C 
BRANCH  21  22
ATOM     22  C   UNL     1      89.289  -1.529   5.274  1.00  0.00    -0.000 C 
BRANCH  22  23
ATOM     23  C   UNL     1      89.701  -3.002   5.082  1.00  0.00    -0.000 C 
BRANCH  23  24
ATOM     24  C   UNL     1      89.448  -3.914   6.298  1.00  0.00    -0.000 C 
BRANCH  24  25
ATOM     25  C   UNL     1      90.278  -5.210   6.319  1.00  0.00    -0.003 C 
ATOM     26  C   UNL     1      90.987  -5.484   4.993  1.00  0.00     0.004 C 
ENDBRANCH  24  25
ENDBRANCH  23  24
ENDBRANCH  22  23
ENDBRANCH  21  22
ENDBRANCH  20  21
ENDBRANCH  19  20
ENDBRANCH  18  19
ENDBRANCH  17  18
ENDBRANCH  16  17
ENDBRANCH  15  16
ENDBRANCH   1  15
TORSDOF 22
ENDMDL
MODEL 2
REMARK VINA RESULT:    -6.430      8.587     14.177
REMARK INTER + INTRA:         -17.677
REMARK INTER:                 -14.525
REMARK INTRA:                  -3.151
REMARK UNBOUND:                -2.977
REMARK SMILES CCCCCCCCCCCCCCCCCCCCCCCC(=O)[O-]
REMARK SMILES IDX 13 1 14 2 15 3 16 4 17 5 18 6 19 7 20 8 21 9 22 10 23 11
REMARK SMILES IDX 24 12 25 13 26 14 12 15 11 16 10 17 9 18 8 19 7 20 6 21 5 22
REMARK SMILES IDX 4 23 3 24 2 25 1 26
REMARK H PARENT
REMARK Flexibility Score: inf
ROOT
ATOM      1  C   UNL     1      82.467  -4.005   2.646  1.00  0.00     0.000 C 
ENDROOT
BRANCH   1   2
ATOM      2  C   UNL     1      81.067  -3.363   2.755  1.00  0.00     0.000 C 
BRANCH   2   3
ATOM      3  C   UNL     1      80.485  -2.832   1.431  1.00  0.00     0.000 C 
BRANCH   3   4
ATOM      4  C   UNL     1      81.323  -3.150   0.180  1.00  0.00     0.000 C 
BRANCH   4   5
ATOM      5  C   UNL     1      82.031  -1.908  -0.392  1.00  0.00     0.000 C 
BRANCH   5   6
ATOM      6  C   UNL     1      81.834  -0.663   0.487  1.00  0.00     0.000 C 
BRANCH   6   7
ATOM      7  C   UNL     1      82.921   0.402   0.255  1.00  0.00     0.000 C 
BRANCH   7   8
ATOM      8  C   UNL     1      82.342   1.820   0.132  1.00  0.00     0.000 C 
BRANCH   8   9
ATOM      9  C   UNL     1      80.838   1.871   0.450  1.00  0.00     0.000 C 
BRANCH   9  10
ATOM     10  C   UNL     1      80.530   2.643   1.746  1.00  0.00     0.006 C 
BRANCH  10  11
ATOM     11  C   UNL     1      81.775   3.122   2.510  1.00  0.00     0.053 C 
BRANCH  11  12
ATOM     12  C   UNL     1      81.584   3.058   3.994  1.00  0.00     0.041 C 
ATOM     13  O   UNL     1      80.472   2.721   4.477  1.00  0.00    -0.550 OA
ATOM     14  O   UNL     1      82.633   3.386   4.846  1.00  0.00    -0.550 OA
ENDBRANCH  11  12
ENDBRANCH  10  11
ENDBRANCH   9  10
ENDBRANCH   8   9
ENDBRANCH   7   8
ENDBRANCH   6   7
ENDBRANCH   5   6
ENDBRANCH   4   5
ENDBRANCH   3   4
ENDBRANCH   2   3
ENDBRANCH   1   2
BRANCH   1  15
ATOM     15  C   UNL     1      83.540  -3.383   3.558  1.00  0.00     0.000 C 
BRANCH  15  16
ATOM     16  C   UNL     1      84.112  -2.039   3.068  1.00  0.00     0.000 C 
BRANCH  16  17
ATOM     17  C   UNL     1      85.107  -2.176   1.895  1.00  0.00     0.000 C 
BRANCH  17  18
ATOM     18  C   UNL     1      86.528  -2.536   2.367  1.00  0.00    -0.000 C 
BRANCH  18  19
ATOM     19  C   UNL     1      87.608  -1.639   1.741  1.00  0.00    -0.000 C 
BRANCH  19  20
ATOM     20  C   UNL     1      89.026  -2.012   2.206  1.00  0.00    -0.000 C 
BRANCH  20  21
ATOM     21  C   UNL     1      89.032  -3.112   3.283  1.00  0.00    -0.000 C 
BRANCH  21  22
ATOM     22  C   UNL     1      89.846  -2.783   4.552  1.00  0.00    -0.000 C 
BRANCH  22  23
ATOM     23  C   UNL     1      89.011  -2.608   5.835  1.00  0.00    -0.000 C 
BRANCH  23  24
ATOM     24  C   UNL     1      88.134  -1.341   5.876  1.00  0.00    -0.000 C 
BRANCH  24  25
ATOM     25  C   UNL     1      86.618  -1.604   5.917  1.00  0.00    -0.003 C 
ATOM     26  C   UNL     1      86.266  -2.970   6.508  1.00  0.00     0.004 C 
ENDBRANCH  24  25
ENDBRANCH  23  24
ENDBRANCH  22  23
ENDBRANCH  21  22
ENDBRANCH  20  21
ENDBRANCH  19  20
ENDBRANCH  18  19
ENDBRANCH  17  18
ENDBRANCH  16  17
ENDBRANCH  15  16
ENDBRANCH   1  15
TORSDOF 22
ENDMDL
MODEL 3
REMARK VINA RESULT:    -6.416      2.095      7.123
REMARK INTER + INTRA:         -17.645
REMARK INTER:                 -15.033
REMARK INTRA:                  -2.612
REMARK UNBOUND:                -2.977
REMARK SMILES CCCCCCCCCCCCCCCCCCCCCCCC(=O)[O-]
REMARK SMILES IDX 13 1 14 2 15 3 16 4 17 5 18 6 19 7 20 8 21 9 22 10 23 11
REMARK SMILES IDX 24 12 25 13 26 14 12 15 11 16 10 17 9 18 8 19 7 20 6 21 5 22
REMARK SMILES IDX 4 23 3 24 2 25 1 26
REMARK H PARENT
REMARK Flexibility Score: inf
ROOT
ATOM      1  C   UNL     1      94.112  -3.772  10.302  1.00  0.00     0.000 C 
ENDROOT
BRANCH   1   2
ATOM      2  C   UNL     1      93.132  -4.352   9.260  1.00  0.00     0.000 C 
BRANCH   2   3
ATOM      3  C   UNL     1      93.319  -3.828   7.823  1.00  0.00     0.000 C 
BRANCH   3   4
ATOM      4  C   UNL     1      92.552  -2.534   7.499  1.00  0.00     0.000 C 
BRANCH   4   5
ATOM      5  C   UNL     1      93.404  -1.519   6.716  1.00  0.00     0.000 C 
BRANCH   5   6
ATOM      6  C   UNL     1      92.626  -0.860   5.566  1.00  0.00     0.000 C 
BRANCH   6   7
ATOM      7  C   UNL     1      91.215  -0.412   5.989  1.00  0.00     0.000 C 
BRANCH   7   8
ATOM      8  C   UNL     1      90.114  -1.006   5.095  1.00  0.00     0.000 C 
BRANCH   8   9
ATOM      9  C   UNL     1      89.014  -1.712   5.907  1.00  0.00     0.000 C 
BRANCH   9  10
ATOM     10  C   UNL     1      89.032  -3.242   5.729  1.00  0.00     0.006 C 
BRANCH  10  11
ATOM     11  C   UNL     1      90.286  -3.783   5.023  1.00  0.00     0.053 C 
BRANCH  11  12
ATOM     12  C   UNL     1      90.571  -5.206   5.393  1.00  0.00     0.041 C 
ATOM     13  O   UNL     1      91.036  -6.003   4.538  1.00  0.00    -0.550 OA
ATOM     14  O   UNL     1      90.308  -5.656   6.682  1.00  0.00    -0.550 OA
ENDBRANCH  11  12
ENDBRANCH  10  11
ENDBRANCH   9  10
ENDBRANCH   8   9
ENDBRANCH   7   8
ENDBRANCH   6   7
ENDBRANCH   5   6
ENDBRANCH   4   5
ENDBRANCH   3   4
ENDBRANCH   2   3
ENDBRANCH   1   2
BRANCH   1  15
ATOM     15  C   UNL     1      95.101  -4.789  10.901  1.00  0.00     0.000 C 
BRANCH  15  16
ATOM     16  C   UNL     1      96.581  -4.361  10.857  1.00  0.00     0.000 C 
BRANCH  16  17
ATOM     17  C   UNL     1      96.898  -3.328   9.755  1.00  0.00     0.000 C 
BRANCH  17  18
ATOM     18  C   UNL     1      97.027  -3.973   8.363  1.00  0.00    -0.000 C 
BRANCH  18  19
ATOM     19  C   UNL     1      96.861  -2.959   7.219  1.00  0.00    -0.000 C 
BRANCH  19  20
ATOM     20  C   UNL     1      98.207  -2.535   6.607  1.00  0.00    -0.000 C 
BRANCH  20  21
ATOM     21  C   UNL     1      99.276  -3.640   6.689  1.00  0.00    -0.000 C 
BRANCH  21  22
ATOM     22  C   UNL     1      99.306  -4.614   5.493  1.00  0.00    -0.000 C 
BRANCH  22  23
ATOM     23  C   UNL     1      99.076  -6.095   5.851  1.00  0.00    -0.000 C 
BRANCH  23  24
ATOM     24  C   UNL     1      97.774  -6.705   5.295  1.00  0.00    -0.000 C 
BRANCH  24  25
ATOM     25  C   UNL     1      97.507  -8.159   5.723  1.00  0.00    -0.003 C 
ATOM     26  C   UNL     1      97.603  -9.149   4.563  1.00  0.00     0.004 C 
ENDBRANCH  24  25
ENDBRANCH  23  24
ENDBRANCH  22  23
ENDBRANCH  21  22
ENDBRANCH  20  21
ENDBRANCH  19  20
ENDBRANCH  18  19
ENDBRANCH  17  18
ENDBRANCH  16  17
ENDBRANCH  15  16
ENDBRANCH   1  15
TORSDOF 22
ENDMDL
MODEL 4
REMARK VINA RESULT:    -6.346      1.036      1.689
REMARK INTER + INTRA:         -17.484
REMARK INTER:                 -14.478
REMARK INTRA:                  -3.005
REMARK UNBOUND:                -2.977
REMARK SMILES CCCCCCCCCCCCCCCCCCCCCCCC(=O)[O-]
REMARK SMILES IDX 13 1 14 2 15 3 16 4 17 5 18 6 19 7 20 8 21 9 22 10 23 11
REMARK SMILES IDX 24 12 25 13 26 14 12 15 11 16 10 17 9 18 8 19 7 20 6 21 5 22
REMARK SMILES IDX 4 23 3 24 2 25 1 26
REMARK H PARENT
REMARK Flexibility Score: inf
ROOT
ATOM      1  C   UNL     1      93.410  -3.822   9.709  1.00  0.00     0.000 C 
ENDROOT
BRANCH   1   2
ATOM      2  C   UNL     1      94.203  -5.026  10.259  1.00  0.00     0.000 C 
BRANCH   2   3
ATOM      3  C   UNL     1      95.588  -4.687  10.844  1.00  0.00     0.000 C 
BRANCH   3   4
ATOM      4  C   UNL     1      95.932  -3.187  10.867  1.00  0.00     0.000 C 
BRANCH   4   5
ATOM      5  C   UNL     1      97.079  -2.826   9.906  1.00  0.00     0.000 C 
BRANCH   5   6
ATOM      6  C   UNL     1      97.018  -3.622   8.593  1.00  0.00     0.000 C 
BRANCH   6   7
ATOM      7  C   UNL     1      96.902  -2.712   7.357  1.00  0.00     0.000 C 
BRANCH   7   8
ATOM      8  C   UNL     1      98.265  -2.426   6.705  1.00  0.00     0.000 C 
BRANCH   8   9
ATOM      9  C   UNL     1      99.298  -3.529   6.992  1.00  0.00     0.000 C 
BRANCH   9  10
ATOM     10  C   UNL     1      99.929  -4.102   5.709  1.00  0.00     0.006 C 
BRANCH  10  11
ATOM     11  C   UNL     1      99.025  -5.079   4.939  1.00  0.00     0.053 C 
BRANCH  11  12
ATOM     12  C   UNL     1      98.506  -6.176   5.816  1.00  0.00     0.041 C 
ATOM     13  O   UNL     1      99.283  -7.072   6.238  1.00  0.00    -0.550 OA
ATOM     14  O   UNL     1      97.159  -6.217   6.156  1.00  0.00    -0.550 OA
ENDBRANCH  11  12
ENDBRANCH  10  11
ENDBRANCH   9  10
ENDBRANCH   8   9
ENDBRANCH   7   8
ENDBRANCH   6   7
ENDBRANCH   5   6
ENDBRANCH   4   5
ENDBRANCH   3   4
ENDBRANCH   2   3
ENDBRANCH   1   2
BRANCH   1  15
ATOM     15  C   UNL     1      93.361  -3.722   8.173  1.00  0.00     0.000 C 
BRANCH  15  16
ATOM     16  C   UNL     1      92.576  -2.515   7.623  1.00  0.00     0.000 C 
BRANCH  16  17
ATOM     17  C   UNL     1      93.313  -1.753   6.501  1.00  0.00     0.000 C 
BRANCH  17  18
ATOM     18  C   UNL     1      92.613  -0.433   6.128  1.00  0.00    -0.000 C 
BRANCH  18  19
ATOM     19  C   UNL     1      91.560  -0.609   5.021  1.00  0.00    -0.000 C 
BRANCH  19  20
ATOM     20  C   UNL     1      90.211   0.034   5.383  1.00  0.00    -0.000 C 
BRANCH  20  21
ATOM     21  C   UNL     1      89.178  -0.987   5.894  1.00  0.00    -0.000 C 
BRANCH  21  22
ATOM     22  C   UNL     1      88.649  -1.972   4.831  1.00  0.00    -0.000 C 
BRANCH  22  23
ATOM     23  C   UNL     1      88.845  -3.463   5.168  1.00  0.00    -0.000 C 
BRANCH  23  24
ATOM     24  C   UNL     1      90.164  -4.079   4.660  1.00  0.00    -0.000 C 
BRANCH  24  25
ATOM     25  C   UNL     1      90.833  -5.067   5.631  1.00  0.00    -0.003 C 
ATOM     26  C   UNL     1      90.018  -5.295   6.904  1.00  0.00     0.004 C 
ENDBRANCH  24  25
ENDBRANCH  23  24
ENDBRANCH  22  23
ENDBRANCH  21  22
ENDBRANCH  20  21
ENDBRANCH  19  20
ENDBRANCH  18  19
ENDBRANCH  17  18
ENDBRANCH  16  17
ENDBRANCH  15  16
ENDBRANCH   1  15
TORSDOF 22
ENDMDL
MODEL 5
REMARK VINA RESULT:    -6.322      9.349     15.126
REMARK INTER + INTRA:         -17.429
REMARK INTER:                 -14.848
REMARK INTRA:                  -2.581
REMARK UNBOUND:                -2.977
REMARK SMILES CCCCCCCCCCCCCCCCCCCCCCCC(=O)[O-]
REMARK SMILES IDX 13 1 14 2 15 3 16 4 17 5 18 6 19 7 20 8 21 9 22 10 23 11
REMARK SMILES IDX 24 12 25 13 26 14 12 15 11 16 10 17 9 18 8 19 7 20 6 21 5 22
REMARK SMILES IDX 4 23 3 24 2 25 1 26
REMARK H PARENT
REMARK Flexibility Score: inf
ROOT
ATOM      1  C   UNL     1      81.632  -1.199   0.665  1.00  0.00     0.000 C 
ENDROOT
BRANCH   1   2
ATOM      2  C   UNL     1      83.048  -0.586   0.652  1.00  0.00     0.000 C 
BRANCH   2   3
ATOM      3  C   UNL     1      83.191   0.717  -0.158  1.00  0.00     0.000 C 
BRANCH   3   4
ATOM      4  C   UNL     1      81.898   1.204  -0.838  1.00  0.00     0.000 C 
BRANCH   4   5
ATOM      5  C   UNL     1      81.339   2.487  -0.198  1.00  0.00     0.000 C 
BRANCH   5   6
ATOM      6  C   UNL     1      80.056   2.231   0.609  1.00  0.00     0.000 C 
BRANCH   6   7
ATOM      7  C   UNL     1      80.120   2.832   2.025  1.00  0.00     0.000 C 
BRANCH   7   8
ATOM      8  C   UNL     1      81.559   2.946   2.554  1.00  0.00     0.000 C 
BRANCH   8   9
ATOM      9  C   UNL     1      81.744   2.245   3.911  1.00  0.00     0.000 C 
BRANCH   9  10
ATOM     10  C   UNL     1      80.651   2.621   4.929  1.00  0.00     0.006 C 
BRANCH  10  11
ATOM     11  C   UNL     1      80.728   4.071   5.434  1.00  0.00     0.053 C 
BRANCH  11  12
ATOM     12  C   UNL     1      81.724   4.230   6.541  1.00  0.00     0.041 C 
ATOM     13  O   UNL     1      81.372   4.070   7.739  1.00  0.00    -0.550 OA
ATOM     14  O   UNL     1      83.040   4.570   6.250  1.00  0.00    -0.550 OA
ENDBRANCH  11  12
ENDBRANCH  10  11
ENDBRANCH   9  10
ENDBRANCH   8   9
ENDBRANCH   7   8
ENDBRANCH   6   7
ENDBRANCH   5   6
ENDBRANCH   4   5
ENDBRANCH   3   4
ENDBRANCH   2   3
ENDBRANCH   1   2
BRANCH   1  15
ATOM     15  C   UNL     1      81.536  -2.626   0.094  1.00  0.00     0.000 C 
BRANCH  15  16
ATOM     16  C   UNL     1      81.602  -3.752   1.143  1.00  0.00     0.000 C 
BRANCH  16  17
ATOM     17  C   UNL     1      81.472  -3.256   2.599  1.00  0.00     0.000 C 
BRANCH  17  18
ATOM     18  C   UNL     1      82.764  -3.465   3.410  1.00  0.00    -0.000 C 
BRANCH  18  19
ATOM     19  C   UNL     1      84.019  -3.530   2.525  1.00  0.00    -0.000 C 
BRANCH  19  20
ATOM     20  C   UNL     1      85.104  -2.533   2.968  1.00  0.00    -0.000 C 
BRANCH  20  21
ATOM     21  C   UNL     1      86.436  -2.727   2.220  1.00  0.00    -0.000 C 
BRANCH  21  22
ATOM     22  C   UNL     1      87.687  -2.220   2.966  1.00  0.00    -0.000 C 
BRANCH  22  23
ATOM     23  C   UNL     1      87.960  -2.901   4.321  1.00  0.00    -0.000 C 
BRANCH  23  24
ATOM     24  C   UNL     1      88.003  -1.948   5.533  1.00  0.00    -0.000 C 
BRANCH  24  25
ATOM     25  C   UNL     1      86.681  -1.831   6.311  1.00  0.00    -0.003 C 
ATOM     26  C   UNL     1      86.052  -3.189   6.625  1.00  0.00     0.004 C 
ENDBRANCH  24  25
ENDBRANCH  23  24
ENDBRANCH  22  23
ENDBRANCH  21  22
ENDBRANCH  20  21
ENDBRANCH  19  20
ENDBRANCH  18  19
ENDBRANCH  17  18
ENDBRANCH  16  17
ENDBRANCH  15  16
ENDBRANCH   1  15
TORSDOF 22
ENDMDL
MODEL 6
REMARK VINA RESULT:    -6.312      4.425      6.452
REMARK INTER + INTRA:         -17.407
REMARK INTER:                 -15.747
REMARK INTRA:                  -1.660
REMARK UNBOUND:                -2.977
REMARK SMILES CCCCCCCCCCCCCCCCCCCCCCCC(=O)[O-]
REMARK SMILES IDX 13 1 14 2 15 3 16 4 17 5 18 6 19 7 20 8 21 9 22 10 23 11
REMARK SMILES IDX 24 12 25 13 26 14 12 15 11 16 10 17 9 18 8 19 7 20 6 21 5 22
REMARK SMILES IDX 4 23 3 24 2 25 1 26
REMARK H PARENT
REMARK Flexibility Score: inf
ROOT
ATOM      1  C   UNL     1      91.026  -4.185   6.302  1.00  0.00     0.000 C 
ENDROOT
BRANCH   1   2
ATOM      2  C   UNL     1      91.420  -2.720   6.584  1.00  0.00     0.000 C 
BRANCH   2   3
ATOM      3  C   UNL     1      92.694  -2.536   7.431  1.00  0.00     0.000 C 
BRANCH   3   4
ATOM      4  C   UNL     1      93.269  -3.833   8.030  1.00  0.00     0.000 C 
BRANCH   4   5
ATOM      5  C   UNL     1      93.449  -3.753   9.556  1.00  0.00     0.000 C 
BRANCH   5   6
ATOM      6  C   UNL     1      94.073  -5.029  10.142  1.00  0.00     0.000 C 
BRANCH   6   7
ATOM      7  C   UNL     1      95.390  -4.752  10.890  1.00  0.00     0.000 C 
BRANCH   7   8
ATOM      8  C   UNL     1      95.622  -3.253  11.141  1.00  0.00     0.000 C 
BRANCH   8   9
ATOM      9  C   UNL     1      96.735  -2.673  10.251  1.00  0.00     0.000 C 
BRANCH   9  10
ATOM     10  C   UNL     1      97.139  -3.624   9.109  1.00  0.00     0.006 C 
BRANCH  10  11
ATOM     11  C   UNL     1      96.900  -3.059   7.699  1.00  0.00     0.053 C 
BRANCH  11  12
ATOM     12  C   UNL     1      98.183  -2.762   6.986  1.00  0.00     0.041 C 
ATOM     13  O   UNL     1      98.581  -3.514   6.059  1.00  0.00    -0.550 OA
ATOM     14  O   UNL     1      98.947  -1.661   7.356  1.00  0.00    -0.550 OA
ENDBRANCH  11  12
ENDBRANCH  10  11
ENDBRANCH   9  10
ENDBRANCH   8   9
ENDBRANCH   7   8
ENDBRANCH   6   7
ENDBRANCH   5   6
ENDBRANCH   4   5
ENDBRANCH   3   4
ENDBRANCH   2   3
ENDBRANCH   1   2
BRANCH   1  15
ATOM     15  C   UNL     1      89.513  -4.468   6.327  1.00  0.00     0.000 C 
BRANCH  15  16
ATOM     16  C   UNL     1      88.624  -3.302   5.852  1.00  0.00     0.000 C 
BRANCH  16  17
ATOM     17  C   UNL     1      87.177  -3.364   6.387  1.00  0.00     0.000 C 
BRANCH  17  18
ATOM     18  C   UNL     1      86.214  -2.471   5.584  1.00  0.00    -0.000 C 
BRANCH  18  19
ATOM     19  C   UNL     1      86.717  -2.182   4.160  1.00  0.00    -0.000 C 
BRANCH  19  20
ATOM     20  C   UNL     1      85.976  -3.009   3.095  1.00  0.00    -0.000 C 
BRANCH  20  21
ATOM     21  C   UNL     1      84.554  -2.489   2.816  1.00  0.00    -0.000 C 
BRANCH  21  22
ATOM     22  C   UNL     1      83.415  -3.353   3.395  1.00  0.00    -0.000 C 
BRANCH  22  23
ATOM     23  C   UNL     1      82.497  -4.010   2.346  1.00  0.00    -0.000 C 
BRANCH  23  24
ATOM     24  C   UNL     1      81.119  -3.340   2.175  1.00  0.00    -0.000 C 
BRANCH  24  25
ATOM     25  C   UNL     1      81.030  -2.331   1.016  1.00  0.00    -0.003 C 
ATOM     26  C   UNL     1      81.421  -2.936  -0.332  1.00  0.00     0.004 C 
ENDBRANCH  24  25
ENDBRANCH  23  24
ENDBRANCH  22  23
ENDBRANCH  21  22
ENDBRANCH  20  21
ENDBRANCH  19  20
ENDBRANCH  18  19
ENDBRANCH  17  18
ENDBRANCH  16  17
ENDBRANCH  15  16
ENDBRANCH   1  15
TORSDOF 22
ENDMDL
MODEL 7
REMARK VINA RESULT:    -6.277      4.932      7.454
REMARK INTER + INTRA:         -17.327
REMARK INTER:                 -15.446
REMARK INTRA:                  -1.881
REMARK UNBOUND:                -2.977
REMARK SMILES CCCCCCCCCCCCCCCCCCCCCCCC(=O)[O-]
REMARK SMILES IDX 13 1 14 2 15 3 16 4 17 5 18 6 19 7 20 8 21 9 22 10 23 11
REMARK SMILES IDX 24 12 25 13 26 14 12 15 11 16 10 17 9 18 8 19 7 20 6 21 5 22
REMARK SMILES IDX 4 23 3 24 2 25 1 26
REMARK H PARENT
REMARK Flexibility Score: inf
ROOT
ATOM      1  C   UNL     1      88.942  -3.057   5.551  1.00  0.00     0.000 C 
ENDROOT
BRANCH   1   2
ATOM      2  C   UNL     1      89.597  -4.265   6.253  1.00  0.00     0.000 C 
BRANCH   2   3
ATOM      3  C   UNL     1      91.108  -4.124   6.525  1.00  0.00     0.000 C 
BRANCH   3   4
ATOM      4  C   UNL     1      91.597  -2.681   6.742  1.00  0.00     0.000 C 
BRANCH   4   5
ATOM      5  C   UNL     1      92.904  -2.614   7.553  1.00  0.00     0.000 C 
BRANCH   5   6
ATOM      6  C   UNL     1      93.330  -3.987   8.097  1.00  0.00     0.000 C 
BRANCH   6   7
ATOM      7  C   UNL     1      93.434  -4.007   9.632  1.00  0.00     0.000 C 
BRANCH   7   8
ATOM      8  C   UNL     1      94.637  -4.824  10.132  1.00  0.00     0.000 C 
BRANCH   8   9
ATOM      9  C   UNL     1      95.739  -3.938  10.737  1.00  0.00     0.000 C 
BRANCH   9  10
ATOM     10  C   UNL     1      97.014  -3.901   9.874  1.00  0.00     0.006 C 
BRANCH  10  11
ATOM     11  C   UNL     1      96.902  -3.027   8.614  1.00  0.00     0.053 C 
BRANCH  11  12
ATOM     12  C   UNL     1      97.192  -3.800   7.364  1.00  0.00     0.041 C 
ATOM     13  O   UNL     1      96.614  -4.897   7.149  1.00  0.00    -0.550 OA
ATOM     14  O   UNL     1      98.113  -3.315   6.443  1.00  0.00    -0.550 OA
ENDBRANCH  11  12
ENDBRANCH  10  11
ENDBRANCH   9  10
ENDBRANCH   8   9
ENDBRANCH   7   8
ENDBRANCH   6   7
ENDBRANCH   5   6
ENDBRANCH   4   5
ENDBRANCH   3   4
ENDBRANCH   2   3
ENDBRANCH   1   2
BRANCH   1  15
ATOM     15  C   UNL     1      87.523  -2.711   6.039  1.00  0.00     0.000 C 
BRANCH  15  16
ATOM     16  C   UNL     1      86.600  -2.092   4.971  1.00  0.00     0.000 C 
BRANCH  16  17
ATOM     17  C   UNL     1      86.952  -2.510   3.527  1.00  0.00     0.000 C 
BRANCH  17  18
ATOM     18  C   UNL     1      85.719  -2.981   2.734  1.00  0.00    -0.000 C 
BRANCH  18  19
ATOM     19  C   UNL     1      84.408  -2.369   3.252  1.00  0.00    -0.000 C 
BRANCH  19  20
ATOM     20  C   UNL     1      83.353  -3.436   3.593  1.00  0.00    -0.000 C 
BRANCH  20  21
ATOM     21  C   UNL     1      82.560  -3.908   2.360  1.00  0.00    -0.000 C 
BRANCH  21  22
ATOM     22  C   UNL     1      81.079  -3.477   2.330  1.00  0.00    -0.000 C 
BRANCH  22  23
ATOM     23  C   UNL     1      80.654  -2.691   1.074  1.00  0.00    -0.000 C 
BRANCH  23  24
ATOM     24  C   UNL     1      81.776  -2.453   0.043  1.00  0.00    -0.000 C 
BRANCH  24  25
ATOM     25  C   UNL     1      82.538  -1.126   0.212  1.00  0.00    -0.003 C 
ATOM     26  C   UNL     1      81.690  -0.030   0.856  1.00  0.00     0.004 C 
ENDBRANCH  24  25
ENDBRANCH  23  24
ENDBRANCH  22  23
ENDBRANCH  21  22
ENDBRANCH  20  21
ENDBRANCH  19  20
ENDBRANCH  18  19
ENDBRANCH  17  18
ENDBRANCH  16  17
ENDBRANCH  15  16
ENDBRANCH   1  15
TORSDOF 22
ENDMDL
MODEL 8
REMARK VINA RESULT:    -6.260      6.262     11.568
REMARK INTER + INTRA:         -17.287
REMARK INTER:                 -15.325
REMARK INTRA:                  -1.963
REMARK UNBOUND:                -2.977
REMARK SMILES CCCCCCCCCCCCCCCCCCCCCCCC(=O)[O-]
REMARK SMILES IDX 13 1 14 2 15 3 16 4 17 5 18 6 19 7 20 8 21 9 22 10 23 11
REMARK SMILES IDX 24 12 25 13 26 14 12 15 11 16 10 17 9 18 8 19 7 20 6 21 5 22
REMARK SMILES IDX 4 23 3 24 2 25 1 26
REMARK H PARENT
REMARK Flexibility Score: inf
ROOT
ATOM      1  C   UNL     1      89.876  -2.140   5.732  1.00  0.00     0.000 C 
ENDROOT
BRANCH   1   2
ATOM      2  C   UNL     1      88.683  -3.059   5.395  1.00  0.00     0.000 C 
BRANCH   2   3
ATOM      3  C   UNL     1      87.336  -2.634   6.011  1.00  0.00     0.000 C 
BRANCH   3   4
ATOM      4  C   UNL     1      86.246  -2.257   4.991  1.00  0.00     0.000 C 
BRANCH   4   5
ATOM      5  C   UNL     1      86.634  -2.621   3.547  1.00  0.00     0.000 C 
BRANCH   5   6
ATOM      6  C   UNL     1      85.417  -2.691   2.611  1.00  0.00     0.000 C 
BRANCH   6   7
ATOM      7  C   UNL     1      84.089  -2.811   3.379  1.00  0.00     0.000 C 
BRANCH   7   8
ATOM      8  C   UNL     1      83.068  -3.706   2.657  1.00  0.00     0.000 C 
BRANCH   8   9
ATOM      9  C   UNL     1      81.664  -3.080   2.612  1.00  0.00     0.000 C 
BRANCH   9  10
ATOM     10  C   UNL     1      81.125  -2.928   1.177  1.00  0.00     0.006 C 
BRANCH  10  11
ATOM     11  C   UNL     1      82.121  -2.296   0.190  1.00  0.00     0.053 C 
BRANCH  11  12
ATOM     12  C   UNL     1      82.411  -0.865   0.521  1.00  0.00     0.041 C 
ATOM     13  O   UNL     1      83.600  -0.460   0.595  1.00  0.00    -0.550 OA
ATOM     14  O   UNL     1      81.366   0.020   0.764  1.00  0.00    -0.550 OA
ENDBRANCH  11  12
ENDBRANCH  10  11
ENDBRANCH   9  10
ENDBRANCH   8   9
ENDBRANCH   7   8
ENDBRANCH   6   7
ENDBRANCH   5   6
ENDBRANCH   4   5
ENDBRANCH   3   4
ENDBRANCH   2   3
ENDBRANCH   1   2
BRANCH   1  15
ATOM     15  C   UNL     1      91.041  -2.828   6.467  1.00  0.00     0.000 C 
BRANCH  15  16
ATOM     16  C   UNL     1      92.185  -1.890   6.898  1.00  0.00     0.000 C 
BRANCH  16  17
ATOM     17  C   UNL     1      93.342  -2.611   7.622  1.00  0.00     0.000 C 
BRANCH  17  18
ATOM     18  C   UNL     1      93.041  -4.100   7.876  1.00  0.00    -0.000 C 
BRANCH  18  19
ATOM     19  C   UNL     1      93.196  -4.494   9.354  1.00  0.00    -0.000 C 
BRANCH  19  20
ATOM     20  C   UNL     1      94.180  -3.584  10.107  1.00  0.00    -0.000 C 
BRANCH  20  21
ATOM     21  C   UNL     1      95.230  -4.373  10.912  1.00  0.00    -0.000 C 
BRANCH  21  22
ATOM     22  C   UNL     1      96.695  -4.132  10.492  1.00  0.00    -0.000 C 
BRANCH  22  23
ATOM     23  C   UNL     1      96.989  -2.729   9.928  1.00  0.00    -0.000 C 
BRANCH  23  24
ATOM     24  C   UNL     1      97.638  -2.712   8.529  1.00  0.00    -0.000 C 
BRANCH  24  25
ATOM     25  C   UNL     1      96.751  -3.264   7.398  1.00  0.00    -0.003 C 
ATOM     26  C   UNL     1      97.004  -4.744   7.111  1.00  0.00     0.004 C 
ENDBRANCH  24  25
ENDBRANCH  23  24
ENDBRANCH  22  23
ENDBRANCH  21  22
ENDBRANCH  20  21
ENDBRANCH  19  20
ENDBRANCH  18  19
ENDBRANCH  17  18
ENDBRANCH  16  17
ENDBRANCH  15  16
ENDBRANCH   1  15
TORSDOF 22
ENDMDL
MODEL 9
REMARK VINA RESULT:    -6.221      7.389     12.538
REMARK INTER + INTRA:         -17.199
REMARK INTER:                 -14.147
REMARK INTRA:                  -3.052
REMARK UNBOUND:                -2.977
REMARK SMILES CCCCCCCCCCCCCCCCCCCCCCCC(=O)[O-]
REMARK SMILES IDX 13 1 14 2 15 3 16 4 17 5 18 6 19 7 20 8 21 9 22 10 23 11
REMARK SMILES IDX 24 12 25 13 26 14 12 15 11 16 10 17 9 18 8 19 7 20 6 21 5 22
REMARK SMILES IDX 4 23 3 24 2 25 1 26
REMARK H PARENT
REMARK Flexibility Score: inf
ROOT
ATOM      1  C   UNL     1      87.731  -1.448   1.384  1.00  0.00     0.000 C 
ENDROOT
BRANCH   1   2
ATOM      2  C   UNL     1      86.228  -1.725   1.595  1.00  0.00     0.000 C 
BRANCH   2   3
ATOM      3  C   UNL     1      85.901  -2.779   2.671  1.00  0.00     0.000 C 
BRANCH   3   4
ATOM      4  C   UNL     1      84.502  -2.654   3.299  1.00  0.00     0.000 C 
BRANCH   4   5
ATOM      5  C   UNL     1      83.530  -3.742   2.806  1.00  0.00     0.000 C 
BRANCH   5   6
ATOM      6  C   UNL     1      82.062  -3.397   3.101  1.00  0.00     0.000 C 
BRANCH   6   7
ATOM      7  C   UNL     1      81.240  -3.169   1.819  1.00  0.00     0.000 C 
BRANCH   7   8
ATOM      8  C   UNL     1      82.118  -3.110   0.558  1.00  0.00     0.000 C 
BRANCH   8   9
ATOM      9  C   UNL     1      82.057  -1.739  -0.137  1.00  0.00     0.000 C 
BRANCH   9  10
ATOM     10  C   UNL     1      82.363  -0.573   0.821  1.00  0.00     0.006 C 
BRANCH  10  11
ATOM     11  C   UNL     1      83.022   0.643   0.150  1.00  0.00     0.053 C 
BRANCH  11  12
ATOM     12  C   UNL     1      82.141   1.854   0.189  1.00  0.00     0.041 C 
ATOM     13  O   UNL     1      82.258   2.693   1.120  1.00  0.00    -0.550 OA
ATOM     14  O   UNL     1      81.180   2.049  -0.796  1.00  0.00    -0.550 OA
ENDBRANCH  11  12
ENDBRANCH  10  11
ENDBRANCH   9  10
ENDBRANCH   8   9
ENDBRANCH   7   8
ENDBRANCH   6   7
ENDBRANCH   5   6
ENDBRANCH   4   5
ENDBRANCH   3   4
ENDBRANCH   2   3
ENDBRANCH   1   2
BRANCH   1  15
ATOM     15  C   UNL     1      88.657  -2.650   1.646  1.00  0.00     0.000 C 
BRANCH  15  16
ATOM     16  C   UNL     1      89.901  -2.339   2.501  1.00  0.00     0.000 C 
BRANCH  16  17
ATOM     17  C   UNL     1      90.189  -0.830   2.655  1.00  0.00     0.000 C 
BRANCH  17  18
ATOM     18  C   UNL     1      90.548  -0.443   4.101  1.00  0.00    -0.000 C 
BRANCH  18  19
ATOM     19  C   UNL     1      91.988  -0.823   4.480  1.00  0.00    -0.000 C 
BRANCH  19  20
ATOM     20  C   UNL     1      92.098  -1.360   5.917  1.00  0.00    -0.000 C 
BRANCH  20  21
ATOM     21  C   UNL     1      90.777  -1.959   6.434  1.00  0.00    -0.000 C 
BRANCH  21  22
ATOM     22  C   UNL     1      90.658  -3.492   6.308  1.00  0.00    -0.000 C 
BRANCH  22  23
ATOM     23  C   UNL     1      89.220  -4.023   6.151  1.00  0.00    -0.000 C 
BRANCH  23  24
ATOM     24  C   UNL     1      88.237  -3.052   5.467  1.00  0.00    -0.000 C 
BRANCH  24  25
ATOM     25  C   UNL     1      86.979  -2.720   6.288  1.00  0.00    -0.003 C 
ATOM     26  C   UNL     1      86.743  -1.217   6.434  1.00  0.00     0.004 C 
ENDBRANCH  24  25
ENDBRANCH  23  24
ENDBRANCH  22  23
ENDBRANCH  21  22
ENDBRANCH  20  21
ENDBRANCH  19  20
ENDBRANCH  18  19
ENDBRANCH  17  18
ENDBRANCH  16  17
ENDBRANCH  15  16
ENDBRANCH   1  15
TORSDOF 22
ENDMDL
