MODEL 1
REMARK VINA RESULT:    -3.713      0.000      0.000
REMARK INTER + INTRA:          -7.603
REMARK INTER:                  -6.752
REMARK INTRA:                  -0.851
REMARK UNBOUND:                -0.851
REMARK SMILES CCCCCCCCCCCCCCCC(=O)[O-]
REMARK SMILES IDX 9 1 10 2 11 3 12 4 13 5 14 6 15 7 16 8 17 9 18 10 8 11 7 12
REMARK SMILES IDX 6 13 5 14 4 15 3 16 2 17 1 18
REMARK H PARENT
REMARK Flexibility Score: inf
ROOT
ATOM      1  C   UNL     1     -15.598  -3.400  -1.559  1.00  0.00     0.000 C 
ENDROOT
BRANCH   1   2
ATOM      2  C   UNL     1     -16.960  -3.346  -2.272  1.00  0.00     0.000 C 
BRANCH   2   3
ATOM      3  C   UNL     1     -17.112  -2.216  -3.311  1.00  0.00     0.000 C 
BRANCH   3   4
ATOM      4  C   UNL     1     -16.216  -0.990  -3.036  1.00  0.00     0.000 C 
BRANCH   4   5
ATOM      5  C   UNL     1     -16.932   0.075  -2.190  1.00  0.00     0.000 C 
BRANCH   5   6
ATOM      6  C   UNL     1     -17.077  -0.384  -0.735  1.00  0.00     0.006 C 
BRANCH   6   7
ATOM      7  C   UNL     1     -16.168   0.430   0.191  1.00  0.00     0.053 C 
BRANCH   7   8
ATOM      8  C   UNL     1     -15.844  -0.350   1.426  1.00  0.00     0.041 C 
ATOM      9  O   UNL     1     -16.768  -0.866   2.110  1.00  0.00    -0.550 OA
ATOM     10  O   UNL     1     -14.526  -0.465   1.850  1.00  0.00    -0.550 OA
ENDBRANCH   7   8
ENDBRANCH   6   7
ENDBRANCH   5   6
ENDBRANCH   4   5
ENDBRANCH   3   4
ENDBRANCH   2   3
ENDBRANCH   1   2
BRANCH   1  11
ATOM     11  C   UNL     1     -14.840  -4.714  -1.818  1.00  0.00     0.000 C 
BRANCH  11  12
ATOM     12  C   UNL     1     -14.673  -5.024  -3.317  1.00  0.00    -0.000 C 
BRANCH  12  13
ATOM     13  C   UNL     1     -13.873  -3.982  -4.120  1.00  0.00    -0.000 C 
BRANCH  13  14
ATOM     14  C   UNL     1     -12.962  -4.615  -5.185  1.00  0.00    -0.000 C 
BRANCH  14  15
ATOM     15  C   UNL     1     -13.682  -4.860  -6.524  1.00  0.00    -0.000 C 
BRANCH  15  16
ATOM     16  C   UNL     1     -15.090  -4.247  -6.633  1.00  0.00    -0.000 C 
BRANCH  16  17
ATOM     17  C   UNL     1     -15.595  -4.155  -8.081  1.00  0.00    -0.003 C 
ATOM     18  C   UNL     1     -14.713  -4.970  -9.023  1.00  0.00     0.004 C 
ENDBRANCH  16  17
ENDBRANCH  15  16
ENDBRANCH  14  15
ENDBRANCH  13  14
ENDBRANCH  12  13
ENDBRANCH  11  12
ENDBRANCH   1  11
TORSDOF 14
ENDMDL
MODEL 2
REMARK VINA RESULT:    -3.365      1.703      3.596
REMARK INTER + INTRA:          -6.970
REMARK INTER:                  -6.388
REMARK INTRA:                  -0.582
REMARK UNBOUND:                -0.851
REMARK SMILES CCCCCCCCCCCCCCCC(=O)[O-]
REMARK SMILES IDX 9 1 10 2 11 3 12 4 13 5 14 6 15 7 16 8 17 9 18 10 8 11 7 12
REMARK SMILES IDX 6 13 5 14 4 15 3 16 2 17 1 18
REMARK H PARENT
REMARK Flexibility Score: inf
ROOT
ATOM      1  C   UNL     1     -15.179  -1.603  -4.224  1.00  0.00     0.000 C 
ENDROOT
BRANCH   1   2
ATOM      2  C   UNL     1     -16.597  -1.984  -3.764  1.00  0.00     0.000 C 
BRANCH   2   3
ATOM      3  C   UNL     1     -17.125  -1.197  -2.548  1.00  0.00     0.000 C 
BRANCH   3   4
ATOM      4  C   UNL     1     -16.379   0.129  -2.290  1.00  0.00     0.000 C 
BRANCH   4   5
ATOM      5  C   UNL     1     -16.313   0.477  -0.794  1.00  0.00     0.000 C 
BRANCH   5   6
ATOM      6  C   UNL     1     -16.564  -0.763   0.072  1.00  0.00     0.006 C 
BRANCH   6   7
ATOM      7  C   UNL     1     -17.109  -0.370   1.448  1.00  0.00     0.053 C 
BRANCH   7   8
ATOM      8  C   UNL     1     -15.993  -0.233   2.434  1.00  0.00     0.041 C 
ATOM      9  O   UNL     1     -14.824  -0.583   2.120  1.00  0.00    -0.550 OA
ATOM     10  O   UNL     1     -16.252   0.233   3.717  1.00  0.00    -0.550 OA
ENDBRANCH   7   8
ENDBRANCH   6   7
ENDBRANCH   5   6
ENDBRANCH   4   5
ENDBRANCH   3   4
ENDBRANCH   2   3
ENDBRANCH   1   2
BRANCH   1  11
ATOM     11  C   UNL     1     -14.456  -2.753  -4.947  1.00  0.00     0.000 C 
BRANCH  11  12
ATOM     12  C   UNL     1     -15.417  -3.667  -5.728  1.00  0.00    -0.000 C 
BRANCH  12  13
ATOM     13  C   UNL     1     -15.659  -5.055  -5.105  1.00  0.00    -0.000 C 
BRANCH  13  14
ATOM     14  C   UNL     1     -16.621  -5.014  -3.905  1.00  0.00    -0.000 C 
BRANCH  14  15
ATOM     15  C   UNL     1     -15.893  -5.066  -2.549  1.00  0.00    -0.000 C 
BRANCH  15  16
ATOM     16  C   UNL     1     -14.357  -5.109  -2.630  1.00  0.00    -0.000 C 
BRANCH  16  17
ATOM     17  C   UNL     1     -13.675  -4.699  -1.317  1.00  0.00    -0.003 C 
ATOM     18  C   UNL     1     -12.204  -5.105  -1.311  1.00  0.00     0.004 C 
ENDBRANCH  16  17
ENDBRANCH  15  16
ENDBRANCH  14  15
ENDBRANCH  13  14
ENDBRANCH  12  13
ENDBRANCH  11  12
ENDBRANCH   1  11
TORSDOF 14
ENDMDL
MODEL 3
REMARK VINA RESULT:    -3.069      1.244      2.368
REMARK INTER + INTRA:          -6.431
REMARK INTER:                  -5.920
REMARK INTRA:                  -0.511
REMARK UNBOUND:                -0.851
REMARK SMILES CCCCCCCCCCCCCCCC(=O)[O-]
REMARK SMILES IDX 9 1 10 2 11 3 12 4 13 5 14 6 15 7 16 8 17 9 18 10 8 11 7 12
REMARK SMILES IDX 6 13 5 14 4 15 3 16 2 17 1 18
REMARK H PARENT
REMARK Flexibility Score: inf
ROOT
ATOM      1  C   UNL     1     -15.889  -2.156  -4.350  1.00  0.00     0.000 C 
ENDROOT
BRANCH   1   2
ATOM      2  C   UNL     1     -15.940  -0.965  -3.378  1.00  0.00     0.000 C 
BRANCH   2   3
ATOM      3  C   UNL     1     -17.102  -0.996  -2.365  1.00  0.00     0.000 C 
BRANCH   3   4
ATOM      4  C   UNL     1     -16.671  -0.710  -0.911  1.00  0.00     0.000 C 
BRANCH   4   5
ATOM      5  C   UNL     1     -16.470   0.791  -0.649  1.00  0.00     0.000 C 
BRANCH   5   6
ATOM      6  C   UNL     1     -16.704   1.129   0.828  1.00  0.00     0.006 C 
BRANCH   6   7
ATOM      7  C   UNL     1     -17.043  -0.130   1.631  1.00  0.00     0.053 C 
BRANCH   7   8
ATOM      8  C   UNL     1     -16.130  -0.262   2.809  1.00  0.00     0.041 C 
ATOM      9  O   UNL     1     -16.595  -0.216   3.979  1.00  0.00    -0.550 OA
ATOM     10  O   UNL     1     -14.760  -0.386   2.617  1.00  0.00    -0.550 OA
ENDBRANCH   7   8
ENDBRANCH   6   7
ENDBRANCH   5   6
ENDBRANCH   4   5
ENDBRANCH   3   4
ENDBRANCH   2   3
ENDBRANCH   1   2
BRANCH   1  11
ATOM     11  C   UNL     1     -16.537  -3.427  -3.774  1.00  0.00     0.000 C 
BRANCH  11  12
ATOM     12  C   UNL     1     -16.013  -3.783  -2.371  1.00  0.00    -0.000 C 
BRANCH  12  13
ATOM     13  C   UNL     1     -15.122  -5.037  -2.299  1.00  0.00    -0.000 C 
BRANCH  13  14
ATOM     14  C   UNL     1     -13.621  -4.713  -2.367  1.00  0.00    -0.000 C 
BRANCH  14  15
ATOM     15  C   UNL     1     -12.976  -5.125  -3.703  1.00  0.00    -0.000 C 
BRANCH  15  16
ATOM     16  C   UNL     1     -13.203  -4.147  -4.870  1.00  0.00    -0.000 C 
BRANCH  16  17
ATOM     17  C   UNL     1     -12.688  -4.685  -6.213  1.00  0.00    -0.003 C 
ATOM     18  C   UNL     1     -13.844  -5.052  -7.139  1.00  0.00     0.004 C 
ENDBRANCH  16  17
ENDBRANCH  15  16
ENDBRANCH  14  15
ENDBRANCH  13  14
ENDBRANCH  12  13
ENDBRANCH  11  12
ENDBRANCH   1  11
TORSDOF 14
ENDMDL
MODEL 4
REMARK VINA RESULT:    -2.863      1.651      2.755
REMARK INTER + INTRA:          -6.057
REMARK INTER:                  -6.020
REMARK INTRA:                  -0.037
REMARK UNBOUND:                -0.851
REMARK SMILES CCCCCCCCCCCCCCCC(=O)[O-]
REMARK SMILES IDX 9 1 10 2 11 3 12 4 13 5 14 6 15 7 16 8 17 9 18 10 8 11 7 12
REMARK SMILES IDX 6 13 5 14 4 15 3 16 2 17 1 18
REMARK H PARENT
REMARK Flexibility Score: inf
ROOT
ATOM      1  C   UNL     1     -16.058  -1.838  -1.915  1.00  0.00     0.000 C 
ENDROOT
BRANCH   1   2
ATOM      2  C   UNL     1     -17.119  -0.883  -2.488  1.00  0.00     0.000 C 
BRANCH   2   3
ATOM      3  C   UNL     1     -16.855   0.616  -2.238  1.00  0.00     0.000 C 
BRANCH   3   4
ATOM      4  C   UNL     1     -17.088   1.056  -0.778  1.00  0.00     0.000 C 
BRANCH   4   5
ATOM      5  C   UNL     1     -15.790   1.049   0.045  1.00  0.00     0.000 C 
BRANCH   5   6
ATOM      6  C   UNL     1     -15.627  -0.272   0.805  1.00  0.00     0.006 C 
BRANCH   6   7
ATOM      7  C   UNL     1     -16.927  -0.661   1.515  1.00  0.00     0.053 C 
BRANCH   7   8
ATOM      8  C   UNL     1     -16.839  -0.353   2.975  1.00  0.00     0.041 C 
ATOM      9  O   UNL     1     -16.467   0.787   3.361  1.00  0.00    -0.550 OA
ATOM     10  O   UNL     1     -17.121  -1.338   3.913  1.00  0.00    -0.550 OA
ENDBRANCH   7   8
ENDBRANCH   6   7
ENDBRANCH   5   6
ENDBRANCH   4   5
ENDBRANCH   3   4
ENDBRANCH   2   3
ENDBRANCH   1   2
BRANCH   1  11
ATOM     11  C   UNL     1     -16.425  -3.320  -2.104  1.00  0.00     0.000 C 
BRANCH  11  12
ATOM     12  C   UNL     1     -16.935  -3.635  -3.522  1.00  0.00    -0.000 C 
BRANCH  12  13
ATOM     13  C   UNL     1     -16.299  -2.803  -4.651  1.00  0.00    -0.000 C 
BRANCH  13  14
ATOM     14  C   UNL     1     -15.291  -3.604  -5.492  1.00  0.00    -0.000 C 
BRANCH  14  15
ATOM     15  C   UNL     1     -14.753  -4.848  -4.763  1.00  0.00    -0.000 C 
BRANCH  15  16
ATOM     16  C   UNL     1     -13.431  -4.641  -4.001  1.00  0.00    -0.000 C 
BRANCH  16  17
ATOM     17  C   UNL     1     -12.193  -4.771  -4.900  1.00  0.00    -0.003 C 
ATOM     18  C   UNL     1     -12.588  -5.125  -6.331  1.00  0.00     0.004 C 
ENDBRANCH  16  17
ENDBRANCH  15  16
ENDBRANCH  14  15
ENDBRANCH  13  14
ENDBRANCH  12  13
ENDBRANCH  11  12
ENDBRANCH   1  11
TORSDOF 14
ENDMDL
MODEL 5
REMARK VINA RESULT:    -2.675      3.602      7.901
REMARK INTER + INTRA:          -5.715
REMARK INTER:                  -5.194
REMARK INTRA:                  -0.521
REMARK UNBOUND:                -0.851
REMARK SMILES CCCCCCCCCCCCCCCC(=O)[O-]
REMARK SMILES IDX 9 1 10 2 11 3 12 4 13 5 14 6 15 7 16 8 17 9 18 10 8 11 7 12
REMARK SMILES IDX 6 13 5 14 4 15 3 16 2 17 1 18
REMARK H PARENT
REMARK Flexibility Score: inf
ROOT
ATOM      1  C   UNL     1     -16.504  -2.495  -4.175  1.00  0.00     0.000 C 
ENDROOT
BRANCH   1   2
ATOM      2  C   UNL     1     -16.871  -3.937  -3.784  1.00  0.00     0.000 C 
BRANCH   2   3
ATOM      3  C   UNL     1     -15.675  -4.898  -3.626  1.00  0.00     0.000 C 
BRANCH   3   4
ATOM      4  C   UNL     1     -14.308  -4.187  -3.549  1.00  0.00     0.000 C 
BRANCH   4   5
ATOM      5  C   UNL     1     -13.216  -4.943  -4.322  1.00  0.00     0.000 C 
BRANCH   5   6
ATOM      6  C   UNL     1     -13.281  -4.627  -5.820  1.00  0.00     0.006 C 
BRANCH   6   7
ATOM      7  C   UNL     1     -14.597  -5.119  -6.428  1.00  0.00     0.053 C 
BRANCH   7   8
ATOM      8  C   UNL     1     -15.132  -4.119  -7.402  1.00  0.00     0.041 C 
ATOM      9  O   UNL     1     -15.364  -4.456  -8.594  1.00  0.00    -0.550 OA
ATOM     10  O   UNL     1     -15.328  -2.801  -7.009  1.00  0.00    -0.550 OA
ENDBRANCH   7   8
ENDBRANCH   6   7
ENDBRANCH   5   6
ENDBRANCH   4   5
ENDBRANCH   3   4
ENDBRANCH   2   3
ENDBRANCH   1   2
BRANCH   1  11
ATOM     11  C   UNL     1     -16.775  -1.483  -3.049  1.00  0.00     0.000 C 
BRANCH  11  12
ATOM     12  C   UNL     1     -17.123  -2.157  -1.709  1.00  0.00    -0.000 C 
BRANCH  12  13
ATOM     13  C   UNL     1     -16.782  -1.337  -0.451  1.00  0.00    -0.000 C 
BRANCH  13  14
ATOM     14  C   UNL     1     -16.272   0.078  -0.776  1.00  0.00    -0.000 C 
BRANCH  14  15
ATOM     15  C   UNL     1     -16.002   0.924   0.482  1.00  0.00    -0.000 C 
BRANCH  15  16
ATOM     16  C   UNL     1     -16.888   0.594   1.697  1.00  0.00    -0.000 C 
BRANCH  16  17
ATOM     17  C   UNL     1     -16.171  -0.268   2.747  1.00  0.00    -0.003 C 
ATOM     18  C   UNL     1     -17.125  -1.282   3.371  1.00  0.00     0.004 C 
ENDBRANCH  16  17
ENDBRANCH  15  16
ENDBRANCH  14  15
ENDBRANCH  13  14
ENDBRANCH  12  13
ENDBRANCH  11  12
ENDBRANCH   1  11
TORSDOF 14
ENDMDL
MODEL 6
REMARK VINA RESULT:    -2.014      3.361      8.043
REMARK INTER + INTRA:          -4.513
REMARK INTER:                  -4.326
REMARK INTRA:                  -0.187
REMARK UNBOUND:                -0.851
REMARK SMILES CCCCCCCCCCCCCCCC(=O)[O-]
REMARK SMILES IDX 9 1 10 2 11 3 12 4 13 5 14 6 15 7 16 8 17 9 18 10 8 11 7 12
REMARK SMILES IDX 6 13 5 14 4 15 3 16 2 17 1 18
REMARK H PARENT
REMARK Flexibility Score: inf
ROOT
ATOM      1  C   UNL     1     -15.982  -2.607  -2.612  1.00  0.00     0.000 C 
ENDROOT
BRANCH   1   2
ATOM      2  C   UNL     1     -17.041  -3.672  -2.278  1.00  0.00     0.000 C 
BRANCH   2   3
ATOM      3  C   UNL     1     -17.025  -4.919  -3.185  1.00  0.00     0.000 C 
BRANCH   3   4
ATOM      4  C   UNL     1     -15.922  -4.892  -4.264  1.00  0.00     0.000 C 
BRANCH   4   5
ATOM      5  C   UNL     1     -16.487  -5.097  -5.679  1.00  0.00     0.000 C 
BRANCH   5   6
ATOM      6  C   UNL     1     -15.365  -5.125  -6.722  1.00  0.00     0.006 C 
BRANCH   6   7
ATOM      7  C   UNL     1     -14.280  -4.097  -6.388  1.00  0.00     0.053 C 
BRANCH   7   8
ATOM      8  C   UNL     1     -13.051  -4.779  -5.876  1.00  0.00     0.041 C 
ATOM      9  O   UNL     1     -12.139  -5.125  -6.674  1.00  0.00    -0.550 OA
ATOM     10  O   UNL     1     -12.933  -5.079  -4.525  1.00  0.00    -0.550 OA
ENDBRANCH   7   8
ENDBRANCH   6   7
ENDBRANCH   5   6
ENDBRANCH   4   5
ENDBRANCH   3   4
ENDBRANCH   2   3
ENDBRANCH   1   2
BRANCH   1  11
ATOM     11  C   UNL     1     -16.594  -1.221  -2.880  1.00  0.00     0.000 C 
BRANCH  11  12
ATOM     12  C   UNL     1     -17.125  -0.543  -1.604  1.00  0.00    -0.000 C 
BRANCH  12  13
ATOM     13  C   UNL     1     -16.589  -1.120  -0.280  1.00  0.00    -0.000 C 
BRANCH  13  14
ATOM     14  C   UNL     1     -15.575  -0.193   0.412  1.00  0.00    -0.000 C 
BRANCH  14  15
ATOM     15  C   UNL     1     -15.679  -0.227   1.948  1.00  0.00    -0.000 C 
BRANCH  15  16
ATOM     16  C   UNL     1     -16.966  -0.864   2.504  1.00  0.00    -0.000 C 
BRANCH  16  17
ATOM     17  C   UNL     1     -17.116  -0.685   4.021  1.00  0.00    -0.003 C 
ATOM     18  C   UNL     1     -16.914   0.773   4.426  1.00  0.00     0.004 C 
ENDBRANCH  16  17
ENDBRANCH  15  16
ENDBRANCH  14  15
ENDBRANCH  13  14
ENDBRANCH  12  13
ENDBRANCH  11  12
ENDBRANCH   1  11
TORSDOF 14
ENDMDL
MODEL 7
REMARK VINA RESULT:    -1.901      3.723      8.278
REMARK INTER + INTRA:          -4.308
REMARK INTER:                  -3.450
REMARK INTRA:                  -0.857
REMARK UNBOUND:                -0.851
REMARK SMILES CCCCCCCCCCCCCCCC(=O)[O-]
REMARK SMILES IDX 9 1 10 2 11 3 12 4 13 5 14 6 15 7 16 8 17 9 18 10 8 11 7 12
REMARK SMILES IDX 6 13 5 14 4 15 3 16 2 17 1 18
REMARK H PARENT
REMARK Flexibility Score: inf
ROOT
ATOM      1  C   UNL     1     -15.612  -1.564  -3.065  1.00  0.00     0.000 C 
ENDROOT
BRANCH   1   2
ATOM      2  C   UNL     1     -16.021  -3.014  -3.380  1.00  0.00     0.000 C 
BRANCH   2   3
ATOM      3  C   UNL     1     -15.258  -4.096  -2.590  1.00  0.00     0.000 C 
BRANCH   3   4
ATOM      4  C   UNL     1     -14.384  -5.013  -3.471  1.00  0.00     0.000 C 
BRANCH   4   5
ATOM      5  C   UNL     1     -13.492  -4.215  -4.435  1.00  0.00     0.000 C 
BRANCH   5   6
ATOM      6  C   UNL     1     -13.513  -4.828  -5.839  1.00  0.00     0.006 C 
BRANCH   6   7
ATOM      7  C   UNL     1     -14.949  -5.049  -6.321  1.00  0.00     0.053 C 
BRANCH   7   8
ATOM      8  C   UNL     1     -15.289  -4.090  -7.417  1.00  0.00     0.041 C 
ATOM      9  O   UNL     1     -15.399  -2.860  -7.171  1.00  0.00    -0.550 OA
ATOM     10  O   UNL     1     -15.533  -4.560  -8.701  1.00  0.00    -0.550 OA
ENDBRANCH   7   8
ENDBRANCH   6   7
ENDBRANCH   5   6
ENDBRANCH   4   5
ENDBRANCH   3   4
ENDBRANCH   2   3
ENDBRANCH   1   2
BRANCH   1  11
ATOM     11  C   UNL     1     -16.817  -0.654  -2.770  1.00  0.00     0.000 C 
BRANCH  11  12
ATOM     12  C   UNL     1     -17.123  -0.534  -1.266  1.00  0.00    -0.000 C 
BRANCH  12  13
ATOM     13  C   UNL     1     -16.459  -1.596  -0.371  1.00  0.00    -0.000 C 
BRANCH  13  14
ATOM     14  C   UNL     1     -15.489  -0.992   0.659  1.00  0.00    -0.000 C 
BRANCH  14  15
ATOM     15  C   UNL     1     -16.194  -0.099   1.696  1.00  0.00    -0.000 C 
BRANCH  15  16
ATOM     16  C   UNL     1     -16.151  -0.616   3.145  1.00  0.00    -0.000 C 
BRANCH  16  17
ATOM     17  C   UNL     1     -16.968   0.249   4.116  1.00  0.00    -0.003 C 
ATOM     18  C   UNL     1     -17.125   1.671   3.586  1.00  0.00     0.004 C 
ENDBRANCH  16  17
ENDBRANCH  15  16
ENDBRANCH  14  15
ENDBRANCH  13  14
ENDBRANCH  12  13
ENDBRANCH  11  12
ENDBRANCH   1  11
TORSDOF 14
ENDMDL
MODEL 8
REMARK VINA RESULT:    -1.396      1.630      2.673
REMARK INTER + INTRA:          -3.389
REMARK INTER:                  -3.309
REMARK INTRA:                  -0.080
REMARK UNBOUND:                -0.851
REMARK SMILES CCCCCCCCCCCCCCCC(=O)[O-]
REMARK SMILES IDX 9 1 10 2 11 3 12 4 13 5 14 6 15 7 16 8 17 9 18 10 8 11 7 12
REMARK SMILES IDX 6 13 5 14 4 15 3 16 2 17 1 18
REMARK H PARENT
REMARK Flexibility Score: inf
ROOT
ATOM      1  C   UNL     1     -16.143  -1.328  -1.444  1.00  0.00     0.000 C 
ENDROOT
BRANCH   1   2
ATOM      2  C   UNL     1     -16.662  -0.226  -2.383  1.00  0.00     0.000 C 
BRANCH   2   3
ATOM      3  C   UNL     1     -17.019   1.107  -1.695  1.00  0.00     0.000 C 
BRANCH   3   4
ATOM      4  C   UNL     1     -17.113   1.011  -0.157  1.00  0.00     0.000 C 
BRANCH   4   5
ATOM      5  C   UNL     1     -15.728   0.960   0.507  1.00  0.00     0.000 C 
BRANCH   5   6
ATOM      6  C   UNL     1     -15.617  -0.238   1.457  1.00  0.00     0.006 C 
BRANCH   6   7
ATOM      7  C   UNL     1     -17.003  -0.734   1.880  1.00  0.00     0.053 C 
BRANCH   7   8
ATOM      8  C   UNL     1     -17.041  -0.989   3.353  1.00  0.00     0.041 C 
ATOM      9  O   UNL     1     -17.125  -2.167   3.790  1.00  0.00    -0.550 OA
ATOM     10  O   UNL     1     -17.035   0.077   4.244  1.00  0.00    -0.550 OA
ENDBRANCH   7   8
ENDBRANCH   6   7
ENDBRANCH   5   6
ENDBRANCH   4   5
ENDBRANCH   3   4
ENDBRANCH   2   3
ENDBRANCH   1   2
BRANCH   1  11
ATOM     11  C   UNL     1     -16.601  -2.736  -1.865  1.00  0.00     0.000 C 
BRANCH  11  12
ATOM     12  C   UNL     1     -15.430  -3.723  -2.023  1.00  0.00    -0.000 C 
BRANCH  12  13
ATOM     13  C   UNL     1     -15.814  -5.124  -2.535  1.00  0.00    -0.000 C 
BRANCH  13  14
ATOM     14  C   UNL     1     -16.589  -5.086  -3.863  1.00  0.00    -0.000 C 
BRANCH  14  15
ATOM     15  C   UNL     1     -15.755  -4.528  -5.031  1.00  0.00    -0.000 C 
BRANCH  15  16
ATOM     16  C   UNL     1     -16.403  -4.660  -6.421  1.00  0.00    -0.000 C 
BRANCH  16  17
ATOM     17  C   UNL     1     -15.492  -4.173  -7.556  1.00  0.00    -0.003 C 
ATOM     18  C   UNL     1     -15.692  -5.006  -8.819  1.00  0.00     0.004 C 
ENDBRANCH  16  17
ENDBRANCH  15  16
ENDBRANCH  14  15
ENDBRANCH  13  14
ENDBRANCH  12  13
ENDBRANCH  11  12
ENDBRANCH   1  11
TORSDOF 14
ENDMDL
MODEL 9
REMARK VINA RESULT:    -0.795      1.710      2.397
REMARK INTER + INTRA:          -2.297
REMARK INTER:                  -2.518
REMARK INTRA:                   0.222
REMARK UNBOUND:                -0.851
REMARK SMILES CCCCCCCCCCCCCCCC(=O)[O-]
REMARK SMILES IDX 9 1 10 2 11 3 12 4 13 5 14 6 15 7 16 8 17 9 18 10 8 11 7 12
REMARK SMILES IDX 6 13 5 14 4 15 3 16 2 17 1 18
REMARK H PARENT
REMARK Flexibility Score: inf
ROOT
ATOM      1  C   UNL     1     -16.573  -1.965  -4.304  1.00  0.00     0.000 C 
ENDROOT
BRANCH   1   2
ATOM      2  C   UNL     1     -17.088  -0.947  -3.272  1.00  0.00     0.000 C 
BRANCH   2   3
ATOM      3  C   UNL     1     -16.343  -0.949  -1.922  1.00  0.00     0.000 C 
BRANCH   3   4
ATOM      4  C   UNL     1     -17.124  -1.631  -0.779  1.00  0.00     0.000 C 
BRANCH   4   5
ATOM      5  C   UNL     1     -16.457  -1.417   0.590  1.00  0.00     0.000 C 
BRANCH   5   6
ATOM      6  C   UNL     1     -16.970  -0.136   1.257  1.00  0.00     0.006 C 
BRANCH   6   7
ATOM      7  C   UNL     1     -15.868   0.925   1.329  1.00  0.00     0.053 C 
BRANCH   7   8
ATOM      8  C   UNL     1     -15.796   1.694   0.048  1.00  0.00     0.041 C 
ATOM      9  O   UNL     1     -14.788   2.405  -0.208  1.00  0.00    -0.550 OA
ATOM     10  O   UNL     1     -16.862   1.665  -0.841  1.00  0.00    -0.550 OA
ENDBRANCH   7   8
ENDBRANCH   6   7
ENDBRANCH   5   6
ENDBRANCH   4   5
ENDBRANCH   3   4
ENDBRANCH   2   3
ENDBRANCH   1   2
BRANCH   1  11
ATOM     11  C   UNL     1     -16.137  -3.295  -3.665  1.00  0.00     0.000 C 
BRANCH  11  12
ATOM     12  C   UNL     1     -14.713  -3.241  -3.082  1.00  0.00    -0.000 C 
BRANCH  12  13
ATOM     13  C   UNL     1     -13.808  -4.435  -3.440  1.00  0.00    -0.000 C 
BRANCH  13  14
ATOM     14  C   UNL     1     -13.398  -4.454  -4.922  1.00  0.00    -0.000 C 
BRANCH  14  15
ATOM     15  C   UNL     1     -14.447  -5.125  -5.828  1.00  0.00    -0.000 C 
BRANCH  15  16
ATOM     16  C   UNL     1     -14.678  -4.436  -7.186  1.00  0.00    -0.000 C 
BRANCH  16  17
ATOM     17  C   UNL     1     -16.164  -4.321  -7.555  1.00  0.00    -0.003 C 
ATOM     18  C   UNL     1     -16.396  -4.674  -9.021  1.00  0.00     0.004 C 
ENDBRANCH  16  17
ENDBRANCH  15  16
ENDBRANCH  14  15
ENDBRANCH  13  14
ENDBRANCH  12  13
ENDBRANCH  11  12
ENDBRANCH   1  11
TORSDOF 14
ENDMDL
