MODEL 1
REMARK VINA RESULT:    -6.252      0.000      0.000
REMARK INTER + INTRA:         -14.804
REMARK INTER:                 -13.562
REMARK INTRA:                  -1.243
REMARK UNBOUND:                -1.243
REMARK SMILES CCCCCCCCCCCCCCCCCCCCCC(=O)[O-]
REMARK SMILES IDX 12 1 11 2 10 3 9 4 8 5 7 6 6 7 5 8 4 9 3 10 2 11 1 12 13 13
REMARK SMILES IDX 14 14 15 15 16 16 17 17 18 18 19 19 20 20 21 21 22 22 23 23
REMARK SMILES IDX 24 24
REMARK H PARENT
REMARK Flexibility Score: inf
ROOT
ATOM      1  C   UNL     1      89.065 324.681 198.449  1.00  0.00     0.000 C 
ENDROOT
BRANCH   1   2
ATOM      2  C   UNL     1      89.202 325.861 199.434  1.00  0.00     0.000 C 
BRANCH   2   3
ATOM      3  C   UNL     1      88.831 325.505 200.888  1.00  0.00     0.000 C 
BRANCH   3   4
ATOM      4  C   UNL     1      89.030 326.642 201.904  1.00  0.00    -0.000 C 
BRANCH   4   5
ATOM      5  C   UNL     1      90.512 326.960 202.157  1.00  0.00    -0.000 C 
BRANCH   5   6
ATOM      6  C   UNL     1      90.696 327.686 203.494  1.00  0.00    -0.000 C 
BRANCH   6   7
ATOM      7  C   UNL     1      89.388 327.698 204.300  1.00  0.00    -0.000 C 
BRANCH   7   8
ATOM      8  C   UNL     1      89.591 327.213 205.752  1.00  0.00    -0.000 C 
BRANCH   8   9
ATOM      9  C   UNL     1      88.367 326.487 206.335  1.00  0.00    -0.000 C 
BRANCH   9  10
ATOM     10  C   UNL     1      88.236 325.042 205.834  1.00  0.00    -0.000 C 
BRANCH  10  11
ATOM     11  C   UNL     1      86.767 324.675 205.592  1.00  0.00    -0.003 C 
ATOM     12  C   UNL     1      86.646 323.368 204.815  1.00  0.00     0.004 C 
ENDBRANCH  10  11
ENDBRANCH   9  10
ENDBRANCH   8   9
ENDBRANCH   7   8
ENDBRANCH   6   7
ENDBRANCH   5   6
ENDBRANCH   4   5
ENDBRANCH   3   4
ENDBRANCH   2   3
ENDBRANCH   1   2
BRANCH   1  13
ATOM     13  C   UNL     1      88.929 325.152 196.991  1.00  0.00     0.000 C 
BRANCH  13  14
ATOM     14  C   UNL     1      88.175 326.486 196.867  1.00  0.00     0.000 C 
BRANCH  14  15
ATOM     15  C   UNL     1      87.210 326.507 195.669  1.00  0.00     0.000 C 
BRANCH  15  16
ATOM     16  C   UNL     1      87.912 326.877 194.352  1.00  0.00     0.000 C 
BRANCH  16  17
ATOM     17  C   UNL     1      87.675 325.841 193.238  1.00  0.00     0.000 C 
BRANCH  17  18
ATOM     18  C   UNL     1      88.375 324.498 193.510  1.00  0.00     0.000 C 
BRANCH  18  19
ATOM     19  C   UNL     1      88.499 323.571 192.287  1.00  0.00     0.000 C 
BRANCH  19  20
ATOM     20  C   UNL     1      88.539 324.339 190.955  1.00  0.00     0.006 C 
BRANCH  20  21
ATOM     21  C   UNL     1      88.409 323.405 189.745  1.00  0.00     0.053 C 
BRANCH  21  22
ATOM     22  C   UNL     1      89.740 323.119 189.116  1.00  0.00     0.041 C 
ATOM     23  O   UNL     1      90.286 323.977 188.374  1.00  0.00    -0.550 OA
ATOM     24  O   UNL     1      90.395 321.923 189.382  1.00  0.00    -0.550 OA
ENDBRANCH  21  22
ENDBRANCH  20  21
ENDBRANCH  19  20
ENDBRANCH  18  19
ENDBRANCH  17  18
ENDBRANCH  16  17
ENDBRANCH  15  16
ENDBRANCH  14  15
ENDBRANCH  13  14
ENDBRANCH   1  13
TORSDOF 20
ENDMDL
MODEL 2
REMARK VINA RESULT:    -6.237      1.239      1.379
REMARK INTER + INTRA:         -14.771
REMARK INTER:                 -12.969
REMARK INTRA:                  -1.802
REMARK UNBOUND:                -1.243
REMARK SMILES CCCCCCCCCCCCCCCCCCCCCC(=O)[O-]
REMARK SMILES IDX 12 1 11 2 10 3 9 4 8 5 7 6 6 7 5 8 4 9 3 10 2 11 1 12 13 13
REMARK SMILES IDX 14 14 15 15 16 16 17 17 18 18 19 19 20 20 21 21 22 22 23 23
REMARK SMILES IDX 24 24
REMARK H PARENT
REMARK Flexibility Score: inf
ROOT
ATOM      1  C   UNL     1      89.059 325.072 198.498  1.00  0.00     0.000 C 
ENDROOT
BRANCH   1   2
ATOM      2  C   UNL     1      89.235 326.555 198.887  1.00  0.00     0.000 C 
BRANCH   2   3
ATOM      3  C   UNL     1      89.519 326.776 200.386  1.00  0.00     0.000 C 
BRANCH   3   4
ATOM      4  C   UNL     1      88.980 325.679 201.317  1.00  0.00    -0.000 C 
BRANCH   4   5
ATOM      5  C   UNL     1      89.609 325.726 202.718  1.00  0.00    -0.000 C 
BRANCH   5   6
ATOM      6  C   UNL     1      89.964 327.164 203.113  1.00  0.00    -0.000 C 
BRANCH   6   7
ATOM      7  C   UNL     1      89.096 327.643 204.286  1.00  0.00    -0.000 C 
BRANCH   7   8
ATOM      8  C   UNL     1      89.315 326.798 205.560  1.00  0.00    -0.000 C 
BRANCH   8   9
ATOM      9  C   UNL     1      88.035 326.121 206.078  1.00  0.00    -0.000 C 
BRANCH   9  10
ATOM     10  C   UNL     1      88.003 324.612 205.796  1.00  0.00    -0.000 C 
BRANCH  10  11
ATOM     11  C   UNL     1      86.624 324.179 205.282  1.00  0.00    -0.003 C 
ATOM     12  C   UNL     1      86.693 323.742 203.822  1.00  0.00     0.004 C 
ENDBRANCH  10  11
ENDBRANCH   9  10
ENDBRANCH   8   9
ENDBRANCH   7   8
ENDBRANCH   6   7
ENDBRANCH   5   6
ENDBRANCH   4   5
ENDBRANCH   3   4
ENDBRANCH   2   3
ENDBRANCH   1   2
BRANCH   1  13
ATOM     13  C   UNL     1      88.650 324.899 197.025  1.00  0.00     0.000 C 
BRANCH  13  14
ATOM     14  C   UNL     1      88.457 326.243 196.303  1.00  0.00     0.000 C 
BRANCH  14  15
ATOM     15  C   UNL     1      87.009 326.452 195.826  1.00  0.00     0.000 C 
BRANCH  15  16
ATOM     16  C   UNL     1      86.913 326.671 194.308  1.00  0.00     0.000 C 
BRANCH  16  17
ATOM     17  C   UNL     1      85.992 325.651 193.614  1.00  0.00     0.000 C 
BRANCH  17  18
ATOM     18  C   UNL     1      86.628 324.254 193.494  1.00  0.00     0.000 C 
BRANCH  18  19
ATOM     19  C   UNL     1      88.079 324.244 192.981  1.00  0.00     0.000 C 
BRANCH  19  20
ATOM     20  C   UNL     1      88.197 324.673 191.509  1.00  0.00     0.006 C 
BRANCH  20  21
ATOM     21  C   UNL     1      88.942 323.631 190.662  1.00  0.00     0.053 C 
BRANCH  21  22
ATOM     22  C   UNL     1      88.031 322.955 189.682  1.00  0.00     0.041 C 
ATOM     23  O   UNL     1      86.831 322.725 189.989  1.00  0.00    -0.550 OA
ATOM     24  O   UNL     1      88.495 322.616 188.418  1.00  0.00    -0.550 OA
ENDBRANCH  21  22
ENDBRANCH  20  21
ENDBRANCH  19  20
ENDBRANCH  18  19
ENDBRANCH  17  18
ENDBRANCH  16  17
ENDBRANCH  15  16
ENDBRANCH  14  15
ENDBRANCH  13  14
ENDBRANCH   1  13
TORSDOF 20
ENDMDL
MODEL 3
REMARK VINA RESULT:    -6.219      4.090     11.212
REMARK INTER + INTRA:         -14.734
REMARK INTER:                 -13.130
REMARK INTRA:                  -1.604
REMARK UNBOUND:                -1.243
REMARK SMILES CCCCCCCCCCCCCCCCCCCCCC(=O)[O-]
REMARK SMILES IDX 12 1 11 2 10 3 9 4 8 5 7 6 6 7 5 8 4 9 3 10 2 11 1 12 13 13
REMARK SMILES IDX 14 14 15 15 16 16 17 17 18 18 19 19 20 20 21 21 22 22 23 23
REMARK SMILES IDX 24 24
REMARK H PARENT
REMARK Flexibility Score: inf
ROOT
ATOM      1  C   UNL     1      90.451 325.551 200.070  1.00  0.00     0.000 C 
ENDROOT
BRANCH   1   2
ATOM      2  C   UNL     1      89.248 325.812 199.139  1.00  0.00     0.000 C 
BRANCH   2   3
ATOM      3  C   UNL     1      88.975 324.670 198.140  1.00  0.00     0.000 C 
BRANCH   3   4
ATOM      4  C   UNL     1      88.707 325.123 196.695  1.00  0.00    -0.000 C 
BRANCH   4   5
ATOM      5  C   UNL     1      88.136 326.547 196.616  1.00  0.00    -0.000 C 
BRANCH   5   6
ATOM      6  C   UNL     1      86.808 326.564 195.851  1.00  0.00    -0.000 C 
BRANCH   6   7
ATOM      7  C   UNL     1      87.045 326.515 194.334  1.00  0.00    -0.000 C 
BRANCH   7   8
ATOM      8  C   UNL     1      85.982 325.666 193.603  1.00  0.00    -0.000 C 
BRANCH   8   9
ATOM      9  C   UNL     1      86.574 324.496 192.799  1.00  0.00    -0.000 C 
BRANCH   9  10
ATOM     10  C   UNL     1      88.045 324.716 192.420  1.00  0.00    -0.000 C 
BRANCH  10  11
ATOM     11  C   UNL     1      88.561 323.575 191.536  1.00  0.00    -0.003 C 
ATOM     12  C   UNL     1      88.920 324.078 190.141  1.00  0.00     0.004 C 
ENDBRANCH  10  11
ENDBRANCH   9  10
ENDBRANCH   8   9
ENDBRANCH   7   8
ENDBRANCH   6   7
ENDBRANCH   5   6
ENDBRANCH   4   5
ENDBRANCH   3   4
ENDBRANCH   2   3
ENDBRANCH   1   2
BRANCH   1  13
ATOM     13  C   UNL     1      90.730 326.737 201.010  1.00  0.00     0.000 C 
BRANCH  13  14
ATOM     14  C   UNL     1      89.669 326.880 202.113  1.00  0.00     0.000 C 
BRANCH  14  15
ATOM     15  C   UNL     1      90.247 327.465 203.413  1.00  0.00     0.000 C 
BRANCH  15  16
ATOM     16  C   UNL     1      89.185 327.624 204.513  1.00  0.00     0.000 C 
BRANCH  16  17
ATOM     17  C   UNL     1      89.727 327.305 205.917  1.00  0.00     0.000 C 
BRANCH  17  18
ATOM     18  C   UNL     1      88.870 326.273 206.671  1.00  0.00     0.000 C 
BRANCH  18  19
ATOM     19  C   UNL     1      87.565 325.870 205.961  1.00  0.00     0.000 C 
BRANCH  19  20
ATOM     20  C   UNL     1      87.512 324.373 205.611  1.00  0.00     0.006 C 
BRANCH  20  21
ATOM     21  C   UNL     1      88.382 324.032 204.393  1.00  0.00     0.053 C 
BRANCH  21  22
ATOM     22  C   UNL     1      87.556 323.829 203.158  1.00  0.00     0.041 C 
ATOM     23  O   UNL     1      86.300 323.807 203.234  1.00  0.00    -0.550 OA
ATOM     24  O   UNL     1      88.173 323.705 201.920  1.00  0.00    -0.550 OA
ENDBRANCH  21  22
ENDBRANCH  20  21
ENDBRANCH  19  20
ENDBRANCH  18  19
ENDBRANCH  17  18
ENDBRANCH  16  17
ENDBRANCH  15  16
ENDBRANCH  14  15
ENDBRANCH  13  14
ENDBRANCH   1  13
TORSDOF 20
ENDMDL
MODEL 4
REMARK VINA RESULT:    -6.159      4.411     12.019
REMARK INTER + INTRA:         -14.603
REMARK INTER:                 -13.270
REMARK INTRA:                  -1.332
REMARK UNBOUND:                -1.243
REMARK SMILES CCCCCCCCCCCCCCCCCCCCCC(=O)[O-]
REMARK SMILES IDX 12 1 11 2 10 3 9 4 8 5 7 6 6 7 5 8 4 9 3 10 2 11 1 12 13 13
REMARK SMILES IDX 14 14 15 15 16 16 17 17 18 18 19 19 20 20 21 21 22 22 23 23
REMARK SMILES IDX 24 24
REMARK H PARENT
REMARK Flexibility Score: inf
ROOT
ATOM      1  C   UNL     1      89.079 325.059 198.573  1.00  0.00     0.000 C 
ENDROOT
BRANCH   1   2
ATOM      2  C   UNL     1      88.879 325.231 197.052  1.00  0.00     0.000 C 
BRANCH   2   3
ATOM      3  C   UNL     1      88.134 326.524 196.663  1.00  0.00     0.000 C 
BRANCH   3   4
ATOM      4  C   UNL     1      86.986 326.333 195.659  1.00  0.00    -0.000 C 
BRANCH   4   5
ATOM      5  C   UNL     1      87.185 327.144 194.368  1.00  0.00    -0.000 C 
BRANCH   5   6
ATOM      6  C   UNL     1      88.096 326.398 193.387  1.00  0.00    -0.000 C 
BRANCH   6   7
ATOM      7  C   UNL     1      87.458 325.074 192.940  1.00  0.00    -0.000 C 
BRANCH   7   8
ATOM      8  C   UNL     1      88.505 324.067 192.416  1.00  0.00    -0.000 C 
BRANCH   8   9
ATOM      9  C   UNL     1      88.083 323.359 191.117  1.00  0.00    -0.000 C 
BRANCH   9  10
ATOM     10  C   UNL     1      88.881 323.831 189.894  1.00  0.00    -0.000 C 
BRANCH  10  11
ATOM     11  C   UNL     1      89.873 322.755 189.437  1.00  0.00    -0.003 C 
ATOM     12  C   UNL     1      90.827 323.298 188.378  1.00  0.00     0.004 C 
ENDBRANCH  10  11
ENDBRANCH   9  10
ENDBRANCH   8   9
ENDBRANCH   7   8
ENDBRANCH   6   7
ENDBRANCH   5   6
ENDBRANCH   4   5
ENDBRANCH   3   4
ENDBRANCH   2   3
ENDBRANCH   1   2
BRANCH   1  13
ATOM     13  C   UNL     1      89.229 326.408 199.297  1.00  0.00     0.000 C 
BRANCH  13  14
ATOM     14  C   UNL     1      90.055 326.298 200.588  1.00  0.00     0.000 C 
BRANCH  14  15
ATOM     15  C   UNL     1      89.210 326.540 201.851  1.00  0.00     0.000 C 
BRANCH  15  16
ATOM     16  C   UNL     1      90.019 327.185 202.988  1.00  0.00     0.000 C 
BRANCH  16  17
ATOM     17  C   UNL     1      89.138 327.633 204.168  1.00  0.00     0.000 C 
BRANCH  17  18
ATOM     18  C   UNL     1      89.835 327.477 205.531  1.00  0.00     0.000 C 
BRANCH  18  19
ATOM     19  C   UNL     1      89.038 326.681 206.580  1.00  0.00     0.000 C 
BRANCH  19  20
ATOM     20  C   UNL     1      87.820 325.957 205.984  1.00  0.00     0.006 C 
BRANCH  20  21
ATOM     21  C   UNL     1      88.056 324.447 205.845  1.00  0.00     0.053 C 
BRANCH  21  22
ATOM     22  C   UNL     1      88.308 324.052 204.421  1.00  0.00     0.041 C 
ATOM     23  O   UNL     1      89.449 323.653 204.068  1.00  0.00    -0.550 OA
ATOM     24  O   UNL     1      87.274 324.086 203.494  1.00  0.00    -0.550 OA
ENDBRANCH  21  22
ENDBRANCH  20  21
ENDBRANCH  19  20
ENDBRANCH  18  19
ENDBRANCH  17  18
ENDBRANCH  16  17
ENDBRANCH  15  16
ENDBRANCH  14  15
ENDBRANCH  13  14
ENDBRANCH   1  13
TORSDOF 20
ENDMDL
MODEL 5
REMARK VINA RESULT:    -6.127      5.103     12.329
REMARK INTER + INTRA:         -14.534
REMARK INTER:                 -13.303
REMARK INTRA:                  -1.231
REMARK UNBOUND:                -1.243
REMARK SMILES CCCCCCCCCCCCCCCCCCCCCC(=O)[O-]
REMARK SMILES IDX 12 1 11 2 10 3 9 4 8 5 7 6 6 7 5 8 4 9 3 10 2 11 1 12 13 13
REMARK SMILES IDX 14 14 15 15 16 16 17 17 18 18 19 19 20 20 21 21 22 22 23 23
REMARK SMILES IDX 24 24
REMARK H PARENT
REMARK Flexibility Score: inf
ROOT
ATOM      1  C   UNL     1      88.732 326.545 195.492  1.00  0.00     0.000 C 
ENDROOT
BRANCH   1   2
ATOM      2  C   UNL     1      87.813 326.905 194.305  1.00  0.00     0.000 C 
BRANCH   2   3
ATOM      3  C   UNL     1      86.454 326.178 194.326  1.00  0.00     0.000 C 
BRANCH   3   4
ATOM      4  C   UNL     1      86.261 325.132 193.215  1.00  0.00    -0.000 C 
BRANCH   4   5
ATOM      5  C   UNL     1      87.072 323.850 193.460  1.00  0.00    -0.000 C 
BRANCH   5   6
ATOM      6  C   UNL     1      88.456 323.942 192.808  1.00  0.00    -0.000 C 
BRANCH   6   7
ATOM      7  C   UNL     1      88.361 324.540 191.396  1.00  0.00    -0.000 C 
BRANCH   7   8
ATOM      8  C   UNL     1      87.907 323.500 190.349  1.00  0.00    -0.000 C 
BRANCH   8   9
ATOM      9  C   UNL     1      89.073 322.795 189.635  1.00  0.00    -0.000 C 
BRANCH   9  10
ATOM     10  C   UNL     1      89.979 323.769 188.869  1.00  0.00    -0.000 C 
BRANCH  10  11
ATOM     11  C   UNL     1      91.045 323.013 188.068  1.00  0.00    -0.003 C 
ATOM     12  C   UNL     1      91.774 321.996 188.942  1.00  0.00     0.004 C 
ENDBRANCH  10  11
ENDBRANCH   9  10
ENDBRANCH   8   9
ENDBRANCH   7   8
ENDBRANCH   6   7
ENDBRANCH   5   6
ENDBRANCH   4   5
ENDBRANCH   3   4
ENDBRANCH   2   3
ENDBRANCH   1   2
BRANCH   1  13
ATOM     13  C   UNL     1      87.951 326.397 196.809  1.00  0.00     0.000 C 
BRANCH  13  14
ATOM     14  C   UNL     1      88.850 326.533 198.049  1.00  0.00     0.000 C 
BRANCH  14  15
ATOM     15  C   UNL     1      89.242 325.169 198.643  1.00  0.00     0.000 C 
BRANCH  15  16
ATOM     16  C   UNL     1      90.082 325.303 199.924  1.00  0.00     0.000 C 
BRANCH  16  17
ATOM     17  C   UNL     1      90.142 326.749 200.449  1.00  0.00     0.000 C 
BRANCH  17  18
ATOM     18  C   UNL     1      91.349 327.003 201.370  1.00  0.00     0.000 C 
BRANCH  18  19
ATOM     19  C   UNL     1      90.992 327.354 202.826  1.00  0.00     0.000 C 
BRANCH  19  20
ATOM     20  C   UNL     1      89.502 327.144 203.145  1.00  0.00     0.006 C 
BRANCH  20  21
ATOM     21  C   UNL     1      89.116 327.728 204.511  1.00  0.00     0.053 C 
BRANCH  21  22
ATOM     22  C   UNL     1      88.947 326.656 205.546  1.00  0.00     0.041 C 
ATOM     23  O   UNL     1      89.463 326.793 206.687  1.00  0.00    -0.550 OA
ATOM     24  O   UNL     1      88.188 325.528 205.264  1.00  0.00    -0.550 OA
ENDBRANCH  21  22
ENDBRANCH  20  21
ENDBRANCH  19  20
ENDBRANCH  18  19
ENDBRANCH  17  18
ENDBRANCH  16  17
ENDBRANCH  15  16
ENDBRANCH  14  15
ENDBRANCH  13  14
ENDBRANCH   1  13
TORSDOF 20
ENDMDL
MODEL 6
REMARK VINA RESULT:    -6.062      4.691     11.316
REMARK INTER + INTRA:         -14.392
REMARK INTER:                 -12.667
REMARK INTRA:                  -1.725
REMARK UNBOUND:                -1.243
REMARK SMILES CCCCCCCCCCCCCCCCCCCCCC(=O)[O-]
REMARK SMILES IDX 12 1 11 2 10 3 9 4 8 5 7 6 6 7 5 8 4 9 3 10 2 11 1 12 13 13
REMARK SMILES IDX 14 14 15 15 16 16 17 17 18 18 19 19 20 20 21 21 22 22 23 23
REMARK SMILES IDX 24 24
REMARK H PARENT
REMARK Flexibility Score: inf
ROOT
ATOM      1  C   UNL     1      88.590 326.129 201.246  1.00  0.00     0.000 C 
ENDROOT
BRANCH   1   2
ATOM      2  C   UNL     1      89.364 326.160 199.910  1.00  0.00     0.000 C 
BRANCH   2   3
ATOM      3  C   UNL     1      89.253 324.856 199.096  1.00  0.00     0.000 C 
BRANCH   3   4
ATOM      4  C   UNL     1      88.924 325.048 197.606  1.00  0.00    -0.000 C 
BRANCH   4   5
ATOM      5  C   UNL     1      88.531 326.494 197.267  1.00  0.00    -0.000 C 
BRANCH   5   6
ATOM      6  C   UNL     1      88.159 326.629 195.786  1.00  0.00    -0.000 C 
BRANCH   6   7
ATOM      7  C   UNL     1      86.645 326.470 195.581  1.00  0.00    -0.000 C 
BRANCH   7   8
ATOM      8  C   UNL     1      86.289 326.074 194.132  1.00  0.00    -0.000 C 
BRANCH   8   9
ATOM      9  C   UNL     1      86.773 324.667 193.742  1.00  0.00    -0.000 C 
BRANCH   9  10
ATOM     10  C   UNL     1      86.070 324.119 192.493  1.00  0.00    -0.000 C 
BRANCH  10  11
ATOM     11  C   UNL     1      87.075 323.871 191.361  1.00  0.00    -0.003 C 
ATOM     12  C   UNL     1      88.440 324.464 191.696  1.00  0.00     0.004 C 
ENDBRANCH  10  11
ENDBRANCH   9  10
ENDBRANCH   8   9
ENDBRANCH   7   8
ENDBRANCH   6   7
ENDBRANCH   5   6
ENDBRANCH   4   5
ENDBRANCH   3   4
ENDBRANCH   2   3
ENDBRANCH   1   2
BRANCH   1  13
ATOM     13  C   UNL     1      88.617 324.739 201.903  1.00  0.00     0.000 C 
BRANCH  13  14
ATOM     14  C   UNL     1      87.210 324.173 202.152  1.00  0.00     0.000 C 
BRANCH  14  15
ATOM     15  C   UNL     1      87.184 323.140 203.292  1.00  0.00     0.000 C 
BRANCH  15  16
ATOM     16  C   UNL     1      86.549 323.694 204.577  1.00  0.00     0.000 C 
BRANCH  16  17
ATOM     17  C   UNL     1      87.472 323.562 205.803  1.00  0.00     0.000 C 
BRANCH  17  18
ATOM     18  C   UNL     1      88.555 324.655 205.858  1.00  0.00     0.000 C 
BRANCH  18  19
ATOM     19  C   UNL     1      88.022 326.088 206.033  1.00  0.00     0.000 C 
BRANCH  19  20
ATOM     20  C   UNL     1      89.126 327.154 205.934  1.00  0.00     0.006 C 
BRANCH  20  21
ATOM     21  C   UNL     1      89.403 327.566 204.481  1.00  0.00     0.053 C 
BRANCH  21  22
ATOM     22  C   UNL     1      90.872 327.604 204.183  1.00  0.00     0.041 C 
ATOM     23  O   UNL     1      91.709 327.563 205.123  1.00  0.00    -0.550 OA
ATOM     24  O   UNL     1      91.315 327.645 202.868  1.00  0.00    -0.550 OA
ENDBRANCH  21  22
ENDBRANCH  20  21
ENDBRANCH  19  20
ENDBRANCH  18  19
ENDBRANCH  17  18
ENDBRANCH  16  17
ENDBRANCH  15  16
ENDBRANCH  14  15
ENDBRANCH  13  14
ENDBRANCH   1  13
TORSDOF 20
ENDMDL
MODEL 7
REMARK VINA RESULT:    -6.034      2.017      3.343
REMARK INTER + INTRA:         -14.331
REMARK INTER:                 -12.090
REMARK INTRA:                  -2.242
REMARK UNBOUND:                -1.243
REMARK SMILES CCCCCCCCCCCCCCCCCCCCCC(=O)[O-]
REMARK SMILES IDX 12 1 11 2 10 3 9 4 8 5 7 6 6 7 5 8 4 9 3 10 2 11 1 12 13 13
REMARK SMILES IDX 14 14 15 15 16 16 17 17 18 18 19 19 20 20 21 21 22 22 23 23
REMARK SMILES IDX 24 24
REMARK H PARENT
REMARK Flexibility Score: inf
ROOT
ATOM      1  C   UNL     1      89.430 325.495 201.083  1.00  0.00     0.000 C 
ENDROOT
BRANCH   1   2
ATOM      2  C   UNL     1      88.874 326.649 201.943  1.00  0.00     0.000 C 
BRANCH   2   3
ATOM      3  C   UNL     1      89.840 327.128 203.045  1.00  0.00     0.000 C 
BRANCH   3   4
ATOM      4  C   UNL     1      89.161 327.660 204.317  1.00  0.00    -0.000 C 
BRANCH   4   5
ATOM      5  C   UNL     1      89.869 327.205 205.603  1.00  0.00    -0.000 C 
BRANCH   5   6
ATOM      6  C   UNL     1      88.860 326.673 206.627  1.00  0.00    -0.000 C 
BRANCH   6   7
ATOM      7  C   UNL     1      87.806 325.783 205.950  1.00  0.00    -0.000 C 
BRANCH   7   8
ATOM      8  C   UNL     1      88.342 324.366 205.651  1.00  0.00    -0.000 C 
BRANCH   8   9
ATOM      9  C   UNL     1      88.027 323.877 204.227  1.00  0.00    -0.000 C 
BRANCH   9  10
ATOM     10  C   UNL     1      86.525 323.893 203.909  1.00  0.00    -0.000 C 
BRANCH  10  11
ATOM     11  C   UNL     1      86.284 323.934 202.395  1.00  0.00    -0.003 C 
ATOM     12  C   UNL     1      86.977 322.769 201.695  1.00  0.00     0.004 C 
ENDBRANCH  10  11
ENDBRANCH   9  10
ENDBRANCH   8   9
ENDBRANCH   7   8
ENDBRANCH   6   7
ENDBRANCH   5   6
ENDBRANCH   4   5
ENDBRANCH   3   4
ENDBRANCH   2   3
ENDBRANCH   1   2
BRANCH   1  13
ATOM     13  C   UNL     1      89.327 325.787 199.577  1.00  0.00     0.000 C 
BRANCH  13  14
ATOM     14  C   UNL     1      89.049 324.524 198.746  1.00  0.00     0.000 C 
BRANCH  14  15
ATOM     15  C   UNL     1      88.940 324.822 197.240  1.00  0.00     0.000 C 
BRANCH  15  16
ATOM     16  C   UNL     1      88.445 326.250 196.956  1.00  0.00     0.000 C 
BRANCH  16  17
ATOM     17  C   UNL     1      88.385 326.572 195.452  1.00  0.00     0.000 C 
BRANCH  17  18
ATOM     18  C   UNL     1      86.948 326.606 194.902  1.00  0.00     0.000 C 
BRANCH  18  19
ATOM     19  C   UNL     1      86.742 325.851 193.576  1.00  0.00     0.000 C 
BRANCH  19  20
ATOM     20  C   UNL     1      88.066 325.489 192.882  1.00  0.00     0.006 C 
BRANCH  20  21
ATOM     21  C   UNL     1      88.026 324.087 192.257  1.00  0.00     0.053 C 
BRANCH  21  22
ATOM     22  C   UNL     1      87.990 323.013 193.302  1.00  0.00     0.041 C 
ATOM     23  O   UNL     1      87.024 322.207 193.347  1.00  0.00    -0.550 OA
ATOM     24  O   UNL     1      89.042 322.877 194.199  1.00  0.00    -0.550 OA
ENDBRANCH  21  22
ENDBRANCH  20  21
ENDBRANCH  19  20
ENDBRANCH  18  19
ENDBRANCH  17  18
ENDBRANCH  16  17
ENDBRANCH  15  16
ENDBRANCH  14  15
ENDBRANCH  13  14
ENDBRANCH   1  13
TORSDOF 20
ENDMDL
MODEL 8
REMARK VINA RESULT:    -5.982      1.299      2.747
REMARK INTER + INTRA:         -14.219
REMARK INTER:                 -12.243
REMARK INTRA:                  -1.976
REMARK UNBOUND:                -1.243
REMARK SMILES CCCCCCCCCCCCCCCCCCCCCC(=O)[O-]
REMARK SMILES IDX 12 1 11 2 10 3 9 4 8 5 7 6 6 7 5 8 4 9 3 10 2 11 1 12 13 13
REMARK SMILES IDX 14 14 15 15 16 16 17 17 18 18 19 19 20 20 21 21 22 22 23 23
REMARK SMILES IDX 24 24
REMARK H PARENT
REMARK Flexibility Score: inf
ROOT
ATOM      1  C   UNL     1      89.234 326.196 199.103  1.00  0.00     0.000 C 
ENDROOT
BRANCH   1   2
ATOM      2  C   UNL     1      89.350 326.075 200.638  1.00  0.00     0.000 C 
BRANCH   2   3
ATOM      3  C   UNL     1      88.770 324.763 201.204  1.00  0.00     0.000 C 
BRANCH   3   4
ATOM      4  C   UNL     1      88.234 324.859 202.641  1.00  0.00    -0.000 C 
BRANCH   4   5
ATOM      5  C   UNL     1      88.523 323.597 203.469  1.00  0.00    -0.000 C 
BRANCH   5   6
ATOM      6  C   UNL     1      88.388 323.881 204.969  1.00  0.00    -0.000 C 
BRANCH   6   7
ATOM      7  C   UNL     1      87.877 325.309 205.216  1.00  0.00    -0.000 C 
BRANCH   7   8
ATOM      8  C   UNL     1      88.634 326.011 206.363  1.00  0.00    -0.000 C 
BRANCH   8   9
ATOM      9  C   UNL     1      89.374 327.286 205.923  1.00  0.00    -0.000 C 
BRANCH   9  10
ATOM     10  C   UNL     1      89.218 327.579 204.425  1.00  0.00    -0.000 C 
BRANCH  10  11
ATOM     11  C   UNL     1      90.587 327.738 203.751  1.00  0.00    -0.003 C 
ATOM     12  C   UNL     1      91.367 326.427 203.771  1.00  0.00     0.004 C 
ENDBRANCH  10  11
ENDBRANCH   9  10
ENDBRANCH   8   9
ENDBRANCH   7   8
ENDBRANCH   6   7
ENDBRANCH   5   6
ENDBRANCH   4   5
ENDBRANCH   3   4
ENDBRANCH   2   3
ENDBRANCH   1   2
BRANCH   1  13
ATOM     13  C   UNL     1      89.225 324.824 198.409  1.00  0.00     0.000 C 
BRANCH  13  14
ATOM     14  C   UNL     1      88.555 324.865 197.026  1.00  0.00     0.000 C 
BRANCH  14  15
ATOM     15  C   UNL     1      88.317 326.301 196.529  1.00  0.00     0.000 C 
BRANCH  15  16
ATOM     16  C   UNL     1      86.879 326.523 196.032  1.00  0.00     0.000 C 
BRANCH  16  17
ATOM     17  C   UNL     1      86.634 325.933 194.632  1.00  0.00     0.000 C 
BRANCH  17  18
ATOM     18  C   UNL     1      87.778 326.232 193.647  1.00  0.00     0.000 C 
BRANCH  18  19
ATOM     19  C   UNL     1      88.395 324.993 192.972  1.00  0.00     0.000 C 
BRANCH  19  20
ATOM     20  C   UNL     1      87.606 324.530 191.736  1.00  0.00     0.006 C 
BRANCH  20  21
ATOM     21  C   UNL     1      88.529 324.032 190.615  1.00  0.00     0.053 C 
BRANCH  21  22
ATOM     22  C   UNL     1      87.852 323.012 189.749  1.00  0.00     0.041 C 
ATOM     23  O   UNL     1      86.820 322.419 190.159  1.00  0.00    -0.550 OA
ATOM     24  O   UNL     1      88.339 322.745 188.476  1.00  0.00    -0.550 OA
ENDBRANCH  21  22
ENDBRANCH  20  21
ENDBRANCH  19  20
ENDBRANCH  18  19
ENDBRANCH  17  18
ENDBRANCH  16  17
ENDBRANCH  15  16
ENDBRANCH  14  15
ENDBRANCH  13  14
ENDBRANCH   1  13
TORSDOF 20
ENDMDL
