MODEL 1
REMARK VINA RESULT:    -4.542      0.000      0.000
REMARK INTER + INTRA:          -4.675
REMARK INTER:                  -4.675
REMARK INTRA:                   0.000
REMARK UNBOUND:                 0.000
REMARK SMILES O=c1ccc2ccc(O)cc2o1
REMARK SMILES IDX 6 1 7 2 8 3 10 4 11 5 5 6 4 7 3 8 2 9 1 10 12 11 9 12
REMARK H PARENT 9 13
REMARK Flexibility Score: inf
ROOT
ATOM      1  C   UNL     1       2.929  37.444   5.359  1.00  0.00     0.016 A 
ATOM      2  C   UNL     1       3.098  38.790   5.701  1.00  0.00     0.047 A 
ATOM      3  C   UNL     1       2.082  39.483   6.369  1.00  0.00     0.119 A 
ATOM      4  C   UNL     1       0.887  38.825   6.698  1.00  0.00     0.094 A 
ATOM      5  C   UNL     1       0.709  37.479   6.360  1.00  0.00     0.142 A 
ATOM      6  C   UNL     1       1.737  36.784   5.686  1.00  0.00     0.018 A 
ATOM      7  C   UNL     1       1.531  35.440   5.361  1.00  0.00     0.019 A 
ATOM      8  C   UNL     1       0.326  34.829   5.709  1.00  0.00     0.094 A 
ATOM      9  C   UNL     1      -0.647  35.581   6.376  1.00  0.00     0.336 A 
ATOM     10  O   UNL     1      -1.741  35.048   6.698  1.00  0.00    -0.246 OA
ATOM     11  O   UNL     1      -0.425  36.859   6.673  1.00  0.00    -0.423 OA
ENDROOT
BRANCH   3  12
ATOM     12  O   UNL     1       2.269  40.823   6.701  1.00  0.00    -0.508 OA
ATOM     13  H   UNL     1       1.530  41.371   7.125  1.00  0.00     0.293 HD
ENDBRANCH   3  12
TORSDOF 1
ENDMDL
MODEL 2
REMARK VINA RESULT:    -4.421      0.792      4.222
REMARK INTER + INTRA:          -4.551
REMARK INTER:                  -4.551
REMARK INTRA:                   0.000
REMARK UNBOUND:                 0.000
REMARK SMILES O=c1ccc2ccc(O)cc2o1
REMARK SMILES IDX 6 1 7 2 8 3 10 4 11 5 5 6 4 7 3 8 2 9 1 10 12 11 9 12
REMARK H PARENT 9 13
REMARK Flexibility Score: inf
ROOT
ATOM      1  C   UNL     1       1.745  35.508   5.387  1.00  0.00     0.016 A 
ATOM      2  C   UNL     1       0.604  34.748   5.667  1.00  0.00     0.047 A 
ATOM      3  C   UNL     1      -0.525  35.350   6.235  1.00  0.00     0.119 A 
ATOM      4  C   UNL     1      -0.514  36.722   6.526  1.00  0.00     0.094 A 
ATOM      5  C   UNL     1       0.622  37.490   6.250  1.00  0.00     0.142 A 
ATOM      6  C   UNL     1       1.759  36.879   5.677  1.00  0.00     0.018 A 
ATOM      7  C   UNL     1       2.880  37.672   5.412  1.00  0.00     0.019 A 
ATOM      8  C   UNL     1       2.844  39.032   5.720  1.00  0.00     0.094 A 
ATOM      9  C   UNL     1       1.682  39.569   6.287  1.00  0.00     0.336 A 
ATOM     10  O   UNL     1       1.630  40.794   6.571  1.00  0.00    -0.246 OA
ATOM     11  O   UNL     1       0.629  38.792   6.528  1.00  0.00    -0.423 OA
ENDROOT
BRANCH   3  12
ATOM     12  O   UNL     1      -1.652  34.576   6.505  1.00  0.00    -0.508 OA
ATOM     13  H   UNL     1      -2.229  34.749   7.320  1.00  0.00     0.293 HD
ENDBRANCH   3  12
TORSDOF 1
ENDMDL
MODEL 3
REMARK VINA RESULT:    -4.345      1.790      3.971
REMARK INTER + INTRA:          -4.472
REMARK INTER:                  -4.472
REMARK INTRA:                   0.000
REMARK UNBOUND:                 0.000
REMARK SMILES O=c1ccc2ccc(O)cc2o1
REMARK SMILES IDX 6 1 7 2 8 3 10 4 11 5 5 6 4 7 3 8 2 9 1 10 12 11 9 12
REMARK H PARENT 9 13
REMARK Flexibility Score: inf
ROOT
ATOM      1  C   UNL     1       2.390  37.587   5.701  1.00  0.00     0.016 A 
ATOM      2  C   UNL     1       2.100  36.261   5.359  1.00  0.00     0.047 A 
ATOM      3  C   UNL     1       0.849  35.710   5.658  1.00  0.00     0.119 A 
ATOM      4  C   UNL     1      -0.121  36.490   6.305  1.00  0.00     0.094 A 
ATOM      5  C   UNL     1       0.158  37.817   6.650  1.00  0.00     0.142 A 
ATOM      6  C   UNL     1       1.422  38.369   6.347  1.00  0.00     0.018 A 
ATOM      7  C   UNL     1       1.674  39.696   6.705  1.00  0.00     0.019 A 
ATOM      8  C   UNL     1       0.677  40.433   7.346  1.00  0.00     0.094 A 
ATOM      9  C   UNL     1      -0.551  39.819   7.615  1.00  0.00     0.336 A 
ATOM     10  O   UNL     1      -1.463  40.467   8.194  1.00  0.00    -0.246 OA
ATOM     11  O   UNL     1      -0.764  38.554   7.264  1.00  0.00    -0.423 OA
ENDROOT
BRANCH   3  12
ATOM     12  O   UNL     1       0.580  34.389   5.310  1.00  0.00    -0.508 OA
ATOM     13  H   UNL     1       1.326  33.721   5.150  1.00  0.00     0.293 HD
ENDBRANCH   3  12
TORSDOF 1
ENDMDL
MODEL 4
REMARK VINA RESULT:    -4.291      0.945      1.237
REMARK INTER + INTRA:          -4.416
REMARK INTER:                  -4.416
REMARK INTRA:                   0.000
REMARK UNBOUND:                 0.000
REMARK SMILES O=c1ccc2ccc(O)cc2o1
REMARK SMILES IDX 6 1 7 2 8 3 10 4 11 5 5 6 4 7 3 8 2 9 1 10 12 11 9 12
REMARK H PARENT 9 13
REMARK Flexibility Score: inf
ROOT
ATOM      1  C   UNL     1       2.124  36.329   5.019  1.00  0.00     0.016 A 
ATOM      2  C   UNL     1       2.830  37.537   5.031  1.00  0.00     0.047 A 
ATOM      3  C   UNL     1       2.330  38.641   5.732  1.00  0.00     0.119 A 
ATOM      4  C   UNL     1       1.116  38.537   6.427  1.00  0.00     0.094 A 
ATOM      5  C   UNL     1       0.403  37.333   6.421  1.00  0.00     0.142 A 
ATOM      6  C   UNL     1       0.911  36.222   5.712  1.00  0.00     0.018 A 
ATOM      7  C   UNL     1       0.177  35.032   5.724  1.00  0.00     0.019 A 
ATOM      8  C   UNL     1      -1.026  34.977   6.429  1.00  0.00     0.094 A 
ATOM      9  C   UNL     1      -1.467  36.118   7.108  1.00  0.00     0.336 A 
ATOM     10  O   UNL     1      -2.549  36.088   7.749  1.00  0.00    -0.246 OA
ATOM     11  O   UNL     1      -0.748  37.237   7.080  1.00  0.00    -0.423 OA
ENDROOT
BRANCH   3  12
ATOM     12  O   UNL     1       3.048  39.835   5.732  1.00  0.00    -0.508 OA
ATOM     13  H   UNL     1       2.650  40.691   5.364  1.00  0.00     0.293 HD
ENDBRANCH   3  12
TORSDOF 1
ENDMDL
MODEL 5
REMARK VINA RESULT:    -4.121      3.567      5.854
REMARK INTER + INTRA:          -4.241
REMARK INTER:                  -4.241
REMARK INTRA:                   0.000
REMARK UNBOUND:                 0.000
REMARK SMILES O=c1ccc2ccc(O)cc2o1
REMARK SMILES IDX 6 1 7 2 8 3 10 4 11 5 5 6 4 7 3 8 2 9 1 10 12 11 9 12
REMARK H PARENT 9 13
REMARK Flexibility Score: inf
ROOT
ATOM      1  C   UNL     1       3.567  37.738   6.977  1.00  0.00     0.016 A 
ATOM      2  C   UNL     1       2.831  38.556   6.113  1.00  0.00     0.047 A 
ATOM      3  C   UNL     1       3.246  39.869   5.857  1.00  0.00     0.119 A 
ATOM      4  C   UNL     1       4.405  40.367   6.470  1.00  0.00     0.094 A 
ATOM      5  C   UNL     1       5.148  39.556   7.335  1.00  0.00     0.142 A 
ATOM      6  C   UNL     1       4.726  38.233   7.591  1.00  0.00     0.018 A 
ATOM      7  C   UNL     1       5.487  37.447   8.460  1.00  0.00     0.019 A 
ATOM      8  C   UNL     1       6.633  37.987   9.045  1.00  0.00     0.094 A 
ATOM      9  C   UNL     1       6.989  39.306   8.745  1.00  0.00     0.336 A 
ATOM     10  O   UNL     1       8.019  39.811   9.264  1.00  0.00    -0.246 OA
ATOM     11  O   UNL     1       6.247  40.032   7.914  1.00  0.00    -0.423 OA
ENDROOT
BRANCH   3  12
ATOM     12  O   UNL     1       2.499  40.668   4.994  1.00  0.00    -0.508 OA
ATOM     13  H   UNL     1       2.907  41.064   4.155  1.00  0.00     0.293 HD
ENDBRANCH   3  12
TORSDOF 1
ENDMDL
MODEL 6
REMARK VINA RESULT:    -4.095      1.697      4.858
REMARK INTER + INTRA:          -4.215
REMARK INTER:                  -4.215
REMARK INTRA:                   0.000
REMARK UNBOUND:                 0.000
REMARK SMILES O=c1ccc2ccc(O)cc2o1
REMARK SMILES IDX 6 1 7 2 8 3 10 4 11 5 5 6 4 7 3 8 2 9 1 10 12 11 9 12
REMARK H PARENT 9 13
REMARK Flexibility Score: inf
ROOT
ATOM      1  C   UNL     1       0.037  37.807   6.466  1.00  0.00     0.016 A 
ATOM      2  C   UNL     1      -0.211  36.460   6.181  1.00  0.00     0.047 A 
ATOM      3  C   UNL     1       0.803  35.649   5.658  1.00  0.00     0.119 A 
ATOM      4  C   UNL     1       2.075  36.189   5.417  1.00  0.00     0.094 A 
ATOM      5  C   UNL     1       2.333  37.535   5.699  1.00  0.00     0.142 A 
ATOM      6  C   UNL     1       1.307  38.349   6.227  1.00  0.00     0.018 A 
ATOM      7  C   UNL     1       1.593  39.691   6.498  1.00  0.00     0.019 A 
ATOM      8  C   UNL     1       2.874  40.182   6.242  1.00  0.00     0.094 A 
ATOM      9  C   UNL     1       3.840  39.316   5.719  1.00  0.00     0.336 A 
ATOM     10  O   UNL     1       5.001  39.741   5.481  1.00  0.00    -0.246 OA
ATOM     11  O   UNL     1       3.540  38.044   5.470  1.00  0.00    -0.423 OA
ENDROOT
BRANCH   3  12
ATOM     12  O   UNL     1       0.536  34.310   5.381  1.00  0.00    -0.508 OA
ATOM     13  H   UNL     1      -0.383  34.004   5.085  1.00  0.00     0.293 HD
ENDBRANCH   3  12
TORSDOF 1
ENDMDL
MODEL 7
REMARK VINA RESULT:    -4.059      3.439      4.976
REMARK INTER + INTRA:          -4.178
REMARK INTER:                  -4.178
REMARK INTRA:                   0.000
REMARK UNBOUND:                 0.000
REMARK SMILES O=c1ccc2ccc(O)cc2o1
REMARK SMILES IDX 6 1 7 2 8 3 10 4 11 5 5 6 4 7 3 8 2 9 1 10 12 11 9 12
REMARK H PARENT 9 13
REMARK Flexibility Score: inf
ROOT
ATOM      1  C   UNL     1       4.743  37.382   8.370  1.00  0.00     0.016 A 
ATOM      2  C   UNL     1       6.057  37.676   8.750  1.00  0.00     0.047 A 
ATOM      3  C   UNL     1       6.819  38.592   8.015  1.00  0.00     0.119 A 
ATOM      4  C   UNL     1       6.263  39.218   6.889  1.00  0.00     0.094 A 
ATOM      5  C   UNL     1       4.950  38.931   6.501  1.00  0.00     0.142 A 
ATOM      6  C   UNL     1       4.185  38.007   7.246  1.00  0.00     0.018 A 
ATOM      7  C   UNL     1       2.876  37.739   6.834  1.00  0.00     0.019 A 
ATOM      8  C   UNL     1       2.367  38.387   5.708  1.00  0.00     0.094 A 
ATOM      9  C   UNL     1       3.184  39.291   5.019  1.00  0.00     0.336 A 
ATOM     10  O   UNL     1       2.743  39.885   4.001  1.00  0.00    -0.246 OA
ATOM     11  O   UNL     1       4.426  39.527   5.433  1.00  0.00    -0.423 OA
ENDROOT
BRANCH   3  12
ATOM     12  O   UNL     1       8.125  38.871   8.410  1.00  0.00    -0.508 OA
ATOM     13  H   UNL     1       8.879  38.213   8.250  1.00  0.00     0.293 HD
ENDBRANCH   3  12
TORSDOF 1
ENDMDL
MODEL 8
REMARK VINA RESULT:    -4.040      2.015      4.076
REMARK INTER + INTRA:          -4.158
REMARK INTER:                  -4.158
REMARK INTRA:                   0.000
REMARK UNBOUND:                 0.000
REMARK SMILES O=c1ccc2ccc(O)cc2o1
REMARK SMILES IDX 6 1 7 2 8 3 10 4 11 5 5 6 4 7 3 8 2 9 1 10 12 11 9 12
REMARK H PARENT 9 13
REMARK Flexibility Score: inf
ROOT
ATOM      1  C   UNL     1      -1.705  35.141   6.614  1.00  0.00     0.016 A 
ATOM      2  C   UNL     1      -2.703  35.957   7.156  1.00  0.00     0.047 A 
ATOM      3  C   UNL     1      -2.481  37.329   7.327  1.00  0.00     0.119 A 
ATOM      4  C   UNL     1      -1.250  37.888   6.954  1.00  0.00     0.094 A 
ATOM      5  C   UNL     1      -0.245  37.080   6.411  1.00  0.00     0.142 A 
ATOM      6  C   UNL     1      -0.474  35.697   6.240  1.00  0.00     0.018 A 
ATOM      7  C   UNL     1       0.548  34.914   5.696  1.00  0.00     0.019 A 
ATOM      8  C   UNL     1       1.755  35.516   5.339  1.00  0.00     0.094 A 
ATOM      9  C   UNL     1       1.910  36.893   5.537  1.00  0.00     0.336 A 
ATOM     10  O   UNL     1       2.992  37.454   5.222  1.00  0.00    -0.246 OA
ATOM     11  O   UNL     1       0.921  37.614   6.057  1.00  0.00    -0.423 OA
ENDROOT
BRANCH   3  12
ATOM     12  O   UNL     1      -3.487  38.125   7.868  1.00  0.00    -0.508 OA
ATOM     13  H   UNL     1      -3.533  39.120   7.681  1.00  0.00     0.293 HD
ENDBRANCH   3  12
TORSDOF 1
ENDMDL
MODEL 9
REMARK VINA RESULT:    -3.954      1.877      4.940
REMARK INTER + INTRA:          -4.070
REMARK INTER:                  -4.070
REMARK INTRA:                   0.000
REMARK UNBOUND:                 0.000
REMARK SMILES O=c1ccc2ccc(O)cc2o1
REMARK SMILES IDX 6 1 7 2 8 3 10 4 11 5 5 6 4 7 3 8 2 9 1 10 12 11 9 12
REMARK H PARENT 9 13
REMARK Flexibility Score: inf
ROOT
ATOM      1  C   UNL     1      -2.210  37.377   7.321  1.00  0.00     0.016 A 
ATOM      2  C   UNL     1      -2.985  36.213   7.365  1.00  0.00     0.047 A 
ATOM      3  C   UNL     1      -2.482  35.009   6.859  1.00  0.00     0.119 A 
ATOM      4  C   UNL     1      -1.194  34.968   6.304  1.00  0.00     0.094 A 
ATOM      5  C   UNL     1      -0.412  36.126   6.256  1.00  0.00     0.142 A 
ATOM      6  C   UNL     1      -0.924  37.339   6.767  1.00  0.00     0.018 A 
ATOM      7  C   UNL     1      -0.119  38.481   6.705  1.00  0.00     0.019 A 
ATOM      8  C   UNL     1       1.155  38.391   6.144  1.00  0.00     0.094 A 
ATOM      9  C   UNL     1       1.595  37.155   5.657  1.00  0.00     0.336 A 
ATOM     10  O   UNL     1       2.741  37.053   5.147  1.00  0.00    -0.246 OA
ATOM     11  O   UNL     1       0.809  36.084   5.729  1.00  0.00    -0.423 OA
ENDROOT
BRANCH   3  12
ATOM     12  O   UNL     1      -3.269  33.861   6.912  1.00  0.00    -0.508 OA
ATOM     13  H   UNL     1      -4.022  33.766   7.584  1.00  0.00     0.293 HD
ENDBRANCH   3  12
TORSDOF 1
ENDMDL
