MODEL 1
REMARK VINA RESULT:    -3.694      0.000      0.000
REMARK INTER + INTRA:          -9.361
REMARK INTER:                  -7.149
REMARK INTRA:                  -2.212
REMARK UNBOUND:                -2.212
REMARK SMILES CCCCCCCCCCCCCCCCCC(=O)[O-]
REMARK SMILES IDX 10 1 11 2 12 3 13 4 14 5 15 6 16 7 17 8 18 9 19 10 20 11
REMARK SMILES IDX 9 12 8 13 7 14 6 15 5 16 4 17 3 18 2 19 1 20
REMARK H PARENT
REMARK Flexibility Score: inf
ROOT
ATOM      1  C   UNL     1       2.330   1.099  10.890  1.00  0.00     0.000 C 
ENDROOT
BRANCH   1   2
ATOM      2  C   UNL     1       1.263   2.100  10.395  1.00  0.00     0.000 C 
BRANCH   2   3
ATOM      3  C   UNL     1       1.886   3.268   9.608  1.00  0.00     0.000 C 
BRANCH   3   4
ATOM      4  C   UNL     1       1.888   3.021   8.093  1.00  0.00     0.000 C 
BRANCH   4   5
ATOM      5  C   UNL     1       3.281   3.220   7.467  1.00  0.00     0.000 C 
BRANCH   5   6
ATOM      6  C   UNL     1       4.335   2.253   8.036  1.00  0.00     0.000 C 
BRANCH   6   7
ATOM      7  C   UNL     1       5.517   2.933   8.750  1.00  0.00     0.006 C 
BRANCH   7   8
ATOM      8  C   UNL     1       5.608   4.437   8.460  1.00  0.00     0.053 C 
BRANCH   8   9
ATOM      9  C   UNL     1       6.651   4.706   7.422  1.00  0.00     0.041 C 
ATOM     10  O   UNL     1       7.626   3.921   7.285  1.00  0.00    -0.550 OA
ATOM     11  O   UNL     1       6.519   5.797   6.571  1.00  0.00    -0.550 OA
ENDBRANCH   8   9
ENDBRANCH   7   8
ENDBRANCH   6   7
ENDBRANCH   5   6
ENDBRANCH   4   5
ENDBRANCH   3   4
ENDBRANCH   2   3
ENDBRANCH   1   2
BRANCH   1  12
ATOM     12  C   UNL     1       1.936  -0.371  10.672  1.00  0.00     0.000 C 
BRANCH  12  13
ATOM     13  C   UNL     1       2.363  -0.907   9.295  1.00  0.00    -0.000 C 
BRANCH  13  14
ATOM     14  C   UNL     1       1.426  -2.008   8.773  1.00  0.00    -0.000 C 
BRANCH  14  15
ATOM     15  C   UNL     1       0.016  -1.479   8.452  1.00  0.00    -0.000 C 
BRANCH  15  16
ATOM     16  C   UNL     1       0.045  -0.151   7.680  1.00  0.00    -0.000 C 
BRANCH  16  17
ATOM     17  C   UNL     1      -1.209   0.702   7.923  1.00  0.00    -0.000 C 
BRANCH  17  18
ATOM     18  C   UNL     1      -2.128   0.043   8.961  1.00  0.00    -0.000 C 
BRANCH  18  19
ATOM     19  C   UNL     1      -3.617   0.188   8.610  1.00  0.00    -0.003 C 
ATOM     20  C   UNL     1      -4.372  -1.140   8.674  1.00  0.00     0.004 C 
ENDBRANCH  18  19
ENDBRANCH  17  18
ENDBRANCH  16  17
ENDBRANCH  15  16
ENDBRANCH  14  15
ENDBRANCH  13  14
ENDBRANCH  12  13
ENDBRANCH   1  12
TORSDOF 16
ENDMDL
MODEL 2
REMARK VINA RESULT:    -3.548     12.828     14.860
REMARK INTER + INTRA:          -9.079
REMARK INTER:                  -6.180
REMARK INTRA:                  -2.899
REMARK UNBOUND:                -2.212
REMARK SMILES CCCCCCCCCCCCCCCCCC(=O)[O-]
REMARK SMILES IDX 10 1 11 2 12 3 13 4 14 5 15 6 16 7 17 8 18 9 19 10 20 11
REMARK SMILES IDX 9 12 8 13 7 14 6 15 5 16 4 17 3 18 2 19 1 20
REMARK H PARENT
REMARK Flexibility Score: inf
ROOT
ATOM      1  C   UNL     1       4.063  -0.643  -5.487  1.00  0.00     0.000 C 
ENDROOT
BRANCH   1   2
ATOM      2  C   UNL     1       2.784   0.195  -5.704  1.00  0.00     0.000 C 
BRANCH   2   3
ATOM      3  C   UNL     1       1.538  -0.489  -5.114  1.00  0.00     0.000 C 
BRANCH   3   4
ATOM      4  C   UNL     1       1.621  -2.021  -5.181  1.00  0.00     0.000 C 
BRANCH   4   5
ATOM      5  C   UNL     1       0.564  -2.705  -4.294  1.00  0.00     0.000 C 
BRANCH   5   6
ATOM      6  C   UNL     1       0.641  -2.261  -2.822  1.00  0.00     0.000 C 
BRANCH   6   7
ATOM      7  C   UNL     1       1.058  -3.366  -1.835  1.00  0.00     0.006 C 
BRANCH   7   8
ATOM      8  C   UNL     1       0.412  -4.722  -2.145  1.00  0.00     0.053 C 
BRANCH   8   9
ATOM      9  C   UNL     1      -0.628  -5.051  -1.121  1.00  0.00     0.041 C 
ATOM     10  O   UNL     1      -1.752  -5.493  -1.479  1.00  0.00    -0.550 OA
ATOM     11  O   UNL     1      -0.338  -4.920   0.231  1.00  0.00    -0.550 OA
ENDBRANCH   8   9
ENDBRANCH   7   8
ENDBRANCH   6   7
ENDBRANCH   5   6
ENDBRANCH   4   5
ENDBRANCH   3   4
ENDBRANCH   2   3
ENDBRANCH   1   2
BRANCH   1  12
ATOM     12  C   UNL     1       5.197   0.138  -4.800  1.00  0.00     0.000 C 
BRANCH  12  13
ATOM     13  C   UNL     1       5.464  -0.337  -3.362  1.00  0.00    -0.000 C 
BRANCH  13  14
ATOM     14  C   UNL     1       4.406  -1.336  -2.864  1.00  0.00    -0.000 C 
BRANCH  14  15
ATOM     15  C   UNL     1       5.002  -2.723  -2.561  1.00  0.00    -0.000 C 
BRANCH  15  16
ATOM     16  C   UNL     1       4.233  -3.860  -3.252  1.00  0.00    -0.000 C 
BRANCH  16  17
ATOM     17  C   UNL     1       4.816  -4.220  -4.626  1.00  0.00    -0.000 C 
BRANCH  17  18
ATOM     18  C   UNL     1       6.337  -4.006  -4.649  1.00  0.00    -0.000 C 
BRANCH  18  19
ATOM     19  C   UNL     1       6.803  -3.206  -5.876  1.00  0.00    -0.003 C 
ATOM     20  C   UNL     1       7.938  -2.235  -5.553  1.00  0.00     0.004 C 
ENDBRANCH  18  19
ENDBRANCH  17  18
ENDBRANCH  16  17
ENDBRANCH  15  16
ENDBRANCH  14  15
ENDBRANCH  13  14
ENDBRANCH  12  13
ENDBRANCH   1  12
TORSDOF 16
ENDMDL
MODEL 3
REMARK VINA RESULT:    -3.544      2.569      4.046
REMARK INTER + INTRA:          -9.071
REMARK INTER:                  -6.633
REMARK INTRA:                  -2.438
REMARK UNBOUND:                -2.212
REMARK SMILES CCCCCCCCCCCCCCCCCC(=O)[O-]
REMARK SMILES IDX 10 1 11 2 12 3 13 4 14 5 15 6 16 7 17 8 18 9 19 10 20 11
REMARK SMILES IDX 9 12 8 13 7 14 6 15 5 16 4 17 3 18 2 19 1 20
REMARK H PARENT
REMARK Flexibility Score: inf
ROOT
ATOM      1  C   UNL     1       3.469  -1.512  10.072  1.00  0.00     0.000 C 
ENDROOT
BRANCH   1   2
ATOM      2  C   UNL     1       4.732  -0.636   9.931  1.00  0.00     0.000 C 
BRANCH   2   3
ATOM      3  C   UNL     1       4.397   0.793   9.466  1.00  0.00     0.000 C 
BRANCH   3   4
ATOM      4  C   UNL     1       5.485   1.386   8.559  1.00  0.00     0.000 C 
BRANCH   4   5
ATOM      5  C   UNL     1       4.970   2.571   7.722  1.00  0.00     0.000 C 
BRANCH   5   6
ATOM      6  C   UNL     1       3.477   2.865   7.957  1.00  0.00     0.000 C 
BRANCH   6   7
ATOM      7  C   UNL     1       2.850   3.860   6.964  1.00  0.00     0.006 C 
BRANCH   7   8
ATOM      8  C   UNL     1       1.317   3.793   6.936  1.00  0.00     0.053 C 
BRANCH   8   9
ATOM      9  C   UNL     1       0.729   5.096   7.375  1.00  0.00     0.041 C 
ATOM     10  O   UNL     1       0.795   6.106   6.625  1.00  0.00    -0.550 OA
ATOM     11  O   UNL     1       0.063   5.183   8.591  1.00  0.00    -0.550 OA
ENDBRANCH   8   9
ENDBRANCH   7   8
ENDBRANCH   6   7
ENDBRANCH   5   6
ENDBRANCH   4   5
ENDBRANCH   3   4
ENDBRANCH   2   3
ENDBRANCH   1   2
BRANCH   1  12
ATOM     12  C   UNL     1       2.337  -1.112   9.109  1.00  0.00     0.000 C 
BRANCH  12  13
ATOM     13  C   UNL     1       1.222  -2.167   9.026  1.00  0.00    -0.000 C 
BRANCH  13  14
ATOM     14  C   UNL     1       0.020  -1.691   8.195  1.00  0.00    -0.000 C 
BRANCH  14  15
ATOM     15  C   UNL     1       0.141  -0.214   7.776  1.00  0.00    -0.000 C 
BRANCH  15  16
ATOM     16  C   UNL     1      -1.177   0.558   7.946  1.00  0.00    -0.000 C 
BRANCH  16  17
ATOM     17  C   UNL     1      -1.030   1.785   8.858  1.00  0.00    -0.000 C 
BRANCH  17  18
ATOM     18  C   UNL     1      -0.451   1.387  10.224  1.00  0.00    -0.000 C 
BRANCH  18  19
ATOM     19  C   UNL     1       0.858   2.124  10.548  1.00  0.00    -0.003 C 
ATOM     20  C   UNL     1       1.629   1.479  11.701  1.00  0.00     0.004 C 
ENDBRANCH  18  19
ENDBRANCH  17  18
ENDBRANCH  16  17
ENDBRANCH  15  16
ENDBRANCH  14  15
ENDBRANCH  13  14
ENDBRANCH  12  13
ENDBRANCH   1  12
TORSDOF 16
ENDMDL
MODEL 4
REMARK VINA RESULT:    -3.538      2.639      3.383
REMARK INTER + INTRA:          -9.060
REMARK INTER:                  -6.822
REMARK INTRA:                  -2.238
REMARK UNBOUND:                -2.212
REMARK SMILES CCCCCCCCCCCCCCCCCC(=O)[O-]
REMARK SMILES IDX 10 1 11 2 12 3 13 4 14 5 15 6 16 7 17 8 18 9 19 10 20 11
REMARK SMILES IDX 9 12 8 13 7 14 6 15 5 16 4 17 3 18 2 19 1 20
REMARK H PARENT
REMARK Flexibility Score: inf
ROOT
ATOM      1  C   UNL     1       3.447  -1.424   9.790  1.00  0.00     0.000 C 
ENDROOT
BRANCH   1   2
ATOM      2  C   UNL     1       3.806   0.078   9.754  1.00  0.00     0.000 C 
BRANCH   2   3
ATOM      3  C   UNL     1       2.604   0.970  10.112  1.00  0.00     0.000 C 
BRANCH   3   4
ATOM      4  C   UNL     1       2.406   2.118   9.112  1.00  0.00     0.000 C 
BRANCH   4   5
ATOM      5  C   UNL     1       3.666   2.385   8.268  1.00  0.00     0.000 C 
BRANCH   5   6
ATOM      6  C   UNL     1       3.464   3.504   7.230  1.00  0.00     0.000 C 
BRANCH   6   7
ATOM      7  C   UNL     1       1.994   3.822   6.901  1.00  0.00     0.006 C 
BRANCH   7   8
ATOM      8  C   UNL     1       1.616   5.279   7.198  1.00  0.00     0.053 C 
BRANCH   8   9
ATOM      9  C   UNL     1       0.560   5.338   8.257  1.00  0.00     0.041 C 
ATOM     10  O   UNL     1      -0.259   4.392   8.389  1.00  0.00    -0.550 OA
ATOM     11  O   UNL     1       0.515   6.417   9.132  1.00  0.00    -0.550 OA
ENDBRANCH   8   9
ENDBRANCH   7   8
ENDBRANCH   6   7
ENDBRANCH   5   6
ENDBRANCH   4   5
ENDBRANCH   3   4
ENDBRANCH   2   3
ENDBRANCH   1   2
BRANCH   1  12
ATOM     12  C   UNL     1       1.942  -1.688   9.968  1.00  0.00     0.000 C 
BRANCH  12  13
ATOM     13  C   UNL     1       1.274  -2.224   8.691  1.00  0.00    -0.000 C 
BRANCH  13  14
ATOM     14  C   UNL     1      -0.089  -1.567   8.417  1.00  0.00    -0.000 C 
BRANCH  14  15
ATOM     15  C   UNL     1       0.038  -0.254   7.625  1.00  0.00    -0.000 C 
BRANCH  15  16
ATOM     16  C   UNL     1      -0.981   0.807   8.071  1.00  0.00    -0.000 C 
BRANCH  16  17
ATOM     17  C   UNL     1      -1.179   0.833   9.594  1.00  0.00    -0.000 C 
BRANCH  17  18
ATOM     18  C   UNL     1      -2.591   0.361   9.971  1.00  0.00    -0.000 C 
BRANCH  18  19
ATOM     19  C   UNL     1      -3.579   0.455   8.798  1.00  0.00    -0.003 C 
ATOM     20  C   UNL     1      -4.324  -0.856   8.545  1.00  0.00     0.004 C 
ENDBRANCH  18  19
ENDBRANCH  17  18
ENDBRANCH  16  17
ENDBRANCH  15  16
ENDBRANCH  14  15
ENDBRANCH  13  14
ENDBRANCH  12  13
ENDBRANCH   1  12
TORSDOF 16
ENDMDL
MODEL 5
REMARK VINA RESULT:    -3.503      4.336      6.969
REMARK INTER + INTRA:          -8.991
REMARK INTER:                  -6.838
REMARK INTRA:                  -2.153
REMARK UNBOUND:                -2.212
REMARK SMILES CCCCCCCCCCCCCCCCCC(=O)[O-]
REMARK SMILES IDX 10 1 11 2 12 3 13 4 14 5 15 6 16 7 17 8 18 9 19 10 20 11
REMARK SMILES IDX 9 12 8 13 7 14 6 15 5 16 4 17 3 18 2 19 1 20
REMARK H PARENT
REMARK Flexibility Score: inf
ROOT
ATOM      1  C   UNL     1       2.638   4.097   6.613  1.00  0.00     0.000 C 
ENDROOT
BRANCH   1   2
ATOM      2  C   UNL     1       1.154   4.288   6.995  1.00  0.00     0.000 C 
BRANCH   2   3
ATOM      3  C   UNL     1       0.875   3.887   8.454  1.00  0.00     0.000 C 
BRANCH   3   4
ATOM      4  C   UNL     1      -0.075   2.685   8.562  1.00  0.00     0.000 C 
BRANCH   4   5
ATOM      5  C   UNL     1       0.536   1.399   7.974  1.00  0.00     0.000 C 
BRANCH   5   6
ATOM      6  C   UNL     1      -0.526   0.348   7.604  1.00  0.00     0.000 C 
BRANCH   6   7
ATOM      7  C   UNL     1      -1.884   0.525   8.308  1.00  0.00     0.006 C 
BRANCH   7   8
ATOM      8  C   UNL     1      -2.313  -0.715   9.103  1.00  0.00     0.053 C 
BRANCH   8   9
ATOM      9  C   UNL     1      -3.803  -0.841   9.110  1.00  0.00     0.041 C 
ATOM     10  O   UNL     1      -4.484  -0.370   8.161  1.00  0.00    -0.550 OA
ATOM     11  O   UNL     1      -4.438  -1.525  10.140  1.00  0.00    -0.550 OA
ENDBRANCH   8   9
ENDBRANCH   7   8
ENDBRANCH   6   7
ENDBRANCH   5   6
ENDBRANCH   4   5
ENDBRANCH   3   4
ENDBRANCH   2   3
ENDBRANCH   1   2
BRANCH   1  12
ATOM     12  C   UNL     1       3.614   4.523   7.723  1.00  0.00     0.000 C 
BRANCH  12  13
ATOM     13  C   UNL     1       4.836   3.597   7.833  1.00  0.00    -0.000 C 
BRANCH  13  14
ATOM     14  C   UNL     1       4.445   2.115   7.949  1.00  0.00    -0.000 C 
BRANCH  14  15
ATOM     15  C   UNL     1       3.986   1.736   9.369  1.00  0.00    -0.000 C 
BRANCH  15  16
ATOM     16  C   UNL     1       4.048   0.223   9.627  1.00  0.00    -0.000 C 
BRANCH  16  17
ATOM     17  C   UNL     1       2.685  -0.369  10.013  1.00  0.00    -0.000 C 
BRANCH  17  18
ATOM     18  C   UNL     1       2.356  -1.596   9.151  1.00  0.00    -0.000 C 
BRANCH  18  19
ATOM     19  C   UNL     1       1.007  -2.234   9.520  1.00  0.00    -0.003 C 
ATOM     20  C   UNL     1       0.458  -3.138   8.416  1.00  0.00     0.004 C 
ENDBRANCH  18  19
ENDBRANCH  17  18
ENDBRANCH  16  17
ENDBRANCH  15  16
ENDBRANCH  14  15
ENDBRANCH  13  14
ENDBRANCH  12  13
ENDBRANCH   1  12
TORSDOF 16
ENDMDL
MODEL 6
REMARK VINA RESULT:    -3.497      6.560     10.476
REMARK INTER + INTRA:          -8.981
REMARK INTER:                  -7.412
REMARK INTRA:                  -1.569
REMARK UNBOUND:                -2.212
REMARK SMILES CCCCCCCCCCCCCCCCCC(=O)[O-]
REMARK SMILES IDX 10 1 11 2 12 3 13 4 14 5 15 6 16 7 17 8 18 9 19 10 20 11
REMARK SMILES IDX 9 12 8 13 7 14 6 15 5 16 4 17 3 18 2 19 1 20
REMARK H PARENT
REMARK Flexibility Score: inf
ROOT
ATOM      1  C   UNL     1      -2.929  -1.824   9.598  1.00  0.00     0.000 C 
ENDROOT
BRANCH   1   2
ATOM      2  C   UNL     1      -4.372  -1.837   9.046  1.00  0.00     0.000 C 
BRANCH   2   3
ATOM      3  C   UNL     1      -5.395  -2.268  10.112  1.00  0.00     0.000 C 
BRANCH   3   4
ATOM      4  C   UNL     1      -6.217  -3.490   9.676  1.00  0.00     0.000 C 
BRANCH   4   5
ATOM      5  C   UNL     1      -5.366  -4.534   8.930  1.00  0.00     0.000 C 
BRANCH   5   6
ATOM      6  C   UNL     1      -5.862  -4.795   7.496  1.00  0.00     0.000 C 
BRANCH   6   7
ATOM      7  C   UNL     1      -7.347  -5.187   7.387  1.00  0.00     0.006 C 
BRANCH   7   8
ATOM      8  C   UNL     1      -7.605  -6.266   6.328  1.00  0.00     0.053 C 
BRANCH   8   9
ATOM      9  C   UNL     1      -7.177  -5.784   4.977  1.00  0.00     0.041 C 
ATOM     10  O   UNL     1      -7.705  -4.758   4.474  1.00  0.00    -0.550 OA
ATOM     11  O   UNL     1      -6.159  -6.440   4.296  1.00  0.00    -0.550 OA
ENDBRANCH   8   9
ENDBRANCH   7   8
ENDBRANCH   6   7
ENDBRANCH   5   6
ENDBRANCH   4   5
ENDBRANCH   3   4
ENDBRANCH   2   3
ENDBRANCH   1   2
BRANCH   1  12
ATOM     12  C   UNL     1      -2.360  -0.408   9.787  1.00  0.00     0.000 C 
BRANCH  12  13
ATOM     13  C   UNL     1      -2.365   0.418   8.490  1.00  0.00    -0.000 C 
BRANCH  13  14
ATOM     14  C   UNL     1      -0.958   0.878   8.078  1.00  0.00    -0.000 C 
BRANCH  14  15
ATOM     15  C   UNL     1      -0.047  -0.296   7.677  1.00  0.00    -0.000 C 
BRANCH  15  16
ATOM     16  C   UNL     1       1.054  -0.571   8.713  1.00  0.00    -0.000 C 
BRANCH  16  17
ATOM     17  C   UNL     1       1.423  -2.059   8.802  1.00  0.00    -0.000 C 
BRANCH  17  18
ATOM     18  C   UNL     1       0.310  -2.938   8.213  1.00  0.00    -0.000 C 
BRANCH  18  19
ATOM     19  C   UNL     1       0.276  -4.344   8.833  1.00  0.00    -0.003 C 
ATOM     20  C   UNL     1      -1.126  -4.956   8.832  1.00  0.00     0.004 C 
ENDBRANCH  18  19
ENDBRANCH  17  18
ENDBRANCH  16  17
ENDBRANCH  15  16
ENDBRANCH  14  15
ENDBRANCH  13  14
ENDBRANCH  12  13
ENDBRANCH   1  12
TORSDOF 16
ENDMDL
MODEL 7
REMARK VINA RESULT:    -3.495     11.811     12.984
REMARK INTER + INTRA:          -8.976
REMARK INTER:                  -7.034
REMARK INTRA:                  -1.943
REMARK UNBOUND:                -2.212
REMARK SMILES CCCCCCCCCCCCCCCCCC(=O)[O-]
REMARK SMILES IDX 10 1 11 2 12 3 13 4 14 5 15 6 16 7 17 8 18 9 19 10 20 11
REMARK SMILES IDX 9 12 8 13 7 14 6 15 5 16 4 17 3 18 2 19 1 20
REMARK H PARENT
REMARK Flexibility Score: inf
ROOT
ATOM      1  C   UNL     1       5.457  -1.770  -3.913  1.00  0.00     0.000 C 
ENDROOT
BRANCH   1   2
ATOM      2  C   UNL     1       5.217  -0.248  -3.808  1.00  0.00     0.000 C 
BRANCH   2   3
ATOM      3  C   UNL     1       4.262   0.264  -4.901  1.00  0.00     0.000 C 
BRANCH   3   4
ATOM      4  C   UNL     1       4.890   1.372  -5.759  1.00  0.00     0.000 C 
BRANCH   4   5
ATOM      5  C   UNL     1       6.426   1.405  -5.641  1.00  0.00     0.000 C 
BRANCH   5   6
ATOM      6  C   UNL     1       6.971   2.809  -5.328  1.00  0.00     0.000 C 
BRANCH   6   7
ATOM      7  C   UNL     1       7.223   3.087  -3.835  1.00  0.00     0.006 C 
BRANCH   7   8
ATOM      8  C   UNL     1       8.387   4.057  -3.594  1.00  0.00     0.053 C 
BRANCH   8   9
ATOM      9  C   UNL     1       7.876   5.371  -3.094  1.00  0.00     0.041 C 
ATOM     10  O   UNL     1       6.862   5.415  -2.348  1.00  0.00    -0.550 OA
ATOM     11  O   UNL     1       8.551   6.544  -3.409  1.00  0.00    -0.550 OA
ENDBRANCH   8   9
ENDBRANCH   7   8
ENDBRANCH   6   7
ENDBRANCH   5   6
ENDBRANCH   4   5
ENDBRANCH   3   4
ENDBRANCH   2   3
ENDBRANCH   1   2
BRANCH   1  12
ATOM     12  C   UNL     1       5.124  -2.532  -2.620  1.00  0.00     0.000 C 
BRANCH  12  13
ATOM     13  C   UNL     1       4.357  -3.840  -2.876  1.00  0.00    -0.000 C 
BRANCH  13  14
ATOM     14  C   UNL     1       2.954  -3.598  -3.456  1.00  0.00    -0.000 C 
BRANCH  14  15
ATOM     15  C   UNL     1       1.845  -3.748  -2.399  1.00  0.00    -0.000 C 
BRANCH  15  16
ATOM     16  C   UNL     1       0.936  -2.512  -2.315  1.00  0.00    -0.000 C 
BRANCH  16  17
ATOM     17  C   UNL     1       1.658  -1.218  -2.717  1.00  0.00    -0.000 C 
BRANCH  17  18
ATOM     18  C   UNL     1       0.873  -0.466  -3.802  1.00  0.00    -0.000 C 
BRANCH  18  19
ATOM     19  C   UNL     1       0.293  -1.406  -4.871  1.00  0.00    -0.003 C 
ATOM     20  C   UNL     1       1.225  -1.583  -6.070  1.00  0.00     0.004 C 
ENDBRANCH  18  19
ENDBRANCH  17  18
ENDBRANCH  16  17
ENDBRANCH  15  16
ENDBRANCH  14  15
ENDBRANCH  13  14
ENDBRANCH  12  13
ENDBRANCH   1  12
TORSDOF 16
ENDMDL
MODEL 8
REMARK VINA RESULT:    -3.477      1.748      4.561
REMARK INTER + INTRA:          -8.942
REMARK INTER:                  -6.802
REMARK INTRA:                  -2.140
REMARK UNBOUND:                -2.212
REMARK SMILES CCCCCCCCCCCCCCCCCC(=O)[O-]
REMARK SMILES IDX 10 1 11 2 12 3 13 4 14 5 15 6 16 7 17 8 18 9 19 10 20 11
REMARK SMILES IDX 9 12 8 13 7 14 6 15 5 16 4 17 3 18 2 19 1 20
REMARK H PARENT
REMARK Flexibility Score: inf
ROOT
ATOM      1  C   UNL     1       1.586  -1.129   9.017  1.00  0.00     0.000 C 
ENDROOT
BRANCH   1   2
ATOM      2  C   UNL     1       2.294  -2.486   9.218  1.00  0.00     0.000 C 
BRANCH   2   3
ATOM      3  C   UNL     1       3.075  -2.541  10.543  1.00  0.00     0.000 C 
BRANCH   3   4
ATOM      4  C   UNL     1       3.727  -1.197  10.897  1.00  0.00     0.000 C 
BRANCH   4   5
ATOM      5  C   UNL     1       5.019  -0.943  10.097  1.00  0.00     0.000 C 
BRANCH   5   6
ATOM      6  C   UNL     1       5.034   0.433   9.408  1.00  0.00     0.000 C 
BRANCH   6   7
ATOM      7  C   UNL     1       6.353   0.784   8.695  1.00  0.00     0.006 C 
BRANCH   7   8
ATOM      8  C   UNL     1       6.162   1.759   7.526  1.00  0.00     0.053 C 
BRANCH   8   9
ATOM      9  C   UNL     1       7.100   2.917   7.654  1.00  0.00     0.041 C 
ATOM     10  O   UNL     1       6.861   3.840   8.476  1.00  0.00    -0.550 OA
ATOM     11  O   UNL     1       8.267   2.952   6.899  1.00  0.00    -0.550 OA
ENDBRANCH   8   9
ENDBRANCH   7   8
ENDBRANCH   6   7
ENDBRANCH   5   6
ENDBRANCH   4   5
ENDBRANCH   3   4
ENDBRANCH   2   3
ENDBRANCH   1   2
BRANCH   1  12
ATOM     12  C   UNL     1       0.194  -1.255   8.374  1.00  0.00     0.000 C 
BRANCH  12  13
ATOM     13  C   UNL     1      -0.181  -0.035   7.517  1.00  0.00    -0.000 C 
BRANCH  13  14
ATOM     14  C   UNL     1      -1.062   0.971   8.275  1.00  0.00    -0.000 C 
BRANCH  14  15
ATOM     15  C   UNL     1      -0.317   2.278   8.602  1.00  0.00    -0.000 C 
BRANCH  15  16
ATOM     16  C   UNL     1       0.369   2.240   9.976  1.00  0.00    -0.000 C 
BRANCH  16  17
ATOM     17  C   UNL     1       1.881   2.498   9.890  1.00  0.00    -0.000 C 
BRANCH  17  18
ATOM     18  C   UNL     1       2.343   2.569   8.427  1.00  0.00    -0.000 C 
BRANCH  18  19
ATOM     19  C   UNL     1       3.264   3.769   8.156  1.00  0.00    -0.003 C 
ATOM     20  C   UNL     1       3.342   4.130   6.672  1.00  0.00     0.004 C 
ENDBRANCH  18  19
ENDBRANCH  17  18
ENDBRANCH  16  17
ENDBRANCH  15  16
ENDBRANCH  14  15
ENDBRANCH  13  14
ENDBRANCH  12  13
ENDBRANCH   1  12
TORSDOF 16
ENDMDL
MODEL 9
REMARK VINA RESULT:    -3.428      2.528      4.769
REMARK INTER + INTRA:          -8.847
REMARK INTER:                  -6.342
REMARK INTRA:                  -2.504
REMARK UNBOUND:                -2.212
REMARK SMILES CCCCCCCCCCCCCCCCCC(=O)[O-]
REMARK SMILES IDX 10 1 11 2 12 3 13 4 14 5 15 6 16 7 17 8 18 9 19 10 20 11
REMARK SMILES IDX 9 12 8 13 7 14 6 15 5 16 4 17 3 18 2 19 1 20
REMARK H PARENT
REMARK Flexibility Score: inf
ROOT
ATOM      1  C   UNL     1      -1.503   0.739   8.109  1.00  0.00     0.000 C 
ENDROOT
BRANCH   1   2
ATOM      2  C   UNL     1      -0.134   0.209   7.629  1.00  0.00     0.000 C 
BRANCH   2   3
ATOM      3  C   UNL     1       0.093  -1.259   8.034  1.00  0.00     0.000 C 
BRANCH   3   4
ATOM      4  C   UNL     1       1.418  -1.464   8.783  1.00  0.00     0.000 C 
BRANCH   4   5
ATOM      5  C   UNL     1       1.815  -0.233   9.620  1.00  0.00     0.000 C 
BRANCH   5   6
ATOM      6  C   UNL     1       3.173   0.359   9.205  1.00  0.00     0.000 C 
BRANCH   6   7
ATOM      7  C   UNL     1       3.124   1.827   8.743  1.00  0.00     0.006 C 
BRANCH   7   8
ATOM      8  C   UNL     1       2.004   2.630   9.417  1.00  0.00     0.053 C 
BRANCH   8   9
ATOM      9  C   UNL     1       1.294   3.481   8.412  1.00  0.00     0.041 C 
ATOM     10  O   UNL     1       1.585   3.395   7.190  1.00  0.00    -0.550 OA
ATOM     11  O   UNL     1       0.275   4.334   8.819  1.00  0.00    -0.550 OA
ENDBRANCH   8   9
ENDBRANCH   7   8
ENDBRANCH   6   7
ENDBRANCH   5   6
ENDBRANCH   4   5
ENDBRANCH   3   4
ENDBRANCH   2   3
ENDBRANCH   1   2
BRANCH   1  12
ATOM     12  C   UNL     1      -1.498   1.204   9.575  1.00  0.00     0.000 C 
BRANCH  12  13
ATOM     13  C   UNL     1      -2.912   1.364  10.157  1.00  0.00    -0.000 C 
BRANCH  13  14
ATOM     14  C   UNL     1      -4.012   1.066   9.124  1.00  0.00    -0.000 C 
BRANCH  14  15
ATOM     15  C   UNL     1      -4.852  -0.169   9.497  1.00  0.00    -0.000 C 
BRANCH  15  16
ATOM     16  C   UNL     1      -4.364  -1.448   8.798  1.00  0.00    -0.000 C 
BRANCH  16  17
ATOM     17  C   UNL     1      -3.949  -2.544   9.791  1.00  0.00    -0.000 C 
BRANCH  17  18
ATOM     18  C   UNL     1      -2.471  -2.400  10.181  1.00  0.00    -0.000 C 
BRANCH  18  19
ATOM     19  C   UNL     1      -1.794  -3.755  10.441  1.00  0.00    -0.003 C 
ATOM     20  C   UNL     1      -1.315  -4.432   9.156  1.00  0.00     0.004 C 
ENDBRANCH  18  19
ENDBRANCH  17  18
ENDBRANCH  16  17
ENDBRANCH  15  16
ENDBRANCH  14  15
ENDBRANCH  13  14
ENDBRANCH  12  13
ENDBRANCH   1  12
TORSDOF 16
ENDMDL
