MODEL 1
REMARK VINA RESULT:    -6.148      0.000      0.000
REMARK INTER + INTRA:          -7.732
REMARK INTER:                  -7.406
REMARK INTRA:                  -0.326
REMARK UNBOUND:                -0.326
REMARK SMILES O=c1c(O)c(-c2ccc(O)c(O)c2)oc2cc(O)cc(O)c12
REMARK SMILES IDX 5 1 3 2 2 3 1 4 22 5 20 6 19 7 17 8 16 9 15 10 14 11 6 12
REMARK SMILES IDX 7 13 8 14 9 15 13 16 11 17 10 18 12 20 4 22 21 24 18 26
REMARK H PARENT 10 19 12 21 4 23 21 25 18 27
REMARK Flexibility Score: inf
ROOT
ATOM      1  C   UNL     1     133.057 127.768 143.661  1.00  0.00     0.180 A 
ATOM      2  C   UNL     1     134.259 127.905 142.947  1.00  0.00     0.208 A 
ATOM      3  C   UNL     1     134.668 129.186 142.541  1.00  0.00     0.238 A 
ATOM      4  O   UNL     1     135.717 129.296 141.854  1.00  0.00    -0.285 OA
ATOM      5  C   UNL     1     133.879 130.315 142.869  1.00  0.00     0.111 A 
ATOM      6  C   UNL     1     134.218 131.662 142.545  1.00  0.00     0.134 A 
ATOM      7  C   UNL     1     133.299 132.688 142.804  1.00  0.00     0.093 A 
ATOM      8  C   UNL     1     132.085 132.423 143.435  1.00  0.00     0.123 A 
ATOM      9  C   UNL     1     131.769 131.116 143.811  1.00  0.00     0.094 A 
ATOM     10  C   UNL     1     132.649 130.067 143.533  1.00  0.00     0.146 A 
ATOM     11  O   UNL     1     132.306 128.838 143.897  1.00  0.00    -0.452 OA
ENDROOT
BRANCH   1  12
ATOM     12  C   UNL     1     132.572 126.455 144.144  1.00  0.00     0.025 A 
ATOM     13  C   UNL     1     131.597 125.764 143.407  1.00  0.00     0.016 A 
ATOM     14  C   UNL     1     131.111 124.534 143.855  1.00  0.00     0.051 A 
ATOM     15  C   UNL     1     131.579 123.981 145.052  1.00  0.00     0.157 A 
ATOM     16  C   UNL     1     133.026 125.908 145.359  1.00  0.00     0.062 A 
ATOM     17  C   UNL     1     132.538 124.673 145.810  1.00  0.00     0.158 A 
BRANCH  15  18
ATOM     18  O   UNL     1     131.077 122.751 145.472  1.00  0.00    -0.504 OA
ATOM     19  H   UNL     1     131.678 121.953 145.639  1.00  0.00     0.293 HD
ENDBRANCH  15  18
BRANCH  17  20
ATOM     20  O   UNL     1     132.998 124.136 147.011  1.00  0.00    -0.504 OA
ATOM     21  H   UNL     1     132.449 124.189 147.862  1.00  0.00     0.293 HD
ENDBRANCH  17  20
ENDBRANCH   1  12
BRANCH   2  22
ATOM     22  O   UNL     1     135.011 126.776 142.614  1.00  0.00    -0.502 OA
ATOM     23  H   UNL     1     134.913 126.299 141.725  1.00  0.00     0.293 HD
ENDBRANCH   2  22
BRANCH   6  24
ATOM     24  O   UNL     1     135.444 132.048 141.995  1.00  0.00    -0.507 OA
ATOM     25  H   UNL     1     136.315 132.087 142.504  1.00  0.00     0.293 HD
ENDBRANCH   6  24
BRANCH   8  26
ATOM     26  O   UNL     1     131.202 133.469 143.692  1.00  0.00    -0.508 OA
ATOM     27  H   UNL     1     130.212 133.305 143.836  1.00  0.00     0.293 HD
ENDBRANCH   8  26
TORSDOF 6
ENDMDL
MODEL 2
REMARK VINA RESULT:    -6.140      3.020      4.814
REMARK INTER + INTRA:          -7.723
REMARK INTER:                  -7.409
REMARK INTRA:                  -0.314
REMARK UNBOUND:                -0.326
REMARK SMILES O=c1c(O)c(-c2ccc(O)c(O)c2)oc2cc(O)cc(O)c12
REMARK SMILES IDX 5 1 3 2 2 3 1 4 22 5 20 6 19 7 17 8 16 9 15 10 14 11 6 12
REMARK SMILES IDX 7 13 8 14 9 15 13 16 11 17 10 18 12 20 4 22 21 24 18 26
REMARK H PARENT 10 19 12 21 4 23 21 25 18 27
REMARK Flexibility Score: inf
ROOT
ATOM      1  C   UNL     1     132.110 131.602 142.522  1.00  0.00     0.180 A 
ATOM      2  C   UNL     1     131.244 132.503 141.878  1.00  0.00     0.208 A 
ATOM      3  C   UNL     1     131.499 133.880 141.975  1.00  0.00     0.238 A 
ATOM      4  O   UNL     1     130.689 134.684 141.443  1.00  0.00    -0.285 OA
ATOM      5  C   UNL     1     132.626 134.339 142.700  1.00  0.00     0.111 A 
ATOM      6  C   UNL     1     133.003 135.709 142.828  1.00  0.00     0.134 A 
ATOM      7  C   UNL     1     134.062 136.057 143.677  1.00  0.00     0.093 A 
ATOM      8  C   UNL     1     134.798 135.081 144.347  1.00  0.00     0.123 A 
ATOM      9  C   UNL     1     134.476 133.733 144.180  1.00  0.00     0.094 A 
ATOM     10  C   UNL     1     133.402 133.357 143.370  1.00  0.00     0.146 A 
ATOM     11  O   UNL     1     133.121 132.066 143.248  1.00  0.00    -0.452 OA
ENDROOT
BRANCH   1  12
ATOM     12  C   UNL     1     131.922 130.136 142.444  1.00  0.00     0.025 A 
ATOM     13  C   UNL     1     132.408 129.433 141.330  1.00  0.00     0.016 A 
ATOM     14  C   UNL     1     132.223 128.053 141.227  1.00  0.00     0.051 A 
ATOM     15  C   UNL     1     131.538 127.354 142.226  1.00  0.00     0.157 A 
ATOM     16  C   UNL     1     131.214 129.435 143.438  1.00  0.00     0.062 A 
ATOM     17  C   UNL     1     131.026 128.048 143.335  1.00  0.00     0.158 A 
BRANCH  15  18
ATOM     18  O   UNL     1     131.371 125.976 142.097  1.00  0.00    -0.504 OA
ATOM     19  H   UNL     1     130.460 125.537 142.155  1.00  0.00     0.293 HD
ENDBRANCH  15  18
BRANCH  17  20
ATOM     20  O   UNL     1     130.329 127.361 144.327  1.00  0.00    -0.504 OA
ATOM     21  H   UNL     1     130.802 126.968 145.133  1.00  0.00     0.293 HD
ENDBRANCH  17  20
ENDBRANCH   1  12
BRANCH   2  22
ATOM     22  O   UNL     1     130.125 132.029 141.188  1.00  0.00    -0.502 OA
ATOM     23  H   UNL     1     130.201 131.413 140.388  1.00  0.00     0.293 HD
ENDBRANCH   2  22
BRANCH   6  24
ATOM     24  O   UNL     1     132.393 136.756 142.132  1.00  0.00    -0.507 OA
ATOM     25  H   UNL     1     131.774 137.438 142.546  1.00  0.00     0.293 HD
ENDBRANCH   6  24
BRANCH   8  26
ATOM     26  O   UNL     1     135.855 135.462 145.170  1.00  0.00    -0.508 OA
ATOM     27  H   UNL     1     135.697 135.832 146.100  1.00  0.00     0.293 HD
ENDBRANCH   8  26
TORSDOF 6
ENDMDL
MODEL 3
REMARK VINA RESULT:    -6.134      2.821      7.478
REMARK INTER + INTRA:          -7.715
REMARK INTER:                  -7.400
REMARK INTRA:                  -0.315
REMARK UNBOUND:                -0.326
REMARK SMILES O=c1c(O)c(-c2ccc(O)c(O)c2)oc2cc(O)cc(O)c12
REMARK SMILES IDX 5 1 3 2 2 3 1 4 22 5 20 6 19 7 17 8 16 9 15 10 14 11 6 12
REMARK SMILES IDX 7 13 8 14 9 15 13 16 11 17 10 18 12 20 4 22 21 24 18 26
REMARK H PARENT 10 19 12 21 4 23 21 25 18 27
REMARK Flexibility Score: inf
ROOT
ATOM      1  C   UNL     1     132.960 132.214 142.428  1.00  0.00     0.180 A 
ATOM      2  C   UNL     1     133.592 131.741 141.265  1.00  0.00     0.208 A 
ATOM      3  C   UNL     1     133.411 130.401 140.888  1.00  0.00     0.238 A 
ATOM      4  O   UNL     1     134.023 129.969 139.877  1.00  0.00    -0.285 OA
ATOM      5  C   UNL     1     132.586 129.555 141.669  1.00  0.00     0.111 A 
ATOM      6  C   UNL     1     132.299 128.192 141.358  1.00  0.00     0.134 A 
ATOM      7  C   UNL     1     131.577 127.412 142.271  1.00  0.00     0.093 A 
ATOM      8  C   UNL     1     131.075 127.963 143.449  1.00  0.00     0.123 A 
ATOM      9  C   UNL     1     131.299 129.311 143.734  1.00  0.00     0.094 A 
ATOM     10  C   UNL     1     132.047 130.105 142.861  1.00  0.00     0.146 A 
ATOM     11  O   UNL     1     132.246 131.379 143.175  1.00  0.00    -0.452 OA
ENDROOT
BRANCH   1  12
ATOM     12  C   UNL     1     133.084 133.619 142.876  1.00  0.00     0.025 A 
ATOM     13  C   UNL     1     132.244 134.598 142.322  1.00  0.00     0.016 A 
ATOM     14  C   UNL     1     132.357 135.934 142.715  1.00  0.00     0.051 A 
ATOM     15  C   UNL     1     133.319 136.315 143.655  1.00  0.00     0.157 A 
ATOM     16  C   UNL     1     134.066 134.008 143.806  1.00  0.00     0.062 A 
ATOM     17  C   UNL     1     134.181 135.349 144.201  1.00  0.00     0.158 A 
BRANCH  15  18
ATOM     18  O   UNL     1     133.407 137.655 144.030  1.00  0.00    -0.504 OA
ATOM     19  H   UNL     1     133.855 137.945 144.891  1.00  0.00     0.293 HD
ENDBRANCH  15  18
BRANCH  17  20
ATOM     20  O   UNL     1     135.152 135.725 145.128  1.00  0.00    -0.504 OA
ATOM     21  H   UNL     1     136.058 136.073 144.836  1.00  0.00     0.293 HD
ENDBRANCH  17  20
ENDBRANCH   1  12
BRANCH   2  22
ATOM     22  O   UNL     1     134.420 132.587 140.522  1.00  0.00    -0.502 OA
ATOM     23  H   UNL     1     134.705 133.499 140.857  1.00  0.00     0.293 HD
ENDBRANCH   2  22
BRANCH   6  24
ATOM     24  O   UNL     1     132.675 127.567 140.165  1.00  0.00    -0.507 OA
ATOM     25  H   UNL     1     133.485 127.815 139.617  1.00  0.00     0.293 HD
ENDBRANCH   6  24
BRANCH   8  26
ATOM     26  O   UNL     1     130.347 127.163 144.326  1.00  0.00    -0.508 OA
ATOM     27  H   UNL     1     129.865 127.556 145.127  1.00  0.00     0.293 HD
ENDBRANCH   8  26
TORSDOF 6
ENDMDL
MODEL 4
REMARK VINA RESULT:    -6.057      2.404      3.463
REMARK INTER + INTRA:          -7.623
REMARK INTER:                  -7.464
REMARK INTRA:                  -0.159
REMARK UNBOUND:                -0.326
REMARK SMILES O=c1c(O)c(-c2ccc(O)c(O)c2)oc2cc(O)cc(O)c12
REMARK SMILES IDX 5 1 3 2 2 3 1 4 22 5 20 6 19 7 17 8 16 9 15 10 14 11 6 12
REMARK SMILES IDX 7 13 8 14 9 15 13 16 11 17 10 18 12 20 4 22 21 24 18 26
REMARK H PARENT 10 19 12 21 4 23 21 25 18 27
REMARK Flexibility Score: inf
ROOT
ATOM      1  C   UNL     1     133.098 130.693 142.651  1.00  0.00     0.180 A 
ATOM      2  C   UNL     1     133.145 131.024 141.287  1.00  0.00     0.208 A 
ATOM      3  C   UNL     1     133.629 132.287 140.908  1.00  0.00     0.238 A 
ATOM      4  O   UNL     1     133.618 132.599 139.689  1.00  0.00    -0.285 OA
ATOM      5  C   UNL     1     134.076 133.195 141.899  1.00  0.00     0.111 A 
ATOM      6  C   UNL     1     134.624 134.484 141.626  1.00  0.00     0.134 A 
ATOM      7  C   UNL     1     134.911 135.351 142.689  1.00  0.00     0.093 A 
ATOM      8  C   UNL     1     134.734 134.951 144.012  1.00  0.00     0.123 A 
ATOM      9  C   UNL     1     134.256 133.669 144.291  1.00  0.00     0.094 A 
ATOM     10  C   UNL     1     133.925 132.796 143.252  1.00  0.00     0.146 A 
ATOM     11  O   UNL     1     133.463 131.591 143.560  1.00  0.00    -0.452 OA
ENDROOT
BRANCH   1  12
ATOM     12  C   UNL     1     132.624 129.373 143.126  1.00  0.00     0.025 A 
ATOM     13  C   UNL     1     131.276 129.020 142.956  1.00  0.00     0.016 A 
ATOM     14  C   UNL     1     130.802 127.789 143.415  1.00  0.00     0.051 A 
ATOM     15  C   UNL     1     131.663 126.897 144.063  1.00  0.00     0.157 A 
ATOM     16  C   UNL     1     133.483 128.484 143.797  1.00  0.00     0.062 A 
ATOM     17  C   UNL     1     133.009 127.247 144.259  1.00  0.00     0.158 A 
BRANCH  15  18
ATOM     18  O   UNL     1     131.163 125.674 144.507  1.00  0.00    -0.504 OA
ATOM     19  H   UNL     1     130.842 125.537 145.458  1.00  0.00     0.293 HD
ENDBRANCH  15  18
BRANCH  17  20
ATOM     20  O   UNL     1     133.869 126.370 144.917  1.00  0.00    -0.504 OA
ATOM     21  H   UNL     1     133.536 125.501 145.320  1.00  0.00     0.293 HD
ENDBRANCH  17  20
ENDBRANCH   1  12
BRANCH   2  22
ATOM     22  O   UNL     1     132.679 130.121 140.328  1.00  0.00    -0.502 OA
ATOM     23  H   UNL     1     132.110 129.318 140.568  1.00  0.00     0.293 HD
ENDBRANCH   2  22
BRANCH   6  24
ATOM     24  O   UNL     1     134.927 134.950 140.344  1.00  0.00    -0.507 OA
ATOM     25  H   UNL     1     134.269 134.995 139.579  1.00  0.00     0.293 HD
ENDBRANCH   6  24
BRANCH   8  26
ATOM     26  O   UNL     1     135.046 135.832 145.045  1.00  0.00    -0.508 OA
ATOM     27  H   UNL     1     135.981 135.888 145.431  1.00  0.00     0.293 HD
ENDBRANCH   8  26
TORSDOF 6
ENDMDL
MODEL 5
REMARK VINA RESULT:    -6.047      5.306      8.234
REMARK INTER + INTRA:          -7.610
REMARK INTER:                  -7.286
REMARK INTRA:                  -0.325
REMARK UNBOUND:                -0.326
REMARK SMILES O=c1c(O)c(-c2ccc(O)c(O)c2)oc2cc(O)cc(O)c12
REMARK SMILES IDX 5 1 3 2 2 3 1 4 22 5 20 6 19 7 17 8 16 9 15 10 14 11 6 12
REMARK SMILES IDX 7 13 8 14 9 15 13 16 11 17 10 18 12 20 4 22 21 24 18 26
REMARK H PARENT 10 19 12 21 4 23 21 25 18 27
REMARK Flexibility Score: inf
ROOT
ATOM      1  C   UNL     1     135.539 132.748 141.530  1.00  0.00     0.180 A 
ATOM      2  C   UNL     1     135.251 131.386 141.723  1.00  0.00     0.208 A 
ATOM      3  C   UNL     1     135.815 130.440 140.852  1.00  0.00     0.238 A 
ATOM      4  O   UNL     1     135.510 129.227 140.996  1.00  0.00    -0.285 OA
ATOM      5  C   UNL     1     136.674 130.866 139.810  1.00  0.00     0.111 A 
ATOM      6  C   UNL     1     137.333 129.991 138.895  1.00  0.00     0.134 A 
ATOM      7  C   UNL     1     138.056 130.531 137.822  1.00  0.00     0.093 A 
ATOM      8  C   UNL     1     138.197 131.909 137.671  1.00  0.00     0.123 A 
ATOM      9  C   UNL     1     137.607 132.773 138.595  1.00  0.00     0.094 A 
ATOM     10  C   UNL     1     136.849 132.266 139.653  1.00  0.00     0.146 A 
ATOM     11  O   UNL     1     136.295 133.121 140.503  1.00  0.00    -0.452 OA
ENDROOT
BRANCH   1  12
ATOM     12  C   UNL     1     135.002 133.801 142.421  1.00  0.00     0.025 A 
ATOM     13  C   UNL     1     133.762 134.391 142.125  1.00  0.00     0.016 A 
ATOM     14  C   UNL     1     133.246 135.401 142.940  1.00  0.00     0.051 A 
ATOM     15  C   UNL     1     133.965 135.848 144.054  1.00  0.00     0.157 A 
ATOM     16  C   UNL     1     135.733 134.267 143.529  1.00  0.00     0.062 A 
ATOM     17  C   UNL     1     135.217 135.282 144.348  1.00  0.00     0.158 A 
BRANCH  15  18
ATOM     18  O   UNL     1     133.423 136.856 144.850  1.00  0.00    -0.504 OA
ATOM     19  H   UNL     1     132.755 137.526 144.490  1.00  0.00     0.293 HD
ENDBRANCH  15  18
BRANCH  17  20
ATOM     20  O   UNL     1     135.945 135.732 145.447  1.00  0.00    -0.504 OA
ATOM     21  H   UNL     1     135.670 135.506 146.396  1.00  0.00     0.293 HD
ENDBRANCH  17  20
ENDBRANCH   1  12
BRANCH   2  22
ATOM     22  O   UNL     1     134.383 130.989 142.744  1.00  0.00    -0.502 OA
ATOM     23  H   UNL     1     133.405 130.785 142.577  1.00  0.00     0.293 HD
ENDBRANCH   2  22
BRANCH   6  24
ATOM     24  O   UNL     1     137.333 128.598 139.008  1.00  0.00    -0.507 OA
ATOM     25  H   UNL     1     137.521 128.091 139.860  1.00  0.00     0.293 HD
ENDBRANCH   6  24
BRANCH   8  26
ATOM     26  O   UNL     1     138.936 132.411 136.602  1.00  0.00    -0.508 OA
ATOM     27  H   UNL     1     139.038 131.892 135.737  1.00  0.00     0.293 HD
ENDBRANCH   8  26
TORSDOF 6
ENDMDL
MODEL 6
REMARK VINA RESULT:    -6.008      4.872      7.507
REMARK INTER + INTRA:          -7.563
REMARK INTER:                  -7.241
REMARK INTRA:                  -0.323
REMARK UNBOUND:                -0.326
REMARK SMILES O=c1c(O)c(-c2ccc(O)c(O)c2)oc2cc(O)cc(O)c12
REMARK SMILES IDX 5 1 3 2 2 3 1 4 22 5 20 6 19 7 17 8 16 9 15 10 14 11 6 12
REMARK SMILES IDX 7 13 8 14 9 15 13 16 11 17 10 18 12 20 4 22 21 24 18 26
REMARK H PARENT 10 19 12 21 4 23 21 25 18 27
REMARK Flexibility Score: inf
ROOT
ATOM      1  C   UNL     1     135.058 132.250 140.434  1.00  0.00     0.180 A 
ATOM      2  C   UNL     1     134.838 133.160 139.386  1.00  0.00     0.208 A 
ATOM      3  C   UNL     1     135.675 133.119 138.260  1.00  0.00     0.238 A 
ATOM      4  O   UNL     1     135.508 133.972 137.350  1.00  0.00    -0.285 OA
ATOM      5  C   UNL     1     136.712 132.156 138.188  1.00  0.00     0.111 A 
ATOM      6  C   UNL     1     137.593 131.998 137.077  1.00  0.00     0.134 A 
ATOM      7  C   UNL     1     138.666 131.100 137.170  1.00  0.00     0.093 A 
ATOM      8  C   UNL     1     138.848 130.311 138.304  1.00  0.00     0.123 A 
ATOM      9  C   UNL     1     137.955 130.415 139.372  1.00  0.00     0.094 A 
ATOM     10  C   UNL     1     136.899 131.327 139.325  1.00  0.00     0.146 A 
ATOM     11  O   UNL     1     136.079 131.403 140.366  1.00  0.00    -0.452 OA
ENDROOT
BRANCH   1  12
ATOM     12  C   UNL     1     134.202 132.216 141.641  1.00  0.00     0.025 A 
ATOM     13  C   UNL     1     133.038 131.431 141.642  1.00  0.00     0.016 A 
ATOM     14  C   UNL     1     132.205 131.400 142.763  1.00  0.00     0.051 A 
ATOM     15  C   UNL     1     132.512 132.163 143.894  1.00  0.00     0.157 A 
ATOM     16  C   UNL     1     134.498 132.999 142.772  1.00  0.00     0.062 A 
ATOM     17  C   UNL     1     133.662 132.970 143.898  1.00  0.00     0.158 A 
BRANCH  15  18
ATOM     18  O   UNL     1     131.664 132.110 144.998  1.00  0.00    -0.504 OA
ATOM     19  H   UNL     1     131.361 131.232 145.403  1.00  0.00     0.293 HD
ENDBRANCH  15  18
BRANCH  17  20
ATOM     20  O   UNL     1     133.967 133.744 145.016  1.00  0.00    -0.504 OA
ATOM     21  H   UNL     1     134.560 133.394 145.759  1.00  0.00     0.293 HD
ENDBRANCH  17  20
ENDBRANCH   1  12
BRANCH   2  22
ATOM     22  O   UNL     1     133.823 134.116 139.487  1.00  0.00    -0.502 OA
ATOM     23  H   UNL     1     134.016 135.107 139.567  1.00  0.00     0.293 HD
ENDBRANCH   2  22
BRANCH   6  24
ATOM     24  O   UNL     1     137.447 132.671 135.861  1.00  0.00    -0.507 OA
ATOM     25  H   UNL     1     138.165 132.742 135.155  1.00  0.00     0.293 HD
ENDBRANCH   6  24
BRANCH   8  26
ATOM     26  O   UNL     1     139.915 129.417 138.355  1.00  0.00    -0.508 OA
ATOM     27  H   UNL     1     140.849 129.689 138.071  1.00  0.00     0.293 HD
ENDBRANCH   8  26
TORSDOF 6
ENDMDL
MODEL 7
REMARK VINA RESULT:    -5.930      1.630      6.947
REMARK INTER + INTRA:          -7.469
REMARK INTER:                  -7.139
REMARK INTRA:                  -0.330
REMARK UNBOUND:                -0.326
REMARK SMILES O=c1c(O)c(-c2ccc(O)c(O)c2)oc2cc(O)cc(O)c12
REMARK SMILES IDX 5 1 3 2 2 3 1 4 22 5 20 6 19 7 17 8 16 9 15 10 14 11 6 12
REMARK SMILES IDX 7 13 8 14 9 15 13 16 11 17 10 18 12 20 4 22 21 24 18 26
REMARK H PARENT 10 19 12 21 4 23 21 25 18 27
REMARK Flexibility Score: inf
ROOT
ATOM      1  C   UNL     1     132.611 128.733 142.998  1.00  0.00     0.180 A 
ATOM      2  C   UNL     1     132.228 128.080 141.814  1.00  0.00     0.208 A 
ATOM      3  C   UNL     1     131.963 126.702 141.851  1.00  0.00     0.238 A 
ATOM      4  O   UNL     1     131.674 126.112 140.777  1.00  0.00    -0.285 OA
ATOM      5  C   UNL     1     132.066 125.997 143.076  1.00  0.00     0.111 A 
ATOM      6  C   UNL     1     131.780 124.609 143.237  1.00  0.00     0.134 A 
ATOM      7  C   UNL     1     132.043 123.988 144.466  1.00  0.00     0.093 A 
ATOM      8  C   UNL     1     132.516 124.719 145.554  1.00  0.00     0.123 A 
ATOM      9  C   UNL     1     132.742 126.090 145.424  1.00  0.00     0.094 A 
ATOM     10  C   UNL     1     132.525 126.730 144.201  1.00  0.00     0.146 A 
ATOM     11  O   UNL     1     132.762 128.033 144.116  1.00  0.00    -0.452 OA
ENDROOT
BRANCH   1  12
ATOM     12  C   UNL     1     132.883 130.188 143.043  1.00  0.00     0.025 A 
ATOM     13  C   UNL     1     134.193 130.652 142.845  1.00  0.00     0.016 A 
ATOM     14  C   UNL     1     134.476 132.019 142.904  1.00  0.00     0.051 A 
ATOM     15  C   UNL     1     133.460 132.941 143.175  1.00  0.00     0.157 A 
ATOM     16  C   UNL     1     131.866 131.115 143.337  1.00  0.00     0.062 A 
ATOM     17  C   UNL     1     132.149 132.487 143.398  1.00  0.00     0.158 A 
BRANCH  15  18
ATOM     18  O   UNL     1     133.772 134.299 143.225  1.00  0.00    -0.504 OA
ATOM     19  H   UNL     1     133.111 135.013 142.945  1.00  0.00     0.293 HD
ENDBRANCH  15  18
BRANCH  17  20
ATOM     20  O   UNL     1     131.134 133.399 143.683  1.00  0.00    -0.504 OA
ATOM     21  H   UNL     1     130.156 133.153 143.586  1.00  0.00     0.293 HD
ENDBRANCH  17  20
ENDBRANCH   1  12
BRANCH   2  22
ATOM     22  O   UNL     1     132.154 128.789 140.612  1.00  0.00    -0.502 OA
ATOM     23  H   UNL     1     132.712 129.616 140.434  1.00  0.00     0.293 HD
ENDBRANCH   2  22
BRANCH   6  24
ATOM     24  O   UNL     1     131.219 123.805 142.241  1.00  0.00    -0.507 OA
ATOM     25  H   UNL     1     130.230 123.728 142.055  1.00  0.00     0.293 HD
ENDBRANCH   6  24
BRANCH   8  26
ATOM     26  O   UNL     1     132.751 124.073 146.766  1.00  0.00    -0.508 OA
ATOM     27  H   UNL     1     133.154 123.143 146.803  1.00  0.00     0.293 HD
ENDBRANCH   8  26
TORSDOF 6
ENDMDL
MODEL 8
REMARK VINA RESULT:    -5.912      5.381      7.918
REMARK INTER + INTRA:          -7.448
REMARK INTER:                  -7.354
REMARK INTRA:                  -0.094
REMARK UNBOUND:                -0.326
REMARK SMILES O=c1c(O)c(-c2ccc(O)c(O)c2)oc2cc(O)cc(O)c12
REMARK SMILES IDX 5 1 3 2 2 3 1 4 22 5 20 6 19 7 17 8 16 9 15 10 14 11 6 12
REMARK SMILES IDX 7 13 8 14 9 15 13 16 11 17 10 18 12 20 4 22 21 24 18 26
REMARK H PARENT 10 19 12 21 4 23 21 25 18 27
REMARK Flexibility Score: inf
ROOT
ATOM      1  C   UNL     1     135.718 131.534 140.642  1.00  0.00     0.180 A 
ATOM      2  C   UNL     1     134.830 131.164 139.618  1.00  0.00     0.208 A 
ATOM      3  C   UNL     1     135.294 130.344 138.577  1.00  0.00     0.238 A 
ATOM      4  O   UNL     1     134.509 130.061 137.635  1.00  0.00    -0.285 OA
ATOM      5  C   UNL     1     136.635 129.889 138.583  1.00  0.00     0.111 A 
ATOM      6  C   UNL     1     137.199 129.021 137.601  1.00  0.00     0.134 A 
ATOM      7  C   UNL     1     138.572 128.741 137.634  1.00  0.00     0.093 A 
ATOM      8  C   UNL     1     139.384 129.244 138.649  1.00  0.00     0.123 A 
ATOM      9  C   UNL     1     138.830 130.045 139.649  1.00  0.00     0.094 A 
ATOM     10  C   UNL     1     137.472 130.372 139.622  1.00  0.00     0.146 A 
ATOM     11  O   UNL     1     136.987 131.146 140.585  1.00  0.00    -0.452 OA
ENDROOT
BRANCH   1  12
ATOM     12  C   UNL     1     135.297 132.376 141.785  1.00  0.00     0.025 A 
ATOM     13  C   UNL     1     136.026 133.535 142.095  1.00  0.00     0.016 A 
ATOM     14  C   UNL     1     135.659 134.333 143.182  1.00  0.00     0.051 A 
ATOM     15  C   UNL     1     134.569 133.979 143.983  1.00  0.00     0.157 A 
ATOM     16  C   UNL     1     134.215 132.009 142.606  1.00  0.00     0.062 A 
ATOM     17  C   UNL     1     133.846 132.809 143.697  1.00  0.00     0.158 A 
BRANCH  15  18
ATOM     18  O   UNL     1     134.225 134.795 145.059  1.00  0.00    -0.504 OA
ATOM     19  H   UNL     1     134.628 134.671 145.980  1.00  0.00     0.293 HD
ENDBRANCH  15  18
BRANCH  17  20
ATOM     20  O   UNL     1     132.768 132.441 144.501  1.00  0.00    -0.504 OA
ATOM     21  H   UNL     1     132.764 132.618 145.499  1.00  0.00     0.293 HD
ENDBRANCH  17  20
ENDBRANCH   1  12
BRANCH   2  22
ATOM     22  O   UNL     1     133.517 131.643 139.620  1.00  0.00    -0.502 OA
ATOM     23  H   UNL     1     132.738 131.090 139.958  1.00  0.00     0.293 HD
ENDBRANCH   2  22
BRANCH   6  24
ATOM     24  O   UNL     1     136.459 128.391 136.597  1.00  0.00    -0.507 OA
ATOM     25  H   UNL     1     135.803 127.640 136.752  1.00  0.00     0.293 HD
ENDBRANCH   6  24
BRANCH   8  26
ATOM     26  O   UNL     1     140.742 128.932 138.660  1.00  0.00    -0.508 OA
ATOM     27  H   UNL     1     141.109 128.178 139.230  1.00  0.00     0.293 HD
ENDBRANCH   8  26
TORSDOF 6
ENDMDL
MODEL 9
REMARK VINA RESULT:    -5.874      2.258      7.073
REMARK INTER + INTRA:          -7.402
REMARK INTER:                  -7.378
REMARK INTRA:                  -0.025
REMARK UNBOUND:                -0.326
REMARK SMILES O=c1c(O)c(-c2ccc(O)c(O)c2)oc2cc(O)cc(O)c12
REMARK SMILES IDX 5 1 3 2 2 3 1 4 22 5 20 6 19 7 17 8 16 9 15 10 14 11 6 12
REMARK SMILES IDX 7 13 8 14 9 15 13 16 11 17 10 18 12 20 4 22 21 24 18 26
REMARK H PARENT 10 19 12 21 4 23 21 25 18 27
REMARK Flexibility Score: inf
ROOT
ATOM      1  C   UNL     1     131.209 127.899 143.095  1.00  0.00     0.180 A 
ATOM      2  C   UNL     1     132.133 127.089 143.778  1.00  0.00     0.208 A 
ATOM      3  C   UNL     1     131.888 125.711 143.879  1.00  0.00     0.238 A 
ATOM      4  O   UNL     1     132.690 125.000 144.537  1.00  0.00    -0.285 OA
ATOM      5  C   UNL     1     130.729 125.156 143.281  1.00  0.00     0.111 A 
ATOM      6  C   UNL     1     130.402 123.767 143.286  1.00  0.00     0.134 A 
ATOM      7  C   UNL     1     129.166 123.347 142.778  1.00  0.00     0.093 A 
ATOM      8  C   UNL     1     128.276 124.256 142.207  1.00  0.00     0.123 A 
ATOM      9  C   UNL     1     128.613 125.609 142.142  1.00  0.00     0.094 A 
ATOM     10  C   UNL     1     129.823 126.063 142.674  1.00  0.00     0.146 A 
ATOM     11  O   UNL     1     130.100 127.359 142.603  1.00  0.00    -0.452 OA
ENDROOT
BRANCH   1  12
ATOM     12  C   UNL     1     131.411 129.356 142.926  1.00  0.00     0.025 A 
ATOM     13  C   UNL     1     131.417 129.908 141.635  1.00  0.00     0.016 A 
ATOM     14  C   UNL     1     131.627 131.276 141.451  1.00  0.00     0.051 A 
ATOM     15  C   UNL     1     131.849 132.112 142.550  1.00  0.00     0.157 A 
ATOM     16  C   UNL     1     131.657 130.194 144.029  1.00  0.00     0.062 A 
ATOM     17  C   UNL     1     131.868 131.569 143.845  1.00  0.00     0.158 A 
BRANCH  15  18
ATOM     18  O   UNL     1     132.053 133.474 142.335  1.00  0.00    -0.504 OA
ATOM     19  H   UNL     1     132.435 134.081 143.051  1.00  0.00     0.293 HD
ENDBRANCH  15  18
BRANCH  17  20
ATOM     20  O   UNL     1     132.104 132.393 144.944  1.00  0.00    -0.504 OA
ATOM     21  H   UNL     1     131.732 132.175 145.861  1.00  0.00     0.293 HD
ENDBRANCH  17  20
ENDBRANCH   1  12
BRANCH   2  22
ATOM     22  O   UNL     1     133.258 127.661 144.379  1.00  0.00    -0.502 OA
ATOM     23  H   UNL     1     133.457 128.653 144.327  1.00  0.00     0.293 HD
ENDBRANCH   2  22
BRANCH   6  24
ATOM     24  O   UNL     1     131.258 122.764 143.749  1.00  0.00    -0.507 OA
ATOM     25  H   UNL     1     132.255 122.742 143.592  1.00  0.00     0.293 HD
ENDBRANCH   6  24
BRANCH   8  26
ATOM     26  O   UNL     1     127.062 123.802 141.696  1.00  0.00    -0.508 OA
ATOM     27  H   UNL     1     126.791 123.979 140.736  1.00  0.00     0.293 HD
ENDBRANCH   8  26
TORSDOF 6
ENDMDL
