MODEL 1
REMARK VINA RESULT:    -7.690      0.000      0.000
REMARK INTER + INTRA:          -8.611
REMARK INTER:                  -8.364
REMARK INTRA:                  -0.247
REMARK UNBOUND:                -0.247
REMARK SMILES C[C@H]1[C@H]2C3=CC[C@H]4[C@@]5(C)CC[C@H](O)C(C)(C)[C@@H]5CC[C@]4(C)[C@@]3(C)CC[C@@]2(C(=O)[O-])CC[C@@H]1C
REMARK SMILES IDX 26 1 30 2 25 3 3 4 31 5 24 6 4 7 2 8 32 9 22 10 5 11 1 12
REMARK SMILES IDX 33 13 23 14 20 15 6 16 7 17 19 18 21 19 8 20 18 21 17 22
REMARK SMILES IDX 10 23 9 24 14 25 11 26 12 27 15 28 16 29 27 30 28 31 29 32
REMARK SMILES IDX 13 33
REMARK H PARENT 13 34
REMARK Flexibility Score: inf
ROOT
ATOM      1  C   UNL     1      14.010  21.743  46.517  1.00  0.00     0.017 C 
ATOM      2  C   UNL     1      13.581  20.662  47.572  1.00  0.00     0.014 C 
ATOM      3  C   UNL     1      14.190  21.046  45.116  1.00  0.00     0.014 C 
ATOM      4  C   UNL     1      15.331  22.483  46.991  1.00  0.00     0.030 C 
ATOM      5  C   UNL     1      13.978  21.055  48.995  1.00  0.00     0.004 C 
ATOM      6  C   UNL     1      15.325  21.571  44.205  1.00  0.00     0.013 C 
ATOM      7  C   UNL     1      16.074  23.254  45.888  1.00  0.00    -0.063 C 
ATOM      8  C   UNL     1      16.264  21.588  47.874  1.00  0.00    -0.003 C 
ATOM      9  C   UNL     1      15.517  21.081  49.157  1.00  0.00    -0.011 C 
ATOM     10  C   UNL     1      15.710  23.067  44.402  1.00  0.00    -0.006 C 
ATOM     11  C   UNL     1      16.965  24.209  46.272  1.00  0.00    -0.027 C 
ATOM     12  C   UNL     1      16.917  20.415  47.120  1.00  0.00     0.008 C 
ATOM     13  C   UNL     1      15.892  21.922  50.387  1.00  0.00     0.008 C 
ATOM     14  C   UNL     1      14.448  23.955  44.092  1.00  0.00     0.017 C 
ATOM     15  C   UNL     1      16.981  23.480  43.493  1.00  0.00    -0.020 C 
ATOM     16  C   UNL     1      17.841  25.010  45.328  1.00  0.00     0.032 C 
ATOM     17  C   UNL     1      17.349  24.970  43.861  1.00  0.00     0.006 C 
ATOM     18  C   UNL     1      16.683  23.388  41.970  1.00  0.00     0.008 C 
ATOM     19  C   UNL     1      18.173  22.501  43.795  1.00  0.00     0.012 C 
ATOM     20  C   UNL     1      18.132  25.847  42.744  1.00  0.00    -0.025 C 
ATOM     21  C   UNL     1      17.841  23.836  41.062  1.00  0.00     0.005 C 
ATOM     22  C   UNL     1      18.788  24.933  41.639  1.00  0.00     0.003 C 
ATOM     23  C   UNL     1      19.241  26.787  43.376  1.00  0.00     0.010 C 
ATOM     24  C   UNL     1      17.070  26.774  42.071  1.00  0.00     0.012 C 
ATOM     25  C   UNL     1      19.670  25.669  40.523  1.00  0.00    -0.006 C 
ATOM     26  C   UNL     1      20.569  26.875  42.604  1.00  0.00     0.033 C 
ATOM     27  C   UNL     1      20.373  26.959  41.089  1.00  0.00     0.120 C 
ATOM     28  C   UNL     1      18.875  26.030  39.234  1.00  0.00     0.014 C 
ATOM     29  C   UNL     1      20.790  24.689  40.071  1.00  0.00     0.014 C 
ENDROOT
BRANCH   1  30
ATOM     30  C   UNL     1      12.834  22.728  46.439  1.00  0.00     0.048 C 
ATOM     31  O   UNL     1      11.875  22.552  45.638  1.00  0.00    -0.550 OA
ATOM     32  O   UNL     1      12.858  23.902  47.185  1.00  0.00    -0.550 OA
ENDBRANCH   1  30
BRANCH  27  33
ATOM     33  O   UNL     1      19.671  28.134  40.766  1.00  0.00    -0.393 OA
ATOM     34  H   UNL     1      19.598  28.175  39.776  1.00  0.00     0.210 HD
ENDBRANCH  27  33
TORSDOF 2
ENDMDL
MODEL 2
REMARK VINA RESULT:    -7.068      1.525      8.361
REMARK INTER + INTRA:          -7.935
REMARK INTER:                  -7.649
REMARK INTRA:                  -0.286
REMARK UNBOUND:                -0.247
REMARK SMILES C[C@H]1[C@H]2C3=CC[C@H]4[C@@]5(C)CC[C@H](O)C(C)(C)[C@@H]5CC[C@]4(C)[C@@]3(C)CC[C@@]2(C(=O)[O-])CC[C@@H]1C
REMARK SMILES IDX 26 1 30 2 25 3 3 4 31 5 24 6 4 7 2 8 32 9 22 10 5 11 1 12
REMARK SMILES IDX 33 13 23 14 20 15 6 16 7 17 19 18 21 19 8 20 18 21 17 22
REMARK SMILES IDX 10 23 9 24 14 25 11 26 12 27 15 28 16 29 27 30 28 31 29 32
REMARK SMILES IDX 13 33
REMARK H PARENT 13 34
REMARK Flexibility Score: inf
ROOT
ATOM      1  C   UNL     1      19.575  25.522  39.720  1.00  0.00     0.017 C 
ATOM      2  C   UNL     1      20.081  25.498  38.234  1.00  0.00     0.014 C 
ATOM      3  C   UNL     1      20.111  24.239  40.462  1.00  0.00     0.014 C 
ATOM      4  C   UNL     1      17.993  25.619  39.763  1.00  0.00     0.030 C 
ATOM      5  C   UNL     1      19.164  26.288  37.300  1.00  0.00     0.004 C 
ATOM      6  C   UNL     1      19.180  23.587  41.512  1.00  0.00     0.013 C 
ATOM      7  C   UNL     1      17.355  25.242  41.111  1.00  0.00    -0.063 C 
ATOM      8  C   UNL     1      17.293  24.959  38.528  1.00  0.00    -0.003 C 
ATOM      9  C   UNL     1      17.774  25.616  37.186  1.00  0.00    -0.011 C 
ATOM     10  C   UNL     1      18.179  24.550  42.215  1.00  0.00    -0.006 C 
ATOM     11  C   UNL     1      16.083  25.662  41.351  1.00  0.00    -0.027 C 
ATOM     12  C   UNL     1      17.426  23.426  38.467  1.00  0.00     0.008 C 
ATOM     13  C   UNL     1      16.748  26.636  36.668  1.00  0.00     0.008 C 
ATOM     14  C   UNL     1      18.998  25.656  42.978  1.00  0.00     0.017 C 
ATOM     15  C   UNL     1      17.174  23.752  43.199  1.00  0.00    -0.020 C 
ATOM     16  C   UNL     1      15.272  25.318  42.585  1.00  0.00     0.032 C 
ATOM     17  C   UNL     1      16.141  24.805  43.758  1.00  0.00     0.006 C 
ATOM     18  C   UNL     1      17.912  23.077  44.388  1.00  0.00     0.008 C 
ATOM     19  C   UNL     1      16.455  22.613  42.389  1.00  0.00     0.012 C 
ATOM     20  C   UNL     1      15.429  24.475  45.179  1.00  0.00    -0.025 C 
ATOM     21  C   UNL     1      16.991  22.359  45.390  1.00  0.00     0.005 C 
ATOM     22  C   UNL     1      15.556  22.949  45.554  1.00  0.00     0.003 C 
ATOM     23  C   UNL     1      13.903  24.899  45.207  1.00  0.00     0.010 C 
ATOM     24  C   UNL     1      16.165  25.326  46.262  1.00  0.00     0.012 C 
ATOM     25  C   UNL     1      14.817  22.471  46.892  1.00  0.00    -0.006 C 
ATOM     26  C   UNL     1      12.942  23.911  45.891  1.00  0.00     0.033 C 
ATOM     27  C   UNL     1      13.517  23.312  47.176  1.00  0.00     0.120 C 
ATOM     28  C   UNL     1      15.732  22.481  48.152  1.00  0.00     0.014 C 
ATOM     29  C   UNL     1      14.379  20.990  46.697  1.00  0.00     0.014 C 
ENDROOT
BRANCH   1  30
ATOM     30  C   UNL     1      20.213  26.768  40.351  1.00  0.00     0.048 C 
ATOM     31  O   UNL     1      19.609  27.875  40.388  1.00  0.00    -0.550 OA
ATOM     32  O   UNL     1      21.528  26.723  40.805  1.00  0.00    -0.550 OA
ENDBRANCH   1  30
BRANCH  27  33
ATOM     33  O   UNL     1      13.739  24.334  48.117  1.00  0.00    -0.393 OA
ATOM     34  H   UNL     1      13.143  25.093  47.878  1.00  0.00     0.210 HD
ENDBRANCH  27  33
TORSDOF 2
ENDMDL
MODEL 3
REMARK VINA RESULT:    -7.048      2.258      3.561
REMARK INTER + INTRA:          -7.913
REMARK INTER:                  -7.995
REMARK INTRA:                   0.082
REMARK UNBOUND:                -0.247
REMARK SMILES C[C@H]1[C@H]2C3=CC[C@H]4[C@@]5(C)CC[C@H](O)C(C)(C)[C@@H]5CC[C@]4(C)[C@@]3(C)CC[C@@]2(C(=O)[O-])CC[C@@H]1C
REMARK SMILES IDX 26 1 30 2 25 3 3 4 31 5 24 6 4 7 2 8 32 9 22 10 5 11 1 12
REMARK SMILES IDX 33 13 23 14 20 15 6 16 7 17 19 18 21 19 8 20 18 21 17 22
REMARK SMILES IDX 10 23 9 24 14 25 11 26 12 27 15 28 16 29 27 30 28 31 29 32
REMARK SMILES IDX 13 33
REMARK H PARENT 13 34
REMARK Flexibility Score: inf
ROOT
ATOM      1  C   UNL     1      15.512  24.652  46.630  1.00  0.00     0.017 C 
ATOM      2  C   UNL     1      14.846  24.138  47.956  1.00  0.00     0.014 C 
ATOM      3  C   UNL     1      14.378  25.090  45.627  1.00  0.00     0.014 C 
ATOM      4  C   UNL     1      16.453  23.534  46.015  1.00  0.00     0.030 C 
ATOM      5  C   UNL     1      15.740  23.149  48.704  1.00  0.00     0.004 C 
ATOM      6  C   UNL     1      14.620  24.820  44.123  1.00  0.00     0.013 C 
ATOM      7  C   UNL     1      16.833  23.743  44.540  1.00  0.00    -0.063 C 
ATOM      8  C   UNL     1      15.988  22.076  46.346  1.00  0.00    -0.003 C 
ATOM      9  C   UNL     1      15.920  21.841  47.896  1.00  0.00    -0.011 C 
ATOM     10  C   UNL     1      16.111  24.794  43.674  1.00  0.00    -0.006 C 
ATOM     11  C   UNL     1      17.916  23.073  44.062  1.00  0.00    -0.027 C 
ATOM     12  C   UNL     1      14.670  21.661  45.669  1.00  0.00     0.008 C 
ATOM     13  C   UNL     1      17.163  21.090  48.400  1.00  0.00     0.008 C 
ATOM     14  C   UNL     1      16.750  26.200  43.978  1.00  0.00     0.017 C 
ATOM     15  C   UNL     1      16.258  24.384  42.117  1.00  0.00    -0.020 C 
ATOM     16  C   UNL     1      18.387  23.096  42.620  1.00  0.00     0.032 C 
ATOM     17  C   UNL     1      17.802  24.278  41.810  1.00  0.00     0.006 C 
ATOM     18  C   UNL     1      15.616  25.428  41.160  1.00  0.00     0.008 C 
ATOM     19  C   UNL     1      15.526  23.015  41.872  1.00  0.00     0.012 C 
ATOM     20  C   UNL     1      18.277  24.491  40.273  1.00  0.00    -0.025 C 
ATOM     21  C   UNL     1      15.788  25.116  39.664  1.00  0.00     0.005 C 
ATOM     22  C   UNL     1      17.076  24.332  39.264  1.00  0.00     0.003 C 
ATOM     23  C   UNL     1      19.448  23.507  39.858  1.00  0.00     0.010 C 
ATOM     24  C   UNL     1      18.837  25.945  40.171  1.00  0.00     0.012 C 
ATOM     25  C   UNL     1      17.427  24.429  37.705  1.00  0.00    -0.006 C 
ATOM     26  C   UNL     1      19.343  22.892  38.451  1.00  0.00     0.033 C 
ATOM     27  C   UNL     1      18.875  23.896  37.395  1.00  0.00     0.120 C 
ATOM     28  C   UNL     1      17.259  25.859  37.111  1.00  0.00     0.014 C 
ATOM     29  C   UNL     1      16.424  23.527  36.929  1.00  0.00     0.014 C 
ENDROOT
BRANCH   1  30
ATOM     30  C   UNL     1      16.328  25.888  47.034  1.00  0.00     0.048 C 
ATOM     31  O   UNL     1      17.577  25.941  46.866  1.00  0.00    -0.550 OA
ATOM     32  O   UNL     1      15.711  26.945  47.697  1.00  0.00    -0.550 OA
ENDBRANCH   1  30
BRANCH  27  33
ATOM     33  O   UNL     1      19.814  24.937  37.282  1.00  0.00    -0.393 OA
ATOM     34  H   UNL     1      20.160  25.126  38.194  1.00  0.00     0.210 HD
ENDBRANCH  27  33
TORSDOF 2
ENDMDL
MODEL 4
REMARK VINA RESULT:    -6.677      1.460      1.764
REMARK INTER + INTRA:          -7.510
REMARK INTER:                  -7.226
REMARK INTRA:                  -0.284
REMARK UNBOUND:                -0.247
REMARK SMILES C[C@H]1[C@H]2C3=CC[C@H]4[C@@]5(C)CC[C@H](O)C(C)(C)[C@@H]5CC[C@]4(C)[C@@]3(C)CC[C@@]2(C(=O)[O-])CC[C@@H]1C
REMARK SMILES IDX 26 1 30 2 25 3 3 4 31 5 24 6 4 7 2 8 32 9 22 10 5 11 1 12
REMARK SMILES IDX 33 13 23 14 20 15 6 16 7 17 19 18 21 19 8 20 18 21 17 22
REMARK SMILES IDX 10 23 9 24 14 25 11 26 12 27 15 28 16 29 27 30 28 31 29 32
REMARK SMILES IDX 13 33
REMARK H PARENT 13 34
REMARK Flexibility Score: inf
ROOT
ATOM      1  C   UNL     1      14.254  19.685  46.170  1.00  0.00     0.017 C 
ATOM      2  C   UNL     1      14.007  18.367  46.987  1.00  0.00     0.014 C 
ATOM      3  C   UNL     1      14.501  19.311  44.660  1.00  0.00     0.014 C 
ATOM      4  C   UNL     1      15.465  20.500  46.790  1.00  0.00     0.030 C 
ATOM      5  C   UNL     1      14.375  18.525  48.462  1.00  0.00     0.004 C 
ATOM      6  C   UNL     1      15.528  20.164  43.878  1.00  0.00     0.013 C 
ATOM      7  C   UNL     1      16.066  21.573  45.867  1.00  0.00    -0.063 C 
ATOM      8  C   UNL     1      16.537  19.593  47.484  1.00  0.00    -0.003 C 
ATOM      9  C   UNL     1      15.898  18.741  48.636  1.00  0.00    -0.011 C 
ATOM     10  C   UNL     1      15.700  21.631  44.371  1.00  0.00    -0.006 C 
ATOM     11  C   UNL     1      16.819  22.552  46.438  1.00  0.00    -0.027 C 
ATOM     12  C   UNL     1      17.333  18.699  46.517  1.00  0.00     0.008 C 
ATOM     13  C   UNL     1      16.176  19.369  50.011  1.00  0.00     0.008 C 
ATOM     14  C   UNL     1      14.317  22.371  44.235  1.00  0.00     0.017 C 
ATOM     15  C   UNL     1      16.878  22.395  43.570  1.00  0.00    -0.020 C 
ATOM     16  C   UNL     1      17.552  23.641  45.678  1.00  0.00     0.032 C 
ATOM     17  C   UNL     1      17.037  23.820  44.229  1.00  0.00     0.006 C 
ATOM     18  C   UNL     1      16.563  22.563  42.057  1.00  0.00     0.008 C 
ATOM     19  C   UNL     1      18.204  21.558  43.680  1.00  0.00     0.012 C 
ATOM     20  C   UNL     1      17.662  25.005  43.313  1.00  0.00    -0.025 C 
ATOM     21  C   UNL     1      17.625  23.343  41.264  1.00  0.00     0.005 C 
ATOM     22  C   UNL     1      18.418  24.430  42.054  1.00  0.00     0.003 C 
ATOM     23  C   UNL     1      18.639  25.951  44.126  1.00  0.00     0.010 C 
ATOM     24  C   UNL     1      16.464  25.882  42.830  1.00  0.00     0.012 C 
ATOM     25  C   UNL     1      19.160  25.492  41.112  1.00  0.00    -0.006 C 
ATOM     26  C   UNL     1      19.923  26.381  43.396  1.00  0.00     0.033 C 
ATOM     27  C   UNL     1      19.684  26.733  41.927  1.00  0.00     0.120 C 
ATOM     28  C   UNL     1      18.294  25.981  39.914  1.00  0.00     0.014 C 
ATOM     29  C   UNL     1      20.399  24.792  40.481  1.00  0.00     0.014 C 
ENDROOT
BRANCH   1  30
ATOM     30  C   UNL     1      12.948  20.486  46.280  1.00  0.00     0.048 C 
ATOM     31  O   UNL     1      12.778  21.357  47.177  1.00  0.00    -0.550 OA
ATOM     32  O   UNL     1      11.875  20.186  45.446  1.00  0.00    -0.550 OA
ENDBRANCH   1  30
BRANCH  27  33
ATOM     33  O   UNL     1      18.814  27.834  41.838  1.00  0.00    -0.393 OA
ATOM     34  H   UNL     1      18.256  27.709  41.025  1.00  0.00     0.210 HD
ENDBRANCH  27  33
TORSDOF 2
ENDMDL
MODEL 5
REMARK VINA RESULT:    -6.425      4.708      7.193
REMARK INTER + INTRA:          -7.235
REMARK INTER:                  -6.992
REMARK INTRA:                  -0.243
REMARK UNBOUND:                -0.247
REMARK SMILES C[C@H]1[C@H]2C3=CC[C@H]4[C@@]5(C)CC[C@H](O)C(C)(C)[C@@H]5CC[C@]4(C)[C@@]3(C)CC[C@@]2(C(=O)[O-])CC[C@@H]1C
REMARK SMILES IDX 26 1 30 2 25 3 3 4 31 5 24 6 4 7 2 8 32 9 22 10 5 11 1 12
REMARK SMILES IDX 33 13 23 14 20 15 6 16 7 17 19 18 21 19 8 20 18 21 17 22
REMARK SMILES IDX 10 23 9 24 14 25 11 26 12 27 15 28 16 29 27 30 28 31 29 32
REMARK SMILES IDX 13 33
REMARK H PARENT 13 34
REMARK Flexibility Score: inf
ROOT
ATOM      1  C   UNL     1      13.326  26.770  49.693  1.00  0.00     0.017 C 
ATOM      2  C   UNL     1      12.530  27.725  50.652  1.00  0.00     0.014 C 
ATOM      3  C   UNL     1      12.343  26.214  48.594  1.00  0.00     0.014 C 
ATOM      4  C   UNL     1      14.016  25.606  50.520  1.00  0.00     0.030 C 
ATOM      5  C   UNL     1      13.166  27.809  52.040  1.00  0.00     0.004 C 
ATOM      6  C   UNL     1      12.559  24.757  48.123  1.00  0.00     0.013 C 
ATOM      7  C   UNL     1      14.471  24.397  49.686  1.00  0.00    -0.063 C 
ATOM      8  C   UNL     1      13.235  25.217  51.821  1.00  0.00    -0.003 C 
ATOM      9  C   UNL     1      13.076  26.451  52.777  1.00  0.00    -0.011 C 
ATOM     10  C   UNL     1      14.019  24.225  48.222  1.00  0.00    -0.006 C 
ATOM     11  C   UNL     1      15.394  23.559  50.233  1.00  0.00    -0.027 C 
ATOM     12  C   UNL     1      11.876  24.541  51.566  1.00  0.00     0.008 C 
ATOM     13  C   UNL     1      14.111  26.411  53.912  1.00  0.00     0.008 C 
ATOM     14  C   UNL     1      14.943  25.124  47.318  1.00  0.00     0.017 C 
ATOM     15  C   UNL     1      14.114  22.662  47.822  1.00  0.00    -0.020 C 
ATOM     16  C   UNL     1      15.896  22.281  49.590  1.00  0.00     0.032 C 
ATOM     17  C   UNL     1      15.605  22.210  48.072  1.00  0.00     0.006 C 
ATOM     18  C   UNL     1      13.742  22.401  46.336  1.00  0.00     0.008 C 
ATOM     19  C   UNL     1      13.107  21.841  48.707  1.00  0.00     0.012 C 
ATOM     20  C   UNL     1      16.156  20.941  47.223  1.00  0.00    -0.025 C 
ATOM     21  C   UNL     1      13.880  20.936  45.888  1.00  0.00     0.005 C 
ATOM     22  C   UNL     1      14.976  20.092  46.612  1.00  0.00     0.003 C 
ATOM     23  C   UNL     1      17.093  19.996  48.083  1.00  0.00     0.010 C 
ATOM     24  C   UNL     1      17.023  21.518  46.060  1.00  0.00     0.012 C 
ATOM     25  C   UNL     1      15.380  18.758  45.824  1.00  0.00    -0.006 C 
ATOM     26  C   UNL     1      16.893  18.484  47.879  1.00  0.00     0.033 C 
ATOM     27  C   UNL     1      16.684  18.102  46.413  1.00  0.00     0.120 C 
ATOM     28  C   UNL     1      15.544  18.961  44.289  1.00  0.00     0.014 C 
ATOM     29  C   UNL     1      14.225  17.730  45.994  1.00  0.00     0.014 C 
ENDROOT
BRANCH   1  30
ATOM     30  C   UNL     1      14.383  27.656  49.017  1.00  0.00     0.048 C 
ATOM     31  O   UNL     1      14.110  28.355  48.003  1.00  0.00    -0.550 OA
ATOM     32  O   UNL     1      15.703  27.622  49.455  1.00  0.00    -0.550 OA
ENDBRANCH   1  30
BRANCH  27  33
ATOM     33  O   UNL     1      17.831  18.434  45.669  1.00  0.00    -0.393 OA
ATOM     34  H   UNL     1      18.390  17.615  45.602  1.00  0.00     0.210 HD
ENDBRANCH  27  33
TORSDOF 2
ENDMDL
MODEL 6
REMARK VINA RESULT:    -6.303      2.486      8.248
REMARK INTER + INTRA:          -7.102
REMARK INTER:                  -6.851
REMARK INTRA:                  -0.251
REMARK UNBOUND:                -0.247
REMARK SMILES C[C@H]1[C@H]2C3=CC[C@H]4[C@@]5(C)CC[C@H](O)C(C)(C)[C@@H]5CC[C@]4(C)[C@@]3(C)CC[C@@]2(C(=O)[O-])CC[C@@H]1C
REMARK SMILES IDX 26 1 30 2 25 3 3 4 31 5 24 6 4 7 2 8 32 9 22 10 5 11 1 12
REMARK SMILES IDX 33 13 23 14 20 15 6 16 7 17 19 18 21 19 8 20 18 21 17 22
REMARK SMILES IDX 10 23 9 24 14 25 11 26 12 27 15 28 16 29 27 30 28 31 29 32
REMARK SMILES IDX 13 33
REMARK H PARENT 13 34
REMARK Flexibility Score: inf
ROOT
ATOM      1  C   UNL     1      16.402  24.863  43.364  1.00  0.00     0.017 C 
ATOM      2  C   UNL     1      16.663  26.249  42.674  1.00  0.00     0.014 C 
ATOM      3  C   UNL     1      14.863  24.730  43.674  1.00  0.00     0.014 C 
ATOM      4  C   UNL     1      17.289  24.721  44.672  1.00  0.00     0.030 C 
ATOM      5  C   UNL     1      18.093  26.744  42.897  1.00  0.00     0.004 C 
ATOM      6  C   UNL     1      14.464  24.000  44.979  1.00  0.00     0.013 C 
ATOM      7  C   UNL     1      16.838  23.620  45.646  1.00  0.00    -0.063 C 
ATOM      8  C   UNL     1      17.599  26.090  45.367  1.00  0.00    -0.003 C 
ATOM      9  C   UNL     1      18.344  27.066  44.390  1.00  0.00    -0.011 C 
ATOM     10  C   UNL     1      15.471  22.927  45.486  1.00  0.00    -0.006 C 
ATOM     11  C   UNL     1      17.739  23.179  46.566  1.00  0.00    -0.027 C 
ATOM     12  C   UNL     1      16.372  26.774  45.996  1.00  0.00     0.008 C 
ATOM     13  C   UNL     1      19.855  27.082  44.667  1.00  0.00     0.008 C 
ATOM     14  C   UNL     1      15.614  21.813  44.383  1.00  0.00     0.017 C 
ATOM     15  C   UNL     1      15.022  22.314  46.913  1.00  0.00    -0.020 C 
ATOM     16  C   UNL     1      17.447  22.161  47.651  1.00  0.00     0.032 C 
ATOM     17  C   UNL     1      16.168  21.334  47.377  1.00  0.00     0.006 C 
ATOM     18  C   UNL     1      13.681  21.533  46.834  1.00  0.00     0.008 C 
ATOM     19  C   UNL     1      14.818  23.488  47.938  1.00  0.00     0.012 C 
ATOM     20  C   UNL     1      15.766  20.143  48.404  1.00  0.00    -0.025 C 
ATOM     21  C   UNL     1      13.243  20.874  48.153  1.00  0.00     0.005 C 
ATOM     22  C   UNL     1      14.388  20.427  49.115  1.00  0.00     0.003 C 
ATOM     23  C   UNL     1      16.880  19.884  49.500  1.00  0.00     0.010 C 
ATOM     24  C   UNL     1      15.640  18.838  47.556  1.00  0.00     0.012 C 
ATOM     25  C   UNL     1      13.916  19.372  50.223  1.00  0.00    -0.006 C 
ATOM     26  C   UNL     1      16.372  19.624  50.929  1.00  0.00     0.033 C 
ATOM     27  C   UNL     1      15.140  18.718  50.968  1.00  0.00     0.120 C 
ATOM     28  C   UNL     1      12.984  18.254  49.669  1.00  0.00     0.014 C 
ATOM     29  C   UNL     1      13.077  20.134  51.289  1.00  0.00     0.014 C 
ENDROOT
BRANCH   1  30
ATOM     30  C   UNL     1      16.796  23.806  42.323  1.00  0.00     0.048 C 
ATOM     31  O   UNL     1      15.977  23.389  41.459  1.00  0.00    -0.550 OA
ATOM     32  O   UNL     1      18.050  23.205  42.381  1.00  0.00    -0.550 OA
ENDBRANCH   1  30
BRANCH  27  33
ATOM     33  O   UNL     1      15.466  17.452  50.448  1.00  0.00    -0.393 OA
ATOM     34  H   UNL     1      15.015  16.772  51.015  1.00  0.00     0.210 HD
ENDBRANCH  27  33
TORSDOF 2
ENDMDL
MODEL 7
REMARK VINA RESULT:    -6.217      2.483      7.896
REMARK INTER + INTRA:          -7.009
REMARK INTER:                  -6.725
REMARK INTRA:                  -0.284
REMARK UNBOUND:                -0.247
REMARK SMILES C[C@H]1[C@H]2C3=CC[C@H]4[C@@]5(C)CC[C@H](O)C(C)(C)[C@@H]5CC[C@]4(C)[C@@]3(C)CC[C@@]2(C(=O)[O-])CC[C@@H]1C
REMARK SMILES IDX 26 1 30 2 25 3 3 4 31 5 24 6 4 7 2 8 32 9 22 10 5 11 1 12
REMARK SMILES IDX 33 13 23 14 20 15 6 16 7 17 19 18 21 19 8 20 18 21 17 22
REMARK SMILES IDX 10 23 9 24 14 25 11 26 12 27 15 28 16 29 27 30 28 31 29 32
REMARK SMILES IDX 13 33
REMARK H PARENT 13 34
REMARK Flexibility Score: inf
ROOT
ATOM      1  C   UNL     1      15.336  24.858  41.759  1.00  0.00     0.017 C 
ATOM      2  C   UNL     1      15.802  25.842  40.627  1.00  0.00     0.014 C 
ATOM      3  C   UNL     1      15.264  25.645  43.122  1.00  0.00     0.014 C 
ATOM      4  C   UNL     1      16.311  23.609  41.841  1.00  0.00     0.030 C 
ATOM      5  C   UNL     1      16.489  25.110  39.474  1.00  0.00     0.004 C 
ATOM      6  C   UNL     1      15.668  24.879  44.404  1.00  0.00     0.013 C 
ATOM      7  C   UNL     1      16.217  22.797  43.144  1.00  0.00    -0.063 C 
ATOM      8  C   UNL     1      17.779  23.935  41.405  1.00  0.00    -0.003 C 
ATOM      9  C   UNL     1      17.826  24.479  39.934  1.00  0.00    -0.011 C 
ATOM     10  C   UNL     1      15.450  23.338  44.366  1.00  0.00    -0.006 C 
ATOM     11  C   UNL     1      16.712  21.529  43.138  1.00  0.00    -0.027 C 
ATOM     12  C   UNL     1      18.531  24.876  42.363  1.00  0.00     0.008 C 
ATOM     13  C   UNL     1      18.242  23.377  38.947  1.00  0.00     0.008 C 
ATOM     14  C   UNL     1      13.918  23.054  44.146  1.00  0.00     0.017 C 
ATOM     15  C   UNL     1      16.015  22.623  45.701  1.00  0.00    -0.020 C 
ATOM     16  C   UNL     1      16.776  20.615  44.346  1.00  0.00     0.032 C 
ATOM     17  C   UNL     1      15.847  21.067  45.499  1.00  0.00     0.006 C 
ATOM     18  C   UNL     1      15.250  23.058  46.982  1.00  0.00     0.008 C 
ATOM     19  C   UNL     1      17.523  23.019  45.900  1.00  0.00     0.012 C 
ATOM     20  C   UNL     1      15.739  20.145  46.830  1.00  0.00    -0.025 C 
ATOM     21  C   UNL     1      15.708  22.354  48.272  1.00  0.00     0.005 C 
ATOM     22  C   UNL     1      16.261  20.904  48.109  1.00  0.00     0.003 C 
ATOM     23  C   UNL     1      16.512  18.770  46.681  1.00  0.00     0.010 C 
ATOM     24  C   UNL     1      14.227  19.806  47.023  1.00  0.00     0.012 C 
ATOM     25  C   UNL     1      16.293  20.074  49.478  1.00  0.00    -0.006 C 
ATOM     26  C   UNL     1      17.307  18.308  47.915  1.00  0.00     0.033 C 
ATOM     27  C   UNL     1      16.560  18.543  49.228  1.00  0.00     0.120 C 
ATOM     28  C   UNL     1      15.012  20.247  50.346  1.00  0.00     0.014 C 
ATOM     29  C   UNL     1      17.468  20.616  50.342  1.00  0.00     0.014 C 
ENDROOT
BRANCH   1  30
ATOM     30  C   UNL     1      13.920  24.416  41.361  1.00  0.00     0.048 C 
ATOM     31  O   UNL     1      13.717  23.361  40.699  1.00  0.00    -0.550 OA
ATOM     32  O   UNL     1      12.831  25.237  41.636  1.00  0.00    -0.550 OA
ENDBRANCH   1  30
BRANCH  27  33
ATOM     33  O   UNL     1      15.374  17.786  49.240  1.00  0.00    -0.393 OA
ATOM     34  H   UNL     1      15.380  17.211  48.430  1.00  0.00     0.210 HD
ENDBRANCH  27  33
TORSDOF 2
ENDMDL
MODEL 8
REMARK VINA RESULT:    -6.212      2.529      4.388
REMARK INTER + INTRA:          -7.004
REMARK INTER:                  -6.719
REMARK INTRA:                  -0.285
REMARK UNBOUND:                -0.247
REMARK SMILES C[C@H]1[C@H]2C3=CC[C@H]4[C@@]5(C)CC[C@H](O)C(C)(C)[C@@H]5CC[C@]4(C)[C@@]3(C)CC[C@@]2(C(=O)[O-])CC[C@@H]1C
REMARK SMILES IDX 26 1 30 2 25 3 3 4 31 5 24 6 4 7 2 8 32 9 22 10 5 11 1 12
REMARK SMILES IDX 33 13 23 14 20 15 6 16 7 17 19 18 21 19 8 20 18 21 17 22
REMARK SMILES IDX 10 23 9 24 14 25 11 26 12 27 15 28 16 29 27 30 28 31 29 32
REMARK SMILES IDX 13 33
REMARK H PARENT 13 34
REMARK Flexibility Score: inf
ROOT
ATOM      1  C   UNL     1      16.353  23.119  45.492  1.00  0.00     0.017 C 
ATOM      2  C   UNL     1      16.092  23.306  47.029  1.00  0.00     0.014 C 
ATOM      3  C   UNL     1      17.890  23.320  45.207  1.00  0.00     0.014 C 
ATOM      4  C   UNL     1      15.455  24.122  44.654  1.00  0.00     0.030 C 
ATOM      5  C   UNL     1      14.659  23.750  47.321  1.00  0.00     0.004 C 
ATOM      6  C   UNL     1      18.280  24.009  43.878  1.00  0.00     0.013 C 
ATOM      7  C   UNL     1      15.901  24.331  43.197  1.00  0.00    -0.063 C 
ATOM      8  C   UNL     1      15.133  25.454  45.412  1.00  0.00    -0.003 C 
ATOM      9  C   UNL     1      14.393  25.170  46.766  1.00  0.00    -0.011 C 
ATOM     10  C   UNL     1      17.272  23.829  42.704  1.00  0.00    -0.006 C 
ATOM     11  C   UNL     1      14.993  24.847  42.323  1.00  0.00    -0.027 C 
ATOM     12  C   UNL     1      16.351  26.369  45.633  1.00  0.00     0.008 C 
ATOM     13  C   UNL     1      12.879  25.396  46.630  1.00  0.00     0.008 C 
ATOM     14  C   UNL     1      17.144  22.294  42.384  1.00  0.00     0.017 C 
ATOM     15  C   UNL     1      17.711  24.686  41.405  1.00  0.00    -0.020 C 
ATOM     16  C   UNL     1      15.280  25.192  40.874  1.00  0.00     0.032 C 
ATOM     17  C   UNL     1      16.565  24.520  40.334  1.00  0.00     0.006 C 
ATOM     18  C   UNL     1      19.056  24.202  40.796  1.00  0.00     0.008 C 
ATOM     19  C   UNL     1      17.900  26.191  41.819  1.00  0.00     0.012 C 
ATOM     20  C   UNL     1      16.962  24.723  38.773  1.00  0.00    -0.025 C 
ATOM     21  C   UNL     1      19.484  24.943  39.517  1.00  0.00     0.005 C 
ATOM     22  C   UNL     1      18.332  25.488  38.616  1.00  0.00     0.003 C 
ATOM     23  C   UNL     1      15.839  25.484  37.954  1.00  0.00     0.010 C 
ATOM     24  C   UNL     1      17.101  23.297  38.153  1.00  0.00     0.012 C 
ATOM     25  C   UNL     1      18.798  25.834  37.123  1.00  0.00    -0.006 C 
ATOM     26  C   UNL     1      16.335  26.536  36.948  1.00  0.00     0.033 C 
ATOM     27  C   UNL     1      17.570  26.081  36.169  1.00  0.00     0.120 C 
ATOM     28  C   UNL     1      19.739  24.764  36.495  1.00  0.00     0.014 C 
ATOM     29  C   UNL     1      19.624  27.151  37.170  1.00  0.00     0.014 C 
ENDROOT
BRANCH   1  30
ATOM     30  C   UNL     1      15.973  21.663  45.185  1.00  0.00     0.048 C 
ATOM     31  O   UNL     1      14.819  21.351  44.783  1.00  0.00    -0.550 OA
ATOM     32  O   UNL     1      16.875  20.638  45.449  1.00  0.00    -0.550 OA
ENDBRANCH   1  30
BRANCH  27  33
ATOM     33  O   UNL     1      17.254  24.946  35.401  1.00  0.00    -0.393 OA
ATOM     34  H   UNL     1      16.281  24.982  35.203  1.00  0.00     0.210 HD
ENDBRANCH  27  33
TORSDOF 2
ENDMDL
MODEL 9
REMARK VINA RESULT:    -6.165      2.458      8.245
REMARK INTER + INTRA:          -6.952
REMARK INTER:                  -6.670
REMARK INTRA:                  -0.282
REMARK UNBOUND:                -0.247
REMARK SMILES C[C@H]1[C@H]2C3=CC[C@H]4[C@@]5(C)CC[C@H](O)C(C)(C)[C@@H]5CC[C@]4(C)[C@@]3(C)CC[C@@]2(C(=O)[O-])CC[C@@H]1C
REMARK SMILES IDX 26 1 30 2 25 3 3 4 31 5 24 6 4 7 2 8 32 9 22 10 5 11 1 12
REMARK SMILES IDX 33 13 23 14 20 15 6 16 7 17 19 18 21 19 8 20 18 21 17 22
REMARK SMILES IDX 10 23 9 24 14 25 11 26 12 27 15 28 16 29 27 30 28 31 29 32
REMARK SMILES IDX 13 33
REMARK H PARENT 13 34
REMARK Flexibility Score: inf
ROOT
ATOM      1  C   UNL     1      17.069  24.819  42.911  1.00  0.00     0.017 C 
ATOM      2  C   UNL     1      17.208  24.669  41.355  1.00  0.00     0.014 C 
ATOM      3  C   UNL     1      17.820  23.623  43.609  1.00  0.00     0.014 C 
ATOM      4  C   UNL     1      15.539  24.885  43.325  1.00  0.00     0.030 C 
ATOM      5  C   UNL     1      16.062  25.347  40.605  1.00  0.00     0.004 C 
ATOM      6  C   UNL     1      17.194  23.051  44.903  1.00  0.00     0.013 C 
ATOM      7  C   UNL     1      15.256  24.621  44.813  1.00  0.00    -0.063 C 
ATOM      8  C   UNL     1      14.596  24.097  42.354  1.00  0.00    -0.003 C 
ATOM      9  C   UNL     1      14.715  24.637  40.886  1.00  0.00    -0.011 C 
ATOM     10  C   UNL     1      16.348  24.053  45.742  1.00  0.00    -0.006 C 
ATOM     11  C   UNL     1      14.060  25.033  45.315  1.00  0.00    -0.027 C 
ATOM     12  C   UNL     1      14.777  22.570  42.394  1.00  0.00     0.008 C 
ATOM     13  C   UNL     1      13.552  25.582  40.545  1.00  0.00     0.008 C 
ATOM     14  C   UNL     1      17.276  25.242  46.189  1.00  0.00     0.017 C 
ATOM     15  C   UNL     1      15.641  23.328  47.002  1.00  0.00    -0.020 C 
ATOM     16  C   UNL     1      13.581  24.788  46.733  1.00  0.00     0.032 C 
ATOM     17  C   UNL     1      14.725  24.405  47.702  1.00  0.00     0.006 C 
ATOM     18  C   UNL     1      16.669  22.782  48.032  1.00  0.00     0.008 C 
ATOM     19  C   UNL     1      14.800  22.103  46.488  1.00  0.00     0.012 C 
ATOM     20  C   UNL     1      14.386  24.193  49.275  1.00  0.00    -0.025 C 
ATOM     21  C   UNL     1      16.044  22.141  49.283  1.00  0.00     0.005 C 
ATOM     22  C   UNL     1      14.664  22.711  49.737  1.00  0.00     0.003 C 
ATOM     23  C   UNL     1      12.893  24.584  49.633  1.00  0.00     0.010 C 
ATOM     24  C   UNL     1      15.320  25.157  50.072  1.00  0.00     0.012 C 
ATOM     25  C   UNL     1      14.286  22.344  51.249  1.00  0.00    -0.006 C 
ATOM     26  C   UNL     1      12.166  23.643  50.609  1.00  0.00     0.033 C 
ATOM     27  C   UNL     1      13.055  23.180  51.764  1.00  0.00     0.120 C 
ATOM     28  C   UNL     1      15.472  22.491  52.246  1.00  0.00     0.014 C 
ATOM     29  C   UNL     1      13.879  20.843  51.291  1.00  0.00     0.014 C 
ENDROOT
BRANCH   1  30
ATOM     30  C   UNL     1      17.784  26.132  43.262  1.00  0.00     0.048 C 
ATOM     31  O   UNL     1      17.151  27.215  43.396  1.00  0.00    -0.550 OA
ATOM     32  O   UNL     1      19.173  26.170  43.337  1.00  0.00    -0.550 OA
ENDBRANCH   1  30
BRANCH  27  33
ATOM     33  O   UNL     1      13.449  24.289  52.534  1.00  0.00    -0.393 OA
ATOM     34  H   UNL     1      14.424  24.418  52.392  1.00  0.00     0.210 HD
ENDBRANCH  27  33
TORSDOF 2
ENDMDL
