MODEL 1
REMARK VINA RESULT:     7.958      0.000      0.000
REMARK INTER + INTRA:           9.054
REMARK INTER:                   9.354
REMARK INTRA:                  -0.300
REMARK UNBOUND:                -0.300
REMARK SMILES O=c1cc(-c2ccc(O)c(O)c2)oc2cc(O)cc(O)c12
REMARK SMILES IDX 4 1 3 2 2 3 1 4 21 5 19 6 18 7 16 8 15 9 14 10 13 11 5 12
REMARK SMILES IDX 6 13 7 14 8 15 12 16 10 17 9 18 11 20 20 22 17 24
REMARK H PARENT 9 19 11 21 20 23 17 25
REMARK Flexibility Score: inf
ROOT
ATOM      1  C   UNL     1     -27.658 141.283  53.926  1.00  0.00     0.138 A 
ATOM      2  C   UNL     1     -28.395 140.094  53.839  1.00  0.00     0.100 A 
ATOM      3  C   UNL     1     -28.035 138.998  54.626  1.00  0.00     0.197 A 
ATOM      4  O   UNL     1     -28.681 137.929  54.483  1.00  0.00    -0.289 OA
ATOM      5  C   UNL     1     -26.951 139.107  55.529  1.00  0.00     0.107 A 
ATOM      6  C   UNL     1     -26.514 138.068  56.406  1.00  0.00     0.134 A 
ATOM      7  C   UNL     1     -25.367 138.261  57.185  1.00  0.00     0.093 A 
ATOM      8  C   UNL     1     -24.675 139.471  57.165  1.00  0.00     0.123 A 
ATOM      9  C   UNL     1     -25.122 140.511  56.349  1.00  0.00     0.094 A 
ATOM     10  C   UNL     1     -26.243 140.339  55.535  1.00  0.00     0.146 A 
ATOM     11  O   UNL     1     -26.625 141.349  54.760  1.00  0.00    -0.456 OA
ENDROOT
BRANCH   1  12
ATOM     12  C   UNL     1     -27.999 142.479  53.115  1.00  0.00     0.021 A 
ATOM     13  C   UNL     1     -28.428 142.371  51.778  1.00  0.00     0.016 A 
ATOM     14  C   UNL     1     -28.732 143.516  51.038  1.00  0.00     0.051 A 
ATOM     15  C   UNL     1     -28.607 144.786  51.614  1.00  0.00     0.157 A 
ATOM     16  C   UNL     1     -27.863 143.759  53.682  1.00  0.00     0.062 A 
ATOM     17  C   UNL     1     -28.169 144.908  52.938  1.00  0.00     0.158 A 
BRANCH  15  18
ATOM     18  O   UNL     1     -28.911 145.929  50.878  1.00  0.00    -0.504 OA
ATOM     19  H   UNL     1     -29.647 146.565  51.165  1.00  0.00     0.293 HD
ENDBRANCH  15  18
BRANCH  17  20
ATOM     20  O   UNL     1     -28.042 146.173  53.508  1.00  0.00    -0.504 OA
ATOM     21  H   UNL     1     -27.157 146.503  53.876  1.00  0.00     0.293 HD
ENDBRANCH  17  20
ENDBRANCH   1  12
BRANCH   6  22
ATOM     22  O   UNL     1     -27.176 136.847  56.565  1.00  0.00    -0.507 OA
ATOM     23  H   UNL     1     -26.724 135.954  56.688  1.00  0.00     0.293 HD
ENDBRANCH   6  22
BRANCH   8  24
ATOM     24  O   UNL     1     -23.546 139.631  57.966  1.00  0.00    -0.508 OA
ATOM     25  H   UNL     1     -22.622 139.378  57.636  1.00  0.00     0.293 HD
ENDBRANCH   8  24
TORSDOF 5
ENDMDL
