MODEL 1
REMARK VINA RESULT:    -4.339      0.000      0.000
REMARK INTER + INTRA:          -5.210
REMARK INTER:                  -4.973
REMARK INTRA:                  -0.237
REMARK UNBOUND:                -0.237
REMARK SMILES O=C([O-])C=Cc1ccc(O)cc1
REMARK SMILES IDX 6 1 7 2 12 3 8 4 11 5 9 6 5 7 4 8 2 9 1 10 3 11 10 12
REMARK H PARENT 10 13
REMARK Flexibility Score: inf
ROOT
ATOM      1  C   UNL     1      14.025  16.604  12.195  1.00  0.00    -0.025 A 
ATOM      2  C   UNL     1      13.368  17.819  11.946  1.00  0.00     0.012 A 
ATOM      3  C   UNL     1      13.279  15.414  12.230  1.00  0.00     0.012 A 
ATOM      4  C   UNL     1      11.979  17.850  11.786  1.00  0.00     0.047 A 
ATOM      5  C   UNL     1      11.890  15.447  12.071  1.00  0.00     0.047 A 
ATOM      6  C   UNL     1      11.236  16.664  11.852  1.00  0.00     0.115 A 
ENDROOT
BRANCH   1   7
ATOM      7  C   UNL     1      15.498  16.588  12.307  1.00  0.00     0.010 C 
ATOM      8  C   UNL     1      16.191  16.666  13.454  1.00  0.00     0.025 C 
BRANCH   8   9
ATOM      9  C   UNL     1      15.619  16.971  14.780  1.00  0.00     0.064 C 
ATOM     10  O   UNL     1      15.164  18.122  15.004  1.00  0.00    -0.545 OA
ATOM     11  O   UNL     1      15.504  15.995  15.762  1.00  0.00    -0.545 OA
ENDBRANCH   8   9
ENDBRANCH   1   7
BRANCH   6  12
ATOM     12  O   UNL     1       9.852  16.683  11.696  1.00  0.00    -0.508 OA
ATOM     13  H   UNL     1       9.353  15.891  11.308  1.00  0.00     0.293 HD
ENDBRANCH   6  12
TORSDOF 3
ENDMDL
MODEL 2
REMARK VINA RESULT:    -4.247      4.752      5.209
REMARK INTER + INTRA:          -5.105
REMARK INTER:                  -4.858
REMARK INTRA:                  -0.247
REMARK UNBOUND:                -0.237
REMARK SMILES O=C([O-])C=Cc1ccc(O)cc1
REMARK SMILES IDX 6 1 7 2 12 3 8 4 11 5 9 6 5 7 4 8 2 9 1 10 3 11 10 12
REMARK H PARENT 10 13
REMARK Flexibility Score: inf
ROOT
ATOM      1  C   UNL     1      15.231  17.183   8.736  1.00  0.00    -0.025 A 
ATOM      2  C   UNL     1      14.624  17.043   9.993  1.00  0.00     0.012 A 
ATOM      3  C   UNL     1      14.426  17.363   7.599  1.00  0.00     0.012 A 
ATOM      4  C   UNL     1      13.230  17.031  10.105  1.00  0.00     0.047 A 
ATOM      5  C   UNL     1      13.032  17.350   7.713  1.00  0.00     0.047 A 
ATOM      6  C   UNL     1      12.430  17.181   8.964  1.00  0.00     0.115 A 
ENDROOT
BRANCH   1   7
ATOM      7  C   UNL     1      16.705  17.246   8.649  1.00  0.00     0.010 C 
ATOM      8  C   UNL     1      17.503  16.245   8.248  1.00  0.00     0.025 C 
BRANCH   8   9
ATOM      9  C   UNL     1      17.075  14.854   8.006  1.00  0.00     0.064 C 
ATOM     10  O   UNL     1      17.208  14.360   6.856  1.00  0.00    -0.545 OA
ATOM     11  O   UNL     1      16.597  14.052   9.036  1.00  0.00    -0.545 OA
ENDBRANCH   8   9
ENDBRANCH   1   7
BRANCH   6  12
ATOM     12  O   UNL     1      11.041  17.169   9.063  1.00  0.00    -0.508 OA
ATOM     13  H   UNL     1      10.471  16.606   8.441  1.00  0.00     0.293 HD
ENDBRANCH   6  12
TORSDOF 3
ENDMDL
MODEL 3
REMARK VINA RESULT:    -4.231      3.649      5.410
REMARK INTER + INTRA:          -5.086
REMARK INTER:                  -4.860
REMARK INTRA:                  -0.226
REMARK UNBOUND:                -0.237
REMARK SMILES O=C([O-])C=Cc1ccc(O)cc1
REMARK SMILES IDX 6 1 7 2 12 3 8 4 11 5 9 6 5 7 4 8 2 9 1 10 3 11 10 12
REMARK H PARENT 10 13
REMARK Flexibility Score: inf
ROOT
ATOM      1  C   UNL     1      12.964  17.070   9.425  1.00  0.00    -0.025 A 
ATOM      2  C   UNL     1      13.166  17.046   8.037  1.00  0.00     0.012 A 
ATOM      3  C   UNL     1      14.068  17.249  10.277  1.00  0.00     0.012 A 
ATOM      4  C   UNL     1      14.457  17.148   7.509  1.00  0.00     0.047 A 
ATOM      5  C   UNL     1      15.358  17.350   9.747  1.00  0.00     0.047 A 
ATOM      6  C   UNL     1      15.557  17.296   8.364  1.00  0.00     0.115 A 
ENDROOT
BRANCH   1   7
ATOM      7  C   UNL     1      11.587  17.015   9.957  1.00  0.00     0.010 C 
ATOM      8  C   UNL     1      11.067  16.000  10.665  1.00  0.00     0.025 C 
BRANCH   8   9
ATOM      9  C   UNL     1      11.708  14.688  10.875  1.00  0.00     0.064 C 
ATOM     10  O   UNL     1      12.158  14.398  12.014  1.00  0.00    -0.545 OA
ATOM     11  O   UNL     1      11.760  13.735   9.865  1.00  0.00    -0.545 OA
ENDBRANCH   8   9
ENDBRANCH   1   7
BRANCH   6  12
ATOM     12  O   UNL     1      16.848  17.396   7.851  1.00  0.00    -0.508 OA
ATOM     13  H   UNL     1      17.575  16.742   8.116  1.00  0.00     0.293 HD
ENDBRANCH   6  12
TORSDOF 3
ENDMDL
MODEL 4
REMARK VINA RESULT:    -4.207      4.671      6.588
REMARK INTER + INTRA:          -5.059
REMARK INTER:                  -4.764
REMARK INTRA:                  -0.295
REMARK UNBOUND:                -0.237
REMARK SMILES O=C([O-])C=Cc1ccc(O)cc1
REMARK SMILES IDX 6 1 7 2 12 3 8 4 11 5 9 6 5 7 4 8 2 9 1 10 3 11 10 12
REMARK H PARENT 10 13
REMARK Flexibility Score: inf
ROOT
ATOM      1  C   UNL     1      15.740  16.938   7.911  1.00  0.00    -0.025 A 
ATOM      2  C   UNL     1      16.342  15.739   7.502  1.00  0.00     0.012 A 
ATOM      3  C   UNL     1      16.501  17.884   8.619  1.00  0.00     0.012 A 
ATOM      4  C   UNL     1      17.672  15.466   7.840  1.00  0.00     0.047 A 
ATOM      5  C   UNL     1      17.830  17.609   8.957  1.00  0.00     0.047 A 
ATOM      6  C   UNL     1      18.418  16.400   8.572  1.00  0.00     0.115 A 
ENDROOT
BRANCH   1   7
ATOM      7  C   UNL     1      14.351  17.229   7.496  1.00  0.00     0.010 C 
ATOM      8  C   UNL     1      13.264  17.085   8.269  1.00  0.00     0.025 C 
BRANCH   8   9
ATOM      9  C   UNL     1      13.236  16.439   9.595  1.00  0.00     0.064 C 
ATOM     10  O   UNL     1      13.140  15.186   9.667  1.00  0.00    -0.545 OA
ATOM     11  O   UNL     1      13.386  17.174  10.765  1.00  0.00    -0.545 OA
ENDBRANCH   8   9
ENDBRANCH   1   7
BRANCH   6  12
ATOM     12  O   UNL     1      19.742  16.138   8.917  1.00  0.00    -0.508 OA
ATOM     13  H   UNL     1      20.190  16.613   9.692  1.00  0.00     0.293 HD
ENDBRANCH   6  12
TORSDOF 3
ENDMDL
MODEL 5
REMARK VINA RESULT:    -4.195      2.614      3.064
REMARK INTER + INTRA:          -5.045
REMARK INTER:                  -4.759
REMARK INTRA:                  -0.286
REMARK UNBOUND:                -0.237
REMARK SMILES O=C([O-])C=Cc1ccc(O)cc1
REMARK SMILES IDX 6 1 7 2 12 3 8 4 11 5 9 6 5 7 4 8 2 9 1 10 3 11 10 12
REMARK H PARENT 10 13
REMARK Flexibility Score: inf
ROOT
ATOM      1  C   UNL     1      14.103  16.975  12.265  1.00  0.00    -0.025 A 
ATOM      2  C   UNL     1      13.306  18.125  12.164  1.00  0.00     0.012 A 
ATOM      3  C   UNL     1      13.510  15.711  12.107  1.00  0.00     0.012 A 
ATOM      4  C   UNL     1      11.927  18.012  11.959  1.00  0.00     0.047 A 
ATOM      5  C   UNL     1      12.132  15.600  11.903  1.00  0.00     0.047 A 
ATOM      6  C   UNL     1      11.336  16.748  11.832  1.00  0.00     0.115 A 
ENDROOT
BRANCH   1   7
ATOM      7  C   UNL     1      15.565  17.121  12.428  1.00  0.00     0.010 C 
ATOM      8  C   UNL     1      16.450  17.229  11.426  1.00  0.00     0.025 C 
BRANCH   8   9
ATOM      9  C   UNL     1      16.151  17.034   9.994  1.00  0.00     0.064 C 
ATOM     10  O   UNL     1      16.200  15.874   9.508  1.00  0.00    -0.545 OA
ATOM     11  O   UNL     1      15.744  18.089   9.187  1.00  0.00    -0.545 OA
ENDBRANCH   8   9
ENDBRANCH   1   7
BRANCH   6  12
ATOM     12  O   UNL     1       9.963  16.622  11.630  1.00  0.00    -0.508 OA
ATOM     13  H   UNL     1       9.512  17.011  10.810  1.00  0.00     0.293 HD
ENDBRANCH   6  12
TORSDOF 3
ENDMDL
MODEL 6
REMARK VINA RESULT:    -4.119      3.985      4.656
REMARK INTER + INTRA:          -4.958
REMARK INTER:                  -4.701
REMARK INTRA:                  -0.257
REMARK UNBOUND:                -0.237
REMARK SMILES O=C([O-])C=Cc1ccc(O)cc1
REMARK SMILES IDX 6 1 7 2 12 3 8 4 11 5 9 6 5 7 4 8 2 9 1 10 3 11 10 12
REMARK H PARENT 10 13
REMARK Flexibility Score: inf
ROOT
ATOM      1  C   UNL     1      12.852  16.536   9.126  1.00  0.00    -0.025 A 
ATOM      2  C   UNL     1      12.963  17.068  10.419  1.00  0.00     0.012 A 
ATOM      3  C   UNL     1      12.273  15.267   8.952  1.00  0.00     0.012 A 
ATOM      4  C   UNL     1      12.550  16.322  11.528  1.00  0.00     0.047 A 
ATOM      5  C   UNL     1      11.862  14.522  10.062  1.00  0.00     0.047 A 
ATOM      6  C   UNL     1      12.001  15.045  11.351  1.00  0.00     0.115 A 
ENDROOT
BRANCH   1   7
ATOM      7  C   UNL     1      13.244  17.364   7.966  1.00  0.00     0.010 C 
ATOM      8  C   UNL     1      14.479  17.434   7.445  1.00  0.00     0.025 C 
BRANCH   8   9
ATOM      9  C   UNL     1      15.695  16.852   8.044  1.00  0.00     0.064 C 
ATOM     10  O   UNL     1      16.247  17.440   9.011  1.00  0.00    -0.545 OA
ATOM     11  O   UNL     1      16.204  15.633   7.615  1.00  0.00    -0.545 OA
ENDBRANCH   8   9
ENDBRANCH   1   7
BRANCH   6  12
ATOM     12  O   UNL     1      11.588  14.291  12.447  1.00  0.00    -0.508 OA
ATOM     13  H   UNL     1      10.769  13.696  12.402  1.00  0.00     0.293 HD
ENDBRANCH   6  12
TORSDOF 3
ENDMDL
MODEL 7
REMARK VINA RESULT:    -4.089      4.384      4.827
REMARK INTER + INTRA:          -4.923
REMARK INTER:                  -4.643
REMARK INTRA:                  -0.280
REMARK UNBOUND:                -0.237
REMARK SMILES O=C([O-])C=Cc1ccc(O)cc1
REMARK SMILES IDX 6 1 7 2 12 3 8 4 11 5 9 6 5 7 4 8 2 9 1 10 3 11 10 12
REMARK H PARENT 10 13
REMARK Flexibility Score: inf
ROOT
ATOM      1  C   UNL     1      16.072  15.624   8.939  1.00  0.00    -0.025 A 
ATOM      2  C   UNL     1      16.042  16.289   7.704  1.00  0.00     0.012 A 
ATOM      3  C   UNL     1      14.940  15.667   9.770  1.00  0.00     0.012 A 
ATOM      4  C   UNL     1      14.917  17.030   7.328  1.00  0.00     0.047 A 
ATOM      5  C   UNL     1      13.816  16.409   9.393  1.00  0.00     0.047 A 
ATOM      6  C   UNL     1      13.802  17.095   8.174  1.00  0.00     0.115 A 
ENDROOT
BRANCH   1   7
ATOM      7  C   UNL     1      17.249  14.803   9.290  1.00  0.00     0.010 C 
ATOM      8  C   UNL     1      18.342  15.247   9.930  1.00  0.00     0.025 C 
BRANCH   8   9
ATOM      9  C   UNL     1      18.644  16.661  10.228  1.00  0.00     0.064 C 
ATOM     10  O   UNL     1      19.361  17.318   9.429  1.00  0.00    -0.545 OA
ATOM     11  O   UNL     1      18.097  17.304  11.331  1.00  0.00    -0.545 OA
ENDBRANCH   8   9
ENDBRANCH   1   7
BRANCH   6  12
ATOM     12  O   UNL     1      12.676  17.831   7.812  1.00  0.00    -0.508 OA
ATOM     13  H   UNL     1      11.746  17.432   7.858  1.00  0.00     0.293 HD
ENDBRANCH   6  12
TORSDOF 3
ENDMDL
MODEL 8
REMARK VINA RESULT:    -4.004      4.412      5.398
REMARK INTER + INTRA:          -4.826
REMARK INTER:                  -4.531
REMARK INTRA:                  -0.295
REMARK UNBOUND:                -0.237
REMARK SMILES O=C([O-])C=Cc1ccc(O)cc1
REMARK SMILES IDX 6 1 7 2 12 3 8 4 11 5 9 6 5 7 4 8 2 9 1 10 3 11 10 12
REMARK H PARENT 10 13
REMARK Flexibility Score: inf
ROOT
ATOM      1  C   UNL     1      18.243  17.438  10.485  1.00  0.00    -0.025 A 
ATOM      2  C   UNL     1      17.082  17.712  11.223  1.00  0.00     0.012 A 
ATOM      3  C   UNL     1      18.171  17.393   9.082  1.00  0.00     0.012 A 
ATOM      4  C   UNL     1      15.856  17.887  10.573  1.00  0.00     0.047 A 
ATOM      5  C   UNL     1      16.944  17.567   8.433  1.00  0.00     0.047 A 
ATOM      6  C   UNL     1      15.784  17.811   9.176  1.00  0.00     0.115 A 
ENDROOT
BRANCH   1   7
ATOM      7  C   UNL     1      19.535  17.310  11.190  1.00  0.00     0.010 C 
ATOM      8  C   UNL     1      20.125  16.153  11.527  1.00  0.00     0.025 C 
BRANCH   8   9
ATOM      9  C   UNL     1      19.507  14.817  11.428  1.00  0.00     0.064 C 
ATOM     10  O   UNL     1      18.715  14.436  12.329  1.00  0.00    -0.545 OA
ATOM     11  O   UNL     1      19.720  13.998  10.326  1.00  0.00    -0.545 OA
ENDBRANCH   8   9
ENDBRANCH   1   7
BRANCH   6  12
ATOM     12  O   UNL     1      14.569  17.981   8.516  1.00  0.00    -0.508 OA
ATOM     13  H   UNL     1      13.983  18.790   8.688  1.00  0.00     0.293 HD
ENDBRANCH   6  12
TORSDOF 3
ENDMDL
MODEL 9
REMARK VINA RESULT:    -4.000      3.444      4.299
REMARK INTER + INTRA:          -4.821
REMARK INTER:                  -4.543
REMARK INTRA:                  -0.279
REMARK UNBOUND:                -0.237
REMARK SMILES O=C([O-])C=Cc1ccc(O)cc1
REMARK SMILES IDX 6 1 7 2 12 3 8 4 11 5 9 6 5 7 4 8 2 9 1 10 3 11 10 12
REMARK H PARENT 10 13
REMARK Flexibility Score: inf
ROOT
ATOM      1  C   UNL     1      13.831  15.681  10.317  1.00  0.00    -0.025 A 
ATOM      2  C   UNL     1      12.569  15.326   9.817  1.00  0.00     0.012 A 
ATOM      3  C   UNL     1      13.915  16.564  11.407  1.00  0.00     0.012 A 
ATOM      4  C   UNL     1      11.410  15.886  10.363  1.00  0.00     0.047 A 
ATOM      5  C   UNL     1      12.755  17.124  11.952  1.00  0.00     0.047 A 
ATOM      6  C   UNL     1      11.501  16.790  11.430  1.00  0.00     0.115 A 
ENDROOT
BRANCH   1   7
ATOM      7  C   UNL     1      15.038  15.035   9.760  1.00  0.00     0.010 C 
ATOM      8  C   UNL     1      15.898  15.606   8.903  1.00  0.00     0.025 C 
BRANCH   8   9
ATOM      9  C   UNL     1      15.695  16.898   8.220  1.00  0.00     0.064 C 
ATOM     10  O   UNL     1      16.324  17.911   8.621  1.00  0.00    -0.545 OA
ATOM     11  O   UNL     1      14.882  17.007   7.098  1.00  0.00    -0.545 OA
ENDBRANCH   8   9
ENDBRANCH   1   7
BRANCH   6  12
ATOM     12  O   UNL     1      10.354  17.356  11.981  1.00  0.00    -0.508 OA
ATOM     13  H   UNL     1      10.260  18.359  12.093  1.00  0.00     0.293 HD
ENDBRANCH   6  12
TORSDOF 3
ENDMDL
