MODEL 1
REMARK VINA RESULT:    -3.122      0.000      0.000
REMARK INTER + INTRA:          -8.768
REMARK INTER:                  -6.041
REMARK INTRA:                  -2.727
REMARK UNBOUND:                -2.727
REMARK SMILES CCCCCCCCCCCCCCCCCC(=O)[O-]
REMARK SMILES IDX 10 1 11 2 12 3 13 4 14 5 15 6 16 7 17 8 18 9 19 10 20 11
REMARK SMILES IDX 9 12 8 13 7 14 6 15 5 16 4 17 3 18 2 19 1 20
REMARK H PARENT
REMARK Flexibility Score: inf
ROOT
ATOM      1  C   UNL     1      31.663  13.174  21.765  1.00  0.00     0.000 C 
ENDROOT
BRANCH   1   2
ATOM      2  C   UNL     1      30.927  13.672  23.026  1.00  0.00     0.000 C 
BRANCH   2   3
ATOM      3  C   UNL     1      29.417  13.851  22.784  1.00  0.00     0.000 C 
BRANCH   3   4
ATOM      4  C   UNL     1      29.115  14.689  21.532  1.00  0.00     0.000 C 
BRANCH   4   5
ATOM      5  C   UNL     1      28.044  14.050  20.634  1.00  0.00     0.000 C 
BRANCH   5   6
ATOM      6  C   UNL     1      28.456  12.642  20.148  1.00  0.00     0.000 C 
BRANCH   6   7
ATOM      7  C   UNL     1      27.454  11.540  20.537  1.00  0.00     0.006 C 
BRANCH   7   8
ATOM      8  C   UNL     1      27.625  11.016  21.970  1.00  0.00     0.053 C 
BRANCH   8   9
ATOM      9  C   UNL     1      28.420   9.746  22.010  1.00  0.00     0.041 C 
ATOM     10  O   UNL     1      27.836   8.632  22.081  1.00  0.00    -0.550 OA
ATOM     11  O   UNL     1      29.807   9.791  21.957  1.00  0.00    -0.550 OA
ENDBRANCH   8   9
ENDBRANCH   7   8
ENDBRANCH   6   7
ENDBRANCH   5   6
ENDBRANCH   4   5
ENDBRANCH   3   4
ENDBRANCH   2   3
ENDBRANCH   1   2
BRANCH   1  12
ATOM     12  C   UNL     1      33.002  13.891  21.514  1.00  0.00     0.000 C 
BRANCH  12  13
ATOM     13  C   UNL     1      33.201  15.116  22.423  1.00  0.00    -0.000 C 
BRANCH  13  14
ATOM     14  C   UNL     1      33.297  16.428  21.630  1.00  0.00    -0.000 C 
BRANCH  14  15
ATOM     15  C   UNL     1      31.962  16.815  20.967  1.00  0.00    -0.000 C 
BRANCH  15  16
ATOM     16  C   UNL     1      32.067  16.858  19.428  1.00  0.00    -0.000 C 
BRANCH  16  17
ATOM     17  C   UNL     1      30.885  16.179  18.708  1.00  0.00    -0.000 C 
BRANCH  17  18
ATOM     18  C   UNL     1      31.102  14.694  18.373  1.00  0.00    -0.000 C 
BRANCH  18  19
ATOM     19  C   UNL     1      30.092  14.164  17.343  1.00  0.00    -0.003 C 
ATOM     20  C   UNL     1      29.131  15.265  16.903  1.00  0.00     0.004 C 
ENDBRANCH  18  19
ENDBRANCH  17  18
ENDBRANCH  16  17
ENDBRANCH  15  16
ENDBRANCH  14  15
ENDBRANCH  13  14
ENDBRANCH  12  13
ENDBRANCH   1  12
TORSDOF 16
ENDMDL
MODEL 2
REMARK VINA RESULT:    -2.986      0.969      3.614
REMARK INTER + INTRA:          -8.505
REMARK INTER:                  -6.086
REMARK INTRA:                  -2.419
REMARK UNBOUND:                -2.727
REMARK SMILES CCCCCCCCCCCCCCCCCC(=O)[O-]
REMARK SMILES IDX 10 1 11 2 12 3 13 4 14 5 15 6 16 7 17 8 18 9 19 10 20 11
REMARK SMILES IDX 9 12 8 13 7 14 6 15 5 16 4 17 3 18 2 19 1 20
REMARK H PARENT
REMARK Flexibility Score: inf
ROOT
ATOM      1  C   UNL     1      30.341  13.859  16.893  1.00  0.00     0.000 C 
ENDROOT
BRANCH   1   2
ATOM      2  C   UNL     1      30.501  13.526  18.391  1.00  0.00     0.000 C 
BRANCH   2   3
ATOM      3  C   UNL     1      29.149  13.232  19.068  1.00  0.00     0.000 C 
BRANCH   3   4
ATOM      4  C   UNL     1      28.781  14.279  20.130  1.00  0.00     0.000 C 
BRANCH   4   5
ATOM      5  C   UNL     1      27.677  13.794  21.085  1.00  0.00     0.000 C 
BRANCH   5   6
ATOM      6  C   UNL     1      28.218  13.518  22.506  1.00  0.00     0.000 C 
BRANCH   6   7
ATOM      7  C   UNL     1      28.020  12.062  22.967  1.00  0.00     0.006 C 
BRANCH   7   8
ATOM      8  C   UNL     1      27.693  11.085  21.829  1.00  0.00     0.053 C 
BRANCH   8   9
ATOM      9  C   UNL     1      28.472   9.810  21.945  1.00  0.00     0.041 C 
ATOM     10  O   UNL     1      29.732   9.833  21.959  1.00  0.00    -0.550 OA
ATOM     11  O   UNL     1      27.807   8.595  22.050  1.00  0.00    -0.550 OA
ENDBRANCH   8   9
ENDBRANCH   7   8
ENDBRANCH   6   7
ENDBRANCH   5   6
ENDBRANCH   4   5
ENDBRANCH   3   4
ENDBRANCH   2   3
ENDBRANCH   1   2
BRANCH   1  12
ATOM     12  C   UNL     1      30.545  15.350  16.572  1.00  0.00     0.000 C 
BRANCH  12  13
ATOM     13  C   UNL     1      31.454  16.060  17.590  1.00  0.00    -0.000 C 
BRANCH  13  14
ATOM     14  C   UNL     1      30.697  17.096  18.433  1.00  0.00    -0.000 C 
BRANCH  14  15
ATOM     15  C   UNL     1      31.070  17.030  19.925  1.00  0.00    -0.000 C 
BRANCH  15  16
ATOM     16  C   UNL     1      32.368  16.230  20.166  1.00  0.00    -0.000 C 
BRANCH  16  17
ATOM     17  C   UNL     1      32.850  16.259  21.630  1.00  0.00    -0.000 C 
BRANCH  17  18
ATOM     18  C   UNL     1      33.077  14.876  22.262  1.00  0.00    -0.000 C 
BRANCH  18  19
ATOM     19  C   UNL     1      32.697  13.723  21.321  1.00  0.00    -0.003 C 
ATOM     20  C   UNL     1      31.707  12.774  21.989  1.00  0.00     0.004 C 
ENDBRANCH  18  19
ENDBRANCH  17  18
ENDBRANCH  16  17
ENDBRANCH  15  16
ENDBRANCH  14  15
ENDBRANCH  13  14
ENDBRANCH  12  13
ENDBRANCH   1  12
TORSDOF 16
ENDMDL
MODEL 3
REMARK VINA RESULT:    -2.780      1.299      2.120
REMARK INTER + INTRA:          -8.107
REMARK INTER:                  -5.637
REMARK INTRA:                  -2.470
REMARK UNBOUND:                -2.727
REMARK SMILES CCCCCCCCCCCCCCCCCC(=O)[O-]
REMARK SMILES IDX 10 1 11 2 12 3 13 4 14 5 15 6 16 7 17 8 18 9 19 10 20 11
REMARK SMILES IDX 9 12 8 13 7 14 6 15 5 16 4 17 3 18 2 19 1 20
REMARK H PARENT
REMARK Flexibility Score: inf
ROOT
ATOM      1  C   UNL     1      31.994  13.010  22.265  1.00  0.00     0.000 C 
ENDROOT
BRANCH   1   2
ATOM      2  C   UNL     1      30.644  13.378  22.916  1.00  0.00     0.000 C 
BRANCH   2   3
ATOM      3  C   UNL     1      30.328  14.880  22.786  1.00  0.00     0.000 C 
BRANCH   3   4
ATOM      4  C   UNL     1      29.062  15.147  21.956  1.00  0.00     0.000 C 
BRANCH   4   5
ATOM      5  C   UNL     1      28.080  13.964  21.973  1.00  0.00     0.000 C 
BRANCH   5   6
ATOM      6  C   UNL     1      27.802  13.419  20.555  1.00  0.00     0.000 C 
BRANCH   6   7
ATOM      7  C   UNL     1      27.891  11.884  20.458  1.00  0.00     0.006 C 
BRANCH   7   8
ATOM      8  C   UNL     1      27.630  11.158  21.785  1.00  0.00     0.053 C 
BRANCH   8   9
ATOM      9  C   UNL     1      28.493   9.942  21.938  1.00  0.00     0.041 C 
ATOM     10  O   UNL     1      27.971   8.811  22.129  1.00  0.00    -0.550 OA
ATOM     11  O   UNL     1      29.875  10.055  21.857  1.00  0.00    -0.550 OA
ENDBRANCH   8   9
ENDBRANCH   7   8
ENDBRANCH   6   7
ENDBRANCH   5   6
ENDBRANCH   4   5
ENDBRANCH   3   4
ENDBRANCH   2   3
ENDBRANCH   1   2
BRANCH   1  12
ATOM     12  C   UNL     1      32.213  13.669  20.893  1.00  0.00     0.000 C 
BRANCH  12  13
ATOM     13  C   UNL     1      31.406  12.993  19.771  1.00  0.00    -0.000 C 
BRANCH  13  14
ATOM     14  C   UNL     1      30.809  14.006  18.783  1.00  0.00    -0.000 C 
BRANCH  14  15
ATOM     15  C   UNL     1      31.355  15.430  18.995  1.00  0.00    -0.000 C 
BRANCH  15  16
ATOM     16  C   UNL     1      30.336  16.512  18.581  1.00  0.00    -0.000 C 
BRANCH  16  17
ATOM     17  C   UNL     1      29.904  16.422  17.104  1.00  0.00    -0.000 C 
BRANCH  17  18
ATOM     18  C   UNL     1      28.547  15.737  16.869  1.00  0.00    -0.000 C 
BRANCH  18  19
ATOM     19  C   UNL     1      27.370  16.723  16.912  1.00  0.00    -0.003 C 
ATOM     20  C   UNL     1      26.875  16.924  18.341  1.00  0.00     0.004 C 
ENDBRANCH  18  19
ENDBRANCH  17  18
ENDBRANCH  16  17
ENDBRANCH  15  16
ENDBRANCH  14  15
ENDBRANCH  13  14
ENDBRANCH  12  13
ENDBRANCH   1  12
TORSDOF 16
ENDMDL
MODEL 4
REMARK VINA RESULT:    -2.758      3.116      6.055
REMARK INTER + INTRA:          -8.065
REMARK INTER:                  -5.879
REMARK INTRA:                  -2.186
REMARK UNBOUND:                -2.727
REMARK SMILES CCCCCCCCCCCCCCCCCC(=O)[O-]
REMARK SMILES IDX 10 1 11 2 12 3 13 4 14 5 15 6 16 7 17 8 18 9 19 10 20 11
REMARK SMILES IDX 9 12 8 13 7 14 6 15 5 16 4 17 3 18 2 19 1 20
REMARK H PARENT
REMARK Flexibility Score: inf
ROOT
ATOM      1  C   UNL     1      31.995  13.667  20.897  1.00  0.00     0.000 C 
ENDROOT
BRANCH   1   2
ATOM      2  C   UNL     1      32.804  14.324  22.036  1.00  0.00     0.000 C 
BRANCH   2   3
ATOM      3  C   UNL     1      32.905  15.852  21.869  1.00  0.00     0.000 C 
BRANCH   3   4
ATOM      4  C   UNL     1      32.511  16.319  20.460  1.00  0.00     0.000 C 
BRANCH   4   5
ATOM      5  C   UNL     1      31.028  16.710  20.356  1.00  0.00     0.000 C 
BRANCH   5   6
ATOM      6  C   UNL     1      30.498  16.604  18.908  1.00  0.00     0.000 C 
BRANCH   6   7
ATOM      7  C   UNL     1      31.470  15.892  17.949  1.00  0.00     0.006 C 
BRANCH   7   8
ATOM      8  C   UNL     1      31.644  16.597  16.597  1.00  0.00     0.053 C 
BRANCH   8   9
ATOM      9  C   UNL     1      31.223  15.726  15.453  1.00  0.00     0.041 C 
ATOM     10  O   UNL     1      31.018  16.226  14.314  1.00  0.00    -0.550 OA
ATOM     11  O   UNL     1      31.068  14.358  15.640  1.00  0.00    -0.550 OA
ENDBRANCH   8   9
ENDBRANCH   7   8
ENDBRANCH   6   7
ENDBRANCH   5   6
ENDBRANCH   4   5
ENDBRANCH   3   4
ENDBRANCH   2   3
ENDBRANCH   1   2
BRANCH   1  12
ATOM     12  C   UNL     1      31.382  12.311  21.285  1.00  0.00     0.000 C 
BRANCH  12  13
ATOM     13  C   UNL     1      31.107  12.191  22.794  1.00  0.00    -0.000 C 
BRANCH  13  14
ATOM     14  C   UNL     1      30.127  11.055  23.125  1.00  0.00    -0.000 C 
BRANCH  14  15
ATOM     15  C   UNL     1      29.513  10.420  21.864  1.00  0.00    -0.000 C 
BRANCH  15  16
ATOM     16  C   UNL     1      27.970  10.446  21.892  1.00  0.00    -0.000 C 
BRANCH  16  17
ATOM     17  C   UNL     1      27.362  11.742  21.320  1.00  0.00    -0.000 C 
BRANCH  17  18
ATOM     18  C   UNL     1      28.129  12.344  20.130  1.00  0.00    -0.000 C 
BRANCH  18  19
ATOM     19  C   UNL     1      28.160  13.879  20.159  1.00  0.00    -0.003 C 
ATOM     20  C   UNL     1      28.361  14.396  21.580  1.00  0.00     0.004 C 
ENDBRANCH  18  19
ENDBRANCH  17  18
ENDBRANCH  16  17
ENDBRANCH  15  16
ENDBRANCH  14  15
ENDBRANCH  13  14
ENDBRANCH  12  13
ENDBRANCH   1  12
TORSDOF 16
ENDMDL
MODEL 5
REMARK VINA RESULT:    -2.328      2.189      3.625
REMARK INTER + INTRA:          -7.231
REMARK INTER:                  -5.685
REMARK INTRA:                  -1.546
REMARK UNBOUND:                -2.727
REMARK SMILES CCCCCCCCCCCCCCCCCC(=O)[O-]
REMARK SMILES IDX 10 1 11 2 12 3 13 4 14 5 15 6 16 7 17 8 18 9 19 10 20 11
REMARK SMILES IDX 9 12 8 13 7 14 6 15 5 16 4 17 3 18 2 19 1 20
REMARK H PARENT
REMARK Flexibility Score: inf
ROOT
ATOM      1  C   UNL     1      31.440  14.901  19.763  1.00  0.00     0.000 C 
ENDROOT
BRANCH   1   2
ATOM      2  C   UNL     1      32.392  14.519  20.916  1.00  0.00     0.000 C 
BRANCH   2   3
ATOM      3  C   UNL     1      31.730  14.690  22.296  1.00  0.00     0.000 C 
BRANCH   3   4
ATOM      4  C   UNL     1      31.568  13.357  23.041  1.00  0.00     0.000 C 
BRANCH   4   5
ATOM      5  C   UNL     1      31.122  12.210  22.119  1.00  0.00     0.000 C 
BRANCH   5   6
ATOM      6  C   UNL     1      30.351  11.112  22.885  1.00  0.00     0.000 C 
BRANCH   6   7
ATOM      7  C   UNL     1      29.428  10.269  21.987  1.00  0.00     0.006 C 
BRANCH   7   8
ATOM      8  C   UNL     1      27.944  10.653  22.079  1.00  0.00     0.053 C 
BRANCH   8   9
ATOM      9  C   UNL     1      27.616  11.831  21.213  1.00  0.00     0.041 C 
ATOM     10  O   UNL     1      26.881  12.756  21.650  1.00  0.00    -0.550 OA
ATOM     11  O   UNL     1      28.132  11.914  19.926  1.00  0.00    -0.550 OA
ENDBRANCH   8   9
ENDBRANCH   7   8
ENDBRANCH   6   7
ENDBRANCH   5   6
ENDBRANCH   4   5
ENDBRANCH   3   4
ENDBRANCH   2   3
ENDBRANCH   1   2
BRANCH   1  12
ATOM     12  C   UNL     1      30.453  16.023  20.129  1.00  0.00     0.000 C 
BRANCH  12  13
ATOM     13  C   UNL     1      28.994  15.538  20.183  1.00  0.00    -0.000 C 
BRANCH  13  14
ATOM     14  C   UNL     1      28.415  15.260  18.788  1.00  0.00    -0.000 C 
BRANCH  14  15
ATOM     15  C   UNL     1      28.652  16.424  17.808  1.00  0.00    -0.000 C 
BRANCH  15  16
ATOM     16  C   UNL     1      28.997  15.928  16.387  1.00  0.00    -0.000 C 
BRANCH  16  17
ATOM     17  C   UNL     1      30.243  15.022  16.333  1.00  0.00    -0.000 C 
BRANCH  17  18
ATOM     18  C   UNL     1      31.419  15.592  15.522  1.00  0.00    -0.000 C 
BRANCH  18  19
ATOM     19  C   UNL     1      30.968  16.577  14.433  1.00  0.00    -0.003 C 
ATOM     20  C   UNL     1      31.112  15.964  13.044  1.00  0.00     0.004 C 
ENDBRANCH  18  19
ENDBRANCH  17  18
ENDBRANCH  16  17
ENDBRANCH  15  16
ENDBRANCH  14  15
ENDBRANCH  13  14
ENDBRANCH  12  13
ENDBRANCH   1  12
TORSDOF 16
ENDMDL
MODEL 6
REMARK VINA RESULT:    -2.126      1.627      3.779
REMARK INTER + INTRA:          -6.842
REMARK INTER:                  -4.250
REMARK INTRA:                  -2.592
REMARK UNBOUND:                -2.727
REMARK SMILES CCCCCCCCCCCCCCCCCC(=O)[O-]
REMARK SMILES IDX 10 1 11 2 12 3 13 4 14 5 15 6 16 7 17 8 18 9 19 10 20 11
REMARK SMILES IDX 9 12 8 13 7 14 6 15 5 16 4 17 3 18 2 19 1 20
REMARK H PARENT
REMARK Flexibility Score: inf
ROOT
ATOM      1  C   UNL     1      30.990  15.839  20.107  1.00  0.00     0.000 C 
ENDROOT
BRANCH   1   2
ATOM      2  C   UNL     1      32.500  16.124  20.252  1.00  0.00     0.000 C 
BRANCH   2   3
ATOM      3  C   UNL     1      32.927  16.256  21.726  1.00  0.00     0.000 C 
BRANCH   3   4
ATOM      4  C   UNL     1      32.384  15.116  22.602  1.00  0.00     0.000 C 
BRANCH   4   5
ATOM      5  C   UNL     1      33.048  13.763  22.296  1.00  0.00     0.000 C 
BRANCH   5   6
ATOM      6  C   UNL     1      32.038  12.596  22.342  1.00  0.00     0.000 C 
BRANCH   6   7
ATOM      7  C   UNL     1      30.568  13.053  22.306  1.00  0.00     0.006 C 
BRANCH   7   8
ATOM      8  C   UNL     1      29.756  12.458  21.147  1.00  0.00     0.053 C 
BRANCH   8   9
ATOM      9  C   UNL     1      28.981  11.247  21.570  1.00  0.00     0.041 C 
ATOM     10  O   UNL     1      29.553  10.128  21.667  1.00  0.00    -0.550 OA
ATOM     11  O   UNL     1      27.629  11.355  21.870  1.00  0.00    -0.550 OA
ENDBRANCH   8   9
ENDBRANCH   7   8
ENDBRANCH   6   7
ENDBRANCH   5   6
ENDBRANCH   4   5
ENDBRANCH   3   4
ENDBRANCH   2   3
ENDBRANCH   1   2
BRANCH   1  12
ATOM     12  C   UNL     1      30.100  17.012  20.552  1.00  0.00     0.000 C 
BRANCH  12  13
ATOM     13  C   UNL     1      28.797  16.549  21.228  1.00  0.00    -0.000 C 
BRANCH  13  14
ATOM     14  C   UNL     1      27.779  15.991  20.223  1.00  0.00    -0.000 C 
BRANCH  14  15
ATOM     15  C   UNL     1      27.259  17.066  19.251  1.00  0.00    -0.000 C 
BRANCH  15  16
ATOM     16  C   UNL     1      27.383  16.628  17.776  1.00  0.00    -0.000 C 
BRANCH  16  17
ATOM     17  C   UNL     1      28.673  17.121  17.091  1.00  0.00    -0.000 C 
BRANCH  17  18
ATOM     18  C   UNL     1      29.676  16.012  16.729  1.00  0.00    -0.000 C 
BRANCH  18  19
ATOM     19  C   UNL     1      29.176  14.612  17.115  1.00  0.00    -0.003 C 
ATOM     20  C   UNL     1      30.342  13.645  17.297  1.00  0.00     0.004 C 
ENDBRANCH  18  19
ENDBRANCH  17  18
ENDBRANCH  16  17
ENDBRANCH  15  16
ENDBRANCH  14  15
ENDBRANCH  13  14
ENDBRANCH  12  13
ENDBRANCH   1  12
TORSDOF 16
ENDMDL
MODEL 7
REMARK VINA RESULT:    -1.966      3.981      6.659
REMARK INTER + INTRA:          -6.532
REMARK INTER:                  -5.309
REMARK INTRA:                  -1.223
REMARK UNBOUND:                -2.727
REMARK SMILES CCCCCCCCCCCCCCCCCC(=O)[O-]
REMARK SMILES IDX 10 1 11 2 12 3 13 4 14 5 15 6 16 7 17 8 18 9 19 10 20 11
REMARK SMILES IDX 9 12 8 13 7 14 6 15 5 16 4 17 3 18 2 19 1 20
REMARK H PARENT
REMARK Flexibility Score: inf
ROOT
ATOM      1  C   UNL     1      31.382  14.877  19.757  1.00  0.00     0.000 C 
ENDROOT
BRANCH   1   2
ATOM      2  C   UNL     1      30.191  15.792  20.110  1.00  0.00     0.000 C 
BRANCH   2   3
ATOM      3  C   UNL     1      28.836  15.127  19.803  1.00  0.00     0.000 C 
BRANCH   3   4
ATOM      4  C   UNL     1      28.067  15.844  18.682  1.00  0.00     0.000 C 
BRANCH   4   5
ATOM      5  C   UNL     1      28.940  16.847  17.910  1.00  0.00     0.000 C 
BRANCH   5   6
ATOM      6  C   UNL     1      29.675  16.185  16.723  1.00  0.00     0.000 C 
BRANCH   6   7
ATOM      7  C   UNL     1      29.647  17.029  15.436  1.00  0.00     0.006 C 
BRANCH   7   8
ATOM      8  C   UNL     1      30.992  17.089  14.697  1.00  0.00     0.053 C 
BRANCH   8   9
ATOM      9  C   UNL     1      30.942  16.368  13.384  1.00  0.00     0.041 C 
ATOM     10  O   UNL     1      31.271  15.154  13.312  1.00  0.00    -0.550 OA
ATOM     11  O   UNL     1      30.522  17.034  12.240  1.00  0.00    -0.550 OA
ENDBRANCH   8   9
ENDBRANCH   7   8
ENDBRANCH   6   7
ENDBRANCH   5   6
ENDBRANCH   4   5
ENDBRANCH   3   4
ENDBRANCH   2   3
ENDBRANCH   1   2
BRANCH   1  12
ATOM     12  C   UNL     1      32.334  14.627  20.939  1.00  0.00     0.000 C 
BRANCH  12  13
ATOM     13  C   UNL     1      31.741  15.076  22.287  1.00  0.00    -0.000 C 
BRANCH  13  14
ATOM     14  C   UNL     1      31.046  13.929  23.034  1.00  0.00    -0.000 C 
BRANCH  14  15
ATOM     15  C   UNL     1      31.463  12.543  22.509  1.00  0.00    -0.000 C 
BRANCH  15  16
ATOM     16  C   UNL     1      30.534  11.422  23.021  1.00  0.00    -0.000 C 
BRANCH  16  17
ATOM     17  C   UNL     1      30.118  10.416  21.929  1.00  0.00    -0.000 C 
BRANCH  17  18
ATOM     18  C   UNL     1      28.669   9.913  22.034  1.00  0.00    -0.000 C 
BRANCH  18  19
ATOM     19  C   UNL     1      27.651  11.056  22.162  1.00  0.00    -0.003 C 
ATOM     20  C   UNL     1      27.507  11.812  20.845  1.00  0.00     0.004 C 
ENDBRANCH  18  19
ENDBRANCH  17  18
ENDBRANCH  16  17
ENDBRANCH  15  16
ENDBRANCH  14  15
ENDBRANCH  13  14
ENDBRANCH  12  13
ENDBRANCH   1  12
TORSDOF 16
ENDMDL
