MODEL 1
REMARK VINA RESULT:    -6.294      0.000      0.000
REMARK INTER + INTRA:          -7.661
REMARK INTER:                  -7.398
REMARK INTRA:                  -0.264
REMARK UNBOUND:                -0.264
REMARK SMILES O=c1cc(-c2ccc(O)c(O)c2)oc2cc(O)cc(O)c12
REMARK SMILES IDX 4 1 3 2 2 3 1 4 21 5 19 6 18 7 16 8 15 9 14 10 13 11 5 12
REMARK SMILES IDX 6 13 7 14 8 15 12 16 10 17 9 18 11 20 20 22 17 24
REMARK H PARENT 9 19 11 21 20 23 17 25
REMARK Flexibility Score: inf
ROOT
ATOM      1  C   UNL     1      -3.422  14.111 -26.571  1.00  0.00     0.138 A 
ATOM      2  C   UNL     1      -4.211  13.392 -25.663  1.00  0.00     0.100 A 
ATOM      3  C   UNL     1      -4.858  12.228 -26.082  1.00  0.00     0.197 A 
ATOM      4  O   UNL     1      -5.508  11.571 -25.229  1.00  0.00    -0.289 OA
ATOM      5  C   UNL     1      -4.739  11.803 -27.426  1.00  0.00     0.107 A 
ATOM      6  C   UNL     1      -5.387  10.656 -27.975  1.00  0.00     0.134 A 
ATOM      7  C   UNL     1      -5.101  10.265 -29.290  1.00  0.00     0.093 A 
ATOM      8  C   UNL     1      -4.241  11.013 -30.093  1.00  0.00     0.123 A 
ATOM      9  C   UNL     1      -3.644  12.167 -29.583  1.00  0.00     0.094 A 
ATOM     10  C   UNL     1      -3.882  12.563 -28.265  1.00  0.00     0.146 A 
ATOM     11  O   UNL     1      -3.282  13.660 -27.813  1.00  0.00    -0.456 OA
ENDROOT
BRANCH   1  12
ATOM     12  C   UNL     1      -2.712  15.355 -26.179  1.00  0.00     0.021 A 
ATOM     13  C   UNL     1      -3.071  16.609 -26.707  1.00  0.00     0.016 A 
ATOM     14  C   UNL     1      -2.379  17.763 -26.328  1.00  0.00     0.051 A 
ATOM     15  C   UNL     1      -1.315  17.686 -25.425  1.00  0.00     0.157 A 
ATOM     16  C   UNL     1      -1.632  15.283 -25.279  1.00  0.00     0.062 A 
ATOM     17  C   UNL     1      -0.938  16.441 -24.898  1.00  0.00     0.158 A 
BRANCH  15  18
ATOM     18  O   UNL     1      -0.645  18.855 -25.065  1.00  0.00    -0.504 OA
ATOM     19  H   UNL     1       0.346  18.979 -25.233  1.00  0.00     0.293 HD
ENDBRANCH  15  18
BRANCH  17  20
ATOM     20  O   UNL     1       0.125  16.355 -24.000  1.00  0.00    -0.504 OA
ATOM     21  H   UNL     1       0.808  15.609 -24.054  1.00  0.00     0.293 HD
ENDBRANCH  17  20
ENDBRANCH   1  12
BRANCH   6  22
ATOM     22  O   UNL     1      -6.329   9.887 -27.286  1.00  0.00    -0.507 OA
ATOM     23  H   UNL     1      -7.051  10.258 -26.688  1.00  0.00     0.293 HD
ENDBRANCH   6  22
BRANCH   8  24
ATOM     24  O   UNL     1      -3.993  10.603 -31.401  1.00  0.00    -0.508 OA
ATOM     25  H   UNL     1      -3.871   9.625 -31.636  1.00  0.00     0.293 HD
ENDBRANCH   8  24
TORSDOF 5
ENDMDL
MODEL 2
REMARK VINA RESULT:    -6.061      1.133      1.822
REMARK INTER + INTRA:          -7.388
REMARK INTER:                  -7.095
REMARK INTRA:                  -0.294
REMARK UNBOUND:                -0.264
REMARK SMILES O=c1cc(-c2ccc(O)c(O)c2)oc2cc(O)cc(O)c12
REMARK SMILES IDX 4 1 3 2 2 3 1 4 21 5 19 6 18 7 16 8 15 9 14 10 13 11 5 12
REMARK SMILES IDX 6 13 7 14 8 15 12 16 10 17 9 18 11 20 20 22 17 24
REMARK H PARENT 9 19 11 21 20 23 17 25
REMARK Flexibility Score: inf
ROOT
ATOM      1  C   UNL     1      -2.887  14.280 -26.926  1.00  0.00     0.138 A 
ATOM      2  C   UNL     1      -3.485  13.229 -26.218  1.00  0.00     0.100 A 
ATOM      3  C   UNL     1      -4.050  12.160 -26.916  1.00  0.00     0.197 A 
ATOM      4  O   UNL     1      -4.525  11.202 -26.252  1.00  0.00    -0.289 OA
ATOM      5  C   UNL     1      -4.044  12.162 -28.331  1.00  0.00     0.107 A 
ATOM      6  C   UNL     1      -4.627  11.148 -29.148  1.00  0.00     0.134 A 
ATOM      7  C   UNL     1      -4.457  11.197 -30.537  1.00  0.00     0.093 A 
ATOM      8  C   UNL     1      -3.779  12.255 -31.143  1.00  0.00     0.123 A 
ATOM      9  C   UNL     1      -3.252  13.281 -30.357  1.00  0.00     0.094 A 
ATOM     10  C   UNL     1      -3.375  13.242 -28.967  1.00  0.00     0.146 A 
ATOM     11  O   UNL     1      -2.846  14.231 -28.254  1.00  0.00    -0.456 OA
ENDROOT
BRANCH   1  12
ATOM     12  C   UNL     1      -2.271  15.440 -26.234  1.00  0.00     0.021 A 
ATOM     13  C   UNL     1      -1.471  15.279 -25.088  1.00  0.00     0.016 A 
ATOM     14  C   UNL     1      -0.912  16.390 -24.451  1.00  0.00     0.051 A 
ATOM     15  C   UNL     1      -1.148  17.679 -24.938  1.00  0.00     0.157 A 
ATOM     16  C   UNL     1      -2.515  16.741 -26.712  1.00  0.00     0.062 A 
ATOM     17  C   UNL     1      -1.954  17.857 -26.073  1.00  0.00     0.158 A 
BRANCH  15  18
ATOM     18  O   UNL     1      -0.575  18.767 -24.281  1.00  0.00    -0.504 OA
ATOM     19  H   UNL     1      -0.454  19.665 -24.734  1.00  0.00     0.293 HD
ENDBRANCH  15  18
BRANCH  17  20
ATOM     20  O   UNL     1      -2.198  19.139 -26.563  1.00  0.00    -0.504 OA
ATOM     21  H   UNL     1      -2.439  19.907 -25.947  1.00  0.00     0.293 HD
ENDBRANCH  17  20
ENDBRANCH   1  12
BRANCH   6  22
ATOM     22  O   UNL     1      -5.397  10.092 -28.650  1.00  0.00    -0.507 OA
ATOM     23  H   UNL     1      -6.250   9.753 -29.068  1.00  0.00     0.293 HD
ENDBRANCH   6  22
BRANCH   8  24
ATOM     24  O   UNL     1      -3.643  12.279 -32.529  1.00  0.00    -0.508 OA
ATOM     25  H   UNL     1      -4.394  12.598 -33.129  1.00  0.00     0.293 HD
ENDBRANCH   8  24
TORSDOF 5
ENDMDL
MODEL 3
REMARK VINA RESULT:    -5.664      3.586      6.693
REMARK INTER + INTRA:          -6.921
REMARK INTER:                  -6.651
REMARK INTRA:                  -0.269
REMARK UNBOUND:                -0.264
REMARK SMILES O=c1cc(-c2ccc(O)c(O)c2)oc2cc(O)cc(O)c12
REMARK SMILES IDX 4 1 3 2 2 3 1 4 21 5 19 6 18 7 16 8 15 9 14 10 13 11 5 12
REMARK SMILES IDX 6 13 7 14 8 15 12 16 10 17 9 18 11 20 20 22 17 24
REMARK H PARENT 9 19 11 21 20 23 17 25
REMARK Flexibility Score: inf
ROOT
ATOM      1  C   UNL     1      -4.512  15.090 -27.987  1.00  0.00     0.138 A 
ATOM      2  C   UNL     1      -3.455  15.998 -27.842  1.00  0.00     0.100 A 
ATOM      3  C   UNL     1      -3.545  17.261 -28.429  1.00  0.00     0.197 A 
ATOM      4  O   UNL     1      -2.607  18.077 -28.230  1.00  0.00    -0.289 OA
ATOM      5  C   UNL     1      -4.686  17.602 -29.192  1.00  0.00     0.107 A 
ATOM      6  C   UNL     1      -4.868  18.845 -29.871  1.00  0.00     0.134 A 
ATOM      7  C   UNL     1      -6.091  19.115 -30.499  1.00  0.00     0.093 A 
ATOM      8  C   UNL     1      -7.113  18.167 -30.525  1.00  0.00     0.123 A 
ATOM      9  C   UNL     1      -6.925  16.928 -29.911  1.00  0.00     0.094 A 
ATOM     10  C   UNL     1      -5.730  16.641 -29.247  1.00  0.00     0.146 A 
ATOM     11  O   UNL     1      -5.597  15.455 -28.663  1.00  0.00    -0.456 OA
ENDROOT
BRANCH   1  12
ATOM     12  C   UNL     1      -4.469  13.734 -27.383  1.00  0.00     0.021 A 
ATOM     13  C   UNL     1      -3.675  12.707 -27.928  1.00  0.00     0.016 A 
ATOM     14  C   UNL     1      -3.661  11.437 -27.346  1.00  0.00     0.051 A 
ATOM     15  C   UNL     1      -4.442  11.166 -26.218  1.00  0.00     0.157 A 
ATOM     16  C   UNL     1      -5.262  13.451 -26.256  1.00  0.00     0.062 A 
ATOM     17  C   UNL     1      -5.249  12.176 -25.671  1.00  0.00     0.158 A 
BRANCH  15  18
ATOM     18  O   UNL     1      -4.406   9.889 -25.660  1.00  0.00    -0.504 OA
ATOM     19  H   UNL     1      -4.792   9.083 -26.136  1.00  0.00     0.293 HD
ENDBRANCH  15  18
BRANCH  17  20
ATOM     20  O   UNL     1      -6.034  11.913 -24.549  1.00  0.00    -0.504 OA
ATOM     21  H   UNL     1      -6.477  11.013 -24.410  1.00  0.00     0.293 HD
ENDBRANCH  17  20
ENDBRANCH   1  12
BRANCH   6  22
ATOM     22  O   UNL     1      -3.880  19.828 -29.978  1.00  0.00    -0.507 OA
ATOM     23  H   UNL     1      -4.048  20.790 -30.229  1.00  0.00     0.293 HD
ENDBRANCH   6  22
BRANCH   8  24
ATOM     24  O   UNL     1      -8.309  18.465 -31.173  1.00  0.00    -0.508 OA
ATOM     25  H   UNL     1      -8.367  19.201 -31.868  1.00  0.00     0.293 HD
ENDBRANCH   8  24
TORSDOF 5
ENDMDL
MODEL 4
REMARK VINA RESULT:    -5.606      2.022      7.373
REMARK INTER + INTRA:          -6.853
REMARK INTER:                  -6.575
REMARK INTRA:                  -0.278
REMARK UNBOUND:                -0.264
REMARK SMILES O=c1cc(-c2ccc(O)c(O)c2)oc2cc(O)cc(O)c12
REMARK SMILES IDX 4 1 3 2 2 3 1 4 21 5 19 6 18 7 16 8 15 9 14 10 13 11 5 12
REMARK SMILES IDX 6 13 7 14 8 15 12 16 10 17 9 18 11 20 20 22 17 24
REMARK H PARENT 9 19 11 21 20 23 17 25
REMARK Flexibility Score: inf
ROOT
ATOM      1  C   UNL     1      -3.312  14.571 -28.588  1.00  0.00     0.138 A 
ATOM      2  C   UNL     1      -3.831  15.829 -28.922  1.00  0.00     0.100 A 
ATOM      3  C   UNL     1      -3.482  16.945 -28.160  1.00  0.00     0.197 A 
ATOM      4  O   UNL     1      -3.915  18.070 -28.521  1.00  0.00    -0.289 OA
ATOM      5  C   UNL     1      -2.635  16.792 -27.037  1.00  0.00     0.107 A 
ATOM      6  C   UNL     1      -2.246  17.850 -26.163  1.00  0.00     0.134 A 
ATOM      7  C   UNL     1      -1.308  17.602 -25.152  1.00  0.00     0.093 A 
ATOM      8  C   UNL     1      -0.793  16.323 -24.946  1.00  0.00     0.123 A 
ATOM      9  C   UNL     1      -1.208  15.268 -25.761  1.00  0.00     0.094 A 
ATOM     10  C   UNL     1      -2.116  15.491 -26.799  1.00  0.00     0.146 A 
ATOM     11  O   UNL     1      -2.474  14.464 -27.562  1.00  0.00    -0.456 OA
ENDROOT
BRANCH   1  12
ATOM     12  C   UNL     1      -3.650  13.352 -29.365  1.00  0.00     0.021 A 
ATOM     13  C   UNL     1      -3.879  12.114 -28.736  1.00  0.00     0.016 A 
ATOM     14  C   UNL     1      -4.186  10.979 -29.492  1.00  0.00     0.051 A 
ATOM     15  C   UNL     1      -4.261  11.057 -30.886  1.00  0.00     0.157 A 
ATOM     16  C   UNL     1      -3.715  13.420 -30.769  1.00  0.00     0.062 A 
ATOM     17  C   UNL     1      -4.023  12.282 -31.529  1.00  0.00     0.158 A 
BRANCH  15  18
ATOM     18  O   UNL     1      -4.570   9.908 -31.613  1.00  0.00    -0.504 OA
ATOM     19  H   UNL     1      -4.909   9.065 -31.166  1.00  0.00     0.293 HD
ENDBRANCH  15  18
BRANCH  17  20
ATOM     20  O   UNL     1      -4.091  12.366 -32.919  1.00  0.00    -0.504 OA
ATOM     21  H   UNL     1      -4.972  12.287 -33.414  1.00  0.00     0.293 HD
ENDBRANCH  17  20
ENDBRANCH   1  12
BRANCH   6  22
ATOM     22  O   UNL     1      -2.764  19.148 -26.228  1.00  0.00    -0.507 OA
ATOM     23  H   UNL     1      -3.743  19.374 -26.310  1.00  0.00     0.293 HD
ENDBRANCH   6  22
BRANCH   8  24
ATOM     24  O   UNL     1       0.125  16.109 -23.920  1.00  0.00    -0.508 OA
ATOM     25  H   UNL     1       1.027  16.570 -23.913  1.00  0.00     0.293 HD
ENDBRANCH   8  24
TORSDOF 5
ENDMDL
MODEL 5
REMARK VINA RESULT:    -5.481      3.745      5.378
REMARK INTER + INTRA:          -6.706
REMARK INTER:                  -6.438
REMARK INTRA:                  -0.269
REMARK UNBOUND:                -0.264
REMARK SMILES O=c1cc(-c2ccc(O)c(O)c2)oc2cc(O)cc(O)c12
REMARK SMILES IDX 4 1 3 2 2 3 1 4 21 5 19 6 18 7 16 8 15 9 14 10 13 11 5 12
REMARK SMILES IDX 6 13 7 14 8 15 12 16 10 17 9 18 11 20 20 22 17 24
REMARK H PARENT 9 19 11 21 20 23 17 25
REMARK Flexibility Score: inf
ROOT
ATOM      1  C   UNL     1      -4.756  15.437 -29.169  1.00  0.00     0.138 A 
ATOM      2  C   UNL     1      -4.020  14.601 -30.019  1.00  0.00     0.100 A 
ATOM      3  C   UNL     1      -3.680  13.314 -29.598  1.00  0.00     0.197 A 
ATOM      4  O   UNL     1      -3.073  12.566 -30.407  1.00  0.00    -0.289 OA
ATOM      5  C   UNL     1      -4.052  12.877 -28.305  1.00  0.00     0.107 A 
ATOM      6  C   UNL     1      -3.724  11.603 -27.752  1.00  0.00     0.134 A 
ATOM      7  C   UNL     1      -4.247  11.235 -26.506  1.00  0.00     0.093 A 
ATOM      8  C   UNL     1      -5.033  12.117 -25.766  1.00  0.00     0.123 A 
ATOM      9  C   UNL     1      -5.315  13.387 -26.272  1.00  0.00     0.094 A 
ATOM     10  C   UNL     1      -4.837  13.770 -27.528  1.00  0.00     0.146 A 
ATOM     11  O   UNL     1      -5.140  14.982 -27.980  1.00  0.00    -0.456 OA
ENDROOT
BRANCH   1  12
ATOM     12  C   UNL     1      -5.144  16.814 -29.567  1.00  0.00     0.021 A 
ATOM     13  C   UNL     1      -4.261  17.901 -29.427  1.00  0.00     0.016 A 
ATOM     14  C   UNL     1      -4.657  19.188 -29.800  1.00  0.00     0.051 A 
ATOM     15  C   UNL     1      -5.938  19.415 -30.310  1.00  0.00     0.157 A 
ATOM     16  C   UNL     1      -6.438  17.051 -30.068  1.00  0.00     0.062 A 
ATOM     17  C   UNL     1      -6.835  18.344 -30.443  1.00  0.00     0.158 A 
BRANCH  15  18
ATOM     18  O   UNL     1      -6.303  20.712 -30.674  1.00  0.00    -0.504 OA
ATOM     19  H   UNL     1      -7.243  21.063 -30.541  1.00  0.00     0.293 HD
ENDBRANCH  15  18
BRANCH  17  20
ATOM     20  O   UNL     1      -8.116  18.563 -30.947  1.00  0.00    -0.504 OA
ATOM     21  H   UNL     1      -8.835  17.851 -30.898  1.00  0.00     0.293 HD
ENDBRANCH  17  20
ENDBRANCH   1  12
BRANCH   6  22
ATOM     22  O   UNL     1      -2.876  10.678 -28.371  1.00  0.00    -0.507 OA
ATOM     23  H   UNL     1      -2.520  10.761 -29.311  1.00  0.00     0.293 HD
ENDBRANCH   6  22
BRANCH   8  24
ATOM     24  O   UNL     1      -5.522  11.724 -24.522  1.00  0.00    -0.508 OA
ATOM     25  H   UNL     1      -6.430  12.027 -24.190  1.00  0.00     0.293 HD
ENDBRANCH   8  24
TORSDOF 5
ENDMDL
MODEL 6
REMARK VINA RESULT:    -5.276      1.707      7.347
REMARK INTER + INTRA:          -6.465
REMARK INTER:                  -6.190
REMARK INTRA:                  -0.275
REMARK UNBOUND:                -0.264
REMARK SMILES O=c1cc(-c2ccc(O)c(O)c2)oc2cc(O)cc(O)c12
REMARK SMILES IDX 4 1 3 2 2 3 1 4 21 5 19 6 18 7 16 8 15 9 14 10 13 11 5 12
REMARK SMILES IDX 6 13 7 14 8 15 12 16 10 17 9 18 11 20 20 22 17 24
REMARK H PARENT 9 19 11 21 20 23 17 25
REMARK Flexibility Score: inf
ROOT
ATOM      1  C   UNL     1      -3.721  14.971 -26.742  1.00  0.00     0.138 A 
ATOM      2  C   UNL     1      -3.918  15.748 -27.891  1.00  0.00     0.100 A 
ATOM      3  C   UNL     1      -3.279  16.984 -28.007  1.00  0.00     0.197 A 
ATOM      4  O   UNL     1      -3.426  17.630 -29.077  1.00  0.00    -0.289 OA
ATOM      5  C   UNL     1      -2.465  17.456 -26.951  1.00  0.00     0.107 A 
ATOM      6  C   UNL     1      -1.798  18.718 -26.940  1.00  0.00     0.134 A 
ATOM      7  C   UNL     1      -0.924  19.028 -25.890  1.00  0.00     0.093 A 
ATOM      8  C   UNL     1      -0.741  18.150 -24.823  1.00  0.00     0.123 A 
ATOM      9  C   UNL     1      -1.430  16.937 -24.796  1.00  0.00     0.094 A 
ATOM     10  C   UNL     1      -2.282  16.584 -25.845  1.00  0.00     0.146 A 
ATOM     11  O   UNL     1      -2.908  15.413 -25.788  1.00  0.00    -0.456 OA
ENDROOT
BRANCH   1  12
ATOM     12  C   UNL     1      -4.376  13.650 -26.567  1.00  0.00     0.021 A 
ATOM     13  C   UNL     1      -4.978  13.278 -25.350  1.00  0.00     0.016 A 
ATOM     14  C   UNL     1      -5.579  12.024 -25.210  1.00  0.00     0.051 A 
ATOM     15  C   UNL     1      -5.583  11.118 -26.275  1.00  0.00     0.157 A 
ATOM     16  C   UNL     1      -4.374  12.729 -27.631  1.00  0.00     0.062 A 
ATOM     17  C   UNL     1      -4.977  11.470 -27.491  1.00  0.00     0.158 A 
BRANCH  15  18
ATOM     18  O   UNL     1      -6.192   9.875 -26.104  1.00  0.00    -0.504 OA
ATOM     19  H   UNL     1      -6.261   9.203 -26.859  1.00  0.00     0.293 HD
ENDBRANCH  15  18
BRANCH  17  20
ATOM     20  O   UNL     1      -4.974  10.571 -28.556  1.00  0.00    -0.504 OA
ATOM     21  H   UNL     1      -4.695   9.604 -28.435  1.00  0.00     0.293 HD
ENDBRANCH  17  20
ENDBRANCH   1  12
BRANCH   6  22
ATOM     22  O   UNL     1      -1.977  19.703 -27.916  1.00  0.00    -0.507 OA
ATOM     23  H   UNL     1      -1.520  20.602 -27.919  1.00  0.00     0.293 HD
ENDBRANCH   6  22
BRANCH   8  24
ATOM     24  O   UNL     1       0.124  18.499 -23.788  1.00  0.00    -0.508 OA
ATOM     25  H   UNL     1       0.827  19.220 -23.905  1.00  0.00     0.293 HD
ENDBRANCH   8  24
TORSDOF 5
ENDMDL
MODEL 7
REMARK VINA RESULT:    -5.203      2.418      3.873
REMARK INTER + INTRA:          -6.379
REMARK INTER:                  -6.109
REMARK INTRA:                  -0.269
REMARK UNBOUND:                -0.264
REMARK SMILES O=c1cc(-c2ccc(O)c(O)c2)oc2cc(O)cc(O)c12
REMARK SMILES IDX 4 1 3 2 2 3 1 4 21 5 19 6 18 7 16 8 15 9 14 10 13 11 5 12
REMARK SMILES IDX 6 13 7 14 8 15 12 16 10 17 9 18 11 20 20 22 17 24
REMARK H PARENT 9 19 11 21 20 23 17 25
REMARK Flexibility Score: inf
ROOT
ATOM      1  C   UNL     1      -2.176  15.816 -26.824  1.00  0.00     0.138 A 
ATOM      2  C   UNL     1      -1.516  14.703 -27.360  1.00  0.00     0.100 A 
ATOM      3  C   UNL     1      -2.133  13.451 -27.325  1.00  0.00     0.197 A 
ATOM      4  O   UNL     1      -1.543  12.483 -27.870  1.00  0.00    -0.289 OA
ATOM      5  C   UNL     1      -3.404  13.311 -26.719  1.00  0.00     0.107 A 
ATOM      6  C   UNL     1      -4.110  12.078 -26.589  1.00  0.00     0.134 A 
ATOM      7  C   UNL     1      -5.414  12.079 -26.076  1.00  0.00     0.093 A 
ATOM      8  C   UNL     1      -6.012  13.258 -25.633  1.00  0.00     0.123 A 
ATOM      9  C   UNL     1      -5.310  14.462 -25.706  1.00  0.00     0.094 A 
ATOM     10  C   UNL     1      -4.022  14.498 -26.245  1.00  0.00     0.146 A 
ATOM     11  O   UNL     1      -3.393  15.667 -26.310  1.00  0.00    -0.456 OA
ENDROOT
BRANCH   1  12
ATOM     12  C   UNL     1      -1.566  17.170 -26.834  1.00  0.00     0.021 A 
ATOM     13  C   UNL     1      -0.469  17.493 -26.014  1.00  0.00     0.016 A 
ATOM     14  C   UNL     1       0.080  18.779 -26.037  1.00  0.00     0.051 A 
ATOM     15  C   UNL     1      -0.460  19.763 -26.870  1.00  0.00     0.157 A 
ATOM     16  C   UNL     1      -2.112  18.170 -27.661  1.00  0.00     0.062 A 
ATOM     17  C   UNL     1      -1.562  19.460 -27.684  1.00  0.00     0.158 A 
BRANCH  15  18
ATOM     18  O   UNL     1       0.110  21.036 -26.871  1.00  0.00    -0.504 OA
ATOM     19  H   UNL     1       0.424  21.484 -27.723  1.00  0.00     0.293 HD
ENDBRANCH  15  18
BRANCH  17  20
ATOM     20  O   UNL     1      -2.108  20.438 -28.514  1.00  0.00    -0.504 OA
ATOM     21  H   UNL     1      -2.245  20.279 -29.505  1.00  0.00     0.293 HD
ENDBRANCH  17  20
ENDBRANCH   1  12
BRANCH   6  22
ATOM     22  O   UNL     1      -3.572  10.831 -26.922  1.00  0.00    -0.507 OA
ATOM     23  H   UNL     1      -2.639  10.526 -26.694  1.00  0.00     0.293 HD
ENDBRANCH   6  22
BRANCH   8  24
ATOM     24  O   UNL     1      -7.304  13.219 -25.114  1.00  0.00    -0.508 OA
ATOM     25  H   UNL     1      -7.618  12.453 -24.530  1.00  0.00     0.293 HD
ENDBRANCH   8  24
TORSDOF 5
ENDMDL
MODEL 8
REMARK VINA RESULT:    -4.840      1.572      7.194
REMARK INTER + INTRA:          -5.953
REMARK INTER:                  -5.663
REMARK INTRA:                  -0.290
REMARK UNBOUND:                -0.264
REMARK SMILES O=c1cc(-c2ccc(O)c(O)c2)oc2cc(O)cc(O)c12
REMARK SMILES IDX 4 1 3 2 2 3 1 4 21 5 19 6 18 7 16 8 15 9 14 10 13 11 5 12
REMARK SMILES IDX 6 13 7 14 8 15 12 16 10 17 9 18 11 20 20 22 17 24
REMARK H PARENT 9 19 11 21 20 23 17 25
REMARK Flexibility Score: inf
ROOT
ATOM      1  C   UNL     1      -2.759  14.943 -26.774  1.00  0.00     0.138 A 
ATOM      2  C   UNL     1      -1.996  14.992 -25.600  1.00  0.00     0.100 A 
ATOM      3  C   UNL     1      -1.351  16.177 -25.245  1.00  0.00     0.197 A 
ATOM      4  O   UNL     1      -0.724  16.208 -24.154  1.00  0.00    -0.289 OA
ATOM      5  C   UNL     1      -1.445  17.309 -26.088  1.00  0.00     0.107 A 
ATOM      6  C   UNL     1      -0.796  18.558 -25.849  1.00  0.00     0.134 A 
ATOM      7  C   UNL     1      -1.058  19.645 -26.692  1.00  0.00     0.093 A 
ATOM      8  C   UNL     1      -1.895  19.512 -27.799  1.00  0.00     0.123 A 
ATOM      9  C   UNL     1      -2.492  18.281 -28.074  1.00  0.00     0.094 A 
ATOM     10  C   UNL     1      -2.278  17.188 -27.232  1.00  0.00     0.146 A 
ATOM     11  O   UNL     1      -2.877  16.037 -27.521  1.00  0.00    -0.456 OA
ENDROOT
BRANCH   1  12
ATOM     12  C   UNL     1      -3.466  13.708 -27.200  1.00  0.00     0.021 A 
ATOM     13  C   UNL     1      -4.240  12.952 -26.300  1.00  0.00     0.016 A 
ATOM     14  C   UNL     1      -4.887  11.788 -26.725  1.00  0.00     0.051 A 
ATOM     15  C   UNL     1      -4.766  11.354 -28.048  1.00  0.00     0.157 A 
ATOM     16  C   UNL     1      -3.337  13.259 -28.527  1.00  0.00     0.062 A 
ATOM     17  C   UNL     1      -3.986  12.091 -28.954  1.00  0.00     0.158 A 
BRANCH  15  18
ATOM     18  O   UNL     1      -5.423  10.189 -28.442  1.00  0.00    -0.504 OA
ATOM     19  H   UNL     1      -6.377  10.200 -28.785  1.00  0.00     0.293 HD
ENDBRANCH  15  18
BRANCH  17  20
ATOM     20  O   UNL     1      -3.857  11.662 -30.274  1.00  0.00    -0.504 OA
ATOM     21  H   UNL     1      -4.380  12.093 -31.027  1.00  0.00     0.293 HD
ENDBRANCH  17  20
ENDBRANCH   1  12
BRANCH   6  22
ATOM     22  O   UNL     1       0.125  18.774 -24.819  1.00  0.00    -0.507 OA
ATOM     23  H   UNL     1      -0.038  18.566 -23.846  1.00  0.00     0.293 HD
ENDBRANCH   6  22
BRANCH   8  24
ATOM     24  O   UNL     1      -2.119  20.611 -28.626  1.00  0.00    -0.508 OA
ATOM     25  H   UNL     1      -2.357  21.520 -28.246  1.00  0.00     0.293 HD
ENDBRANCH   8  24
TORSDOF 5
ENDMDL
