MODEL 1
REMARK VINA RESULT:    -3.783      0.000      0.000
REMARK INTER + INTRA:         -14.634
REMARK INTER:                  -9.533
REMARK INTRA:                  -5.101
REMARK UNBOUND:                -5.101
REMARK SMILES CCCCCCCCCCCCCCCCCCCCCCCCCCCC(=O)[O-]
REMARK SMILES IDX 15 1 16 2 17 3 18 4 19 5 20 6 21 7 22 8 23 9 24 10 25 11
REMARK SMILES IDX 26 12 27 13 28 14 29 15 30 16 14 17 13 18 12 19 11 20 10 21
REMARK SMILES IDX 9 22 8 23 7 24 6 25 5 26 4 27 3 28 2 29 1 30
REMARK H PARENT
REMARK Flexibility Score: inf
ROOT
ATOM      1  C   UNL     1       7.931   7.568  -3.336  1.00  0.00     0.000 C 
ENDROOT
BRANCH   1   2
ATOM      2  C   UNL     1       7.195   6.685  -2.314  1.00  0.00     0.000 C 
BRANCH   2   3
ATOM      3  C   UNL     1       7.378   5.184  -2.592  1.00  0.00     0.000 C 
BRANCH   3   4
ATOM      4  C   UNL     1       7.836   4.405  -1.349  1.00  0.00     0.000 C 
BRANCH   4   5
ATOM      5  C   UNL     1       9.369   4.334  -1.280  1.00  0.00     0.000 C 
BRANCH   5   6
ATOM      6  C   UNL     1       9.970   5.240  -0.188  1.00  0.00     0.000 C 
BRANCH   6   7
ATOM      7  C   UNL     1       8.954   5.832   0.807  1.00  0.00     0.000 C 
BRANCH   7   8
ATOM      8  C   UNL     1       9.344   7.234   1.305  1.00  0.00     0.000 C 
BRANCH   8   9
ATOM      9  C   UNL     1       9.386   8.285   0.179  1.00  0.00     0.000 C 
BRANCH   9  10
ATOM     10  C   UNL     1       8.480   9.513   0.384  1.00  0.00     0.000 C 
BRANCH  10  11
ATOM     11  C   UNL     1       8.011  10.145  -0.937  1.00  0.00     0.000 C 
BRANCH  11  12
ATOM     12  C   UNL     1       6.543  10.599  -0.887  1.00  0.00     0.006 C 
BRANCH  12  13
ATOM     13  C   UNL     1       5.842  10.509  -2.250  1.00  0.00     0.053 C 
BRANCH  13  14
ATOM     14  C   UNL     1       4.359  10.413  -2.073  1.00  0.00     0.041 C 
ATOM     15  O   UNL     1       3.589  10.715  -3.022  1.00  0.00    -0.550 OA
ATOM     16  O   UNL     1       3.827   9.974  -0.867  1.00  0.00    -0.550 OA
ENDBRANCH  13  14
ENDBRANCH  12  13
ENDBRANCH  11  12
ENDBRANCH  10  11
ENDBRANCH   9  10
ENDBRANCH   8   9
ENDBRANCH   7   8
ENDBRANCH   6   7
ENDBRANCH   5   6
ENDBRANCH   4   5
ENDBRANCH   3   4
ENDBRANCH   2   3
ENDBRANCH   1   2
BRANCH   1  17
ATOM     17  C   UNL     1       9.453   7.354  -3.318  1.00  0.00     0.000 C 
BRANCH  17  18
ATOM     18  C   UNL     1      10.113   7.641  -4.674  1.00  0.00     0.000 C 
BRANCH  18  19
ATOM     19  C   UNL     1      10.896   6.421  -5.175  1.00  0.00     0.000 C 
BRANCH  19  20
ATOM     20  C   UNL     1      10.031   5.152  -5.122  1.00  0.00     0.000 C 
BRANCH  20  21
ATOM     21  C   UNL     1       9.197   4.944  -6.399  1.00  0.00     0.000 C 
BRANCH  21  22
ATOM     22  C   UNL     1       7.764   5.501  -6.331  1.00  0.00    -0.000 C 
BRANCH  22  23
ATOM     23  C   UNL     1       7.440   6.455  -7.495  1.00  0.00    -0.000 C 
BRANCH  23  24
ATOM     24  C   UNL     1       8.333   6.207  -8.720  1.00  0.00    -0.000 C 
BRANCH  24  25
ATOM     25  C   UNL     1       8.922   7.501  -9.334  1.00  0.00    -0.000 C 
BRANCH  25  26
ATOM     26  C   UNL     1       9.523   8.454  -8.287  1.00  0.00    -0.000 C 
BRANCH  26  27
ATOM     27  C   UNL     1       9.475   9.939  -8.692  1.00  0.00    -0.000 C 
BRANCH  27  28
ATOM     28  C   UNL     1       8.938  10.864  -7.576  1.00  0.00    -0.000 C 
BRANCH  28  29
ATOM     29  C   UNL     1       8.166  10.099  -6.490  1.00  0.00    -0.003 C 
ATOM     30  C   UNL     1       8.239  10.823  -5.149  1.00  0.00     0.004 C 
ENDBRANCH  28  29
ENDBRANCH  27  28
ENDBRANCH  26  27
ENDBRANCH  25  26
ENDBRANCH  24  25
ENDBRANCH  23  24
ENDBRANCH  22  23
ENDBRANCH  21  22
ENDBRANCH  20  21
ENDBRANCH  19  20
ENDBRANCH  18  19
ENDBRANCH  17  18
ENDBRANCH   1  17
TORSDOF 26
ENDMDL
MODEL 2
REMARK VINA RESULT:    -3.752      2.872      5.123
REMARK INTER + INTRA:         -14.556
REMARK INTER:                 -10.222
REMARK INTRA:                  -4.334
REMARK UNBOUND:                -5.101
REMARK SMILES CCCCCCCCCCCCCCCCCCCCCCCCCCCC(=O)[O-]
REMARK SMILES IDX 15 1 16 2 17 3 18 4 19 5 20 6 21 7 22 8 23 9 24 10 25 11
REMARK SMILES IDX 26 12 27 13 28 14 29 15 30 16 14 17 13 18 12 19 11 20 10 21
REMARK SMILES IDX 9 22 8 23 7 24 6 25 5 26 4 27 3 28 2 29 1 30
REMARK H PARENT
REMARK Flexibility Score: inf
ROOT
ATOM      1  C   UNL     1       8.043   4.753  -1.381  1.00  0.00     0.000 C 
ENDROOT
BRANCH   1   2
ATOM      2  C   UNL     1       7.485   4.861  -2.811  1.00  0.00     0.000 C 
BRANCH   2   3
ATOM      3  C   UNL     1       6.936   6.262  -3.124  1.00  0.00     0.000 C 
BRANCH   3   4
ATOM      4  C   UNL     1       6.855   7.157  -1.877  1.00  0.00     0.000 C 
BRANCH   4   5
ATOM      5  C   UNL     1       7.064   8.633  -2.246  1.00  0.00     0.000 C 
BRANCH   5   6
ATOM      6  C   UNL     1       6.004   9.568  -1.634  1.00  0.00     0.000 C 
BRANCH   6   7
ATOM      7  C   UNL     1       6.557  10.691  -0.736  1.00  0.00     0.000 C 
BRANCH   7   8
ATOM      8  C   UNL     1       8.092  10.775  -0.751  1.00  0.00     0.000 C 
BRANCH   8   9
ATOM      9  C   UNL     1       8.716  10.687   0.655  1.00  0.00     0.000 C 
BRANCH   9  10
ATOM     10  C   UNL     1       9.044   9.265   1.147  1.00  0.00     0.000 C 
BRANCH  10  11
ATOM     11  C   UNL     1       9.196   9.175   2.675  1.00  0.00     0.000 C 
BRANCH  11  12
ATOM     12  C   UNL     1       9.177   7.725   3.187  1.00  0.00     0.006 C 
BRANCH  12  13
ATOM     13  C   UNL     1       9.397   6.694   2.071  1.00  0.00     0.053 C 
BRANCH  13  14
ATOM     14  C   UNL     1      10.014   5.448   2.622  1.00  0.00     0.041 C 
ATOM     15  O   UNL     1       9.674   5.022   3.757  1.00  0.00    -0.550 OA
ATOM     16  O   UNL     1      10.952   4.745   1.876  1.00  0.00    -0.550 OA
ENDBRANCH  13  14
ENDBRANCH  12  13
ENDBRANCH  11  12
ENDBRANCH  10  11
ENDBRANCH   9  10
ENDBRANCH   8   9
ENDBRANCH   7   8
ENDBRANCH   6   7
ENDBRANCH   5   6
ENDBRANCH   4   5
ENDBRANCH   3   4
ENDBRANCH   2   3
ENDBRANCH   1   2
BRANCH   1  17
ATOM     17  C   UNL     1       9.515   4.310  -1.352  1.00  0.00     0.000 C 
BRANCH  17  18
ATOM     18  C   UNL     1      10.448   5.288  -2.080  1.00  0.00     0.000 C 
BRANCH  18  19
ATOM     19  C   UNL     1      10.507   6.637  -1.353  1.00  0.00     0.000 C 
BRANCH  19  20
ATOM     20  C   UNL     1      10.702   7.792  -2.348  1.00  0.00     0.000 C 
BRANCH  20  21
ATOM     21  C   UNL     1      10.504   7.358  -3.811  1.00  0.00     0.000 C 
BRANCH  21  22
ATOM     22  C   UNL     1       9.937   8.449  -4.737  1.00  0.00    -0.000 C 
BRANCH  22  23
ATOM     23  C   UNL     1       8.638   8.018  -5.441  1.00  0.00    -0.000 C 
BRANCH  23  24
ATOM     24  C   UNL     1       8.489   8.653  -6.832  1.00  0.00    -0.000 C 
BRANCH  24  25
ATOM     25  C   UNL     1       8.701   7.656  -7.999  1.00  0.00    -0.000 C 
BRANCH  25  26
ATOM     26  C   UNL     1       7.542   6.659  -8.167  1.00  0.00    -0.000 C 
BRANCH  26  27
ATOM     27  C   UNL     1       7.741   5.334  -7.408  1.00  0.00    -0.000 C 
BRANCH  27  28
ATOM     28  C   UNL     1       8.543   4.282  -8.208  1.00  0.00    -0.000 C 
BRANCH  28  29
ATOM     29  C   UNL     1       9.690   3.665  -7.393  1.00  0.00    -0.003 C 
ATOM     30  C   UNL     1      10.240   4.660  -6.376  1.00  0.00     0.004 C 
ENDBRANCH  28  29
ENDBRANCH  27  28
ENDBRANCH  26  27
ENDBRANCH  25  26
ENDBRANCH  24  25
ENDBRANCH  23  24
ENDBRANCH  22  23
ENDBRANCH  21  22
ENDBRANCH  20  21
ENDBRANCH  19  20
ENDBRANCH  18  19
ENDBRANCH  17  18
ENDBRANCH   1  17
TORSDOF 26
ENDMDL
MODEL 3
REMARK VINA RESULT:    -3.601     14.759     17.116
REMARK INTER + INTRA:         -14.175
REMARK INTER:                  -9.939
REMARK INTRA:                  -4.235
REMARK UNBOUND:                -5.101
REMARK SMILES CCCCCCCCCCCCCCCCCCCCCCCCCCCC(=O)[O-]
REMARK SMILES IDX 15 1 16 2 17 3 18 4 19 5 20 6 21 7 22 8 23 9 24 10 25 11
REMARK SMILES IDX 26 12 27 13 28 14 29 15 30 16 14 17 13 18 12 19 11 20 10 21
REMARK SMILES IDX 9 22 8 23 7 24 6 25 5 26 4 27 3 28 2 29 1 30
REMARK H PARENT
REMARK Flexibility Score: inf
ROOT
ATOM      1  C   UNL     1      -0.403  -3.940  -6.396  1.00  0.00     0.000 C 
ENDROOT
BRANCH   1   2
ATOM      2  C   UNL     1      -1.778  -3.997  -7.084  1.00  0.00     0.000 C 
BRANCH   2   3
ATOM      3  C   UNL     1      -1.866  -3.065  -8.304  1.00  0.00     0.000 C 
BRANCH   3   4
ATOM      4  C   UNL     1      -0.680  -2.091  -8.389  1.00  0.00     0.000 C 
BRANCH   4   5
ATOM      5  C   UNL     1      -1.155  -0.636  -8.254  1.00  0.00     0.000 C 
BRANCH   5   6
ATOM      6  C   UNL     1      -1.998  -0.160  -9.452  1.00  0.00     0.000 C 
BRANCH   6   7
ATOM      7  C   UNL     1      -3.260   0.646  -9.089  1.00  0.00     0.000 C 
BRANCH   7   8
ATOM      8  C   UNL     1      -4.510  -0.233  -8.918  1.00  0.00     0.000 C 
BRANCH   8   9
ATOM      9  C   UNL     1      -5.825   0.567  -8.990  1.00  0.00     0.000 C 
BRANCH   9  10
ATOM     10  C   UNL     1      -5.749   2.016  -8.474  1.00  0.00     0.000 C 
BRANCH  10  11
ATOM     11  C   UNL     1      -6.673   2.277  -7.272  1.00  0.00     0.000 C 
BRANCH  11  12
ATOM     12  C   UNL     1      -7.544   1.060  -6.919  1.00  0.00     0.006 C 
BRANCH  12  13
ATOM     13  C   UNL     1      -7.200   0.457  -5.551  1.00  0.00     0.053 C 
BRANCH  13  14
ATOM     14  C   UNL     1      -8.350  -0.346  -5.027  1.00  0.00     0.041 C 
ATOM     15  O   UNL     1      -8.657  -1.439  -5.572  1.00  0.00    -0.550 OA
ATOM     16  O   UNL     1      -9.070   0.102  -3.927  1.00  0.00    -0.550 OA
ENDBRANCH  13  14
ENDBRANCH  12  13
ENDBRANCH  11  12
ENDBRANCH  10  11
ENDBRANCH   9  10
ENDBRANCH   8   9
ENDBRANCH   7   8
ENDBRANCH   6   7
ENDBRANCH   5   6
ENDBRANCH   4   5
ENDBRANCH   3   4
ENDBRANCH   2   3
ENDBRANCH   1   2
BRANCH   1  17
ATOM     17  C   UNL     1       0.237  -5.328  -6.234  1.00  0.00     0.000 C 
BRANCH  17  18
ATOM     18  C   UNL     1       1.733  -5.341  -6.580  1.00  0.00     0.000 C 
BRANCH  18  19
ATOM     19  C   UNL     1       1.972  -4.840  -8.010  1.00  0.00     0.000 C 
BRANCH  19  20
ATOM     20  C   UNL     1       1.529  -5.888  -9.042  1.00  0.00     0.000 C 
BRANCH  20  21
ATOM     21  C   UNL     1       0.462  -5.355 -10.014  1.00  0.00     0.000 C 
BRANCH  21  22
ATOM     22  C   UNL     1      -0.869  -6.127  -9.998  1.00  0.00    -0.000 C 
BRANCH  22  23
ATOM     23  C   UNL     1      -0.834  -7.356  -9.073  1.00  0.00    -0.000 C 
BRANCH  23  24
ATOM     24  C   UNL     1      -2.241  -7.836  -8.684  1.00  0.00    -0.000 C 
BRANCH  24  25
ATOM     25  C   UNL     1      -3.366  -6.842  -9.068  1.00  0.00    -0.000 C 
BRANCH  25  26
ATOM     26  C   UNL     1      -4.753  -7.264  -8.554  1.00  0.00    -0.000 C 
BRANCH  26  27
ATOM     27  C   UNL     1      -5.542  -6.126  -7.879  1.00  0.00    -0.000 C 
BRANCH  27  28
ATOM     28  C   UNL     1      -5.154  -4.720  -8.391  1.00  0.00    -0.000 C 
BRANCH  28  29
ATOM     29  C   UNL     1      -5.628  -3.597  -7.457  1.00  0.00    -0.003 C 
ATOM     30  C   UNL     1      -5.703  -4.078  -6.011  1.00  0.00     0.004 C 
ENDBRANCH  28  29
ENDBRANCH  27  28
ENDBRANCH  26  27
ENDBRANCH  25  26
ENDBRANCH  24  25
ENDBRANCH  23  24
ENDBRANCH  22  23
ENDBRANCH  21  22
ENDBRANCH  20  21
ENDBRANCH  19  20
ENDBRANCH  18  19
ENDBRANCH  17  18
ENDBRANCH   1  17
TORSDOF 26
ENDMDL
MODEL 4
REMARK VINA RESULT:    -3.581     15.892     18.167
REMARK INTER + INTRA:         -14.126
REMARK INTER:                  -9.310
REMARK INTRA:                  -4.816
REMARK UNBOUND:                -5.101
REMARK SMILES CCCCCCCCCCCCCCCCCCCCCCCCCCCC(=O)[O-]
REMARK SMILES IDX 15 1 16 2 17 3 18 4 19 5 20 6 21 7 22 8 23 9 24 10 25 11
REMARK SMILES IDX 26 12 27 13 28 14 29 15 30 16 14 17 13 18 12 19 11 20 10 21
REMARK SMILES IDX 9 22 8 23 7 24 6 25 5 26 4 27 3 28 2 29 1 30
REMARK H PARENT
REMARK Flexibility Score: inf
ROOT
ATOM      1  C   UNL     1      -4.841  -3.854  -7.583  1.00  0.00     0.000 C 
ENDROOT
BRANCH   1   2
ATOM      2  C   UNL     1      -5.146  -4.230  -6.122  1.00  0.00     0.000 C 
BRANCH   2   3
ATOM      3  C   UNL     1      -6.481  -3.650  -5.631  1.00  0.00     0.000 C 
BRANCH   3   4
ATOM      4  C   UNL     1      -7.499  -4.742  -5.263  1.00  0.00     0.000 C 
BRANCH   4   5
ATOM      5  C   UNL     1      -6.903  -6.142  -5.479  1.00  0.00     0.000 C 
BRANCH   5   6
ATOM      6  C   UNL     1      -7.592  -6.926  -6.612  1.00  0.00     0.000 C 
BRANCH   6   7
ATOM      7  C   UNL     1      -8.479  -6.085  -7.549  1.00  0.00     0.000 C 
BRANCH   7   8
ATOM      8  C   UNL     1      -7.868  -5.889  -8.946  1.00  0.00     0.000 C 
BRANCH   8   9
ATOM      9  C   UNL     1      -7.964  -4.435  -9.449  1.00  0.00     0.000 C 
BRANCH   9  10
ATOM     10  C   UNL     1      -8.670  -3.450  -8.499  1.00  0.00     0.000 C 
BRANCH  10  11
ATOM     11  C   UNL     1      -8.498  -1.980  -8.917  1.00  0.00     0.000 C 
BRANCH  11  12
ATOM     12  C   UNL     1      -7.591  -1.194  -7.956  1.00  0.00     0.006 C 
BRANCH  12  13
ATOM     13  C   UNL     1      -8.366  -0.541  -6.803  1.00  0.00     0.053 C 
BRANCH  13  14
ATOM     14  C   UNL     1      -7.433   0.201  -5.897  1.00  0.00     0.041 C 
ATOM     15  O   UNL     1      -6.733   1.145  -6.348  1.00  0.00    -0.550 OA
ATOM     16  O   UNL     1      -7.351  -0.137  -4.553  1.00  0.00    -0.550 OA
ENDBRANCH  13  14
ENDBRANCH  12  13
ENDBRANCH  11  12
ENDBRANCH  10  11
ENDBRANCH   9  10
ENDBRANCH   8   9
ENDBRANCH   7   8
ENDBRANCH   6   7
ENDBRANCH   5   6
ENDBRANCH   4   5
ENDBRANCH   3   4
ENDBRANCH   2   3
ENDBRANCH   1   2
BRANCH   1  17
ATOM     17  C   UNL     1      -4.422  -5.065  -8.432  1.00  0.00     0.000 C 
BRANCH  17  18
ATOM     18  C   UNL     1      -3.456  -4.694  -9.566  1.00  0.00     0.000 C 
BRANCH  18  19
ATOM     19  C   UNL     1      -2.256  -5.649  -9.604  1.00  0.00     0.000 C 
BRANCH  19  20
ATOM     20  C   UNL     1      -1.997  -6.261  -8.219  1.00  0.00     0.000 C 
BRANCH  20  21
ATOM     21  C   UNL     1      -0.944  -7.383  -8.250  1.00  0.00     0.000 C 
BRANCH  21  22
ATOM     22  C   UNL     1       0.162  -7.261  -7.186  1.00  0.00    -0.000 C 
BRANCH  22  23
ATOM     23  C   UNL     1       0.088  -5.940  -6.399  1.00  0.00    -0.000 C 
BRANCH  23  24
ATOM     24  C   UNL     1       1.424  -5.180  -6.407  1.00  0.00    -0.000 C 
BRANCH  24  25
ATOM     25  C   UNL     1       2.121  -5.159  -7.790  1.00  0.00    -0.000 C 
BRANCH  25  26
ATOM     26  C   UNL     1       1.245  -4.566  -8.906  1.00  0.00    -0.000 C 
BRANCH  26  27
ATOM     27  C   UNL     1       1.129  -3.031  -8.861  1.00  0.00    -0.000 C 
BRANCH  27  28
ATOM     28  C   UNL     1      -0.276  -2.509  -9.238  1.00  0.00    -0.000 C 
BRANCH  28  29
ATOM     29  C   UNL     1      -0.995  -1.836  -8.058  1.00  0.00    -0.003 C 
ATOM     30  C   UNL     1      -1.348  -2.852  -6.976  1.00  0.00     0.004 C 
ENDBRANCH  28  29
ENDBRANCH  27  28
ENDBRANCH  26  27
ENDBRANCH  25  26
ENDBRANCH  24  25
ENDBRANCH  23  24
ENDBRANCH  22  23
ENDBRANCH  21  22
ENDBRANCH  20  21
ENDBRANCH  19  20
ENDBRANCH  18  19
ENDBRANCH  17  18
ENDBRANCH   1  17
TORSDOF 26
ENDMDL
MODEL 5
REMARK VINA RESULT:    -3.391      3.069      4.719
REMARK INTER + INTRA:         -13.647
REMARK INTER:                  -9.976
REMARK INTRA:                  -3.672
REMARK UNBOUND:                -5.101
REMARK SMILES CCCCCCCCCCCCCCCCCCCCCCCCCCCC(=O)[O-]
REMARK SMILES IDX 15 1 16 2 17 3 18 4 19 5 20 6 21 7 22 8 23 9 24 10 25 11
REMARK SMILES IDX 26 12 27 13 28 14 29 15 30 16 14 17 13 18 12 19 11 20 10 21
REMARK SMILES IDX 9 22 8 23 7 24 6 25 5 26 4 27 3 28 2 29 1 30
REMARK H PARENT
REMARK Flexibility Score: inf
ROOT
ATOM      1  C   UNL     1       7.467   7.814  -2.638  1.00  0.00     0.000 C 
ENDROOT
BRANCH   1   2
ATOM      2  C   UNL     1       7.259   6.756  -1.541  1.00  0.00     0.000 C 
BRANCH   2   3
ATOM      3  C   UNL     1       7.325   5.321  -2.086  1.00  0.00     0.000 C 
BRANCH   3   4
ATOM      4  C   UNL     1       8.006   4.349  -1.109  1.00  0.00     0.000 C 
BRANCH   4   5
ATOM      5  C   UNL     1       9.453   4.063  -1.539  1.00  0.00     0.000 C 
BRANCH   5   6
ATOM      6  C   UNL     1      10.499   4.629  -0.559  1.00  0.00     0.000 C 
BRANCH   6   7
ATOM      7  C   UNL     1       9.934   5.512   0.569  1.00  0.00     0.000 C 
BRANCH   7   8
ATOM      8  C   UNL     1      10.320   6.993   0.427  1.00  0.00     0.000 C 
BRANCH   8   9
ATOM      9  C   UNL     1       9.460   7.928   1.300  1.00  0.00     0.000 C 
BRANCH   9  10
ATOM     10  C   UNL     1       9.231   7.458   2.748  1.00  0.00     0.000 C 
BRANCH  10  11
ATOM     11  C   UNL     1       9.196   8.615   3.760  1.00  0.00     0.000 C 
BRANCH  11  12
ATOM     12  C   UNL     1       9.398   8.141   5.209  1.00  0.00     0.006 C 
BRANCH  12  13
ATOM     13  C   UNL     1       9.448   9.299   6.215  1.00  0.00     0.053 C 
BRANCH  13  14
ATOM     14  C   UNL     1       8.065   9.694   6.630  1.00  0.00     0.041 C 
ATOM     15  O   UNL     1       7.385  10.466   5.904  1.00  0.00    -0.550 OA
ATOM     16  O   UNL     1       7.521   9.197   7.807  1.00  0.00    -0.550 OA
ENDBRANCH  13  14
ENDBRANCH  12  13
ENDBRANCH  11  12
ENDBRANCH  10  11
ENDBRANCH   9  10
ENDBRANCH   8   9
ENDBRANCH   7   8
ENDBRANCH   6   7
ENDBRANCH   5   6
ENDBRANCH   4   5
ENDBRANCH   3   4
ENDBRANCH   2   3
ENDBRANCH   1   2
BRANCH   1  17
ATOM     17  C   UNL     1       8.879   8.422  -2.616  1.00  0.00     0.000 C 
BRANCH  17  18
ATOM     18  C   UNL     1       9.422   8.723  -4.021  1.00  0.00     0.000 C 
BRANCH  18  19
ATOM     19  C   UNL     1      10.741   7.982  -4.272  1.00  0.00     0.000 C 
BRANCH  19  20
ATOM     20  C   UNL     1      10.573   6.470  -4.053  1.00  0.00     0.000 C 
BRANCH  20  21
ATOM     21  C   UNL     1      10.074   5.736  -5.310  1.00  0.00     0.000 C 
BRANCH  21  22
ATOM     22  C   UNL     1       8.584   5.353  -5.285  1.00  0.00    -0.000 C 
BRANCH  22  23
ATOM     23  C   UNL     1       7.719   6.263  -6.175  1.00  0.00    -0.000 C 
BRANCH  23  24
ATOM     24  C   UNL     1       7.449   5.645  -7.555  1.00  0.00    -0.000 C 
BRANCH  24  25
ATOM     25  C   UNL     1       7.336   6.689  -8.694  1.00  0.00    -0.000 C 
BRANCH  25  26
ATOM     26  C   UNL     1       8.689   7.040  -9.336  1.00  0.00    -0.000 C 
BRANCH  26  27
ATOM     27  C   UNL     1       9.828   6.074  -8.963  1.00  0.00    -0.000 C 
BRANCH  27  28
ATOM     28  C   UNL     1       9.888   4.817  -9.860  1.00  0.00    -0.000 C 
BRANCH  28  29
ATOM     29  C   UNL     1      10.542   3.617  -9.159  1.00  0.00    -0.003 C 
ATOM     30  C   UNL     1       9.540   2.883  -8.273  1.00  0.00     0.004 C 
ENDBRANCH  28  29
ENDBRANCH  27  28
ENDBRANCH  26  27
ENDBRANCH  25  26
ENDBRANCH  24  25
ENDBRANCH  23  24
ENDBRANCH  22  23
ENDBRANCH  21  22
ENDBRANCH  20  21
ENDBRANCH  19  20
ENDBRANCH  18  19
ENDBRANCH  17  18
ENDBRANCH   1  17
TORSDOF 26
ENDMDL
MODEL 6
REMARK VINA RESULT:    -3.383     14.860     17.349
REMARK INTER + INTRA:         -13.626
REMARK INTER:                  -8.840
REMARK INTRA:                  -4.786
REMARK UNBOUND:                -5.101
REMARK SMILES CCCCCCCCCCCCCCCCCCCCCCCCCCCC(=O)[O-]
REMARK SMILES IDX 15 1 16 2 17 3 18 4 19 5 20 6 21 7 22 8 23 9 24 10 25 11
REMARK SMILES IDX 26 12 27 13 28 14 29 15 30 16 14 17 13 18 12 19 11 20 10 21
REMARK SMILES IDX 9 22 8 23 7 24 6 25 5 26 4 27 3 28 2 29 1 30
REMARK H PARENT
REMARK Flexibility Score: inf
ROOT
ATOM      1  C   UNL     1      -0.433  -3.675  -6.336  1.00  0.00     0.000 C 
ENDROOT
BRANCH   1   2
ATOM      2  C   UNL     1      -1.814  -3.870  -6.984  1.00  0.00     0.000 C 
BRANCH   2   3
ATOM      3  C   UNL     1      -1.957  -3.104  -8.309  1.00  0.00     0.000 C 
BRANCH   3   4
ATOM      4  C   UNL     1      -0.600  -2.708  -8.911  1.00  0.00     0.000 C 
BRANCH   4   5
ATOM      5  C   UNL     1      -0.504  -1.186  -9.095  1.00  0.00     0.000 C 
BRANCH   5   6
ATOM      6  C   UNL     1      -1.322  -0.396  -8.055  1.00  0.00     0.000 C 
BRANCH   6   7
ATOM      7  C   UNL     1      -2.244   0.693  -8.634  1.00  0.00     0.000 C 
BRANCH   7   8
ATOM      8  C   UNL     1      -2.958   0.258  -9.924  1.00  0.00     0.000 C 
BRANCH   8   9
ATOM      9  C   UNL     1      -4.472   0.038  -9.732  1.00  0.00     0.000 C 
BRANCH   9  10
ATOM     10  C   UNL     1      -4.892  -1.396  -9.362  1.00  0.00     0.000 C 
BRANCH  10  11
ATOM     11  C   UNL     1      -6.159  -1.448  -8.492  1.00  0.00     0.000 C 
BRANCH  11  12
ATOM     12  C   UNL     1      -7.111  -0.271  -8.761  1.00  0.00     0.006 C 
BRANCH  12  13
ATOM     13  C   UNL     1      -7.975   0.090  -7.545  1.00  0.00     0.053 C 
BRANCH  13  14
ATOM     14  C   UNL     1      -7.127   0.651  -6.446  1.00  0.00     0.041 C 
ATOM     15  O   UNL     1      -7.233   0.202  -5.275  1.00  0.00    -0.550 OA
ATOM     16  O   UNL     1      -6.209   1.656  -6.718  1.00  0.00    -0.550 OA
ENDBRANCH  13  14
ENDBRANCH  12  13
ENDBRANCH  11  12
ENDBRANCH  10  11
ENDBRANCH   9  10
ENDBRANCH   8   9
ENDBRANCH   7   8
ENDBRANCH   6   7
ENDBRANCH   5   6
ENDBRANCH   4   5
ENDBRANCH   3   4
ENDBRANCH   2   3
ENDBRANCH   1   2
BRANCH   1  17
ATOM     17  C   UNL     1       0.252  -5.007  -5.989  1.00  0.00     0.000 C 
BRANCH  17  18
ATOM     18  C   UNL     1       1.354  -5.391  -6.988  1.00  0.00     0.000 C 
BRANCH  18  19
ATOM     19  C   UNL     1       0.809  -6.325  -8.076  1.00  0.00     0.000 C 
BRANCH  19  20
ATOM     20  C   UNL     1      -0.264  -7.265  -7.508  1.00  0.00     0.000 C 
BRANCH  20  21
ATOM     21  C   UNL     1      -1.395  -7.556  -8.510  1.00  0.00     0.000 C 
BRANCH  21  22
ATOM     22  C   UNL     1      -1.505  -6.548  -9.668  1.00  0.00    -0.000 C 
BRANCH  22  23
ATOM     23  C   UNL     1      -2.963  -6.211 -10.028  1.00  0.00    -0.000 C 
BRANCH  23  24
ATOM     24  C   UNL     1      -3.909  -6.346  -8.825  1.00  0.00    -0.000 C 
BRANCH  24  25
ATOM     25  C   UNL     1      -4.915  -5.176  -8.688  1.00  0.00    -0.000 C 
BRANCH  25  26
ATOM     26  C   UNL     1      -6.232  -5.581  -8.004  1.00  0.00    -0.000 C 
BRANCH  26  27
ATOM     27  C   UNL     1      -6.202  -5.462  -6.469  1.00  0.00    -0.000 C 
BRANCH  27  28
ATOM     28  C   UNL     1      -5.755  -4.069  -5.968  1.00  0.00    -0.000 C 
BRANCH  28  29
ATOM     29  C   UNL     1      -6.926  -3.224  -5.443  1.00  0.00    -0.003 C 
ATOM     30  C   UNL     1      -8.217  -3.548  -6.188  1.00  0.00     0.004 C 
ENDBRANCH  28  29
ENDBRANCH  27  28
ENDBRANCH  26  27
ENDBRANCH  25  26
ENDBRANCH  24  25
ENDBRANCH  23  24
ENDBRANCH  22  23
ENDBRANCH  21  22
ENDBRANCH  20  21
ENDBRANCH  19  20
ENDBRANCH  18  19
ENDBRANCH  17  18
ENDBRANCH   1  17
TORSDOF 26
ENDMDL
MODEL 7
REMARK VINA RESULT:    -3.371     15.270     18.082
REMARK INTER + INTRA:         -13.595
REMARK INTER:                  -9.593
REMARK INTRA:                  -4.002
REMARK UNBOUND:                -5.101
REMARK SMILES CCCCCCCCCCCCCCCCCCCCCCCCCCCC(=O)[O-]
REMARK SMILES IDX 15 1 16 2 17 3 18 4 19 5 20 6 21 7 22 8 23 9 24 10 25 11
REMARK SMILES IDX 26 12 27 13 28 14 29 15 30 16 14 17 13 18 12 19 11 20 10 21
REMARK SMILES IDX 9 22 8 23 7 24 6 25 5 26 4 27 3 28 2 29 1 30
REMARK H PARENT
REMARK Flexibility Score: inf
ROOT
ATOM      1  C   UNL     1      -2.424  -3.953  -7.579  1.00  0.00     0.000 C 
ENDROOT
BRANCH   1   2
ATOM      2  C   UNL     1      -2.449  -4.029  -9.115  1.00  0.00     0.000 C 
BRANCH   2   3
ATOM      3  C   UNL     1      -3.810  -3.623  -9.703  1.00  0.00     0.000 C 
BRANCH   3   4
ATOM      4  C   UNL     1      -4.890  -3.444  -8.623  1.00  0.00     0.000 C 
BRANCH   4   5
ATOM      5  C   UNL     1      -5.906  -4.595  -8.667  1.00  0.00     0.000 C 
BRANCH   5   6
ATOM      6  C   UNL     1      -5.731  -5.604  -7.516  1.00  0.00     0.000 C 
BRANCH   6   7
ATOM      7  C   UNL     1      -5.566  -7.073  -7.947  1.00  0.00     0.000 C 
BRANCH   7   8
ATOM      8  C   UNL     1      -4.422  -7.282  -8.953  1.00  0.00     0.000 C 
BRANCH   8   9
ATOM      9  C   UNL     1      -3.793  -8.686  -8.869  1.00  0.00     0.000 C 
BRANCH   9  10
ATOM     10  C   UNL     1      -2.264  -8.739  -9.043  1.00  0.00     0.000 C 
BRANCH  10  11
ATOM     11  C   UNL     1      -1.587  -7.372  -8.851  1.00  0.00     0.000 C 
BRANCH  11  12
ATOM     12  C   UNL     1      -0.367  -7.441  -7.918  1.00  0.00     0.006 C 
BRANCH  12  13
ATOM     13  C   UNL     1       0.536  -6.205  -8.021  1.00  0.00     0.053 C 
BRANCH  13  14
ATOM     14  C   UNL     1       0.963  -5.752  -6.660  1.00  0.00     0.041 C 
ATOM     15  O   UNL     1       0.126  -5.690  -5.722  1.00  0.00    -0.550 OA
ATOM     16  O   UNL     1       2.290  -5.415  -6.422  1.00  0.00    -0.550 OA
ENDBRANCH  13  14
ENDBRANCH  12  13
ENDBRANCH  11  12
ENDBRANCH  10  11
ENDBRANCH   9  10
ENDBRANCH   8   9
ENDBRANCH   7   8
ENDBRANCH   6   7
ENDBRANCH   5   6
ENDBRANCH   4   5
ENDBRANCH   3   4
ENDBRANCH   2   3
ENDBRANCH   1   2
BRANCH   1  17
ATOM     17  C   UNL     1      -1.416  -2.917  -7.053  1.00  0.00     0.000 C 
BRANCH  17  18
ATOM     18  C   UNL     1      -0.456  -2.413  -8.140  1.00  0.00     0.000 C 
BRANCH  18  19
ATOM     19  C   UNL     1      -0.685  -0.924  -8.430  1.00  0.00     0.000 C 
BRANCH  19  20
ATOM     20  C   UNL     1      -1.143  -0.709  -9.880  1.00  0.00     0.000 C 
BRANCH  20  21
ATOM     21  C   UNL     1      -2.219   0.383 -10.011  1.00  0.00     0.000 C 
BRANCH  21  22
ATOM     22  C   UNL     1      -3.558   0.054  -9.326  1.00  0.00    -0.000 C 
BRANCH  22  23
ATOM     23  C   UNL     1      -4.212   1.285  -8.674  1.00  0.00    -0.000 C 
BRANCH  23  24
ATOM     24  C   UNL     1      -5.694   1.052  -8.342  1.00  0.00    -0.000 C 
BRANCH  24  25
ATOM     25  C   UNL     1      -6.155   1.738  -7.032  1.00  0.00    -0.000 C 
BRANCH  25  26
ATOM     26  C   UNL     1      -7.512   1.226  -6.520  1.00  0.00    -0.000 C 
BRANCH  26  27
ATOM     27  C   UNL     1      -7.406   0.251  -5.333  1.00  0.00    -0.000 C 
BRANCH  27  28
ATOM     28  C   UNL     1      -8.201  -1.059  -5.540  1.00  0.00    -0.000 C 
BRANCH  28  29
ATOM     29  C   UNL     1      -7.306  -2.238  -5.952  1.00  0.00    -0.003 C 
ATOM     30  C   UNL     1      -7.939  -3.571  -5.566  1.00  0.00     0.004 C 
ENDBRANCH  28  29
ENDBRANCH  27  28
ENDBRANCH  26  27
ENDBRANCH  25  26
ENDBRANCH  24  25
ENDBRANCH  23  24
ENDBRANCH  22  23
ENDBRANCH  21  22
ENDBRANCH  20  21
ENDBRANCH  19  20
ENDBRANCH  18  19
ENDBRANCH  17  18
ENDBRANCH   1  17
TORSDOF 26
ENDMDL
MODEL 8
REMARK VINA RESULT:    -3.322      3.037      4.110
REMARK INTER + INTRA:         -13.472
REMARK INTER:                  -8.906
REMARK INTRA:                  -4.566
REMARK UNBOUND:                -5.101
REMARK SMILES CCCCCCCCCCCCCCCCCCCCCCCCCCCC(=O)[O-]
REMARK SMILES IDX 15 1 16 2 17 3 18 4 19 5 20 6 21 7 22 8 23 9 24 10 25 11
REMARK SMILES IDX 26 12 27 13 28 14 29 15 30 16 14 17 13 18 12 19 11 20 10 21
REMARK SMILES IDX 9 22 8 23 7 24 6 25 5 26 4 27 3 28 2 29 1 30
REMARK H PARENT
REMARK Flexibility Score: inf
ROOT
ATOM      1  C   UNL     1       7.206   8.026  -2.644  1.00  0.00     0.000 C 
ENDROOT
BRANCH   1   2
ATOM      2  C   UNL     1       7.310   7.032  -1.475  1.00  0.00     0.000 C 
BRANCH   2   3
ATOM      3  C   UNL     1       7.289   5.568  -1.942  1.00  0.00     0.000 C 
BRANCH   3   4
ATOM      4  C   UNL     1       7.925   4.613  -0.920  1.00  0.00     0.000 C 
BRANCH   4   5
ATOM      5  C   UNL     1       9.188   3.954  -1.497  1.00  0.00     0.000 C 
BRANCH   5   6
ATOM      6  C   UNL     1      10.493   4.552  -0.937  1.00  0.00     0.000 C 
BRANCH   6   7
ATOM      7  C   UNL     1      10.313   5.580   0.195  1.00  0.00     0.000 C 
BRANCH   7   8
ATOM      8  C   UNL     1      11.047   6.905  -0.070  1.00  0.00     0.000 C 
BRANCH   8   9
ATOM      9  C   UNL     1      10.216   8.143   0.319  1.00  0.00     0.000 C 
BRANCH   9  10
ATOM     10  C   UNL     1       9.091   7.893   1.340  1.00  0.00     0.000 C 
BRANCH  10  11
ATOM     11  C   UNL     1       9.202   8.782   2.590  1.00  0.00     0.000 C 
BRANCH  11  12
ATOM     12  C   UNL     1       9.529   7.979   3.860  1.00  0.00     0.006 C 
BRANCH  12  13
ATOM     13  C   UNL     1       9.550   6.463   3.620  1.00  0.00     0.053 C 
BRANCH  13  14
ATOM     14  C   UNL     1       9.201   5.727   4.875  1.00  0.00     0.041 C 
ATOM     15  O   UNL     1       9.559   6.181   5.994  1.00  0.00    -0.550 OA
ATOM     16  O   UNL     1       8.466   4.550   4.812  1.00  0.00    -0.550 OA
ENDBRANCH  13  14
ENDBRANCH  12  13
ENDBRANCH  11  12
ENDBRANCH  10  11
ENDBRANCH   9  10
ENDBRANCH   8   9
ENDBRANCH   7   8
ENDBRANCH   6   7
ENDBRANCH   5   6
ENDBRANCH   4   5
ENDBRANCH   3   4
ENDBRANCH   2   3
ENDBRANCH   1   2
BRANCH   1  17
ATOM     17  C   UNL     1       8.545   8.714  -2.959  1.00  0.00     0.000 C 
BRANCH  17  18
ATOM     18  C   UNL     1       8.891   8.691  -4.455  1.00  0.00     0.000 C 
BRANCH  18  19
ATOM     19  C   UNL     1      10.188   7.912  -4.708  1.00  0.00     0.000 C 
BRANCH  19  20
ATOM     20  C   UNL     1      10.128   6.518  -4.067  1.00  0.00     0.000 C 
BRANCH  20  21
ATOM     21  C   UNL     1       9.616   5.437  -5.035  1.00  0.00     0.000 C 
BRANCH  21  22
ATOM     22  C   UNL     1       8.092   5.427  -5.245  1.00  0.00    -0.000 C 
BRANCH  22  23
ATOM     23  C   UNL     1       7.692   5.570  -6.724  1.00  0.00    -0.000 C 
BRANCH  23  24
ATOM     24  C   UNL     1       8.546   4.688  -7.648  1.00  0.00    -0.000 C 
BRANCH  24  25
ATOM     25  C   UNL     1       9.027   5.412  -8.931  1.00  0.00    -0.000 C 
BRANCH  25  26
ATOM     26  C   UNL     1      10.333   6.200  -8.733  1.00  0.00    -0.000 C 
BRANCH  26  27
ATOM     27  C   UNL     1      10.208   7.704  -9.033  1.00  0.00    -0.000 C 
BRANCH  27  28
ATOM     28  C   UNL     1       8.747   8.176  -9.214  1.00  0.00    -0.000 C 
BRANCH  28  29
ATOM     29  C   UNL     1       8.257   9.053  -8.051  1.00  0.00    -0.003 C 
ATOM     30  C   UNL     1       9.287  10.120  -7.695  1.00  0.00     0.004 C 
ENDBRANCH  28  29
ENDBRANCH  27  28
ENDBRANCH  26  27
ENDBRANCH  25  26
ENDBRANCH  24  25
ENDBRANCH  23  24
ENDBRANCH  22  23
ENDBRANCH  21  22
ENDBRANCH  20  21
ENDBRANCH  19  20
ENDBRANCH  18  19
ENDBRANCH  17  18
ENDBRANCH   1  17
TORSDOF 26
ENDMDL
MODEL 9
REMARK VINA RESULT:    -3.318     15.868     18.405
REMARK INTER + INTRA:         -13.463
REMARK INTER:                  -9.348
REMARK INTRA:                  -4.115
REMARK UNBOUND:                -5.101
REMARK SMILES CCCCCCCCCCCCCCCCCCCCCCCCCCCC(=O)[O-]
REMARK SMILES IDX 15 1 16 2 17 3 18 4 19 5 20 6 21 7 22 8 23 9 24 10 25 11
REMARK SMILES IDX 26 12 27 13 28 14 29 15 30 16 14 17 13 18 12 19 11 20 10 21
REMARK SMILES IDX 9 22 8 23 7 24 6 25 5 26 4 27 3 28 2 29 1 30
REMARK H PARENT
REMARK Flexibility Score: inf
ROOT
ATOM      1  C   UNL     1       1.740  -4.656  -8.279  1.00  0.00     0.000 C 
ENDROOT
BRANCH   1   2
ATOM      2  C   UNL     1       1.797  -5.173  -6.831  1.00  0.00     0.000 C 
BRANCH   2   3
ATOM      3  C   UNL     1       0.577  -4.741  -6.003  1.00  0.00     0.000 C 
BRANCH   3   4
ATOM      4  C   UNL     1      -0.738  -4.836  -6.794  1.00  0.00     0.000 C 
BRANCH   4   5
ATOM      5  C   UNL     1      -1.382  -3.451  -6.956  1.00  0.00     0.000 C 
BRANCH   5   6
ATOM      6  C   UNL     1      -2.038  -3.245  -8.335  1.00  0.00     0.000 C 
BRANCH   6   7
ATOM      7  C   UNL     1      -2.052  -1.792  -8.845  1.00  0.00     0.000 C 
BRANCH   7   8
ATOM      8  C   UNL     1      -3.386  -1.394  -9.498  1.00  0.00     0.000 C 
BRANCH   8   9
ATOM      9  C   UNL     1      -4.382  -2.565  -9.598  1.00  0.00     0.000 C 
BRANCH   9  10
ATOM     10  C   UNL     1      -5.767  -2.313  -8.973  1.00  0.00     0.000 C 
BRANCH  10  11
ATOM     11  C   UNL     1      -5.933  -2.963  -7.589  1.00  0.00     0.000 C 
BRANCH  11  12
ATOM     12  C   UNL     1      -7.311  -2.685  -6.967  1.00  0.00     0.006 C 
BRANCH  12  13
ATOM     13  C   UNL     1      -7.221  -2.111  -5.546  1.00  0.00     0.053 C 
BRANCH  13  14
ATOM     14  C   UNL     1      -7.506  -0.642  -5.554  1.00  0.00     0.041 C 
ATOM     15  O   UNL     1      -7.424   0.012  -6.627  1.00  0.00    -0.550 OA
ATOM     16  O   UNL     1      -7.881   0.002  -4.382  1.00  0.00    -0.550 OA
ENDBRANCH  13  14
ENDBRANCH  12  13
ENDBRANCH  11  12
ENDBRANCH  10  11
ENDBRANCH   9  10
ENDBRANCH   8   9
ENDBRANCH   7   8
ENDBRANCH   6   7
ENDBRANCH   5   6
ENDBRANCH   4   5
ENDBRANCH   3   4
ENDBRANCH   2   3
ENDBRANCH   1   2
BRANCH   1  17
ATOM     17  C   UNL     1       1.969  -5.769  -9.315  1.00  0.00     0.000 C 
BRANCH  17  18
ATOM     18  C   UNL     1       0.662  -6.284  -9.937  1.00  0.00     0.000 C 
BRANCH  18  19
ATOM     19  C   UNL     1       0.451  -7.770  -9.623  1.00  0.00     0.000 C 
BRANCH  19  20
ATOM     20  C   UNL     1      -0.564  -7.953  -8.483  1.00  0.00     0.000 C 
BRANCH  20  21
ATOM     21  C   UNL     1      -1.698  -8.928  -8.844  1.00  0.00     0.000 C 
BRANCH  21  22
ATOM     22  C   UNL     1      -3.087  -8.280  -8.982  1.00  0.00    -0.000 C 
BRANCH  22  23
ATOM     23  C   UNL     1      -3.025  -6.743  -9.033  1.00  0.00    -0.000 C 
BRANCH  23  24
ATOM     24  C   UNL     1      -4.256  -6.087  -8.388  1.00  0.00    -0.000 C 
BRANCH  24  25
ATOM     25  C   UNL     1      -5.582  -6.382  -9.133  1.00  0.00    -0.000 C 
BRANCH  25  26
ATOM     26  C   UNL     1      -6.794  -6.504  -8.194  1.00  0.00    -0.000 C 
BRANCH  26  27
ATOM     27  C   UNL     1      -6.452  -7.061  -6.800  1.00  0.00    -0.000 C 
BRANCH  27  28
ATOM     28  C   UNL     1      -6.807  -6.095  -5.647  1.00  0.00    -0.000 C 
BRANCH  28  29
ATOM     29  C   UNL     1      -7.241  -6.829  -4.369  1.00  0.00    -0.003 C 
ATOM     30  C   UNL     1      -7.017  -8.333  -4.495  1.00  0.00     0.004 C 
ENDBRANCH  28  29
ENDBRANCH  27  28
ENDBRANCH  26  27
ENDBRANCH  25  26
ENDBRANCH  24  25
ENDBRANCH  23  24
ENDBRANCH  22  23
ENDBRANCH  21  22
ENDBRANCH  20  21
ENDBRANCH  19  20
ENDBRANCH  18  19
ENDBRANCH  17  18
ENDBRANCH   1  17
TORSDOF 26
ENDMDL
