MODEL 1
REMARK VINA RESULT:    -5.134      0.000      0.000
REMARK INTER + INTRA:         -16.490
REMARK INTER:                 -12.938
REMARK INTRA:                  -3.551
REMARK UNBOUND:                -3.551
REMARK SMILES CCCCCCCCCCCCCCCCCCCCCCCCCCCC(=O)[O-]
REMARK SMILES IDX 15 1 16 2 17 3 18 4 19 5 20 6 21 7 22 8 23 9 24 10 25 11
REMARK SMILES IDX 26 12 27 13 28 14 29 15 30 16 14 17 13 18 12 19 11 20 10 21
REMARK SMILES IDX 9 22 8 23 7 24 6 25 5 26 4 27 3 28 2 29 1 30
REMARK H PARENT
REMARK Flexibility Score: inf
ROOT
ATOM      1  C   UNL     1     162.518 166.874 156.107  1.00  0.00     0.000 C 
ENDROOT
BRANCH   1   2
ATOM      2  C   UNL     1     161.080 166.359 156.296  1.00  0.00     0.000 C 
BRANCH   2   3
ATOM      3  C   UNL     1     160.286 166.158 154.993  1.00  0.00     0.000 C 
BRANCH   3   4
ATOM      4  C   UNL     1     160.804 167.032 153.836  1.00  0.00     0.000 C 
BRANCH   4   5
ATOM      5  C   UNL     1     161.242 166.203 152.619  1.00  0.00     0.000 C 
BRANCH   5   6
ATOM      6  C   UNL     1     162.664 166.552 152.143  1.00  0.00     0.000 C 
BRANCH   6   7
ATOM      7  C   UNL     1     163.148 167.906 152.687  1.00  0.00     0.000 C 
BRANCH   7   8
ATOM      8  C   UNL     1     164.632 167.880 153.095  1.00  0.00     0.000 C 
BRANCH   8   9
ATOM      9  C   UNL     1     165.318 169.250 152.957  1.00  0.00     0.000 C 
BRANCH   9  10
ATOM     10  C   UNL     1     164.620 170.233 151.999  1.00  0.00     0.000 C 
BRANCH  10  11
ATOM     11  C   UNL     1     165.598 171.210 151.323  1.00  0.00     0.000 C 
BRANCH  11  12
ATOM     12  C   UNL     1     166.772 170.484 150.644  1.00  0.00     0.006 C 
BRANCH  12  13
ATOM     13  C   UNL     1     166.302 169.513 149.552  1.00  0.00     0.053 C 
BRANCH  13  14
ATOM     14  C   UNL     1     166.459 170.130 148.197  1.00  0.00     0.041 C 
ATOM     15  O   UNL     1     166.199 169.460 147.162  1.00  0.00    -0.550 OA
ATOM     16  O   UNL     1     166.860 171.455 148.077  1.00  0.00    -0.550 OA
ENDBRANCH  13  14
ENDBRANCH  12  13
ENDBRANCH  11  12
ENDBRANCH  10  11
ENDBRANCH   9  10
ENDBRANCH   8   9
ENDBRANCH   7   8
ENDBRANCH   6   7
ENDBRANCH   5   6
ENDBRANCH   4   5
ENDBRANCH   3   4
ENDBRANCH   2   3
ENDBRANCH   1   2
BRANCH   1  17
ATOM     17  C   UNL     1     163.200 167.243 157.436  1.00  0.00     0.000 C 
BRANCH  17  18
ATOM     18  C   UNL     1     163.241 166.074 158.439  1.00  0.00     0.000 C 
BRANCH  18  19
ATOM     19  C   UNL     1     163.145 166.478 159.922  1.00  0.00     0.000 C 
BRANCH  19  20
ATOM     20  C   UNL     1     162.652 167.923 160.117  1.00  0.00     0.000 C 
BRANCH  20  21
ATOM     21  C   UNL     1     161.245 167.991 160.740  1.00  0.00     0.000 C 
BRANCH  21  22
ATOM     22  C   UNL     1     160.097 167.596 159.780  1.00  0.00    -0.000 C 
BRANCH  22  23
ATOM     23  C   UNL     1     159.136 166.539 160.351  1.00  0.00    -0.000 C 
BRANCH  23  24
ATOM     24  C   UNL     1     159.731 165.777 161.555  1.00  0.00    -0.000 C 
BRANCH  24  25
ATOM     25  C   UNL     1     160.258 164.380 161.174  1.00  0.00    -0.000 C 
BRANCH  25  26
ATOM     26  C   UNL     1     159.774 163.885 159.793  1.00  0.00    -0.000 C 
BRANCH  26  27
ATOM     27  C   UNL     1     160.895 163.378 158.864  1.00  0.00    -0.000 C 
BRANCH  27  28
ATOM     28  C   UNL     1     161.931 162.515 159.597  1.00  0.00    -0.000 C 
BRANCH  28  29
ATOM     29  C   UNL     1     162.750 161.682 158.604  1.00  0.00    -0.003 C 
ATOM     30  C   UNL     1     164.031 162.408 158.200  1.00  0.00     0.004 C 
ENDBRANCH  28  29
ENDBRANCH  27  28
ENDBRANCH  26  27
ENDBRANCH  25  26
ENDBRANCH  24  25
ENDBRANCH  23  24
ENDBRANCH  22  23
ENDBRANCH  21  22
ENDBRANCH  20  21
ENDBRANCH  19  20
ENDBRANCH  18  19
ENDBRANCH  17  18
ENDBRANCH   1  17
TORSDOF 26
ENDMDL
MODEL 2
REMARK VINA RESULT:    -5.110      3.650     10.167
REMARK INTER + INTRA:         -16.428
REMARK INTER:                 -12.787
REMARK INTRA:                  -3.640
REMARK UNBOUND:                -3.551
REMARK SMILES CCCCCCCCCCCCCCCCCCCCCCCCCCCC(=O)[O-]
REMARK SMILES IDX 15 1 16 2 17 3 18 4 19 5 20 6 21 7 22 8 23 9 24 10 25 11
REMARK SMILES IDX 26 12 27 13 28 14 29 15 30 16 14 17 13 18 12 19 11 20 10 21
REMARK SMILES IDX 9 22 8 23 7 24 6 25 5 26 4 27 3 28 2 29 1 30
REMARK H PARENT
REMARK Flexibility Score: inf
ROOT
ATOM      1  C   UNL     1     161.795 166.584 155.824  1.00  0.00     0.000 C 
ENDROOT
BRANCH   1   2
ATOM      2  C   UNL     1     161.527 166.639 157.337  1.00  0.00     0.000 C 
BRANCH   2   3
ATOM      3  C   UNL     1     162.761 166.946 158.205  1.00  0.00     0.000 C 
BRANCH   3   4
ATOM      4  C   UNL     1     162.413 167.149 159.691  1.00  0.00     0.000 C 
BRANCH   4   5
ATOM      5  C   UNL     1     162.341 165.826 160.468  1.00  0.00     0.000 C 
BRANCH   5   6
ATOM      6  C   UNL     1     161.138 165.765 161.427  1.00  0.00     0.000 C 
BRANCH   6   7
ATOM      7  C   UNL     1     160.012 166.728 161.018  1.00  0.00     0.000 C 
BRANCH   7   8
ATOM      8  C   UNL     1     158.773 165.990 160.479  1.00  0.00     0.000 C 
BRANCH   8   9
ATOM      9  C   UNL     1     158.811 164.475 160.747  1.00  0.00     0.000 C 
BRANCH   9  10
ATOM     10  C   UNL     1     158.595 163.591 159.505  1.00  0.00     0.000 C 
BRANCH  10  11
ATOM     11  C   UNL     1     159.603 163.879 158.378  1.00  0.00     0.000 C 
BRANCH  11  12
ATOM     12  C   UNL     1     160.439 162.642 158.013  1.00  0.00     0.006 C 
BRANCH  12  13
ATOM     13  C   UNL     1     161.517 162.337 159.063  1.00  0.00     0.053 C 
BRANCH  13  14
ATOM     14  C   UNL     1     162.875 162.327 158.434  1.00  0.00     0.041 C 
ATOM     15  O   UNL     1     163.595 161.295 158.497  1.00  0.00    -0.550 OA
ATOM     16  O   UNL     1     163.333 163.447 157.750  1.00  0.00    -0.550 OA
ENDBRANCH  13  14
ENDBRANCH  12  13
ENDBRANCH  11  12
ENDBRANCH  10  11
ENDBRANCH   9  10
ENDBRANCH   8   9
ENDBRANCH   7   8
ENDBRANCH   6   7
ENDBRANCH   5   6
ENDBRANCH   4   5
ENDBRANCH   3   4
ENDBRANCH   2   3
ENDBRANCH   1   2
BRANCH   1  17
ATOM     17  C   UNL     1     160.503 166.553 154.988  1.00  0.00     0.000 C 
BRANCH  17  18
ATOM     18  C   UNL     1     160.763 166.365 153.481  1.00  0.00     0.000 C 
BRANCH  18  19
ATOM     19  C   UNL     1     160.684 167.650 152.637  1.00  0.00     0.000 C 
BRANCH  19  20
ATOM     20  C   UNL     1     162.067 168.250 152.330  1.00  0.00     0.000 C 
BRANCH  20  21
ATOM     21  C   UNL     1     163.214 167.249 152.564  1.00  0.00     0.000 C 
BRANCH  21  22
ATOM     22  C   UNL     1     164.498 167.870 153.164  1.00  0.00    -0.000 C 
BRANCH  22  23
ATOM     23  C   UNL     1     165.803 167.286 152.595  1.00  0.00    -0.000 C 
BRANCH  23  24
ATOM     24  C   UNL     1     165.569 166.379 151.368  1.00  0.00    -0.000 C 
BRANCH  24  25
ATOM     25  C   UNL     1     165.999 167.044 150.046  1.00  0.00    -0.000 C 
BRANCH  25  26
ATOM     26  C   UNL     1     166.896 168.287 150.234  1.00  0.00    -0.000 C 
BRANCH  26  27
ATOM     27  C   UNL     1     166.319 169.591 149.648  1.00  0.00    -0.000 C 
BRANCH  27  28
ATOM     28  C   UNL     1     166.385 170.767 150.633  1.00  0.00    -0.000 C 
BRANCH  28  29
ATOM     29  C   UNL     1     165.037 170.966 151.336  1.00  0.00    -0.003 C 
ATOM     30  C   UNL     1     165.231 171.408 152.785  1.00  0.00     0.004 C 
ENDBRANCH  28  29
ENDBRANCH  27  28
ENDBRANCH  26  27
ENDBRANCH  25  26
ENDBRANCH  24  25
ENDBRANCH  23  24
ENDBRANCH  22  23
ENDBRANCH  21  22
ENDBRANCH  20  21
ENDBRANCH  19  20
ENDBRANCH  18  19
ENDBRANCH  17  18
ENDBRANCH   1  17
TORSDOF 26
ENDMDL
MODEL 3
REMARK VINA RESULT:    -5.105      5.028     10.231
REMARK INTER + INTRA:         -16.415
REMARK INTER:                 -12.643
REMARK INTRA:                  -3.773
REMARK UNBOUND:                -3.551
REMARK SMILES CCCCCCCCCCCCCCCCCCCCCCCCCCCC(=O)[O-]
REMARK SMILES IDX 15 1 16 2 17 3 18 4 19 5 20 6 21 7 22 8 23 9 24 10 25 11
REMARK SMILES IDX 26 12 27 13 28 14 29 15 30 16 14 17 13 18 12 19 11 20 10 21
REMARK SMILES IDX 9 22 8 23 7 24 6 25 5 26 4 27 3 28 2 29 1 30
REMARK H PARENT
REMARK Flexibility Score: inf
ROOT
ATOM      1  C   UNL     1     164.389 165.138 158.259  1.00  0.00     0.000 C 
ENDROOT
BRANCH   1   2
ATOM      2  C   UNL     1     163.685 163.815 157.911  1.00  0.00     0.000 C 
BRANCH   2   3
ATOM      3  C   UNL     1     162.623 163.358 158.928  1.00  0.00     0.000 C 
BRANCH   3   4
ATOM      4  C   UNL     1     161.948 162.032 158.532  1.00  0.00     0.000 C 
BRANCH   4   5
ATOM      5  C   UNL     1     160.418 162.088 158.654  1.00  0.00     0.000 C 
BRANCH   5   6
ATOM      6  C   UNL     1     159.906 163.476 159.079  1.00  0.00     0.000 C 
BRANCH   6   7
ATOM      7  C   UNL     1     158.375 163.526 159.197  1.00  0.00     0.000 C 
BRANCH   7   8
ATOM      8  C   UNL     1     157.903 164.369 160.396  1.00  0.00     0.000 C 
BRANCH   8   9
ATOM      9  C   UNL     1     158.579 165.749 160.465  1.00  0.00     0.000 C 
BRANCH   9  10
ATOM     10  C   UNL     1     159.230 166.086 161.818  1.00  0.00     0.000 C 
BRANCH  10  11
ATOM     11  C   UNL     1     160.698 166.531 161.685  1.00  0.00     0.000 C 
BRANCH  11  12
ATOM     12  C   UNL     1     161.682 165.372 161.913  1.00  0.00     0.006 C 
BRANCH  12  13
ATOM     13  C   UNL     1     160.993 164.129 162.495  1.00  0.00     0.053 C 
BRANCH  13  14
ATOM     14  C   UNL     1     161.444 163.888 163.901  1.00  0.00     0.041 C 
ATOM     15  O   UNL     1     162.604 163.454 164.128  1.00  0.00    -0.550 OA
ATOM     16  O   UNL     1     160.596 164.176 164.963  1.00  0.00    -0.550 OA
ENDBRANCH  13  14
ENDBRANCH  12  13
ENDBRANCH  11  12
ENDBRANCH  10  11
ENDBRANCH   9  10
ENDBRANCH   8   9
ENDBRANCH   7   8
ENDBRANCH   6   7
ENDBRANCH   5   6
ENDBRANCH   4   5
ENDBRANCH   3   4
ENDBRANCH   2   3
ENDBRANCH   1   2
BRANCH   1  17
ATOM     17  C   UNL     1     163.529 166.059 159.143  1.00  0.00     0.000 C 
BRANCH  17  18
ATOM     18  C   UNL     1     162.736 167.104 158.333  1.00  0.00     0.000 C 
BRANCH  18  19
ATOM     19  C   UNL     1     161.258 166.754 158.082  1.00  0.00     0.000 C 
BRANCH  19  20
ATOM     20  C   UNL     1     161.043 165.964 156.780  1.00  0.00     0.000 C 
BRANCH  20  21
ATOM     21  C   UNL     1     161.580 166.703 155.540  1.00  0.00     0.000 C 
BRANCH  21  22
ATOM     22  C   UNL     1     160.692 166.576 154.280  1.00  0.00    -0.000 C 
BRANCH  22  23
ATOM     23  C   UNL     1     161.277 167.252 153.027  1.00  0.00    -0.000 C 
BRANCH  23  24
ATOM     24  C   UNL     1     162.160 166.302 152.190  1.00  0.00    -0.000 C 
BRANCH  24  25
ATOM     25  C   UNL     1     163.559 166.881 151.910  1.00  0.00    -0.000 C 
BRANCH  25  26
ATOM     26  C   UNL     1     164.177 167.633 153.110  1.00  0.00    -0.000 C 
BRANCH  26  27
ATOM     27  C   UNL     1     165.256 168.667 152.733  1.00  0.00    -0.000 C 
BRANCH  27  28
ATOM     28  C   UNL     1     164.742 170.112 152.788  1.00  0.00    -0.000 C 
BRANCH  28  29
ATOM     29  C   UNL     1     164.860 170.786 151.416  1.00  0.00    -0.003 C 
ATOM     30  C   UNL     1     166.087 170.284 150.659  1.00  0.00     0.004 C 
ENDBRANCH  28  29
ENDBRANCH  27  28
ENDBRANCH  26  27
ENDBRANCH  25  26
ENDBRANCH  24  25
ENDBRANCH  23  24
ENDBRANCH  22  23
ENDBRANCH  21  22
ENDBRANCH  20  21
ENDBRANCH  19  20
ENDBRANCH  18  19
ENDBRANCH  17  18
ENDBRANCH   1  17
TORSDOF 26
ENDMDL
MODEL 4
REMARK VINA RESULT:    -5.018      3.829     10.256
REMARK INTER + INTRA:         -16.196
REMARK INTER:                 -12.598
REMARK INTRA:                  -3.597
REMARK UNBOUND:                -3.551
REMARK SMILES CCCCCCCCCCCCCCCCCCCCCCCCCCCC(=O)[O-]
REMARK SMILES IDX 15 1 16 2 17 3 18 4 19 5 20 6 21 7 22 8 23 9 24 10 25 11
REMARK SMILES IDX 26 12 27 13 28 14 29 15 30 16 14 17 13 18 12 19 11 20 10 21
REMARK SMILES IDX 9 22 8 23 7 24 6 25 5 26 4 27 3 28 2 29 1 30
REMARK H PARENT
REMARK Flexibility Score: inf
ROOT
ATOM      1  C   UNL     1     160.761 166.504 154.514  1.00  0.00     0.000 C 
ENDROOT
BRANCH   1   2
ATOM      2  C   UNL     1     161.725 166.673 155.701  1.00  0.00     0.000 C 
BRANCH   2   3
ATOM      3  C   UNL     1     161.250 166.036 157.020  1.00  0.00     0.000 C 
BRANCH   3   4
ATOM      4  C   UNL     1     161.768 166.779 158.265  1.00  0.00     0.000 C 
BRANCH   4   5
ATOM      5  C   UNL     1     162.456 165.843 159.270  1.00  0.00     0.000 C 
BRANCH   5   6
ATOM      6  C   UNL     1     161.628 165.637 160.552  1.00  0.00     0.000 C 
BRANCH   6   7
ATOM      7  C   UNL     1     160.424 166.588 160.631  1.00  0.00     0.000 C 
BRANCH   7   8
ATOM      8  C   UNL     1     159.080 165.849 160.505  1.00  0.00     0.000 C 
BRANCH   8   9
ATOM      9  C   UNL     1     159.234 164.319 160.484  1.00  0.00     0.000 C 
BRANCH   9  10
ATOM     10  C   UNL     1     158.613 163.620 159.261  1.00  0.00     0.000 C 
BRANCH  10  11
ATOM     11  C   UNL     1     159.385 162.360 158.831  1.00  0.00     0.000 C 
BRANCH  11  12
ATOM     12  C   UNL     1     160.821 162.680 158.383  1.00  0.00     0.006 C 
BRANCH  12  13
ATOM     13  C   UNL     1     161.873 162.077 159.324  1.00  0.00     0.053 C 
BRANCH  13  14
ATOM     14  C   UNL     1     163.135 161.774 158.577  1.00  0.00     0.041 C 
ATOM     15  O   UNL     1     163.495 160.580 158.401  1.00  0.00    -0.550 OA
ATOM     16  O   UNL     1     163.894 162.810 158.045  1.00  0.00    -0.550 OA
ENDBRANCH  13  14
ENDBRANCH  12  13
ENDBRANCH  11  12
ENDBRANCH  10  11
ENDBRANCH   9  10
ENDBRANCH   8   9
ENDBRANCH   7   8
ENDBRANCH   6   7
ENDBRANCH   5   6
ENDBRANCH   4   5
ENDBRANCH   3   4
ENDBRANCH   2   3
ENDBRANCH   1   2
BRANCH   1  17
ATOM     17  C   UNL     1     161.480 166.506 153.154  1.00  0.00     0.000 C 
BRANCH  17  18
ATOM     18  C   UNL     1     162.274 167.802 152.894  1.00  0.00     0.000 C 
BRANCH  18  19
ATOM     19  C   UNL     1     163.800 167.628 152.799  1.00  0.00     0.000 C 
BRANCH  19  20
ATOM     20  C   UNL     1     164.216 166.487 151.855  1.00  0.00     0.000 C 
BRANCH  20  21
ATOM     21  C   UNL     1     165.710 166.133 151.971  1.00  0.00     0.000 C 
BRANCH  21  22
ATOM     22  C   UNL     1     166.665 167.145 151.293  1.00  0.00    -0.000 C 
BRANCH  22  23
ATOM     23  C   UNL     1     166.321 167.445 149.823  1.00  0.00    -0.000 C 
BRANCH  23  24
ATOM     24  C   UNL     1     166.270 168.957 149.517  1.00  0.00    -0.000 C 
BRANCH  24  25
ATOM     25  C   UNL     1     166.444 169.826 150.777  1.00  0.00    -0.000 C 
BRANCH  25  26
ATOM     26  C   UNL     1     165.209 170.689 151.118  1.00  0.00    -0.000 C 
BRANCH  26  27
ATOM     27  C   UNL     1     165.051 171.023 152.614  1.00  0.00    -0.000 C 
BRANCH  27  28
ATOM     28  C   UNL     1     166.392 171.057 153.361  1.00  0.00    -0.000 C 
BRANCH  28  29
ATOM     29  C   UNL     1     166.517 169.861 154.312  1.00  0.00    -0.003 C 
ATOM     30  C   UNL     1     167.842 169.130 154.108  1.00  0.00     0.004 C 
ENDBRANCH  28  29
ENDBRANCH  27  28
ENDBRANCH  26  27
ENDBRANCH  25  26
ENDBRANCH  24  25
ENDBRANCH  23  24
ENDBRANCH  22  23
ENDBRANCH  21  22
ENDBRANCH  20  21
ENDBRANCH  19  20
ENDBRANCH  18  19
ENDBRANCH  17  18
ENDBRANCH   1  17
TORSDOF 26
ENDMDL
MODEL 5
REMARK VINA RESULT:    -5.011      1.821      2.373
REMARK INTER + INTRA:         -16.178
REMARK INTER:                 -12.698
REMARK INTRA:                  -3.480
REMARK UNBOUND:                -3.551
REMARK SMILES CCCCCCCCCCCCCCCCCCCCCCCCCCCC(=O)[O-]
REMARK SMILES IDX 15 1 16 2 17 3 18 4 19 5 20 6 21 7 22 8 23 9 24 10 25 11
REMARK SMILES IDX 26 12 27 13 28 14 29 15 30 16 14 17 13 18 12 19 11 20 10 21
REMARK SMILES IDX 9 22 8 23 7 24 6 25 5 26 4 27 3 28 2 29 1 30
REMARK H PARENT
REMARK Flexibility Score: inf
ROOT
ATOM      1  C   UNL     1     162.741 166.873 156.120  1.00  0.00     0.000 C 
ENDROOT
BRANCH   1   2
ATOM      2  C   UNL     1     161.268 166.473 156.305  1.00  0.00     0.000 C 
BRANCH   2   3
ATOM      3  C   UNL     1     160.441 166.418 155.007  1.00  0.00     0.000 C 
BRANCH   3   4
ATOM      4  C   UNL     1     161.157 167.075 153.813  1.00  0.00     0.000 C 
BRANCH   4   5
ATOM      5  C   UNL     1     161.249 166.146 152.594  1.00  0.00     0.000 C 
BRANCH   5   6
ATOM      6  C   UNL     1     162.623 166.209 151.901  1.00  0.00     0.000 C 
BRANCH   6   7
ATOM      7  C   UNL     1     163.519 167.316 152.476  1.00  0.00     0.000 C 
BRANCH   7   8
ATOM      8  C   UNL     1     165.002 166.908 152.526  1.00  0.00     0.000 C 
BRANCH   8   9
ATOM      9  C   UNL     1     165.961 168.107 152.432  1.00  0.00     0.000 C 
BRANCH   9  10
ATOM     10  C   UNL     1     165.469 169.264 151.544  1.00  0.00     0.000 C 
BRANCH  10  11
ATOM     11  C   UNL     1     166.529 170.362 151.344  1.00  0.00     0.000 C 
BRANCH  11  12
ATOM     12  C   UNL     1     165.948 171.774 151.531  1.00  0.00     0.006 C 
BRANCH  12  13
ATOM     13  C   UNL     1     165.630 172.082 153.001  1.00  0.00     0.053 C 
BRANCH  13  14
ATOM     14  C   UNL     1     166.690 172.956 153.596  1.00  0.00     0.041 C 
ATOM     15  O   UNL     1     166.617 173.305 154.804  1.00  0.00    -0.550 OA
ATOM     16  O   UNL     1     167.776 173.355 152.827  1.00  0.00    -0.550 OA
ENDBRANCH  13  14
ENDBRANCH  12  13
ENDBRANCH  11  12
ENDBRANCH  10  11
ENDBRANCH   9  10
ENDBRANCH   8   9
ENDBRANCH   7   8
ENDBRANCH   6   7
ENDBRANCH   5   6
ENDBRANCH   4   5
ENDBRANCH   3   4
ENDBRANCH   2   3
ENDBRANCH   1   2
BRANCH   1  17
ATOM     17  C   UNL     1     163.472 167.101 157.455  1.00  0.00     0.000 C 
BRANCH  17  18
ATOM     18  C   UNL     1     163.369 165.898 158.412  1.00  0.00     0.000 C 
BRANCH  18  19
ATOM     19  C   UNL     1     163.116 166.255 159.889  1.00  0.00     0.000 C 
BRANCH  19  20
ATOM     20  C   UNL     1     162.655 167.710 160.082  1.00  0.00     0.000 C 
BRANCH  20  21
ATOM     21  C   UNL     1     161.262 167.811 160.732  1.00  0.00     0.000 C 
BRANCH  21  22
ATOM     22  C   UNL     1     160.081 167.597 159.756  1.00  0.00    -0.000 C 
BRANCH  22  23
ATOM     23  C   UNL     1     159.020 166.604 160.264  1.00  0.00    -0.000 C 
BRANCH  23  24
ATOM     24  C   UNL     1     159.560 165.657 161.356  1.00  0.00    -0.000 C 
BRANCH  24  25
ATOM     25  C   UNL     1     159.850 164.240 160.825  1.00  0.00    -0.000 C 
BRANCH  25  26
ATOM     26  C   UNL     1     159.571 164.069 159.315  1.00  0.00    -0.000 C 
BRANCH  26  27
ATOM     27  C   UNL     1     160.707 163.391 158.525  1.00  0.00    -0.000 C 
BRANCH  27  28
ATOM     28  C   UNL     1     161.735 162.702 159.433  1.00  0.00    -0.000 C 
BRANCH  28  29
ATOM     29  C   UNL     1     162.513 161.629 158.662  1.00  0.00    -0.003 C 
ATOM     30  C   UNL     1     163.876 162.150 158.214  1.00  0.00     0.004 C 
ENDBRANCH  28  29
ENDBRANCH  27  28
ENDBRANCH  26  27
ENDBRANCH  25  26
ENDBRANCH  24  25
ENDBRANCH  23  24
ENDBRANCH  22  23
ENDBRANCH  21  22
ENDBRANCH  20  21
ENDBRANCH  19  20
ENDBRANCH  18  19
ENDBRANCH  17  18
ENDBRANCH   1  17
TORSDOF 26
ENDMDL
MODEL 6
REMARK VINA RESULT:    -5.005      4.402     10.520
REMARK INTER + INTRA:         -16.164
REMARK INTER:                 -12.662
REMARK INTRA:                  -3.502
REMARK UNBOUND:                -3.551
REMARK SMILES CCCCCCCCCCCCCCCCCCCCCCCCCCCC(=O)[O-]
REMARK SMILES IDX 15 1 16 2 17 3 18 4 19 5 20 6 21 7 22 8 23 9 24 10 25 11
REMARK SMILES IDX 26 12 27 13 28 14 29 15 30 16 14 17 13 18 12 19 11 20 10 21
REMARK SMILES IDX 9 22 8 23 7 24 6 25 5 26 4 27 3 28 2 29 1 30
REMARK H PARENT
REMARK Flexibility Score: inf
ROOT
ATOM      1  C   UNL     1     161.211 166.497 156.117  1.00  0.00     0.000 C 
ENDROOT
BRANCH   1   2
ATOM      2  C   UNL     1     162.706 166.815 155.944  1.00  0.00     0.000 C 
BRANCH   2   3
ATOM      3  C   UNL     1     163.422 167.284 157.223  1.00  0.00     0.000 C 
BRANCH   3   4
ATOM      4  C   UNL     1     163.219 166.324 158.409  1.00  0.00     0.000 C 
BRANCH   4   5
ATOM      5  C   UNL     1     164.205 165.146 158.394  1.00  0.00     0.000 C 
BRANCH   5   6
ATOM      6  C   UNL     1     163.550 163.830 157.937  1.00  0.00     0.000 C 
BRANCH   6   7
ATOM      7  C   UNL     1     162.415 163.384 158.873  1.00  0.00     0.000 C 
BRANCH   7   8
ATOM      8  C   UNL     1     161.265 162.695 158.117  1.00  0.00     0.000 C 
BRANCH   8   9
ATOM      9  C   UNL     1     159.992 163.556 158.042  1.00  0.00     0.000 C 
BRANCH   9  10
ATOM     10  C   UNL     1     158.789 163.006 158.829  1.00  0.00     0.000 C 
BRANCH  10  11
ATOM     11  C   UNL     1     158.312 163.958 159.941  1.00  0.00     0.000 C 
BRANCH  11  12
ATOM     12  C   UNL     1     159.338 165.065 160.241  1.00  0.00     0.006 C 
BRANCH  12  13
ATOM     13  C   UNL     1     159.540 165.278 161.748  1.00  0.00     0.053 C 
BRANCH  13  14
ATOM     14  C   UNL     1     160.978 165.089 162.117  1.00  0.00     0.041 C 
ATOM     15  O   UNL     1     161.291 164.334 163.076  1.00  0.00    -0.550 OA
ATOM     16  O   UNL     1     161.974 165.718 161.381  1.00  0.00    -0.550 OA
ENDBRANCH  13  14
ENDBRANCH  12  13
ENDBRANCH  11  12
ENDBRANCH  10  11
ENDBRANCH   9  10
ENDBRANCH   8   9
ENDBRANCH   7   8
ENDBRANCH   6   7
ENDBRANCH   5   6
ENDBRANCH   4   5
ENDBRANCH   3   4
ENDBRANCH   2   3
ENDBRANCH   1   2
BRANCH   1  17
ATOM     17  C   UNL     1     160.450 166.456 154.780  1.00  0.00     0.000 C 
BRANCH  17  18
ATOM     18  C   UNL     1     161.200 167.165 153.636  1.00  0.00     0.000 C 
BRANCH  18  19
ATOM     19  C   UNL     1     161.488 166.293 152.400  1.00  0.00     0.000 C 
BRANCH  19  20
ATOM     20  C   UNL     1     162.926 166.452 151.878  1.00  0.00     0.000 C 
BRANCH  20  21
ATOM     21  C   UNL     1     163.705 167.563 152.608  1.00  0.00     0.000 C 
BRANCH  21  22
ATOM     22  C   UNL     1     165.183 167.221 152.909  1.00  0.00    -0.000 C 
BRANCH  22  23
ATOM     23  C   UNL     1     166.092 167.215 151.667  1.00  0.00    -0.000 C 
BRANCH  23  24
ATOM     24  C   UNL     1     167.517 167.726 151.965  1.00  0.00    -0.000 C 
BRANCH  24  25
ATOM     25  C   UNL     1     167.987 168.798 150.963  1.00  0.00    -0.000 C 
BRANCH  25  26
ATOM     26  C   UNL     1     166.840 169.438 150.148  1.00  0.00    -0.000 C 
BRANCH  26  27
ATOM     27  C   UNL     1     166.389 170.822 150.652  1.00  0.00    -0.000 C 
BRANCH  27  28
ATOM     28  C   UNL     1     165.008 170.792 151.321  1.00  0.00    -0.000 C 
BRANCH  28  29
ATOM     29  C   UNL     1     165.079 171.352 152.746  1.00  0.00    -0.003 C 
ATOM     30  C   UNL     1     166.335 170.869 153.467  1.00  0.00     0.004 C 
ENDBRANCH  28  29
ENDBRANCH  27  28
ENDBRANCH  26  27
ENDBRANCH  25  26
ENDBRANCH  24  25
ENDBRANCH  23  24
ENDBRANCH  22  23
ENDBRANCH  21  22
ENDBRANCH  20  21
ENDBRANCH  19  20
ENDBRANCH  18  19
ENDBRANCH  17  18
ENDBRANCH   1  17
TORSDOF 26
ENDMDL
MODEL 7
REMARK VINA RESULT:    -5.004      1.220      2.754
REMARK INTER + INTRA:         -16.161
REMARK INTER:                 -12.383
REMARK INTRA:                  -3.778
REMARK UNBOUND:                -3.551
REMARK SMILES CCCCCCCCCCCCCCCCCCCCCCCCCCCC(=O)[O-]
REMARK SMILES IDX 15 1 16 2 17 3 18 4 19 5 20 6 21 7 22 8 23 9 24 10 25 11
REMARK SMILES IDX 26 12 27 13 28 14 29 15 30 16 14 17 13 18 12 19 11 20 10 21
REMARK SMILES IDX 9 22 8 23 7 24 6 25 5 26 4 27 3 28 2 29 1 30
REMARK H PARENT
REMARK Flexibility Score: inf
ROOT
ATOM      1  C   UNL     1     160.703 167.144 153.978  1.00  0.00     0.000 C 
ENDROOT
BRANCH   1   2
ATOM      2  C   UNL     1     161.075 166.473 152.645  1.00  0.00     0.000 C 
BRANCH   2   3
ATOM      3  C   UNL     1     162.567 166.551 152.273  1.00  0.00     0.000 C 
BRANCH   3   4
ATOM      4  C   UNL     1     163.256 167.813 152.823  1.00  0.00     0.000 C 
BRANCH   4   5
ATOM      5  C   UNL     1     164.784 167.672 152.891  1.00  0.00     0.000 C 
BRANCH   5   6
ATOM      6  C   UNL     1     165.389 168.356 154.130  1.00  0.00     0.000 C 
BRANCH   6   7
ATOM      7  C   UNL     1     166.792 168.923 153.861  1.00  0.00     0.000 C 
BRANCH   7   8
ATOM      8  C   UNL     1     166.918 170.403 154.265  1.00  0.00     0.000 C 
BRANCH   8   9
ATOM      9  C   UNL     1     166.824 171.364 153.068  1.00  0.00     0.000 C 
BRANCH   9  10
ATOM     10  C   UNL     1     165.401 171.845 152.731  1.00  0.00     0.000 C 
BRANCH  10  11
ATOM     11  C   UNL     1     164.765 171.069 151.564  1.00  0.00     0.000 C 
BRANCH  11  12
ATOM     12  C   UNL     1     165.811 170.581 150.548  1.00  0.00     0.006 C 
BRANCH  12  13
ATOM     13  C   UNL     1     166.078 171.614 149.445  1.00  0.00     0.053 C 
BRANCH  13  14
ATOM     14  C   UNL     1     167.520 172.016 149.439  1.00  0.00     0.041 C 
ATOM     15  O   UNL     1     167.858 173.154 149.016  1.00  0.00    -0.550 OA
ATOM     16  O   UNL     1     168.487 171.149 149.932  1.00  0.00    -0.550 OA
ENDBRANCH  13  14
ENDBRANCH  12  13
ENDBRANCH  11  12
ENDBRANCH  10  11
ENDBRANCH   9  10
ENDBRANCH   8   9
ENDBRANCH   7   8
ENDBRANCH   6   7
ENDBRANCH   5   6
ENDBRANCH   4   5
ENDBRANCH   3   4
ENDBRANCH   2   3
ENDBRANCH   1   2
BRANCH   1  17
ATOM     17  C   UNL     1     160.467 166.130 155.112  1.00  0.00     0.000 C 
BRANCH  17  18
ATOM     18  C   UNL     1     161.159 166.529 156.430  1.00  0.00     0.000 C 
BRANCH  18  19
ATOM     19  C   UNL     1     162.696 166.590 156.372  1.00  0.00     0.000 C 
BRANCH  19  20
ATOM     20  C   UNL     1     163.309 167.366 157.551  1.00  0.00     0.000 C 
BRANCH  20  21
ATOM     21  C   UNL     1     162.763 166.904 158.915  1.00  0.00     0.000 C 
BRANCH  21  22
ATOM     22  C   UNL     1     162.391 168.053 159.882  1.00  0.00    -0.000 C 
BRANCH  22  23
ATOM     23  C   UNL     1     161.025 167.879 160.568  1.00  0.00    -0.000 C 
BRANCH  23  24
ATOM     24  C   UNL     1     160.049 167.008 159.748  1.00  0.00    -0.000 C 
BRANCH  24  25
ATOM     25  C   UNL     1     159.100 166.181 160.635  1.00  0.00    -0.000 C 
BRANCH  25  26
ATOM     26  C   UNL     1     159.357 164.659 160.578  1.00  0.00    -0.000 C 
BRANCH  26  27
ATOM     27  C   UNL     1     159.885 164.147 159.223  1.00  0.00    -0.000 C 
BRANCH  27  28
ATOM     28  C   UNL     1     161.140 163.274 159.365  1.00  0.00    -0.000 C 
BRANCH  28  29
ATOM     29  C   UNL     1     162.016 163.370 158.110  1.00  0.00    -0.003 C 
ATOM     30  C   UNL     1     163.334 162.624 158.300  1.00  0.00     0.004 C 
ENDBRANCH  28  29
ENDBRANCH  27  28
ENDBRANCH  26  27
ENDBRANCH  25  26
ENDBRANCH  24  25
ENDBRANCH  23  24
ENDBRANCH  22  23
ENDBRANCH  21  22
ENDBRANCH  20  21
ENDBRANCH  19  20
ENDBRANCH  18  19
ENDBRANCH  17  18
ENDBRANCH   1  17
TORSDOF 26
ENDMDL
MODEL 8
REMARK VINA RESULT:    -4.924      4.143     10.542
REMARK INTER + INTRA:         -15.961
REMARK INTER:                 -12.187
REMARK INTRA:                  -3.774
REMARK UNBOUND:                -3.551
REMARK SMILES CCCCCCCCCCCCCCCCCCCCCCCCCCCC(=O)[O-]
REMARK SMILES IDX 15 1 16 2 17 3 18 4 19 5 20 6 21 7 22 8 23 9 24 10 25 11
REMARK SMILES IDX 26 12 27 13 28 14 29 15 30 16 14 17 13 18 12 19 11 20 10 21
REMARK SMILES IDX 9 22 8 23 7 24 6 25 5 26 4 27 3 28 2 29 1 30
REMARK H PARENT
REMARK Flexibility Score: inf
ROOT
ATOM      1  C   UNL     1     161.230 166.201 152.579  1.00  0.00     0.000 C 
ENDROOT
BRANCH   1   2
ATOM      2  C   UNL     1     161.136 166.967 153.910  1.00  0.00     0.000 C 
BRANCH   2   3
ATOM      3  C   UNL     1     160.468 166.192 155.060  1.00  0.00     0.000 C 
BRANCH   3   4
ATOM      4  C   UNL     1     161.028 166.572 156.443  1.00  0.00     0.000 C 
BRANCH   4   5
ATOM      5  C   UNL     1     162.557 166.454 156.515  1.00  0.00     0.000 C 
BRANCH   5   6
ATOM      6  C   UNL     1     163.113 166.785 157.913  1.00  0.00     0.000 C 
BRANCH   6   7
ATOM      7  C   UNL     1     163.585 165.532 158.668  1.00  0.00     0.000 C 
BRANCH   7   8
ATOM      8  C   UNL     1     163.445 164.250 157.829  1.00  0.00     0.000 C 
BRANCH   8   9
ATOM      9  C   UNL     1     162.781 163.096 158.599  1.00  0.00     0.000 C 
BRANCH   9  10
ATOM     10  C   UNL     1     161.367 162.722 158.117  1.00  0.00     0.000 C 
BRANCH  10  11
ATOM     11  C   UNL     1     160.333 163.834 158.367  1.00  0.00     0.000 C 
BRANCH  11  12
ATOM     12  C   UNL     1     159.577 163.640 159.693  1.00  0.00     0.006 C 
BRANCH  12  13
ATOM     13  C   UNL     1     159.317 164.970 160.414  1.00  0.00     0.053 C 
BRANCH  13  14
ATOM     14  C   UNL     1     160.602 165.563 160.903  1.00  0.00     0.041 C 
ATOM     15  O   UNL     1     160.824 166.795 160.762  1.00  0.00    -0.550 OA
ATOM     16  O   UNL     1     161.538 164.762 161.545  1.00  0.00    -0.550 OA
ENDBRANCH  13  14
ENDBRANCH  12  13
ENDBRANCH  11  12
ENDBRANCH  10  11
ENDBRANCH   9  10
ENDBRANCH   8   9
ENDBRANCH   7   8
ENDBRANCH   6   7
ENDBRANCH   5   6
ENDBRANCH   4   5
ENDBRANCH   3   4
ENDBRANCH   2   3
ENDBRANCH   1   2
BRANCH   1  17
ATOM     17  C   UNL     1     162.588 166.385 151.878  1.00  0.00     0.000 C 
BRANCH  17  18
ATOM     18  C   UNL     1     163.526 167.354 152.624  1.00  0.00     0.000 C 
BRANCH  18  19
ATOM     19  C   UNL     1     165.023 166.998 152.558  1.00  0.00     0.000 C 
BRANCH  19  20
ATOM     20  C   UNL     1     165.514 166.742 151.123  1.00  0.00     0.000 C 
BRANCH  20  21
ATOM     21  C   UNL     1     166.649 167.695 150.704  1.00  0.00     0.000 C 
BRANCH  21  22
ATOM     22  C   UNL     1     166.517 168.262 149.271  1.00  0.00    -0.000 C 
BRANCH  22  23
ATOM     23  C   UNL     1     167.671 169.192 148.855  1.00  0.00    -0.000 C 
BRANCH  23  24
ATOM     24  C   UNL     1     167.556 170.602 149.474  1.00  0.00    -0.000 C 
BRANCH  24  25
ATOM     25  C   UNL     1     166.170 171.236 149.257  1.00  0.00    -0.000 C 
BRANCH  25  26
ATOM     26  C   UNL     1     165.539 171.818 150.542  1.00  0.00    -0.000 C 
BRANCH  26  27
ATOM     27  C   UNL     1     164.814 170.785 151.426  1.00  0.00    -0.000 C 
BRANCH  27  28
ATOM     28  C   UNL     1     165.256 170.843 152.895  1.00  0.00    -0.000 C 
BRANCH  28  29
ATOM     29  C   UNL     1     166.777 170.691 153.013  1.00  0.00    -0.003 C 
ATOM     30  C   UNL     1     167.145 169.559 153.970  1.00  0.00     0.004 C 
ENDBRANCH  28  29
ENDBRANCH  27  28
ENDBRANCH  26  27
ENDBRANCH  25  26
ENDBRANCH  24  25
ENDBRANCH  23  24
ENDBRANCH  22  23
ENDBRANCH  21  22
ENDBRANCH  20  21
ENDBRANCH  19  20
ENDBRANCH  18  19
ENDBRANCH  17  18
ENDBRANCH   1  17
TORSDOF 26
ENDMDL
MODEL 9
REMARK VINA RESULT:    -4.916      3.942     10.573
REMARK INTER + INTRA:         -15.940
REMARK INTER:                 -12.500
REMARK INTRA:                  -3.440
REMARK UNBOUND:                -3.551
REMARK SMILES CCCCCCCCCCCCCCCCCCCCCCCCCCCC(=O)[O-]
REMARK SMILES IDX 15 1 16 2 17 3 18 4 19 5 20 6 21 7 22 8 23 9 24 10 25 11
REMARK SMILES IDX 26 12 27 13 28 14 29 15 30 16 14 17 13 18 12 19 11 20 10 21
REMARK SMILES IDX 9 22 8 23 7 24 6 25 5 26 4 27 3 28 2 29 1 30
REMARK H PARENT
REMARK Flexibility Score: inf
ROOT
ATOM      1  C   UNL     1     162.209 167.277 153.021  1.00  0.00     0.000 C 
ENDROOT
BRANCH   1   2
ATOM      2  C   UNL     1     160.829 166.666 153.322  1.00  0.00     0.000 C 
BRANCH   2   3
ATOM      3  C   UNL     1     160.498 166.515 154.817  1.00  0.00     0.000 C 
BRANCH   3   4
ATOM      4  C   UNL     1     161.732 166.682 155.723  1.00  0.00     0.000 C 
BRANCH   4   5
ATOM      5  C   UNL     1     161.507 166.128 157.138  1.00  0.00     0.000 C 
BRANCH   5   6
ATOM      6  C   UNL     1     162.814 165.675 157.814  1.00  0.00     0.000 C 
BRANCH   6   7
ATOM      7  C   UNL     1     162.912 166.143 159.275  1.00  0.00     0.000 C 
BRANCH   7   8
ATOM      8  C   UNL     1     162.118 167.435 159.534  1.00  0.00     0.000 C 
BRANCH   8   9
ATOM      9  C   UNL     1     161.076 167.287 160.656  1.00  0.00     0.000 C 
BRANCH   9  10
ATOM     10  C   UNL     1     159.687 166.812 160.193  1.00  0.00     0.000 C 
BRANCH  10  11
ATOM     11  C   UNL     1     159.185 165.579 160.965  1.00  0.00     0.000 C 
BRANCH  11  12
ATOM     12  C   UNL     1     159.040 164.343 160.060  1.00  0.00     0.006 C 
BRANCH  12  13
ATOM     13  C   UNL     1     160.379 163.630 159.829  1.00  0.00     0.053 C 
BRANCH  13  14
ATOM     14  C   UNL     1     160.350 162.858 158.546  1.00  0.00     0.041 C 
ATOM     15  O   UNL     1     161.267 162.036 158.281  1.00  0.00    -0.550 OA
ATOM     16  O   UNL     1     159.292 163.021 157.660  1.00  0.00    -0.550 OA
ENDBRANCH  13  14
ENDBRANCH  12  13
ENDBRANCH  11  12
ENDBRANCH  10  11
ENDBRANCH   9  10
ENDBRANCH   8   9
ENDBRANCH   7   8
ENDBRANCH   6   7
ENDBRANCH   5   6
ENDBRANCH   4   5
ENDBRANCH   3   4
ENDBRANCH   2   3
ENDBRANCH   1   2
BRANCH   1  17
ATOM     17  C   UNL     1     163.021 166.449 152.009  1.00  0.00     0.000 C 
BRANCH  17  18
ATOM     18  C   UNL     1     164.518 166.817 151.991  1.00  0.00     0.000 C 
BRANCH  18  19
ATOM     19  C   UNL     1     164.966 167.793 153.094  1.00  0.00     0.000 C 
BRANCH  19  20
ATOM     20  C   UNL     1     166.488 168.016 153.114  1.00  0.00     0.000 C 
BRANCH  20  21
ATOM     21  C   UNL     1     167.258 166.930 152.339  1.00  0.00     0.000 C 
BRANCH  21  22
ATOM     22  C   UNL     1     168.643 167.374 151.813  1.00  0.00    -0.000 C 
BRANCH  22  23
ATOM     23  C   UNL     1     168.589 168.179 150.502  1.00  0.00    -0.000 C 
BRANCH  23  24
ATOM     24  C   UNL     1     167.865 167.424 149.366  1.00  0.00    -0.000 C 
BRANCH  24  25
ATOM     25  C   UNL     1     166.770 168.272 148.693  1.00  0.00    -0.000 C 
BRANCH  25  26
ATOM     26  C   UNL     1     166.101 169.296 149.638  1.00  0.00    -0.000 C 
BRANCH  26  27
ATOM     27  C   UNL     1     166.364 170.771 149.276  1.00  0.00    -0.000 C 
BRANCH  27  28
ATOM     28  C   UNL     1     165.651 171.751 150.217  1.00  0.00    -0.000 C 
BRANCH  28  29
ATOM     29  C   UNL     1     164.922 171.000 151.338  1.00  0.00    -0.003 C 
ATOM     30  C   UNL     1     165.265 171.582 152.707  1.00  0.00     0.004 C 
ENDBRANCH  28  29
ENDBRANCH  27  28
ENDBRANCH  26  27
ENDBRANCH  25  26
ENDBRANCH  24  25
ENDBRANCH  23  24
ENDBRANCH  22  23
ENDBRANCH  21  22
ENDBRANCH  20  21
ENDBRANCH  19  20
ENDBRANCH  18  19
ENDBRANCH  17  18
ENDBRANCH   1  17
TORSDOF 26
ENDMDL
