MODEL 1
REMARK VINA RESULT:    -7.198      0.000      0.000
REMARK INTER + INTRA:          -8.050
REMARK INTER:                  -7.829
REMARK INTRA:                  -0.221
REMARK UNBOUND:                -0.221
REMARK SMILES C[C@H]1[C@@H](C)CC[C@@]2(C(=O)[O-])CC[C@]3(C)C(=CC[C@@H]4[C@]5(C)CC[C@H](O)C(C)(C)[C@H]5CC[C@@]43C)[C@@H]12
REMARK SMILES IDX 7 1 6 2 11 3 33 4 5 5 12 6 15 7 2 8 3 9 13 10 16 11 1 12
REMARK SMILES IDX 4 13 14 14 31 15 17 16 18 17 30 18 32 19 19 20 29 21 28 22
REMARK SMILES IDX 21 23 20 24 25 25 22 26 23 27 26 28 27 29 8 30 9 31 10 32
REMARK SMILES IDX 24 33
REMARK H PARENT 24 34
REMARK Flexibility Score: inf
ROOT
ATOM      1  C   UNL     1     105.913 121.659 119.465  1.00  0.00     0.017 C 
ATOM      2  C   UNL     1     107.260 121.260 118.785  1.00  0.00     0.014 C 
ATOM      3  C   UNL     1     104.883 120.562 119.111  1.00  0.00     0.014 C 
ATOM      4  C   UNL     1     106.038 121.754 121.037  1.00  0.00     0.030 C 
ATOM      5  C   UNL     1     108.462 121.908 119.461  1.00  0.00     0.004 C 
ATOM      6  C   UNL     1     103.475 120.880 119.600  1.00  0.00     0.013 C 
ATOM      7  C   UNL     1     104.722 121.442 121.803  1.00  0.00    -0.063 C 
ATOM      8  C   UNL     1     107.286 120.971 121.601  1.00  0.00    -0.003 C 
ATOM      9  C   UNL     1     108.618 121.457 120.932  1.00  0.00    -0.011 C 
ATOM     10  C   UNL     1     103.349 121.328 121.111  1.00  0.00    -0.006 C 
ATOM     11  C   UNL     1     104.738 121.582 123.142  1.00  0.00    -0.027 C 
ATOM     12  C   UNL     1     107.086 119.437 121.630  1.00  0.00     0.008 C 
ATOM     13  C   UNL     1     109.790 120.470 121.088  1.00  0.00     0.008 C 
ATOM     14  C   UNL     1     102.782 122.784 121.099  1.00  0.00     0.017 C 
ATOM     15  C   UNL     1     102.358 120.350 121.927  1.00  0.00    -0.020 C 
ATOM     16  C   UNL     1     103.649 121.142 124.064  1.00  0.00     0.032 C 
ATOM     17  C   UNL     1     102.252 120.789 123.455  1.00  0.00     0.006 C 
ATOM     18  C   UNL     1     102.883 118.872 121.885  1.00  0.00     0.008 C 
ATOM     19  C   UNL     1     100.943 120.425 121.244  1.00  0.00     0.012 C 
ATOM     20  C   UNL     1     101.443 119.768 124.400  1.00  0.00    -0.025 C 
ATOM     21  C   UNL     1     102.091 117.879 122.758  1.00  0.00     0.005 C 
ATOM     22  C   UNL     1     102.061 118.323 124.240  1.00  0.00     0.003 C 
ATOM     23  C   UNL     1     101.553 120.194 125.908  1.00  0.00     0.010 C 
ATOM     24  C   UNL     1      99.916 119.828 124.044  1.00  0.00     0.012 C 
ATOM     25  C   UNL     1     101.549 117.226 125.260  1.00  0.00    -0.006 C 
ATOM     26  C   UNL     1     101.002 119.151 126.897  1.00  0.00     0.033 C 
ATOM     27  C   UNL     1     101.679 117.780 126.719  1.00  0.00     0.120 C 
ATOM     28  C   UNL     1     102.438 115.949 125.166  1.00  0.00     0.014 C 
ATOM     29  C   UNL     1     100.096 116.760 124.994  1.00  0.00     0.014 C 
ENDROOT
BRANCH   1  30
ATOM     30  C   UNL     1     105.505 123.007 118.869  1.00  0.00     0.048 C 
ATOM     31  O   UNL     1     105.439 124.039 119.587  1.00  0.00    -0.550 OA
ATOM     32  O   UNL     1     105.061 123.093 117.553  1.00  0.00    -0.550 OA
ENDBRANCH   1  30
BRANCH  27  33
ATOM     33  O   UNL     1     103.039 117.888 127.074  1.00  0.00    -0.393 OA
ATOM     34  H   UNL     1     103.106 118.621 127.741  1.00  0.00     0.210 HD
ENDBRANCH  27  33
TORSDOF 2
ENDMDL
MODEL 2
REMARK VINA RESULT:    -7.008      1.310      1.649
REMARK INTER + INTRA:          -7.844
REMARK INTER:                  -7.736
REMARK INTRA:                  -0.108
REMARK UNBOUND:                -0.221
REMARK SMILES C[C@H]1[C@@H](C)CC[C@@]2(C(=O)[O-])CC[C@]3(C)C(=CC[C@@H]4[C@]5(C)CC[C@H](O)C(C)(C)[C@H]5CC[C@@]43C)[C@@H]12
REMARK SMILES IDX 7 1 6 2 11 3 33 4 5 5 12 6 15 7 2 8 3 9 13 10 16 11 1 12
REMARK SMILES IDX 4 13 14 14 31 15 17 16 18 17 30 18 32 19 19 20 29 21 28 22
REMARK SMILES IDX 21 23 20 24 25 25 22 26 23 27 26 28 27 29 8 30 9 31 10 32
REMARK SMILES IDX 24 33
REMARK H PARENT 24 34
REMARK Flexibility Score: inf
ROOT
ATOM      1  C   UNL     1     105.957 120.332 119.861  1.00  0.00     0.017 C 
ATOM      2  C   UNL     1     107.406 119.882 119.498  1.00  0.00     0.014 C 
ATOM      3  C   UNL     1     105.135 119.048 120.120  1.00  0.00     0.014 C 
ATOM      4  C   UNL     1     105.913 121.236 121.156  1.00  0.00     0.030 C 
ATOM      5  C   UNL     1     108.432 120.982 119.748  1.00  0.00     0.004 C 
ATOM      6  C   UNL     1     103.655 119.322 120.361  1.00  0.00     0.013 C 
ATOM      7  C   UNL     1     104.588 121.137 121.961  1.00  0.00    -0.063 C 
ATOM      8  C   UNL     1     107.200 121.082 122.054  1.00  0.00    -0.003 C 
ATOM      9  C   UNL     1     108.508 121.380 121.240  1.00  0.00    -0.011 C 
ATOM     10  C   UNL     1     103.319 120.449 121.417  1.00  0.00    -0.006 C 
ATOM     11  C   UNL     1     104.454 121.941 123.032  1.00  0.00    -0.027 C 
ATOM     12  C   UNL     1     107.222 119.770 122.874  1.00  0.00     0.008 C 
ATOM     13  C   UNL     1     109.789 120.833 121.896  1.00  0.00     0.008 C 
ATOM     14  C   UNL     1     102.553 121.571 120.646  1.00  0.00     0.017 C 
ATOM     15  C   UNL     1     102.405 119.870 122.615  1.00  0.00    -0.020 C 
ATOM     16  C   UNL     1     103.355 121.853 124.040  1.00  0.00     0.032 C 
ATOM     17  C   UNL     1     102.089 121.002 123.691  1.00  0.00     0.006 C 
ATOM     18  C   UNL     1     103.139 118.695 123.351  1.00  0.00     0.008 C 
ATOM     19  C   UNL     1     101.067 119.339 121.982  1.00  0.00     0.012 C 
ATOM     20  C   UNL     1     101.348 120.484 125.023  1.00  0.00    -0.025 C 
ATOM     21  C   UNL     1     102.418 118.168 124.607  1.00  0.00     0.005 C 
ATOM     22  C   UNL     1     102.181 119.293 125.642  1.00  0.00     0.003 C 
ATOM     23  C   UNL     1     101.249 121.632 126.090  1.00  0.00     0.010 C 
ATOM     24  C   UNL     1      99.870 120.087 124.675  1.00  0.00     0.012 C 
ATOM     25  C   UNL     1     101.735 118.801 127.080  1.00  0.00    -0.006 C 
ATOM     26  C   UNL     1     100.761 121.163 127.473  1.00  0.00     0.033 C 
ATOM     27  C   UNL     1     101.643 120.036 128.039  1.00  0.00     0.120 C 
ATOM     28  C   UNL     1     102.804 117.832 127.670  1.00  0.00     0.014 C 
ATOM     29  C   UNL     1     100.397 118.021 127.083  1.00  0.00     0.014 C 
ENDROOT
BRANCH   1  30
ATOM     30  C   UNL     1     105.418 121.092 118.647  1.00  0.00     0.048 C 
ATOM     31  O   UNL     1     105.490 122.347 118.586  1.00  0.00    -0.550 OA
ATOM     32  O   UNL     1     104.712 120.424 117.652  1.00  0.00    -0.550 OA
ENDBRANCH   1  30
BRANCH  27  33
ATOM     33  O   UNL     1     102.932 120.543 128.298  1.00  0.00    -0.393 OA
ATOM     34  H   UNL     1     103.580 119.875 127.951  1.00  0.00     0.210 HD
ENDBRANCH  27  33
TORSDOF 2
ENDMDL
MODEL 3
REMARK VINA RESULT:    -6.624      3.044      6.655
REMARK INTER + INTRA:          -7.426
REMARK INTER:                  -8.814
REMARK INTRA:                   1.388
REMARK UNBOUND:                -0.221
REMARK SMILES C[C@H]1[C@@H](C)CC[C@@]2(C(=O)[O-])CC[C@]3(C)C(=CC[C@@H]4[C@]5(C)CC[C@H](O)C(C)(C)[C@H]5CC[C@@]43C)[C@@H]12
REMARK SMILES IDX 7 1 6 2 11 3 33 4 5 5 12 6 15 7 2 8 3 9 13 10 16 11 1 12
REMARK SMILES IDX 4 13 14 14 31 15 17 16 18 17 30 18 32 19 19 20 29 21 28 22
REMARK SMILES IDX 21 23 20 24 25 25 22 26 23 27 26 28 27 29 8 30 9 31 10 32
REMARK SMILES IDX 24 33
REMARK H PARENT 24 34
REMARK Flexibility Score: inf
ROOT
ATOM      1  C   UNL     1     107.435 120.410 122.298  1.00  0.00     0.017 C 
ATOM      2  C   UNL     1     108.940 120.761 122.507  1.00  0.00     0.014 C 
ATOM      3  C   UNL     1     106.616 121.650 122.723  1.00  0.00     0.014 C 
ATOM      4  C   UNL     1     107.100 120.069 120.791  1.00  0.00     0.030 C 
ATOM      5  C   UNL     1     109.860 119.895 121.652  1.00  0.00     0.004 C 
ATOM      6  C   UNL     1     105.110 121.413 122.698  1.00  0.00     0.013 C 
ATOM      7  C   UNL     1     105.641 120.401 120.370  1.00  0.00    -0.063 C 
ATOM      8  C   UNL     1     108.180 120.623 119.784  1.00  0.00    -0.003 C 
ATOM      9  C   UNL     1     109.616 120.104 120.140  1.00  0.00    -0.011 C 
ATOM     10  C   UNL     1     104.532 120.761 121.379  1.00  0.00    -0.006 C 
ATOM     11  C   UNL     1     105.267 120.062 119.122  1.00  0.00    -0.027 C 
ATOM     12  C   UNL     1     108.073 122.148 119.546  1.00  0.00     0.008 C 
ATOM     13  C   UNL     1     110.752 120.926 119.503  1.00  0.00     0.008 C 
ATOM     14  C   UNL     1     103.906 119.391 121.795  1.00  0.00     0.017 C 
ATOM     15  C   UNL     1     103.410 121.707 120.706  1.00  0.00    -0.020 C 
ATOM     16  C   UNL     1     103.988 120.473 118.468  1.00  0.00     0.032 C 
ATOM     17  C   UNL     1     102.846 121.058 119.364  1.00  0.00     0.006 C 
ATOM     18  C   UNL     1     104.012 123.110 120.349  1.00  0.00     0.008 C 
ATOM     19  C   UNL     1     102.247 121.884 121.750  1.00  0.00     0.012 C 
ATOM     20  C   UNL     1     101.864 122.008 118.512  1.00  0.00    -0.025 C 
ATOM     21  C   UNL     1     103.066 124.040 119.566  1.00  0.00     0.005 C 
ATOM     22  C   UNL     1     102.588 123.387 118.247  1.00  0.00     0.003 C 
ATOM     23  C   UNL     1     101.514 121.353 117.128  1.00  0.00     0.010 C 
ATOM     24  C   UNL     1     100.501 122.164 119.275  1.00  0.00     0.012 C 
ATOM     25  C   UNL     1     101.872 124.368 117.231  1.00  0.00    -0.006 C 
ATOM     26  C   UNL     1     100.768 122.290 116.162  1.00  0.00     0.033 C 
ATOM     27  C   UNL     1     101.548 123.592 115.910  1.00  0.00     0.120 C 
ATOM     28  C   UNL     1     102.826 125.543 116.859  1.00  0.00     0.014 C 
ATOM     29  C   UNL     1     100.586 125.019 117.797  1.00  0.00     0.014 C 
ENDROOT
BRANCH   1  30
ATOM     30  C   UNL     1     107.134 119.216 123.206  1.00  0.00     0.048 C 
ATOM     31  O   UNL     1     105.979 119.034 123.674  1.00  0.00    -0.550 OA
ATOM     32  O   UNL     1     108.160 118.388 123.647  1.00  0.00    -0.550 OA
ENDBRANCH   1  30
BRANCH  27  33
ATOM     33  O   UNL     1     102.741 123.290 115.223  1.00  0.00    -0.393 OA
ATOM     34  H   UNL     1     103.467 123.268 115.901  1.00  0.00     0.210 HD
ENDBRANCH  27  33
TORSDOF 2
ENDMDL
MODEL 4
REMARK VINA RESULT:    -6.439      2.513      8.328
REMARK INTER + INTRA:          -7.224
REMARK INTER:                  -6.947
REMARK INTRA:                  -0.278
REMARK UNBOUND:                -0.221
REMARK SMILES C[C@H]1[C@@H](C)CC[C@@]2(C(=O)[O-])CC[C@]3(C)C(=CC[C@@H]4[C@]5(C)CC[C@H](O)C(C)(C)[C@H]5CC[C@@]43C)[C@@H]12
REMARK SMILES IDX 7 1 6 2 11 3 33 4 5 5 12 6 15 7 2 8 3 9 13 10 16 11 1 12
REMARK SMILES IDX 4 13 14 14 31 15 17 16 18 17 30 18 32 19 19 20 29 21 28 22
REMARK SMILES IDX 21 23 20 24 25 25 22 26 23 27 26 28 27 29 8 30 9 31 10 32
REMARK SMILES IDX 24 33
REMARK H PARENT 24 34
REMARK Flexibility Score: inf
ROOT
ATOM      1  C   UNL     1     100.132 120.145 128.586  1.00  0.00     0.017 C 
ATOM      2  C   UNL     1      99.038 121.121 129.120  1.00  0.00     0.014 C 
ATOM      3  C   UNL     1      99.543 119.436 127.345  1.00  0.00     0.014 C 
ATOM      4  C   UNL     1     101.456 120.897 128.165  1.00  0.00     0.030 C 
ATOM      5  C   UNL     1      99.629 122.247 129.961  1.00  0.00     0.004 C 
ATOM      6  C   UNL     1     100.453 118.349 126.786  1.00  0.00     0.013 C 
ATOM      7  C   UNL     1     102.259 120.193 127.036  1.00  0.00    -0.063 C 
ATOM      8  C   UNL     1     101.228 122.435 127.900  1.00  0.00    -0.003 C 
ATOM      9  C   UNL     1     100.588 123.143 129.144  1.00  0.00    -0.011 C 
ATOM     10  C   UNL     1     101.963 118.757 126.558  1.00  0.00    -0.006 C 
ATOM     11  C   UNL     1     103.438 120.739 126.684  1.00  0.00    -0.027 C 
ATOM     12  C   UNL     1     100.536 122.729 126.548  1.00  0.00     0.008 C 
ATOM     13  C   UNL     1      99.939 124.502 128.822  1.00  0.00     0.008 C 
ATOM     14  C   UNL     1     102.819 117.839 127.489  1.00  0.00     0.017 C 
ATOM     15  C   UNL     1     102.396 118.549 125.017  1.00  0.00    -0.020 C 
ATOM     16  C   UNL     1     104.252 120.334 125.499  1.00  0.00     0.032 C 
ATOM     17  C   UNL     1     103.912 118.984 124.786  1.00  0.00     0.006 C 
ATOM     18  C   UNL     1     101.496 119.414 124.069  1.00  0.00     0.008 C 
ATOM     19  C   UNL     1     102.213 117.026 124.671  1.00  0.00     0.012 C 
ATOM     20  C   UNL     1     104.386 118.999 123.247  1.00  0.00    -0.025 C 
ATOM     21  C   UNL     1     101.920 119.405 122.587  1.00  0.00     0.005 C 
ATOM     22  C   UNL     1     103.381 119.884 122.410  1.00  0.00     0.003 C 
ATOM     23  C   UNL     1     105.825 119.613 123.112  1.00  0.00     0.010 C 
ATOM     24  C   UNL     1     104.494 117.524 122.722  1.00  0.00     0.012 C 
ATOM     25  C   UNL     1     103.807 120.207 120.920  1.00  0.00    -0.006 C 
ATOM     26  C   UNL     1     106.262 119.874 121.659  1.00  0.00     0.033 C 
ATOM     27  C   UNL     1     105.264 120.780 120.916  1.00  0.00     0.120 C 
ATOM     28  C   UNL     1     102.874 121.302 120.321  1.00  0.00     0.014 C 
ATOM     29  C   UNL     1     103.709 118.989 119.968  1.00  0.00     0.014 C 
ENDROOT
BRANCH   1  30
ATOM     30  C   UNL     1     100.409 119.143 129.709  1.00  0.00     0.048 C 
ATOM     31  O   UNL     1      99.494 118.403 130.156  1.00  0.00    -0.550 OA
ATOM     32  O   UNL     1     101.640 119.129 130.355  1.00  0.00    -0.550 OA
ENDBRANCH   1  30
BRANCH  27  33
ATOM     33  O   UNL     1     105.280 122.062 121.502  1.00  0.00    -0.393 OA
ATOM     34  H   UNL     1     105.256 121.930 122.486  1.00  0.00     0.210 HD
ENDBRANCH  27  33
TORSDOF 2
ENDMDL
MODEL 5
REMARK VINA RESULT:    -6.438      3.106      6.867
REMARK INTER + INTRA:          -7.223
REMARK INTER:                  -7.040
REMARK INTRA:                  -0.183
REMARK UNBOUND:                -0.221
REMARK SMILES C[C@H]1[C@@H](C)CC[C@@]2(C(=O)[O-])CC[C@]3(C)C(=CC[C@@H]4[C@]5(C)CC[C@H](O)C(C)(C)[C@H]5CC[C@@]43C)[C@@H]12
REMARK SMILES IDX 7 1 6 2 11 3 33 4 5 5 12 6 15 7 2 8 3 9 13 10 16 11 1 12
REMARK SMILES IDX 4 13 14 14 31 15 17 16 18 17 30 18 32 19 19 20 29 21 28 22
REMARK SMILES IDX 21 23 20 24 25 25 22 26 23 27 26 28 27 29 8 30 9 31 10 32
REMARK SMILES IDX 24 33
REMARK H PARENT 24 34
REMARK Flexibility Score: inf
ROOT
ATOM      1  C   UNL     1     105.779 121.243 122.444  1.00  0.00     0.017 C 
ATOM      2  C   UNL     1     107.217 121.743 122.783  1.00  0.00     0.014 C 
ATOM      3  C   UNL     1     104.917 122.495 122.164  1.00  0.00     0.014 C 
ATOM      4  C   UNL     1     105.751 120.308 121.171  1.00  0.00     0.030 C 
ATOM      5  C   UNL     1     108.273 120.669 122.549  1.00  0.00     0.004 C 
ATOM      6  C   UNL     1     103.444 122.172 121.943  1.00  0.00     0.013 C 
ATOM      7  C   UNL     1     104.417 120.350 120.376  1.00  0.00    -0.063 C 
ATOM      8  C   UNL     1     107.026 120.480 120.258  1.00  0.00    -0.003 C 
ATOM      9  C   UNL     1     108.348 120.239 121.066  1.00  0.00    -0.011 C 
ATOM     10  C   UNL     1     103.133 121.012 120.915  1.00  0.00    -0.006 C 
ATOM     11  C   UNL     1     104.298 119.517 119.325  1.00  0.00    -0.027 C 
ATOM     12  C   UNL     1     107.002 121.772 119.408  1.00  0.00     0.008 C 
ATOM     13  C   UNL     1     109.607 120.809 120.386  1.00  0.00     0.008 C 
ATOM     14  C   UNL     1     102.407 119.886 121.719  1.00  0.00     0.017 C 
ATOM     15  C   UNL     1     102.192 121.536 119.713  1.00  0.00    -0.020 C 
ATOM     16  C   UNL     1     103.189 119.550 118.325  1.00  0.00     0.032 C 
ATOM     17  C   UNL     1     101.901 120.370 118.666  1.00  0.00     0.006 C 
ATOM     18  C   UNL     1     102.884 122.714 118.943  1.00  0.00     0.008 C 
ATOM     19  C   UNL     1     100.844 122.042 120.346  1.00  0.00     0.012 C 
ATOM     20  C   UNL     1     101.133 120.836 117.329  1.00  0.00    -0.025 C 
ATOM     21  C   UNL     1     102.138 123.191 117.683  1.00  0.00     0.005 C 
ATOM     22  C   UNL     1     101.925 122.036 116.675  1.00  0.00     0.003 C 
ATOM     23  C   UNL     1     101.059 119.661 116.289  1.00  0.00     0.010 C 
ATOM     24  C   UNL     1      99.647 121.196 117.681  1.00  0.00     0.012 C 
ATOM     25  C   UNL     1     101.453 122.481 115.231  1.00  0.00    -0.006 C 
ATOM     26  C   UNL     1     100.546 120.083 114.901  1.00  0.00     0.033 C 
ATOM     27  C   UNL     1     101.389 121.223 114.301  1.00  0.00     0.120 C 
ATOM     28  C   UNL     1     102.487 123.468 114.609  1.00  0.00     0.014 C 
ATOM     29  C   UNL     1     100.092 123.221 115.222  1.00  0.00     0.014 C 
ENDROOT
BRANCH   1  30
ATOM     30  C   UNL     1     105.274 120.496 123.680  1.00  0.00     0.048 C 
ATOM     31  O   UNL     1     105.291 119.238 123.727  1.00  0.00    -0.550 OA
ATOM     32  O   UNL     1     104.654 121.184 124.718  1.00  0.00    -0.550 OA
ENDBRANCH   1  30
BRANCH  27  33
ATOM     33  O   UNL     1     102.690 120.748 114.043  1.00  0.00    -0.393 OA
ATOM     34  H   UNL     1     102.613 120.077 113.313  1.00  0.00     0.210 HD
ENDBRANCH  27  33
TORSDOF 2
ENDMDL
MODEL 6
REMARK VINA RESULT:    -6.370      3.122      6.198
REMARK INTER + INTRA:          -7.149
REMARK INTER:                  -6.852
REMARK INTRA:                  -0.297
REMARK UNBOUND:                -0.221
REMARK SMILES C[C@H]1[C@@H](C)CC[C@@]2(C(=O)[O-])CC[C@]3(C)C(=CC[C@@H]4[C@]5(C)CC[C@H](O)C(C)(C)[C@H]5CC[C@@]43C)[C@@H]12
REMARK SMILES IDX 7 1 6 2 11 3 33 4 5 5 12 6 15 7 2 8 3 9 13 10 16 11 1 12
REMARK SMILES IDX 4 13 14 14 31 15 17 16 18 17 30 18 32 19 19 20 29 21 28 22
REMARK SMILES IDX 21 23 20 24 25 25 22 26 23 27 26 28 27 29 8 30 9 31 10 32
REMARK SMILES IDX 24 33
REMARK H PARENT 24 34
REMARK Flexibility Score: inf
ROOT
ATOM      1  C   UNL     1     103.240 120.223 124.806  1.00  0.00     0.017 C 
ATOM      2  C   UNL     1     104.120 121.143 123.905  1.00  0.00     0.014 C 
ATOM      3  C   UNL     1     101.768 120.638 124.580  1.00  0.00     0.014 C 
ATOM      4  C   UNL     1     103.401 118.693 124.444  1.00  0.00     0.030 C 
ATOM      5  C   UNL     1     105.480 120.525 123.602  1.00  0.00     0.004 C 
ATOM      6  C   UNL     1     100.791 119.910 125.496  1.00  0.00     0.013 C 
ATOM      7  C   UNL     1     102.143 117.830 124.740  1.00  0.00    -0.063 C 
ATOM      8  C   UNL     1     103.986 118.465 122.997  1.00  0.00    -0.003 C 
ATOM      9  C   UNL     1     105.356 119.204 122.809  1.00  0.00    -0.011 C 
ATOM     10  C   UNL     1     100.946 118.338 125.569  1.00  0.00    -0.006 C 
ATOM     11  C   UNL     1     102.240 116.504 124.528  1.00  0.00    -0.027 C 
ATOM     12  C   UNL     1     102.951 118.705 121.872  1.00  0.00     0.008 C 
ATOM     13  C   UNL     1     105.761 119.401 121.336  1.00  0.00     0.008 C 
ATOM     14  C   UNL     1     101.306 117.993 127.049  1.00  0.00     0.017 C 
ATOM     15  C   UNL     1      99.577 117.598 125.139  1.00  0.00    -0.020 C 
ATOM     16  C   UNL     1     101.096 115.544 124.559  1.00  0.00     0.032 C 
ATOM     17  C   UNL     1      99.744 116.014 125.190  1.00  0.00     0.006 C 
ATOM     18  C   UNL     1      99.170 117.994 123.677  1.00  0.00     0.008 C 
ATOM     19  C   UNL     1      98.453 118.055 126.140  1.00  0.00     0.012 C 
ATOM     20  C   UNL     1      98.500 115.182 124.596  1.00  0.00    -0.025 C 
ATOM     21  C   UNL     1      97.957 117.229 123.113  1.00  0.00     0.005 C 
ATOM     22  C   UNL     1      98.189 115.699 123.136  1.00  0.00     0.003 C 
ATOM     23  C   UNL     1      98.838 113.650 124.522  1.00  0.00     0.010 C 
ATOM     24  C   UNL     1      97.276 115.309 125.569  1.00  0.00     0.012 C 
ATOM     25  C   UNL     1      97.147 114.849 122.300  1.00  0.00    -0.006 C 
ATOM     26  C   UNL     1      97.795 112.814 123.757  1.00  0.00     0.033 C 
ATOM     27  C   UNL     1      97.574 113.342 122.329  1.00  0.00     0.120 C 
ATOM     28  C   UNL     1      97.153 115.307 120.811  1.00  0.00     0.014 C 
ATOM     29  C   UNL     1      95.686 114.999 122.791  1.00  0.00     0.014 C 
ENDROOT
BRANCH   1  30
ATOM     30  C   UNL     1     103.668 120.488 126.251  1.00  0.00     0.048 C 
ATOM     31  O   UNL     1     103.505 121.620 126.777  1.00  0.00    -0.550 OA
ATOM     32  O   UNL     1     104.373 119.526 126.967  1.00  0.00    -0.550 OA
ENDBRANCH   1  30
BRANCH  27  33
ATOM     33  O   UNL     1      98.755 113.161 121.581  1.00  0.00    -0.393 OA
ATOM     34  H   UNL     1      98.480 112.859 120.676  1.00  0.00     0.210 HD
ENDBRANCH  27  33
TORSDOF 2
ENDMDL
MODEL 7
REMARK VINA RESULT:    -6.252      5.364      8.355
REMARK INTER + INTRA:          -7.021
REMARK INTER:                  -6.784
REMARK INTRA:                  -0.237
REMARK UNBOUND:                -0.221
REMARK SMILES C[C@H]1[C@@H](C)CC[C@@]2(C(=O)[O-])CC[C@]3(C)C(=CC[C@@H]4[C@]5(C)CC[C@H](O)C(C)(C)[C@H]5CC[C@@]43C)[C@@H]12
REMARK SMILES IDX 7 1 6 2 11 3 33 4 5 5 12 6 15 7 2 8 3 9 13 10 16 11 1 12
REMARK SMILES IDX 4 13 14 14 31 15 17 16 18 17 30 18 32 19 19 20 29 21 28 22
REMARK SMILES IDX 21 23 20 24 25 25 22 26 23 27 26 28 27 29 8 30 9 31 10 32
REMARK SMILES IDX 24 33
REMARK H PARENT 24 34
REMARK Flexibility Score: inf
ROOT
ATOM      1  C   UNL     1     103.191 123.588 117.913  1.00  0.00     0.017 C 
ATOM      2  C   UNL     1     104.315 123.977 118.922  1.00  0.00     0.014 C 
ATOM      3  C   UNL     1     103.857 123.437 116.526  1.00  0.00     0.014 C 
ATOM      4  C   UNL     1     102.486 122.225 118.292  1.00  0.00     0.030 C 
ATOM      5  C   UNL     1     103.944 123.634 120.360  1.00  0.00     0.004 C 
ATOM      6  C   UNL     1     102.857 123.183 115.404  1.00  0.00     0.013 C 
ATOM      7  C   UNL     1     101.920 121.438 117.077  1.00  0.00    -0.063 C 
ATOM      8  C   UNL     1     103.356 121.335 119.260  1.00  0.00    -0.003 C 
ATOM      9  C   UNL     1     103.744 122.114 120.564  1.00  0.00    -0.011 C 
ATOM     10  C   UNL     1     101.794 122.042 115.664  1.00  0.00    -0.006 C 
ATOM     11  C   UNL     1     101.238 120.308 117.338  1.00  0.00    -0.027 C 
ATOM     12  C   UNL     1     104.530 120.621 118.548  1.00  0.00     0.008 C 
ATOM     13  C   UNL     1     104.928 121.497 121.331  1.00  0.00     0.008 C 
ATOM     14  C   UNL     1     100.390 122.726 115.642  1.00  0.00     0.017 C 
ATOM     15  C   UNL     1     101.877 120.899 114.527  1.00  0.00    -0.020 C 
ATOM     16  C   UNL     1     100.795 119.316 116.312  1.00  0.00     0.032 C 
ATOM     17  C   UNL     1     100.822 119.738 114.806  1.00  0.00     0.006 C 
ATOM     18  C   UNL     1     103.307 120.255 114.495  1.00  0.00     0.008 C 
ATOM     19  C   UNL     1     101.576 121.581 113.142  1.00  0.00     0.012 C 
ATOM     20  C   UNL     1     100.953 118.456 113.841  1.00  0.00    -0.025 C 
ATOM     21  C   UNL     1     103.452 119.049 113.546  1.00  0.00     0.005 C 
ATOM     22  C   UNL     1     102.442 117.929 113.890  1.00  0.00     0.003 C 
ATOM     23  C   UNL     1      99.998 117.302 114.313  1.00  0.00     0.010 C 
ATOM     24  C   UNL     1     100.483 118.843 112.395  1.00  0.00     0.012 C 
ATOM     25  C   UNL     1     102.714 116.538 113.185  1.00  0.00    -0.006 C 
ATOM     26  C   UNL     1     100.226 115.964 113.586  1.00  0.00     0.033 C 
ATOM     27  C   UNL     1     101.683 115.484 113.712  1.00  0.00     0.120 C 
ATOM     28  C   UNL     1     104.138 116.021 113.551  1.00  0.00     0.014 C 
ATOM     29  C   UNL     1     102.665 116.605 111.638  1.00  0.00     0.014 C 
ENDROOT
BRANCH   1  30
ATOM     30  C   UNL     1     102.184 124.740 117.914  1.00  0.00     0.048 C 
ATOM     31  O   UNL     1     101.036 124.596 118.409  1.00  0.00    -0.550 OA
ATOM     32  O   UNL     1     102.466 125.925 117.242  1.00  0.00    -0.550 OA
ENDBRANCH   1  30
BRANCH  27  33
ATOM     33  O   UNL     1     101.953 115.179 115.061  1.00  0.00    -0.393 OA
ATOM     34  H   UNL     1     101.295 114.487 115.338  1.00  0.00     0.210 HD
ENDBRANCH  27  33
TORSDOF 2
ENDMDL
MODEL 8
REMARK VINA RESULT:    -6.245      4.017      7.631
REMARK INTER + INTRA:          -7.013
REMARK INTER:                  -6.778
REMARK INTRA:                  -0.235
REMARK UNBOUND:                -0.221
REMARK SMILES C[C@H]1[C@@H](C)CC[C@@]2(C(=O)[O-])CC[C@]3(C)C(=CC[C@@H]4[C@]5(C)CC[C@H](O)C(C)(C)[C@H]5CC[C@@]43C)[C@@H]12
REMARK SMILES IDX 7 1 6 2 11 3 33 4 5 5 12 6 15 7 2 8 3 9 13 10 16 11 1 12
REMARK SMILES IDX 4 13 14 14 31 15 17 16 18 17 30 18 32 19 19 20 29 21 28 22
REMARK SMILES IDX 21 23 20 24 25 25 22 26 23 27 26 28 27 29 8 30 9 31 10 32
REMARK SMILES IDX 24 33
REMARK H PARENT 24 34
REMARK Flexibility Score: inf
ROOT
ATOM      1  C   UNL     1     104.476 122.752 121.310  1.00  0.00     0.017 C 
ATOM      2  C   UNL     1     105.693 122.256 122.150  1.00  0.00     0.014 C 
ATOM      3  C   UNL     1     105.043 123.397 120.025  1.00  0.00     0.014 C 
ATOM      4  C   UNL     1     103.504 121.574 120.904  1.00  0.00     0.030 C 
ATOM      5  C   UNL     1     105.308 121.154 123.130  1.00  0.00     0.004 C 
ATOM      6  C   UNL     1     103.973 124.049 119.157  1.00  0.00     0.013 C 
ATOM      7  C   UNL     1     102.737 121.808 119.572  1.00  0.00    -0.063 C 
ATOM      8  C   UNL     1     104.192 120.157 120.985  1.00  0.00    -0.003 C 
ATOM      9  C   UNL     1     104.787 119.889 122.411  1.00  0.00    -0.011 C 
ATOM     10  C   UNL     1     102.696 123.169 118.850  1.00  0.00    -0.006 C 
ATOM     11  C   UNL     1     101.833 120.879 119.209  1.00  0.00    -0.027 C 
ATOM     12  C   UNL     1     105.156 119.875 119.807  1.00  0.00     0.008 C 
ATOM     13  C   UNL     1     105.834 118.760 122.447  1.00  0.00     0.008 C 
ATOM     14  C   UNL     1     101.475 123.919 119.472  1.00  0.00     0.017 C 
ATOM     15  C   UNL     1     102.487 122.984 117.259  1.00  0.00    -0.020 C 
ATOM     16  C   UNL     1     101.149 120.819 117.883  1.00  0.00     0.032 C 
ATOM     17  C   UNL     1     101.213 122.076 116.953  1.00  0.00     0.006 C 
ATOM     18  C   UNL     1     103.739 122.294 116.614  1.00  0.00     0.008 C 
ATOM     19  C   UNL     1     102.293 124.414 116.634  1.00  0.00     0.012 C 
ATOM     20  C   UNL     1     101.027 121.669 115.406  1.00  0.00    -0.025 C 
ATOM     21  C   UNL     1     103.583 121.934 115.124  1.00  0.00     0.005 C 
ATOM     22  C   UNL     1     102.365 121.011 114.885  1.00  0.00     0.003 C 
ATOM     23  C   UNL     1      99.860 120.632 115.238  1.00  0.00     0.010 C 
ATOM     24  C   UNL     1     100.602 122.936 114.583  1.00  0.00     0.012 C 
ATOM     25  C   UNL     1     102.301 120.337 113.454  1.00  0.00    -0.006 C 
ATOM     26  C   UNL     1      99.763 120.019 113.829  1.00  0.00     0.033 C 
ATOM     27  C   UNL     1     101.083 119.354 113.402  1.00  0.00     0.120 C 
ATOM     28  C   UNL     1     103.589 119.498 113.198  1.00  0.00     0.014 C 
ATOM     29  C   UNL     1     102.213 121.357 112.291  1.00  0.00     0.014 C 
ENDROOT
BRANCH   1  30
ATOM     30  C   UNL     1     103.746 123.789 122.167  1.00  0.00     0.048 C 
ATOM     31  O   UNL     1     102.623 123.534 122.674  1.00  0.00    -0.550 OA
ATOM     32  O   UNL     1     104.243 125.082 122.287  1.00  0.00    -0.550 OA
ENDBRANCH   1  30
BRANCH  27  33
ATOM     33  O   UNL     1     101.328 118.240 114.231  1.00  0.00    -0.393 OA
ATOM     34  H   UNL     1     101.692 118.591 115.086  1.00  0.00     0.210 HD
ENDBRANCH  27  33
TORSDOF 2
ENDMDL
MODEL 9
REMARK VINA RESULT:    -6.222      1.990      3.939
REMARK INTER + INTRA:          -6.988
REMARK INTER:                  -6.738
REMARK INTRA:                  -0.250
REMARK UNBOUND:                -0.221
REMARK SMILES C[C@H]1[C@@H](C)CC[C@@]2(C(=O)[O-])CC[C@]3(C)C(=CC[C@@H]4[C@]5(C)CC[C@H](O)C(C)(C)[C@H]5CC[C@@]43C)[C@@H]12
REMARK SMILES IDX 7 1 6 2 11 3 33 4 5 5 12 6 15 7 2 8 3 9 13 10 16 11 1 12
REMARK SMILES IDX 4 13 14 14 31 15 17 16 18 17 30 18 32 19 19 20 29 21 28 22
REMARK SMILES IDX 21 23 20 24 25 25 22 26 23 27 26 28 27 29 8 30 9 31 10 32
REMARK SMILES IDX 24 33
REMARK H PARENT 24 34
REMARK Flexibility Score: inf
ROOT
ATOM      1  C   UNL     1     105.924 121.460 120.812  1.00  0.00     0.017 C 
ATOM      2  C   UNL     1     105.894 122.550 119.697  1.00  0.00     0.014 C 
ATOM      3  C   UNL     1     105.400 122.122 122.108  1.00  0.00     0.014 C 
ATOM      4  C   UNL     1     105.008 120.219 120.467  1.00  0.00     0.030 C 
ATOM      5  C   UNL     1     105.852 121.944 118.298  1.00  0.00     0.004 C 
ATOM      6  C   UNL     1     105.492 121.211 123.327  1.00  0.00     0.013 C 
ATOM      7  C   UNL     1     104.430 119.486 121.708  1.00  0.00    -0.063 C 
ATOM      8  C   UNL     1     103.919 120.548 119.374  1.00  0.00    -0.003 C 
ATOM      9  C   UNL     1     104.572 121.109 118.063  1.00  0.00    -0.011 C 
ATOM     10  C   UNL     1     104.916 119.750 123.147  1.00  0.00    -0.006 C 
ATOM     11  C   UNL     1     103.706 118.373 121.486  1.00  0.00    -0.027 C 
ATOM     12  C   UNL     1     102.731 121.373 119.921  1.00  0.00     0.008 C 
ATOM     13  C   UNL     1     103.585 121.853 117.145  1.00  0.00     0.008 C 
ATOM     14  C   UNL     1     106.114 118.769 123.354  1.00  0.00     0.017 C 
ATOM     15  C   UNL     1     103.753 119.447 124.226  1.00  0.00    -0.020 C 
ATOM     16  C   UNL     1     102.906 117.649 122.519  1.00  0.00     0.032 C 
ATOM     17  C   UNL     1     103.157 117.982 124.027  1.00  0.00     0.006 C 
ATOM     18  C   UNL     1     102.576 120.472 124.071  1.00  0.00     0.008 C 
ATOM     19  C   UNL     1     104.384 119.583 125.660  1.00  0.00     0.012 C 
ATOM     20  C   UNL     1     101.862 117.650 124.923  1.00  0.00    -0.025 C 
ATOM     21  C   UNL     1     101.346 120.183 124.953  1.00  0.00     0.005 C 
ATOM     22  C   UNL     1     100.773 118.770 124.686  1.00  0.00     0.003 C 
ATOM     23  C   UNL     1     101.246 116.262 124.522  1.00  0.00     0.010 C 
ATOM     24  C   UNL     1     102.290 117.515 126.427  1.00  0.00     0.012 C 
ATOM     25  C   UNL     1      99.342 118.496 125.304  1.00  0.00    -0.006 C 
ATOM     26  C   UNL     1      99.879 115.972 125.169  1.00  0.00     0.033 C 
ATOM     27  C   UNL     1      98.853 117.077 124.860  1.00  0.00     0.120 C 
ATOM     28  C   UNL     1      98.315 119.534 124.759  1.00  0.00     0.014 C 
ATOM     29  C   UNL     1      99.298 118.617 126.848  1.00  0.00     0.014 C 
ENDROOT
BRANCH   1  30
ATOM     30  C   UNL     1     107.385 121.033 120.968  1.00  0.00     0.048 C 
ATOM     31  O   UNL     1     108.219 121.779 121.543  1.00  0.00    -0.550 OA
ATOM     32  O   UNL     1     107.851 119.876 120.352  1.00  0.00    -0.550 OA
ENDBRANCH   1  30
BRANCH  27  33
ATOM     33  O   UNL     1      98.573 117.074 123.478  1.00  0.00    -0.393 OA
ATOM     34  H   UNL     1      97.625 117.354 123.376  1.00  0.00     0.210 HD
ENDBRANCH  27  33
TORSDOF 2
ENDMDL
