MODEL 1
REMARK VINA RESULT:    -4.805      0.000      0.000
REMARK INTER + INTRA:         -13.430
REMARK INTER:                 -10.423
REMARK INTRA:                  -3.007
REMARK UNBOUND:                -3.007
REMARK SMILES CCCCCCCCCCCCCCCCCCCCCC(=O)[O-]
REMARK SMILES IDX 12 1 11 2 10 3 9 4 8 5 7 6 6 7 5 8 4 9 3 10 2 11 1 12 13 13
REMARK SMILES IDX 14 14 15 15 16 16 17 17 18 18 19 19 20 20 21 21 22 22 23 23
REMARK SMILES IDX 24 24
REMARK H PARENT
REMARK Flexibility Score: inf
ROOT
ATOM      1  C   UNL     1      55.029  23.052  51.310  1.00  0.00     0.000 C 
ENDROOT
BRANCH   1   2
ATOM      2  C   UNL     1      53.915  24.100  51.501  1.00  0.00     0.000 C 
BRANCH   2   3
ATOM      3  C   UNL     1      53.206  24.467  50.189  1.00  0.00     0.000 C 
BRANCH   3   4
ATOM      4  C   UNL     1      53.742  23.624  49.021  1.00  0.00    -0.000 C 
BRANCH   4   5
ATOM      5  C   UNL     1      53.754  24.397  47.693  1.00  0.00    -0.000 C 
BRANCH   5   6
ATOM      6  C   UNL     1      55.170  24.829  47.272  1.00  0.00    -0.000 C 
BRANCH   6   7
ATOM      7  C   UNL     1      56.266  24.035  48.001  1.00  0.00    -0.000 C 
BRANCH   7   8
ATOM      8  C   UNL     1      57.186  23.274  47.030  1.00  0.00    -0.000 C 
BRANCH   8   9
ATOM      9  C   UNL     1      57.155  21.755  47.255  1.00  0.00    -0.000 C 
BRANCH   9  10
ATOM     10  C   UNL     1      56.349  21.359  48.501  1.00  0.00    -0.000 C 
BRANCH  10  11
ATOM     11  C   UNL     1      56.643  19.909  48.905  1.00  0.00    -0.003 C 
ATOM     12  C   UNL     1      56.012  18.924  47.924  1.00  0.00     0.004 C 
ENDBRANCH  10  11
ENDBRANCH   9  10
ENDBRANCH   8   9
ENDBRANCH   7   8
ENDBRANCH   6   7
ENDBRANCH   5   6
ENDBRANCH   4   5
ENDBRANCH   3   4
ENDBRANCH   2   3
ENDBRANCH   1   2
BRANCH   1  13
ATOM     13  C   UNL     1      56.433  23.507  51.751  1.00  0.00     0.000 C 
BRANCH  13  14
ATOM     14  C   UNL     1      56.857  23.042  53.158  1.00  0.00     0.000 C 
BRANCH  14  15
ATOM     15  C   UNL     1      56.843  21.509  53.338  1.00  0.00     0.000 C 
BRANCH  15  16
ATOM     16  C   UNL     1      55.877  21.058  54.448  1.00  0.00     0.000 C 
BRANCH  16  17
ATOM     17  C   UNL     1      55.132  22.236  55.099  1.00  0.00     0.000 C 
BRANCH  17  18
ATOM     18  C   UNL     1      53.620  22.209  54.812  1.00  0.00     0.000 C 
BRANCH  18  19
ATOM     19  C   UNL     1      53.212  21.026  53.920  1.00  0.00     0.000 C 
BRANCH  19  20
ATOM     20  C   UNL     1      51.744  21.109  53.466  1.00  0.00     0.006 C 
BRANCH  20  21
ATOM     21  C   UNL     1      51.218  22.549  53.470  1.00  0.00     0.053 C 
BRANCH  21  22
ATOM     22  C   UNL     1      49.731  22.599  53.289  1.00  0.00     0.041 C 
ATOM     23  O   UNL     1      49.224  22.394  52.156  1.00  0.00    -0.550 OA
ATOM     24  O   UNL     1      48.908  22.907  54.366  1.00  0.00    -0.550 OA
ENDBRANCH  21  22
ENDBRANCH  20  21
ENDBRANCH  19  20
ENDBRANCH  18  19
ENDBRANCH  17  18
ENDBRANCH  16  17
ENDBRANCH  15  16
ENDBRANCH  14  15
ENDBRANCH  13  14
ENDBRANCH   1  13
TORSDOF 20
ENDMDL
MODEL 2
REMARK VINA RESULT:    -4.711      1.663      2.395
REMARK INTER + INTRA:         -13.225
REMARK INTER:                  -9.766
REMARK INTRA:                  -3.459
REMARK UNBOUND:                -3.007
REMARK SMILES CCCCCCCCCCCCCCCCCCCCCC(=O)[O-]
REMARK SMILES IDX 12 1 11 2 10 3 9 4 8 5 7 6 6 7 5 8 4 9 3 10 2 11 1 12 13 13
REMARK SMILES IDX 14 14 15 15 16 16 17 17 18 18 19 19 20 20 21 21 22 22 23 23
REMARK SMILES IDX 24 24
REMARK H PARENT
REMARK Flexibility Score: inf
ROOT
ATOM      1  C   UNL     1      55.555  21.617  52.468  1.00  0.00     0.000 C 
ENDROOT
BRANCH   1   2
ATOM      2  C   UNL     1      55.542  22.999  51.785  1.00  0.00     0.000 C 
BRANCH   2   3
ATOM      3  C   UNL     1      54.200  23.323  51.112  1.00  0.00     0.000 C 
BRANCH   3   4
ATOM      4  C   UNL     1      54.169  24.778  50.620  1.00  0.00    -0.000 C 
BRANCH   4   5
ATOM      5  C   UNL     1      53.336  24.951  49.340  1.00  0.00    -0.000 C 
BRANCH   5   6
ATOM      6  C   UNL     1      53.846  24.077  48.180  1.00  0.00    -0.000 C 
BRANCH   6   7
ATOM      7  C   UNL     1      54.949  24.770  47.364  1.00  0.00    -0.000 C 
BRANCH   7   8
ATOM      8  C   UNL     1      56.250  23.950  47.318  1.00  0.00    -0.000 C 
BRANCH   8   9
ATOM      9  C   UNL     1      56.169  22.665  48.156  1.00  0.00    -0.000 C 
BRANCH   9  10
ATOM     10  C   UNL     1      57.002  21.519  47.563  1.00  0.00    -0.000 C 
BRANCH  10  11
ATOM     11  C   UNL     1      56.797  20.224  48.358  1.00  0.00    -0.003 C 
ATOM     12  C   UNL     1      55.574  20.322  49.267  1.00  0.00     0.004 C 
ENDBRANCH  10  11
ENDBRANCH   9  10
ENDBRANCH   8   9
ENDBRANCH   7   8
ENDBRANCH   6   7
ENDBRANCH   5   6
ENDBRANCH   4   5
ENDBRANCH   3   4
ENDBRANCH   2   3
ENDBRANCH   1   2
BRANCH   1  13
ATOM     13  C   UNL     1      56.794  21.333  53.338  1.00  0.00     0.000 C 
BRANCH  13  14
ATOM     14  C   UNL     1      56.489  20.948  54.799  1.00  0.00     0.000 C 
BRANCH  14  15
ATOM     15  C   UNL     1      56.722  22.094  55.807  1.00  0.00     0.000 C 
BRANCH  15  16
ATOM     16  C   UNL     1      57.209  23.384  55.124  1.00  0.00     0.000 C 
BRANCH  16  17
ATOM     17  C   UNL     1      56.202  24.539  55.254  1.00  0.00     0.000 C 
BRANCH  17  18
ATOM     18  C   UNL     1      54.786  24.050  55.609  1.00  0.00     0.000 C 
BRANCH  18  19
ATOM     19  C   UNL     1      53.711  24.641  54.683  1.00  0.00     0.000 C 
BRANCH  19  20
ATOM     20  C   UNL     1      52.616  23.621  54.324  1.00  0.00     0.006 C 
BRANCH  20  21
ATOM     21  C   UNL     1      52.962  22.207  54.809  1.00  0.00     0.053 C 
BRANCH  21  22
ATOM     22  C   UNL     1      52.162  21.163  54.092  1.00  0.00     0.041 C 
ATOM     23  O   UNL     1      51.212  21.500  53.339  1.00  0.00    -0.550 OA
ATOM     24  O   UNL     1      52.443  19.815  54.284  1.00  0.00    -0.550 OA
ENDBRANCH  21  22
ENDBRANCH  20  21
ENDBRANCH  19  20
ENDBRANCH  18  19
ENDBRANCH  17  18
ENDBRANCH  16  17
ENDBRANCH  15  16
ENDBRANCH  14  15
ENDBRANCH  13  14
ENDBRANCH   1  13
TORSDOF 20
ENDMDL
MODEL 3
REMARK VINA RESULT:    -4.646      1.049      2.137
REMARK INTER + INTRA:         -13.084
REMARK INTER:                  -9.801
REMARK INTRA:                  -3.284
REMARK UNBOUND:                -3.007
REMARK SMILES CCCCCCCCCCCCCCCCCCCCCC(=O)[O-]
REMARK SMILES IDX 12 1 11 2 10 3 9 4 8 5 7 6 6 7 5 8 4 9 3 10 2 11 1 12 13 13
REMARK SMILES IDX 14 14 15 15 16 16 17 17 18 18 19 19 20 20 21 21 22 22 23 23
REMARK SMILES IDX 24 24
REMARK H PARENT
REMARK Flexibility Score: inf
ROOT
ATOM      1  C   UNL     1      55.686  21.893  52.465  1.00  0.00     0.000 C 
ENDROOT
BRANCH   1   2
ATOM      2  C   UNL     1      56.130  23.200  51.781  1.00  0.00     0.000 C 
BRANCH   2   3
ATOM      3  C   UNL     1      55.012  24.253  51.719  1.00  0.00     0.000 C 
BRANCH   3   4
ATOM      4  C   UNL     1      53.646  23.590  51.487  1.00  0.00    -0.000 C 
BRANCH   4   5
ATOM      5  C   UNL     1      52.998  24.023  50.163  1.00  0.00    -0.000 C 
BRANCH   5   6
ATOM      6  C   UNL     1      53.941  24.874  49.293  1.00  0.00    -0.000 C 
BRANCH   6   7
ATOM      7  C   UNL     1      54.045  24.347  47.853  1.00  0.00    -0.000 C 
BRANCH   7   8
ATOM      8  C   UNL     1      55.466  24.486  47.277  1.00  0.00    -0.000 C 
BRANCH   8   9
ATOM      9  C   UNL     1      56.523  23.776  48.137  1.00  0.00    -0.000 C 
BRANCH   9  10
ATOM     10  C   UNL     1      56.665  22.287  47.788  1.00  0.00    -0.000 C 
BRANCH  10  11
ATOM     11  C   UNL     1      55.994  21.409  48.852  1.00  0.00    -0.003 C 
ATOM     12  C   UNL     1      56.393  19.944  48.691  1.00  0.00     0.004 C 
ENDBRANCH  10  11
ENDBRANCH   9  10
ENDBRANCH   8   9
ENDBRANCH   7   8
ENDBRANCH   6   7
ENDBRANCH   5   6
ENDBRANCH   4   5
ENDBRANCH   3   4
ENDBRANCH   2   3
ENDBRANCH   1   2
BRANCH   1  13
ATOM     13  C   UNL     1      56.760  21.221  53.342  1.00  0.00     0.000 C 
BRANCH  13  14
ATOM     14  C   UNL     1      56.339  20.955  54.801  1.00  0.00     0.000 C 
BRANCH  14  15
ATOM     15  C   UNL     1      56.760  22.069  55.783  1.00  0.00     0.000 C 
BRANCH  15  16
ATOM     16  C   UNL     1      55.555  22.859  56.326  1.00  0.00     0.000 C 
BRANCH  16  17
ATOM     17  C   UNL     1      55.234  24.103  55.482  1.00  0.00     0.000 C 
BRANCH  17  18
ATOM     18  C   UNL     1      53.756  24.164  55.057  1.00  0.00     0.000 C 
BRANCH  18  19
ATOM     19  C   UNL     1      53.057  22.800  55.167  1.00  0.00     0.000 C 
BRANCH  19  20
ATOM     20  C   UNL     1      51.550  22.883  54.864  1.00  0.00     0.006 C 
BRANCH  20  21
ATOM     21  C   UNL     1      51.116  21.862  53.805  1.00  0.00     0.053 C 
BRANCH  21  22
ATOM     22  C   UNL     1      49.735  22.142  53.296  1.00  0.00     0.041 C 
ATOM     23  O   UNL     1      48.731  21.697  53.912  1.00  0.00    -0.550 OA
ATOM     24  O   UNL     1      49.557  22.864  52.122  1.00  0.00    -0.550 OA
ENDBRANCH  21  22
ENDBRANCH  20  21
ENDBRANCH  19  20
ENDBRANCH  18  19
ENDBRANCH  17  18
ENDBRANCH  16  17
ENDBRANCH  15  16
ENDBRANCH  14  15
ENDBRANCH  13  14
ENDBRANCH   1  13
TORSDOF 20
ENDMDL
MODEL 4
REMARK VINA RESULT:    -4.552      2.968      4.363
REMARK INTER + INTRA:         -12.880
REMARK INTER:                  -9.682
REMARK INTRA:                  -3.198
REMARK UNBOUND:                -3.007
REMARK SMILES CCCCCCCCCCCCCCCCCCCCCC(=O)[O-]
REMARK SMILES IDX 12 1 11 2 10 3 9 4 8 5 7 6 6 7 5 8 4 9 3 10 2 11 1 12 13 13
REMARK SMILES IDX 14 14 15 15 16 16 17 17 18 18 19 19 20 20 21 21 22 22 23 23
REMARK SMILES IDX 24 24
REMARK H PARENT
REMARK Flexibility Score: inf
ROOT
ATOM      1  C   UNL     1      54.497  21.456  52.027  1.00  0.00     0.000 C 
ENDROOT
BRANCH   1   2
ATOM      2  C   UNL     1      55.463  22.655  51.970  1.00  0.00     0.000 C 
BRANCH   2   3
ATOM      3  C   UNL     1      54.779  23.955  51.516  1.00  0.00     0.000 C 
BRANCH   3   4
ATOM      4  C   UNL     1      53.544  23.652  50.653  1.00  0.00    -0.000 C 
BRANCH   4   5
ATOM      5  C   UNL     1      53.405  24.618  49.466  1.00  0.00    -0.000 C 
BRANCH   5   6
ATOM      6  C   UNL     1      53.823  23.978  48.130  1.00  0.00    -0.000 C 
BRANCH   6   7
ATOM      7  C   UNL     1      54.790  24.866  47.331  1.00  0.00    -0.000 C 
BRANCH   7   8
ATOM      8  C   UNL     1      56.166  24.207  47.131  1.00  0.00    -0.000 C 
BRANCH   8   9
ATOM      9  C   UNL     1      56.539  23.259  48.281  1.00  0.00    -0.000 C 
BRANCH   9  10
ATOM     10  C   UNL     1      56.725  21.807  47.814  1.00  0.00    -0.000 C 
BRANCH  10  11
ATOM     11  C   UNL     1      56.187  20.822  48.858  1.00  0.00    -0.003 C 
ATOM     12  C   UNL     1      56.235  19.387  48.340  1.00  0.00     0.004 C 
ENDBRANCH  10  11
ENDBRANCH   9  10
ENDBRANCH   8   9
ENDBRANCH   7   8
ENDBRANCH   6   7
ENDBRANCH   5   6
ENDBRANCH   4   5
ENDBRANCH   3   4
ENDBRANCH   2   3
ENDBRANCH   1   2
BRANCH   1  13
ATOM     13  C   UNL     1      53.806  21.241  53.387  1.00  0.00     0.000 C 
BRANCH  13  14
ATOM     14  C   UNL     1      52.371  20.683  53.309  1.00  0.00     0.000 C 
BRANCH  14  15
ATOM     15  C   UNL     1      51.325  21.551  54.040  1.00  0.00     0.000 C 
BRANCH  15  16
ATOM     16  C   UNL     1      51.700  23.044  54.043  1.00  0.00     0.000 C 
BRANCH  16  17
ATOM     17  C   UNL     1      51.678  23.657  55.453  1.00  0.00     0.000 C 
BRANCH  17  18
ATOM     18  C   UNL     1      53.089  23.843  56.038  1.00  0.00     0.000 C 
BRANCH  18  19
ATOM     19  C   UNL     1      54.047  24.531  55.052  1.00  0.00     0.000 C 
BRANCH  19  20
ATOM     20  C   UNL     1      55.526  24.245  55.370  1.00  0.00     0.006 C 
BRANCH  20  21
ATOM     21  C   UNL     1      55.724  22.862  56.004  1.00  0.00     0.053 C 
BRANCH  21  22
ATOM     22  C   UNL     1      57.142  22.646  56.435  1.00  0.00     0.041 C 
ATOM     23  O   UNL     1      57.994  23.562  56.294  1.00  0.00    -0.550 OA
ATOM     24  O   UNL     1      57.532  21.420  56.962  1.00  0.00    -0.550 OA
ENDBRANCH  21  22
ENDBRANCH  20  21
ENDBRANCH  19  20
ENDBRANCH  18  19
ENDBRANCH  17  18
ENDBRANCH  16  17
ENDBRANCH  15  16
ENDBRANCH  14  15
ENDBRANCH  13  14
ENDBRANCH   1  13
TORSDOF 20
ENDMDL
MODEL 5
REMARK VINA RESULT:    -4.520      2.647      7.199
REMARK INTER + INTRA:         -12.811
REMARK INTER:                  -9.297
REMARK INTRA:                  -3.514
REMARK UNBOUND:                -3.007
REMARK SMILES CCCCCCCCCCCCCCCCCCCCCC(=O)[O-]
REMARK SMILES IDX 12 1 11 2 10 3 9 4 8 5 7 6 6 7 5 8 4 9 3 10 2 11 1 12 13 13
REMARK SMILES IDX 14 14 15 15 16 16 17 17 18 18 19 19 20 20 21 21 22 22 23 23
REMARK SMILES IDX 24 24
REMARK H PARENT
REMARK Flexibility Score: inf
ROOT
ATOM      1  C   UNL     1      55.608  22.337  52.377  1.00  0.00     0.000 C 
ENDROOT
BRANCH   1   2
ATOM      2  C   UNL     1      56.542  21.364  53.122  1.00  0.00     0.000 C 
BRANCH   2   3
ATOM      3  C   UNL     1      56.026  20.990  54.520  1.00  0.00     0.000 C 
BRANCH   3   4
ATOM      4  C   UNL     1      56.996  21.471  55.610  1.00  0.00    -0.000 C 
BRANCH   4   5
ATOM      5  C   UNL     1      56.356  22.501  56.555  1.00  0.00    -0.000 C 
BRANCH   5   6
ATOM      6  C   UNL     1      56.066  23.842  55.858  1.00  0.00    -0.000 C 
BRANCH   6   7
ATOM      7  C   UNL     1      54.633  24.336  56.111  1.00  0.00    -0.000 C 
BRANCH   7   8
ATOM      8  C   UNL     1      53.662  23.930  54.989  1.00  0.00    -0.000 C 
BRANCH   8   9
ATOM      9  C   UNL     1      52.583  22.946  55.469  1.00  0.00    -0.000 C 
BRANCH   9  10
ATOM     10  C   UNL     1      51.423  22.808  54.471  1.00  0.00    -0.000 C 
BRANCH  10  11
ATOM     11  C   UNL     1      51.770  21.805  53.364  1.00  0.00    -0.003 C 
ATOM     12  C   UNL     1      52.445  20.561  53.938  1.00  0.00     0.004 C 
ENDBRANCH  10  11
ENDBRANCH   9  10
ENDBRANCH   8   9
ENDBRANCH   7   8
ENDBRANCH   6   7
ENDBRANCH   5   6
ENDBRANCH   4   5
ENDBRANCH   3   4
ENDBRANCH   2   3
ENDBRANCH   1   2
BRANCH   1  13
ATOM     13  C   UNL     1      56.199  23.736  52.116  1.00  0.00     0.000 C 
BRANCH  13  14
ATOM     14  C   UNL     1      55.168  24.823  51.754  1.00  0.00     0.000 C 
BRANCH  14  15
ATOM     15  C   UNL     1      53.777  24.263  51.385  1.00  0.00     0.000 C 
BRANCH  15  16
ATOM     16  C   UNL     1      53.355  24.638  49.953  1.00  0.00     0.000 C 
BRANCH  16  17
ATOM     17  C   UNL     1      53.681  23.535  48.932  1.00  0.00     0.000 C 
BRANCH  17  18
ATOM     18  C   UNL     1      54.298  24.093  47.637  1.00  0.00     0.000 C 
BRANCH  18  19
ATOM     19  C   UNL     1      55.826  23.932  47.598  1.00  0.00     0.000 C 
BRANCH  19  20
ATOM     20  C   UNL     1      56.334  22.875  48.595  1.00  0.00     0.006 C 
BRANCH  20  21
ATOM     21  C   UNL     1      56.735  21.569  47.898  1.00  0.00     0.053 C 
BRANCH  21  22
ATOM     22  C   UNL     1      56.445  20.372  48.751  1.00  0.00     0.041 C 
ATOM     23  O   UNL     1      55.524  20.413  49.608  1.00  0.00    -0.550 OA
ATOM     24  O   UNL     1      57.214  19.221  48.623  1.00  0.00    -0.550 OA
ENDBRANCH  21  22
ENDBRANCH  20  21
ENDBRANCH  19  20
ENDBRANCH  18  19
ENDBRANCH  17  18
ENDBRANCH  16  17
ENDBRANCH  15  16
ENDBRANCH  14  15
ENDBRANCH  13  14
ENDBRANCH   1  13
TORSDOF 20
ENDMDL
MODEL 6
REMARK VINA RESULT:    -4.480      1.451      5.377
REMARK INTER + INTRA:         -12.726
REMARK INTER:                  -9.629
REMARK INTRA:                  -3.097
REMARK UNBOUND:                -3.007
REMARK SMILES CCCCCCCCCCCCCCCCCCCCCC(=O)[O-]
REMARK SMILES IDX 12 1 11 2 10 3 9 4 8 5 7 6 6 7 5 8 4 9 3 10 2 11 1 12 13 13
REMARK SMILES IDX 14 14 15 15 16 16 17 17 18 18 19 19 20 20 21 21 22 22 23 23
REMARK SMILES IDX 24 24
REMARK H PARENT
REMARK Flexibility Score: inf
ROOT
ATOM      1  C   UNL     1      57.022  22.745  47.527  1.00  0.00     0.000 C 
ENDROOT
BRANCH   1   2
ATOM      2  C   UNL     1      56.478  21.310  47.670  1.00  0.00     0.000 C 
BRANCH   2   3
ATOM      3  C   UNL     1      56.608  20.759  49.098  1.00  0.00     0.000 C 
BRANCH   3   4
ATOM      4  C   UNL     1      55.225  20.493  49.713  1.00  0.00    -0.000 C 
BRANCH   4   5
ATOM      5  C   UNL     1      55.030  21.210  51.058  1.00  0.00    -0.000 C 
BRANCH   5   6
ATOM      6  C   UNL     1      56.218  22.120  51.420  1.00  0.00    -0.000 C 
BRANCH   6   7
ATOM      7  C   UNL     1      56.281  22.430  52.924  1.00  0.00    -0.000 C 
BRANCH   7   8
ATOM      8  C   UNL     1      55.758  21.269  53.788  1.00  0.00    -0.000 C 
BRANCH   8   9
ATOM      9  C   UNL     1      56.303  21.308  55.224  1.00  0.00    -0.000 C 
BRANCH   9  10
ATOM     10  C   UNL     1      56.899  22.676  55.592  1.00  0.00    -0.000 C 
BRANCH  10  11
ATOM     11  C   UNL     1      57.790  22.568  56.834  1.00  0.00    -0.003 C 
ATOM     12  C   UNL     1      57.196  21.603  57.858  1.00  0.00     0.004 C 
ENDBRANCH  10  11
ENDBRANCH   9  10
ENDBRANCH   8   9
ENDBRANCH   7   8
ENDBRANCH   6   7
ENDBRANCH   5   6
ENDBRANCH   4   5
ENDBRANCH   3   4
ENDBRANCH   2   3
ENDBRANCH   1   2
BRANCH   1  13
ATOM     13  C   UNL     1      56.115  23.846  48.108  1.00  0.00     0.000 C 
BRANCH  13  14
ATOM     14  C   UNL     1      54.645  23.789  47.649  1.00  0.00     0.000 C 
BRANCH  14  15
ATOM     15  C   UNL     1      53.627  23.854  48.808  1.00  0.00     0.000 C 
BRANCH  15  16
ATOM     16  C   UNL     1      53.809  25.111  49.678  1.00  0.00     0.000 C 
BRANCH  16  17
ATOM     17  C   UNL     1      53.772  24.799  51.183  1.00  0.00     0.000 C 
BRANCH  17  18
ATOM     18  C   UNL     1      52.774  23.680  51.530  1.00  0.00     0.000 C 
BRANCH  18  19
ATOM     19  C   UNL     1      52.717  23.390  53.038  1.00  0.00     0.000 C 
BRANCH  19  20
ATOM     20  C   UNL     1      51.920  22.114  53.364  1.00  0.00     0.006 C 
BRANCH  20  21
ATOM     21  C   UNL     1      50.693  22.406  54.237  1.00  0.00     0.053 C 
BRANCH  21  22
ATOM     22  C   UNL     1      49.414  22.208  53.481  1.00  0.00     0.041 C 
ATOM     23  O   UNL     1      48.482  21.527  53.983  1.00  0.00    -0.550 OA
ATOM     24  O   UNL     1      49.264  22.748  52.209  1.00  0.00    -0.550 OA
ENDBRANCH  21  22
ENDBRANCH  20  21
ENDBRANCH  19  20
ENDBRANCH  18  19
ENDBRANCH  17  18
ENDBRANCH  16  17
ENDBRANCH  15  16
ENDBRANCH  14  15
ENDBRANCH  13  14
ENDBRANCH   1  13
TORSDOF 20
ENDMDL
MODEL 7
REMARK VINA RESULT:    -4.442      1.675      3.064
REMARK INTER + INTRA:         -12.643
REMARK INTER:                  -9.880
REMARK INTRA:                  -2.763
REMARK UNBOUND:                -3.007
REMARK SMILES CCCCCCCCCCCCCCCCCCCCCC(=O)[O-]
REMARK SMILES IDX 12 1 11 2 10 3 9 4 8 5 7 6 6 7 5 8 4 9 3 10 2 11 1 12 13 13
REMARK SMILES IDX 14 14 15 15 16 16 17 17 18 18 19 19 20 20 21 21 22 22 23 23
REMARK SMILES IDX 24 24
REMARK H PARENT
REMARK Flexibility Score: inf
ROOT
ATOM      1  C   UNL     1      56.538  21.481  52.497  1.00  0.00     0.000 C 
ENDROOT
BRANCH   1   2
ATOM      2  C   UNL     1      55.398  22.278  51.833  1.00  0.00     0.000 C 
BRANCH   2   3
ATOM      3  C   UNL     1      55.496  23.790  52.087  1.00  0.00     0.000 C 
BRANCH   3   4
ATOM      4  C   UNL     1      54.126  24.465  51.915  1.00  0.00    -0.000 C 
BRANCH   4   5
ATOM      5  C   UNL     1      53.293  23.829  50.792  1.00  0.00    -0.000 C 
BRANCH   5   6
ATOM      6  C   UNL     1      53.394  24.607  49.468  1.00  0.00    -0.000 C 
BRANCH   6   7
ATOM      7  C   UNL     1      53.757  23.700  48.281  1.00  0.00    -0.000 C 
BRANCH   7   8
ATOM      8  C   UNL     1      55.106  24.076  47.643  1.00  0.00    -0.000 C 
BRANCH   8   9
ATOM      9  C   UNL     1      56.299  23.414  48.351  1.00  0.00    -0.000 C 
BRANCH   9  10
ATOM     10  C   UNL     1      56.663  22.050  47.746  1.00  0.00    -0.000 C 
BRANCH  10  11
ATOM     11  C   UNL     1      56.135  20.906  48.620  1.00  0.00    -0.003 C 
ATOM     12  C   UNL     1      57.077  19.705  48.584  1.00  0.00     0.004 C 
ENDBRANCH  10  11
ENDBRANCH   9  10
ENDBRANCH   8   9
ENDBRANCH   7   8
ENDBRANCH   6   7
ENDBRANCH   5   6
ENDBRANCH   4   5
ENDBRANCH   3   4
ENDBRANCH   2   3
ENDBRANCH   1   2
BRANCH   1  13
ATOM     13  C   UNL     1      56.339  21.185  53.995  1.00  0.00     0.000 C 
BRANCH  13  14
ATOM     14  C   UNL     1      54.874  20.990  54.432  1.00  0.00     0.000 C 
BRANCH  14  15
ATOM     15  C   UNL     1      54.287  22.196  55.197  1.00  0.00     0.000 C 
BRANCH  15  16
ATOM     16  C   UNL     1      52.779  22.373  54.943  1.00  0.00     0.000 C 
BRANCH  16  17
ATOM     17  C   UNL     1      52.277  21.536  53.755  1.00  0.00     0.000 C 
BRANCH  17  18
ATOM     18  C   UNL     1      50.939  22.051  53.194  1.00  0.00     0.000 C 
BRANCH  18  19
ATOM     19  C   UNL     1      49.968  22.491  54.300  1.00  0.00     0.000 C 
BRANCH  19  20
ATOM     20  C   UNL     1      48.537  21.973  54.069  1.00  0.00     0.006 C 
BRANCH  20  21
ATOM     21  C   UNL     1      47.552  22.509  55.116  1.00  0.00     0.053 C 
BRANCH  21  22
ATOM     22  C   UNL     1      46.892  21.401  55.878  1.00  0.00     0.041 C 
ATOM     23  O   UNL     1      46.368  20.435  55.264  1.00  0.00    -0.550 OA
ATOM     24  O   UNL     1      46.825  21.452  57.265  1.00  0.00    -0.550 OA
ENDBRANCH  21  22
ENDBRANCH  20  21
ENDBRANCH  19  20
ENDBRANCH  18  19
ENDBRANCH  17  18
ENDBRANCH  16  17
ENDBRANCH  15  16
ENDBRANCH  14  15
ENDBRANCH  13  14
ENDBRANCH   1  13
TORSDOF 20
ENDMDL
MODEL 8
REMARK VINA RESULT:    -4.440      2.837      7.517
REMARK INTER + INTRA:         -12.637
REMARK INTER:                  -9.614
REMARK INTRA:                  -3.024
REMARK UNBOUND:                -3.007
REMARK SMILES CCCCCCCCCCCCCCCCCCCCCC(=O)[O-]
REMARK SMILES IDX 12 1 11 2 10 3 9 4 8 5 7 6 6 7 5 8 4 9 3 10 2 11 1 12 13 13
REMARK SMILES IDX 14 14 15 15 16 16 17 17 18 18 19 19 20 20 21 21 22 22 23 23
REMARK SMILES IDX 24 24
REMARK H PARENT
REMARK Flexibility Score: inf
ROOT
ATOM      1  C   UNL     1      55.293  21.896  51.855  1.00  0.00     0.000 C 
ENDROOT
BRANCH   1   2
ATOM      2  C   UNL     1      56.433  21.448  52.790  1.00  0.00     0.000 C 
BRANCH   2   3
ATOM      3  C   UNL     1      56.527  22.293  54.070  1.00  0.00     0.000 C 
BRANCH   3   4
ATOM      4  C   UNL     1      55.529  21.798  55.129  1.00  0.00    -0.000 C 
BRANCH   4   5
ATOM      5  C   UNL     1      54.548  22.895  55.572  1.00  0.00    -0.000 C 
BRANCH   5   6
ATOM      6  C   UNL     1      53.154  22.733  54.940  1.00  0.00    -0.000 C 
BRANCH   6   7
ATOM      7  C   UNL     1      52.847  21.276  54.563  1.00  0.00    -0.000 C 
BRANCH   7   8
ATOM      8  C   UNL     1      51.892  21.167  53.361  1.00  0.00    -0.000 C 
BRANCH   8   9
ATOM      9  C   UNL     1      51.017  22.418  53.187  1.00  0.00    -0.000 C 
BRANCH   9  10
ATOM     10  C   UNL     1      49.516  22.108  53.286  1.00  0.00    -0.000 C 
BRANCH  10  11
ATOM     11  C   UNL     1      49.101  21.871  54.743  1.00  0.00    -0.003 C 
ATOM     12  C   UNL     1      49.466  23.064  55.622  1.00  0.00     0.004 C 
ENDBRANCH  10  11
ENDBRANCH   9  10
ENDBRANCH   8   9
ENDBRANCH   7   8
ENDBRANCH   6   7
ENDBRANCH   5   6
ENDBRANCH   4   5
ENDBRANCH   3   4
ENDBRANCH   2   3
ENDBRANCH   1   2
BRANCH   1  13
ATOM     13  C   UNL     1      55.239  23.410  51.575  1.00  0.00     0.000 C 
BRANCH  13  14
ATOM     14  C   UNL     1      53.828  24.030  51.614  1.00  0.00     0.000 C 
BRANCH  14  15
ATOM     15  C   UNL     1      53.347  24.570  50.250  1.00  0.00     0.000 C 
BRANCH  15  16
ATOM     16  C   UNL     1      53.761  23.659  49.080  1.00  0.00     0.000 C 
BRANCH  16  17
ATOM     17  C   UNL     1      54.053  24.446  47.793  1.00  0.00     0.000 C 
BRANCH  17  18
ATOM     18  C   UNL     1      55.458  24.159  47.231  1.00  0.00     0.000 C 
BRANCH  18  19
ATOM     19  C   UNL     1      56.372  23.475  48.260  1.00  0.00     0.000 C 
BRANCH  19  20
ATOM     20  C   UNL     1      56.743  22.037  47.855  1.00  0.00     0.006 C 
BRANCH  20  21
ATOM     21  C   UNL     1      56.066  20.992  48.749  1.00  0.00     0.053 C 
BRANCH  21  22
ATOM     22  C   UNL     1      56.556  19.607  48.456  1.00  0.00     0.041 C 
ATOM     23  O   UNL     1      55.798  18.771  47.900  1.00  0.00    -0.550 OA
ATOM     24  O   UNL     1      57.841  19.228  48.829  1.00  0.00    -0.550 OA
ENDBRANCH  21  22
ENDBRANCH  20  21
ENDBRANCH  19  20
ENDBRANCH  18  19
ENDBRANCH  17  18
ENDBRANCH  16  17
ENDBRANCH  15  16
ENDBRANCH  14  15
ENDBRANCH  13  14
ENDBRANCH   1  13
TORSDOF 20
ENDMDL
MODEL 9
REMARK VINA RESULT:    -4.340      3.118      5.922
REMARK INTER + INTRA:         -12.421
REMARK INTER:                  -9.249
REMARK INTRA:                  -3.172
REMARK UNBOUND:                -3.007
REMARK SMILES CCCCCCCCCCCCCCCCCCCCCC(=O)[O-]
REMARK SMILES IDX 12 1 11 2 10 3 9 4 8 5 7 6 6 7 5 8 4 9 3 10 2 11 1 12 13 13
REMARK SMILES IDX 14 14 15 15 16 16 17 17 18 18 19 19 20 20 21 21 22 22 23 23
REMARK SMILES IDX 24 24
REMARK H PARENT
REMARK Flexibility Score: inf
ROOT
ATOM      1  C   UNL     1      56.125  22.603  47.737  1.00  0.00     0.000 C 
ENDROOT
BRANCH   1   2
ATOM      2  C   UNL     1      57.107  23.785  47.850  1.00  0.00     0.000 C 
BRANCH   2   3
ATOM      3  C   UNL     1      56.514  24.988  48.599  1.00  0.00     0.000 C 
BRANCH   3   4
ATOM      4  C   UNL     1      56.676  24.823  50.118  1.00  0.00    -0.000 C 
BRANCH   4   5
ATOM      5  C   UNL     1      55.379  25.124  50.885  1.00  0.00    -0.000 C 
BRANCH   5   6
ATOM      6  C   UNL     1      54.125  24.618  50.149  1.00  0.00    -0.000 C 
BRANCH   6   7
ATOM      7  C   UNL     1      53.063  24.065  51.112  1.00  0.00    -0.000 C 
BRANCH   7   8
ATOM      8  C   UNL     1      53.445  24.266  52.589  1.00  0.00    -0.000 C 
BRANCH   8   9
ATOM      9  C   UNL     1      52.949  23.123  53.488  1.00  0.00    -0.000 C 
BRANCH   9  10
ATOM     10  C   UNL     1      51.764  22.361  52.875  1.00  0.00    -0.000 C 
BRANCH  10  11
ATOM     11  C   UNL     1      50.538  22.425  53.794  1.00  0.00    -0.003 C 
ATOM     12  C   UNL     1      49.243  22.299  52.996  1.00  0.00     0.004 C 
ENDBRANCH  10  11
ENDBRANCH   9  10
ENDBRANCH   8   9
ENDBRANCH   7   8
ENDBRANCH   6   7
ENDBRANCH   5   6
ENDBRANCH   4   5
ENDBRANCH   3   4
ENDBRANCH   2   3
ENDBRANCH   1   2
BRANCH   1  13
ATOM     13  C   UNL     1      56.745  21.215  47.991  1.00  0.00     0.000 C 
BRANCH  13  14
ATOM     14  C   UNL     1      56.245  20.501  49.262  1.00  0.00     0.000 C 
BRANCH  14  15
ATOM     15  C   UNL     1      55.140  21.272  50.015  1.00  0.00     0.000 C 
BRANCH  15  16
ATOM     16  C   UNL     1      55.181  21.022  51.533  1.00  0.00     0.000 C 
BRANCH  16  17
ATOM     17  C   UNL     1      56.261  21.858  52.241  1.00  0.00     0.000 C 
BRANCH  17  18
ATOM     18  C   UNL     1      57.063  21.038  53.268  1.00  0.00     0.000 C 
BRANCH  18  19
ATOM     19  C   UNL     1      56.312  20.868  54.599  1.00  0.00     0.000 C 
BRANCH  19  20
ATOM     20  C   UNL     1      55.973  22.215  55.260  1.00  0.00     0.006 C 
BRANCH  20  21
ATOM     21  C   UNL     1      57.228  22.962  55.728  1.00  0.00     0.053 C 
BRANCH  21  22
ATOM     22  C   UNL     1      57.628  22.563  57.116  1.00  0.00     0.041 C 
ATOM     23  O   UNL     1      56.866  21.842  57.811  1.00  0.00    -0.550 OA
ATOM     24  O   UNL     1      58.826  23.017  57.655  1.00  0.00    -0.550 OA
ENDBRANCH  21  22
ENDBRANCH  20  21
ENDBRANCH  19  20
ENDBRANCH  18  19
ENDBRANCH  17  18
ENDBRANCH  16  17
ENDBRANCH  15  16
ENDBRANCH  14  15
ENDBRANCH  13  14
ENDBRANCH   1  13
TORSDOF 20
ENDMDL
