MODEL 1
REMARK VINA RESULT:    50.570      0.000      0.000
REMARK INTER + INTRA:          73.663
REMARK INTER:                  69.787
REMARK INTRA:                   3.876
REMARK UNBOUND:                 3.876
REMARK SMILES CC[C@@H](CC[C@H](C)[C@@H]1CC[C@H]2C3=CC[C@H]4C[C@H](O)CC[C@@]4(C)[C@@H]3CC[C@]21C)C(C)C
REMARK SMILES IDX 5 1 4 2 3 3 2 4 1 5 28 6 29 7 30 8 6 9 7 10 8 11 9 12 26 13
REMARK SMILES IDX 10 14 11 15 25 16 27 17 12 18 24 19 23 20 13 21 21 22 14 23
REMARK SMILES IDX 15 24 20 25 22 26 16 27 19 28 17 29 18 30
REMARK H PARENT 18 31
REMARK Flexibility Score: inf
ROOT
ATOM      1  C   UNL     1     -35.950  20.849   5.391  1.00  0.00     0.004 C 
ENDROOT
BRANCH   1   2
ATOM      2  C   UNL     1     -37.493  20.870   5.595  1.00  0.00     0.004 C 
BRANCH   2   3
ATOM      3  C   UNL     1     -38.122  22.283   5.434  1.00  0.00    -0.009 C 
BRANCH   3   4
ATOM      4  C   UNL     1     -37.416  23.078   4.297  1.00  0.00     0.000 C 
ATOM      5  C   UNL     1     -37.884  24.531   4.197  1.00  0.00     0.004 C 
ENDBRANCH   3   4
BRANCH   3   6
ATOM      6  C   UNL     1     -38.125  23.076   6.789  1.00  0.00    -0.014 C 
ATOM      7  C   UNL     1     -37.597  24.511   6.612  1.00  0.00     0.007 C 
ATOM      8  C   UNL     1     -37.368  22.365   7.926  1.00  0.00     0.007 C 
ENDBRANCH   3   6
ENDBRANCH   2   3
ENDBRANCH   1   2
BRANCH   1   9
ATOM      9  C   UNL     1     -35.045  20.513   6.626  1.00  0.00    -0.011 C 
ATOM     10  C   UNL     1     -35.790  19.977   7.873  1.00  0.00     0.008 C 
BRANCH   9  11
ATOM     11  C   UNL     1     -33.877  21.544   6.869  1.00  0.00    -0.002 C 
ATOM     12  C   UNL     1     -33.750  21.969   8.348  1.00  0.00     0.005 C 
ATOM     13  C   UNL     1     -33.723  22.849   5.998  1.00  0.00    -0.023 C 
ATOM     14  C   UNL     1     -33.616  23.483   8.383  1.00  0.00     0.009 C 
ATOM     15  C   UNL     1     -33.204  23.941   6.986  1.00  0.00     0.021 C 
ATOM     16  C   UNL     1     -32.717  22.646   4.815  1.00  0.00     0.008 C 
ATOM     17  C   UNL     1     -35.055  23.359   5.401  1.00  0.00     0.012 C 
ATOM     18  C   UNL     1     -31.695  24.149   6.889  1.00  0.00    -0.067 C 
ATOM     19  C   UNL     1     -31.246  22.364   5.229  1.00  0.00     0.009 C 
ATOM     20  C   UNL     1     -30.842  22.930   6.624  1.00  0.00     0.021 C 
ATOM     21  C   UNL     1     -31.205  25.396   6.764  1.00  0.00    -0.027 C 
ATOM     22  C   UNL     1     -29.297  23.168   6.839  1.00  0.00    -0.023 C 
ATOM     23  C   UNL     1     -29.747  25.711   6.598  1.00  0.00     0.031 C 
ATOM     24  C   UNL     1     -28.867  24.508   6.167  1.00  0.00     0.002 C 
ATOM     25  C   UNL     1     -28.989  23.250   8.365  1.00  0.00     0.010 C 
ATOM     26  C   UNL     1     -28.511  21.965   6.232  1.00  0.00     0.012 C 
ATOM     27  C   UNL     1     -27.375  24.825   6.431  1.00  0.00     0.036 C 
ATOM     28  C   UNL     1     -27.519  23.596   8.677  1.00  0.00     0.032 C 
ATOM     29  C   UNL     1     -27.007  24.843   7.933  1.00  0.00     0.114 C 
BRANCH  29  30
ATOM     30  O   UNL     1     -25.611  24.913   8.071  1.00  0.00    -0.393 OA
ATOM     31  H   UNL     1     -25.221  24.356   7.349  1.00  0.00     0.210 HD
ENDBRANCH  29  30
ENDBRANCH   9  11
ENDBRANCH   1   9
TORSDOF 7
ENDMDL
MODEL 2
REMARK VINA RESULT:    53.387     12.116     15.581
REMARK INTER + INTRA:          77.550
REMARK INTER:                  77.564
REMARK INTRA:                  -0.014
REMARK UNBOUND:                 3.876
REMARK SMILES CC[C@@H](CC[C@H](C)[C@@H]1CC[C@H]2C3=CC[C@H]4C[C@H](O)CC[C@@]4(C)[C@@H]3CC[C@]21C)C(C)C
REMARK SMILES IDX 5 1 4 2 3 3 2 4 1 5 28 6 29 7 30 8 6 9 7 10 8 11 9 12 26 13
REMARK SMILES IDX 10 14 11 15 25 16 27 17 12 18 24 19 23 20 13 21 21 22 14 23
REMARK SMILES IDX 15 24 20 25 22 26 16 27 19 28 17 29 18 30
REMARK H PARENT 18 31
REMARK Flexibility Score: inf
ROOT
ATOM      1  C   UNL     1     -25.976  31.947  -5.574  1.00  0.00     0.004 C 
ENDROOT
BRANCH   1   2
ATOM      2  C   UNL     1     -24.943  30.887  -6.056  1.00  0.00     0.004 C 
BRANCH   2   3
ATOM      3  C   UNL     1     -25.243  30.327  -7.475  1.00  0.00    -0.009 C 
BRANCH   3   4
ATOM      4  C   UNL     1     -25.288  28.771  -7.459  1.00  0.00     0.000 C 
ATOM      5  C   UNL     1     -26.425  28.211  -6.603  1.00  0.00     0.004 C 
ENDBRANCH   3   4
BRANCH   3   6
ATOM      6  C   UNL     1     -24.228  30.872  -8.542  1.00  0.00    -0.014 C 
ATOM      7  C   UNL     1     -22.769  30.608  -8.130  1.00  0.00     0.007 C 
ATOM      8  C   UNL     1     -24.425  32.361  -8.882  1.00  0.00     0.007 C 
ENDBRANCH   3   6
ENDBRANCH   2   3
ENDBRANCH   1   2
BRANCH   1   9
ATOM      9  C   UNL     1     -26.060  32.253  -4.039  1.00  0.00    -0.011 C 
ATOM     10  C   UNL     1     -24.799  31.892  -3.217  1.00  0.00     0.008 C 
BRANCH   9  11
ATOM     11  C   UNL     1     -27.462  31.929  -3.393  1.00  0.00    -0.002 C 
ATOM     12  C   UNL     1     -28.328  33.188  -3.177  1.00  0.00     0.005 C 
ATOM     13  C   UNL     1     -27.597  31.046  -2.095  1.00  0.00    -0.023 C 
ATOM     14  C   UNL     1     -28.895  33.122  -1.767  1.00  0.00     0.009 C 
ATOM     15  C   UNL     1     -28.780  31.675  -1.294  1.00  0.00     0.021 C 
ATOM     16  C   UNL     1     -27.891  29.546  -2.436  1.00  0.00     0.008 C 
ATOM     17  C   UNL     1     -26.348  31.085  -1.184  1.00  0.00     0.012 C 
ATOM     18  C   UNL     1     -30.090  30.917  -1.492  1.00  0.00    -0.067 C 
ATOM     19  C   UNL     1     -29.247  29.276  -3.147  1.00  0.00     0.009 C 
ATOM     20  C   UNL     1     -30.355  30.335  -2.862  1.00  0.00     0.021 C 
ATOM     21  C   UNL     1     -30.816  30.556  -0.418  1.00  0.00    -0.027 C 
ATOM     22  C   UNL     1     -31.838  29.840  -3.073  1.00  0.00    -0.023 C 
ATOM     23  C   UNL     1     -32.084  29.756  -0.493  1.00  0.00     0.031 C 
ATOM     24  C   UNL     1     -32.305  29.013  -1.836  1.00  0.00     0.002 C 
ATOM     25  C   UNL     1     -32.780  31.071  -3.239  1.00  0.00     0.010 C 
ATOM     26  C   UNL     1     -31.903  28.980  -4.373  1.00  0.00     0.012 C 
ATOM     27  C   UNL     1     -33.786  28.583  -1.964  1.00  0.00     0.036 C 
ATOM     28  C   UNL     1     -34.271  30.693  -3.337  1.00  0.00     0.032 C 
ATOM     29  C   UNL     1     -34.751  29.768  -2.205  1.00  0.00     0.114 C 
BRANCH  29  30
ATOM     30  O   UNL     1     -36.025  29.274  -2.529  1.00  0.00    -0.393 OA
ATOM     31  H   UNL     1     -35.890  28.398  -2.974  1.00  0.00     0.210 HD
ENDBRANCH  29  30
ENDBRANCH   9  11
ENDBRANCH   1   9
TORSDOF 7
ENDMDL
