MODEL 1
REMARK VINA RESULT:    -4.662      0.000      0.000
REMARK INTER + INTRA:          -8.877
REMARK INTER:                  -7.388
REMARK INTRA:                  -1.489
REMARK UNBOUND:                -1.489
REMARK SMILES CCCCCCCCCCCC(=O)[O-]
REMARK SMILES IDX 7 1 8 2 9 3 10 4 11 5 12 6 13 7 14 8 6 9 5 10 4 11 3 12 2 13
REMARK SMILES IDX 1 14
REMARK H PARENT
REMARK Flexibility Score: inf
ROOT
ATOM      1  C   UNL     1       3.734   2.889  14.507  1.00  0.00     0.000 C 
ENDROOT
BRANCH   1   2
ATOM      2  C   UNL     1       4.419   3.008  15.881  1.00  0.00     0.000 C 
BRANCH   2   3
ATOM      3  C   UNL     1       4.326   1.752  16.766  1.00  0.00     0.000 C 
BRANCH   3   4
ATOM      4  C   UNL     1       5.651   0.976  16.845  1.00  0.00     0.006 C 
BRANCH   4   5
ATOM      5  C   UNL     1       5.452  -0.458  17.353  1.00  0.00     0.053 C 
BRANCH   5   6
ATOM      6  C   UNL     1       5.585  -0.544  18.843  1.00  0.00     0.041 C 
ATOM      7  O   UNL     1       6.548  -1.169  19.360  1.00  0.00    -0.550 OA
ATOM      8  O   UNL     1       4.629   0.045  19.661  1.00  0.00    -0.550 OA
ENDBRANCH   5   6
ENDBRANCH   4   5
ENDBRANCH   3   4
ENDBRANCH   2   3
ENDBRANCH   1   2
BRANCH   1   9
ATOM      9  C   UNL     1       4.717   2.564  13.372  1.00  0.00     0.000 C 
BRANCH   9  10
ATOM     10  C   UNL     1       4.866   1.046  13.190  1.00  0.00    -0.000 C 
BRANCH  10  11
ATOM     11  C   UNL     1       3.517   0.308  13.316  1.00  0.00    -0.000 C 
BRANCH  11  12
ATOM     12  C   UNL     1       3.583  -0.952  14.196  1.00  0.00    -0.000 C 
BRANCH  12  13
ATOM     13  C   UNL     1       2.442  -1.028  15.218  1.00  0.00    -0.003 C 
ATOM     14  C   UNL     1       1.279  -0.127  14.815  1.00  0.00     0.004 C 
ENDBRANCH  12  13
ENDBRANCH  11  12
ENDBRANCH  10  11
ENDBRANCH   9  10
ENDBRANCH   1   9
TORSDOF 10
ENDMDL
MODEL 2
REMARK VINA RESULT:    -4.502      2.408      4.625
REMARK INTER + INTRA:          -8.624
REMARK INTER:                  -7.205
REMARK INTRA:                  -1.419
REMARK UNBOUND:                -1.489
REMARK SMILES CCCCCCCCCCCC(=O)[O-]
REMARK SMILES IDX 7 1 8 2 9 3 10 4 11 5 12 6 13 7 14 8 6 9 5 10 4 11 3 12 2 13
REMARK SMILES IDX 1 14
REMARK H PARENT
REMARK Flexibility Score: inf
ROOT
ATOM      1  C   UNL     1       6.096   0.459  13.853  1.00  0.00     0.000 C 
ENDROOT
BRANCH   1   2
ATOM      2  C   UNL     1       5.555  -0.831  13.210  1.00  0.00     0.000 C 
BRANCH   2   3
ATOM      3  C   UNL     1       4.777  -1.757  14.162  1.00  0.00     0.000 C 
BRANCH   3   4
ATOM      4  C   UNL     1       3.252  -1.630  14.009  1.00  0.00     0.006 C 
BRANCH   4   5
ATOM      5  C   UNL     1       2.557  -1.352  15.348  1.00  0.00     0.053 C 
BRANCH   5   6
ATOM      6  C   UNL     1       1.548  -0.250  15.232  1.00  0.00     0.041 C 
ATOM      7  O   UNL     1       0.647  -0.305  14.355  1.00  0.00    -0.550 OA
ATOM      8  O   UNL     1       1.622   0.850  16.076  1.00  0.00    -0.550 OA
ENDBRANCH   5   6
ENDBRANCH   4   5
ENDBRANCH   3   4
ENDBRANCH   2   3
ENDBRANCH   1   2
BRANCH   1   9
ATOM      9  C   UNL     1       5.019   1.540  14.028  1.00  0.00     0.000 C 
BRANCH   9  10
ATOM     10  C   UNL     1       4.912   1.981  15.496  1.00  0.00    -0.000 C 
BRANCH  10  11
ATOM     11  C   UNL     1       5.826   1.151  16.422  1.00  0.00    -0.000 C 
BRANCH  11  12
ATOM     12  C   UNL     1       5.066   0.400  17.528  1.00  0.00    -0.000 C 
BRANCH  12  13
ATOM     13  C   UNL     1       5.545  -1.046  17.707  1.00  0.00    -0.003 C 
ATOM     14  C   UNL     1       6.351  -1.205  18.993  1.00  0.00     0.004 C 
ENDBRANCH  12  13
ENDBRANCH  11  12
ENDBRANCH  10  11
ENDBRANCH   9  10
ENDBRANCH   1   9
TORSDOF 10
ENDMDL
MODEL 3
REMARK VINA RESULT:    -4.483      2.324      4.487
REMARK INTER + INTRA:          -8.592
REMARK INTER:                  -7.397
REMARK INTRA:                  -1.195
REMARK UNBOUND:                -1.489
REMARK SMILES CCCCCCCCCCCC(=O)[O-]
REMARK SMILES IDX 7 1 8 2 9 3 10 4 11 5 12 6 13 7 14 8 6 9 5 10 4 11 3 12 2 13
REMARK SMILES IDX 1 14
REMARK H PARENT
REMARK Flexibility Score: inf
ROOT
ATOM      1  C   UNL     1       4.008   3.497  15.324  1.00  0.00     0.000 C 
ENDROOT
BRANCH   1   2
ATOM      2  C   UNL     1       3.746   2.855  13.950  1.00  0.00     0.000 C 
BRANCH   2   3
ATOM      3  C   UNL     1       4.467   1.516  13.709  1.00  0.00     0.000 C 
BRANCH   3   4
ATOM      4  C   UNL     1       3.498   0.356  13.424  1.00  0.00     0.006 C 
BRANCH   4   5
ATOM      5  C   UNL     1       3.126  -0.413  14.699  1.00  0.00     0.053 C 
BRANCH   5   6
ATOM      6  C   UNL     1       1.694  -0.195  15.082  1.00  0.00     0.041 C 
ATOM      7  O   UNL     1       0.781  -0.865  14.532  1.00  0.00    -0.550 OA
ATOM      8  O   UNL     1       1.368   0.768  16.028  1.00  0.00    -0.550 OA
ENDBRANCH   5   6
ENDBRANCH   4   5
ENDBRANCH   3   4
ENDBRANCH   2   3
ENDBRANCH   1   2
BRANCH   1   9
ATOM      9  C   UNL     1       4.893   2.631  16.233  1.00  0.00     0.000 C 
BRANCH   9  10
ATOM     10  C   UNL     1       4.080   2.050  17.401  1.00  0.00    -0.000 C 
BRANCH  10  11
ATOM     11  C   UNL     1       4.814   0.886  18.100  1.00  0.00    -0.000 C 
BRANCH  11  12
ATOM     12  C   UNL     1       5.742   0.091  17.165  1.00  0.00    -0.000 C 
BRANCH  12  13
ATOM     13  C   UNL     1       5.756  -1.412  17.473  1.00  0.00    -0.003 C 
ATOM     14  C   UNL     1       6.318  -1.683  18.865  1.00  0.00     0.004 C 
ENDBRANCH  12  13
ENDBRANCH  11  12
ENDBRANCH  10  11
ENDBRANCH   9  10
ENDBRANCH   1   9
TORSDOF 10
ENDMDL
MODEL 4
REMARK VINA RESULT:    -4.428      1.263      2.150
REMARK INTER + INTRA:          -8.505
REMARK INTER:                  -7.179
REMARK INTRA:                  -1.327
REMARK UNBOUND:                -1.489
REMARK SMILES CCCCCCCCCCCC(=O)[O-]
REMARK SMILES IDX 7 1 8 2 9 3 10 4 11 5 12 6 13 7 14 8 6 9 5 10 4 11 3 12 2 13
REMARK SMILES IDX 1 14
REMARK H PARENT
REMARK Flexibility Score: inf
ROOT
ATOM      1  C   UNL     1       3.608   3.206  14.619  1.00  0.00     0.000 C 
ENDROOT
BRANCH   1   2
ATOM      2  C   UNL     1       4.529   3.093  15.847  1.00  0.00     0.000 C 
BRANCH   2   3
ATOM      3  C   UNL     1       4.306   1.842  16.717  1.00  0.00     0.000 C 
BRANCH   3   4
ATOM      4  C   UNL     1       5.563   0.965  16.837  1.00  0.00     0.006 C 
BRANCH   4   5
ATOM      5  C   UNL     1       5.239  -0.443  17.354  1.00  0.00     0.053 C 
BRANCH   5   6
ATOM      6  C   UNL     1       5.485  -0.565  18.827  1.00  0.00     0.041 C 
ATOM      7  O   UNL     1       4.736   0.030  19.647  1.00  0.00    -0.550 OA
ATOM      8  O   UNL     1       6.558  -1.313  19.293  1.00  0.00    -0.550 OA
ENDBRANCH   5   6
ENDBRANCH   4   5
ENDBRANCH   3   4
ENDBRANCH   2   3
ENDBRANCH   1   2
BRANCH   1   9
ATOM      9  C   UNL     1       4.372   3.139  13.288  1.00  0.00     0.000 C 
BRANCH   9  10
ATOM     10  C   UNL     1       5.060   1.776  13.115  1.00  0.00    -0.000 C 
BRANCH  10  11
ATOM     11  C   UNL     1       4.055   0.606  13.152  1.00  0.00    -0.000 C 
BRANCH  11  12
ATOM     12  C   UNL     1       4.689  -0.740  13.543  1.00  0.00    -0.000 C 
BRANCH  12  13
ATOM     13  C   UNL     1       6.219  -0.674  13.642  1.00  0.00    -0.003 C 
ATOM     14  C   UNL     1       6.786  -1.949  14.259  1.00  0.00     0.004 C 
ENDBRANCH  12  13
ENDBRANCH  11  12
ENDBRANCH  10  11
ENDBRANCH   9  10
ENDBRANCH   1   9
TORSDOF 10
ENDMDL
MODEL 5
REMARK VINA RESULT:    -4.407      2.621      4.582
REMARK INTER + INTRA:          -8.473
REMARK INTER:                  -7.308
REMARK INTRA:                  -1.164
REMARK UNBOUND:                -1.489
REMARK SMILES CCCCCCCCCCCC(=O)[O-]
REMARK SMILES IDX 7 1 8 2 9 3 10 4 11 5 12 6 13 7 14 8 6 9 5 10 4 11 3 12 2 13
REMARK SMILES IDX 1 14
REMARK H PARENT
REMARK Flexibility Score: inf
ROOT
ATOM      1  C   UNL     1       6.405   0.261  14.554  1.00  0.00     0.000 C 
ENDROOT
BRANCH   1   2
ATOM      2  C   UNL     1       6.081   1.118  13.317  1.00  0.00     0.000 C 
BRANCH   2   3
ATOM      3  C   UNL     1       4.739   1.870  13.379  1.00  0.00     0.000 C 
BRANCH   3   4
ATOM      4  C   UNL     1       3.825   1.372  14.510  1.00  0.00     0.006 C 
BRANCH   4   5
ATOM      5  C   UNL     1       2.844   0.294  14.030  1.00  0.00     0.053 C 
BRANCH   5   6
ATOM      6  C   UNL     1       1.667   0.164  14.948  1.00  0.00     0.041 C 
ATOM      7  O   UNL     1       1.631   0.808  16.029  1.00  0.00    -0.550 OA
ATOM      8  O   UNL     1       0.622  -0.690  14.620  1.00  0.00    -0.550 OA
ENDBRANCH   5   6
ENDBRANCH   4   5
ENDBRANCH   3   4
ENDBRANCH   2   3
ENDBRANCH   1   2
BRANCH   1   9
ATOM      9  C   UNL     1       6.520  -1.237  14.233  1.00  0.00     0.000 C 
BRANCH   9  10
ATOM     10  C   UNL     1       6.196  -2.092  15.468  1.00  0.00    -0.000 C 
BRANCH  10  11
ATOM     11  C   UNL     1       5.178  -1.404  16.403  1.00  0.00    -0.000 C 
BRANCH  11  12
ATOM     12  C   UNL     1       5.513  -1.555  17.897  1.00  0.00    -0.000 C 
BRANCH  12  13
ATOM     13  C   UNL     1       5.784  -0.212  18.587  1.00  0.00    -0.003 C 
ATOM     14  C   UNL     1       4.880   0.885  18.032  1.00  0.00     0.004 C 
ENDBRANCH  12  13
ENDBRANCH  11  12
ENDBRANCH  10  11
ENDBRANCH   9  10
ENDBRANCH   1   9
TORSDOF 10
ENDMDL
MODEL 6
REMARK VINA RESULT:    -4.288      2.041      3.755
REMARK INTER + INTRA:          -8.284
REMARK INTER:                  -7.116
REMARK INTRA:                  -1.167
REMARK UNBOUND:                -1.489
REMARK SMILES CCCCCCCCCCCC(=O)[O-]
REMARK SMILES IDX 7 1 8 2 9 3 10 4 11 5 12 6 13 7 14 8 6 9 5 10 4 11 3 12 2 13
REMARK SMILES IDX 1 14
REMARK H PARENT
REMARK Flexibility Score: inf
ROOT
ATOM      1  C   UNL     1       5.923   1.307  12.952  1.00  0.00     0.000 C 
ENDROOT
BRANCH   1   2
ATOM      2  C   UNL     1       4.472   1.808  13.075  1.00  0.00     0.000 C 
BRANCH   2   3
ATOM      3  C   UNL     1       4.324   3.275  13.517  1.00  0.00     0.000 C 
BRANCH   3   4
ATOM      4  C   UNL     1       3.647   3.421  14.890  1.00  0.00     0.006 C 
BRANCH   4   5
ATOM      5  C   UNL     1       4.340   2.582  15.970  1.00  0.00     0.053 C 
BRANCH   5   6
ATOM      6  C   UNL     1       3.352   1.846  16.824  1.00  0.00     0.041 C 
ATOM      7  O   UNL     1       3.510   1.788  18.071  1.00  0.00    -0.550 OA
ATOM      8  O   UNL     1       2.271   1.203  16.236  1.00  0.00    -0.550 OA
ENDBRANCH   5   6
ENDBRANCH   4   5
ENDBRANCH   3   4
ENDBRANCH   2   3
ENDBRANCH   1   2
BRANCH   1   9
ATOM      9  C   UNL     1       6.108  -0.128  13.466  1.00  0.00     0.000 C 
BRANCH   9  10
ATOM     10  C   UNL     1       4.799  -0.676  14.055  1.00  0.00    -0.000 C 
BRANCH  10  11
ATOM     11  C   UNL     1       5.045  -1.595  15.270  1.00  0.00    -0.000 C 
BRANCH  11  12
ATOM     12  C   UNL     1       5.720  -0.884  16.455  1.00  0.00    -0.000 C 
BRANCH  12  13
ATOM     13  C   UNL     1       5.200  -1.364  17.816  1.00  0.00    -0.003 C 
ATOM     14  C   UNL     1       5.954  -0.696  18.961  1.00  0.00     0.004 C 
ENDBRANCH  12  13
ENDBRANCH  11  12
ENDBRANCH  10  11
ENDBRANCH   9  10
ENDBRANCH   1   9
TORSDOF 10
ENDMDL
MODEL 7
REMARK VINA RESULT:    -4.276      1.210      2.778
REMARK INTER + INTRA:          -8.265
REMARK INTER:                  -6.685
REMARK INTRA:                  -1.579
REMARK UNBOUND:                -1.489
REMARK SMILES CCCCCCCCCCCC(=O)[O-]
REMARK SMILES IDX 7 1 8 2 9 3 10 4 11 5 12 6 13 7 14 8 6 9 5 10 4 11 3 12 2 13
REMARK SMILES IDX 1 14
REMARK H PARENT
REMARK Flexibility Score: inf
ROOT
ATOM      1  C   UNL     1       2.172   0.859  15.655  1.00  0.00     0.000 C 
ENDROOT
BRANCH   1   2
ATOM      2  C   UNL     1       2.977   2.104  15.240  1.00  0.00     0.000 C 
BRANCH   2   3
ATOM      3  C   UNL     1       4.301   2.306  16.000  1.00  0.00     0.000 C 
BRANCH   3   4
ATOM      4  C   UNL     1       4.414   1.422  17.253  1.00  0.00     0.006 C 
BRANCH   4   5
ATOM      5  C   UNL     1       5.589   0.439  17.164  1.00  0.00     0.053 C 
BRANCH   5   6
ATOM      6  C   UNL     1       5.441  -0.695  18.133  1.00  0.00     0.041 C 
ATOM      7  O   UNL     1       4.466  -1.486  18.038  1.00  0.00    -0.550 OA
ATOM      8  O   UNL     1       6.365  -0.859  19.156  1.00  0.00    -0.550 OA
ENDBRANCH   5   6
ENDBRANCH   4   5
ENDBRANCH   3   4
ENDBRANCH   2   3
ENDBRANCH   1   2
BRANCH   1   9
ATOM      9  C   UNL     1       2.127  -0.219  14.563  1.00  0.00     0.000 C 
BRANCH   9  10
ATOM     10  C   UNL     1       2.944  -1.454  14.973  1.00  0.00    -0.000 C 
BRANCH  10  11
ATOM     11  C   UNL     1       4.018  -1.818  13.927  1.00  0.00    -0.000 C 
BRANCH  11  12
ATOM     12  C   UNL     1       4.547  -0.607  13.139  1.00  0.00    -0.000 C 
BRANCH  12  13
ATOM     13  C   UNL     1       5.977  -0.216  13.531  1.00  0.00    -0.003 C 
ATOM     14  C   UNL     1       6.308   1.199  13.069  1.00  0.00     0.004 C 
ENDBRANCH  12  13
ENDBRANCH  11  12
ENDBRANCH  10  11
ENDBRANCH   9  10
ENDBRANCH   1   9
TORSDOF 10
ENDMDL
MODEL 8
REMARK VINA RESULT:    -4.261      1.222      2.417
REMARK INTER + INTRA:          -8.242
REMARK INTER:                  -6.733
REMARK INTRA:                  -1.509
REMARK UNBOUND:                -1.489
REMARK SMILES CCCCCCCCCCCC(=O)[O-]
REMARK SMILES IDX 7 1 8 2 9 3 10 4 11 5 12 6 13 7 14 8 6 9 5 10 4 11 3 12 2 13
REMARK SMILES IDX 1 14
REMARK H PARENT
REMARK Flexibility Score: inf
ROOT
ATOM      1  C   UNL     1       6.028  -0.204  13.500  1.00  0.00     0.000 C 
ENDROOT
BRANCH   1   2
ATOM      2  C   UNL     1       5.390  -1.398  14.234  1.00  0.00     0.000 C 
BRANCH   2   3
ATOM      3  C   UNL     1       6.020  -1.738  15.597  1.00  0.00     0.000 C 
BRANCH   3   4
ATOM      4  C   UNL     1       5.109  -1.384  16.783  1.00  0.00     0.006 C 
BRANCH   4   5
ATOM      5  C   UNL     1       5.579  -0.123  17.519  1.00  0.00     0.053 C 
BRANCH   5   6
ATOM      6  C   UNL     1       5.525  -0.294  19.007  1.00  0.00     0.041 C 
ATOM      7  O   UNL     1       6.431  -0.933  19.605  1.00  0.00    -0.550 OA
ATOM      8  O   UNL     1       4.460   0.229  19.729  1.00  0.00    -0.550 OA
ENDBRANCH   5   6
ENDBRANCH   4   5
ENDBRANCH   3   4
ENDBRANCH   2   3
ENDBRANCH   1   2
BRANCH   1   9
ATOM      9  C   UNL     1       5.655   1.150  14.121  1.00  0.00     0.000 C 
BRANCH   9  10
ATOM     10  C   UNL     1       4.276   1.619  13.631  1.00  0.00    -0.000 C 
BRANCH  10  11
ATOM     11  C   UNL     1       3.385   2.121  14.787  1.00  0.00    -0.000 C 
BRANCH  11  12
ATOM     12  C   UNL     1       2.538   1.015  15.438  1.00  0.00    -0.000 C 
BRANCH  12  13
ATOM     13  C   UNL     1       1.950   0.033  14.417  1.00  0.00    -0.003 C 
ATOM     14  C   UNL     1       1.793  -1.360  15.020  1.00  0.00     0.004 C 
ENDBRANCH  12  13
ENDBRANCH  11  12
ENDBRANCH  10  11
ENDBRANCH   9  10
ENDBRANCH   1   9
TORSDOF 10
ENDMDL
MODEL 9
REMARK VINA RESULT:    -4.207      2.562      4.432
REMARK INTER + INTRA:          -8.155
REMARK INTER:                  -6.877
REMARK INTRA:                  -1.278
REMARK UNBOUND:                -1.489
REMARK SMILES CCCCCCCCCCCC(=O)[O-]
REMARK SMILES IDX 7 1 8 2 9 3 10 4 11 5 12 6 13 7 14 8 6 9 5 10 4 11 3 12 2 13
REMARK SMILES IDX 1 14
REMARK H PARENT
REMARK Flexibility Score: inf
ROOT
ATOM      1  C   UNL     1       6.255  -1.207  14.417  1.00  0.00     0.000 C 
ENDROOT
BRANCH   1   2
ATOM      2  C   UNL     1       5.804  -1.540  15.851  1.00  0.00     0.000 C 
BRANCH   2   3
ATOM      3  C   UNL     1       4.415  -1.001  16.239  1.00  0.00     0.000 C 
BRANCH   3   4
ATOM      4  C   UNL     1       3.295  -1.514  15.320  1.00  0.00     0.006 C 
BRANCH   4   5
ATOM      5  C   UNL     1       2.649  -0.384  14.508  1.00  0.00     0.053 C 
BRANCH   5   6
ATOM      6  C   UNL     1       1.376   0.096  15.137  1.00  0.00     0.041 C 
ATOM      7  O   UNL     1       0.264  -0.219  14.639  1.00  0.00    -0.550 OA
ATOM      8  O   UNL     1       1.421   0.914  16.258  1.00  0.00    -0.550 OA
ENDBRANCH   5   6
ENDBRANCH   4   5
ENDBRANCH   3   4
ENDBRANCH   2   3
ENDBRANCH   1   2
BRANCH   1   9
ATOM      9  C   UNL     1       6.567   0.284  14.217  1.00  0.00     0.000 C 
BRANCH   9  10
ATOM     10  C   UNL     1       5.718   0.877  13.082  1.00  0.00    -0.000 C 
BRANCH  10  11
ATOM     11  C   UNL     1       5.035   2.199  13.493  1.00  0.00    -0.000 C 
BRANCH  11  12
ATOM     12  C   UNL     1       4.944   2.399  15.016  1.00  0.00    -0.000 C 
BRANCH  12  13
ATOM     13  C   UNL     1       4.158   3.657  15.408  1.00  0.00    -0.003 C 
ATOM     14  C   UNL     1       3.006   3.910  14.440  1.00  0.00     0.004 C 
ENDBRANCH  12  13
ENDBRANCH  11  12
ENDBRANCH  10  11
ENDBRANCH   9  10
ENDBRANCH   1   9
TORSDOF 10
ENDMDL
