MODEL 1
REMARK VINA RESULT:    -5.968      0.000      0.000
REMARK INTER + INTRA:         -17.499
REMARK INTER:                 -15.738
REMARK INTRA:                  -1.761
REMARK UNBOUND:                -1.761
REMARK SMILES CCCCCCCCCCCCCCCCCCCCCCCCCCCCCC(=O)[O-]
REMARK SMILES IDX 16 1 17 2 18 3 19 4 20 5 21 6 22 7 23 8 24 9 25 10 26 11
REMARK SMILES IDX 27 12 28 13 29 14 30 15 31 16 32 17 15 18 14 19 13 20 12 21
REMARK SMILES IDX 11 22 10 23 9 24 8 25 7 26 6 27 5 28 4 29 3 30 2 31 1 32
REMARK H PARENT
REMARK Flexibility Score: inf
ROOT
ATOM      1  C   UNL     1      13.746  17.372  42.747  1.00  0.00     0.000 C 
ENDROOT
BRANCH   1   2
ATOM      2  C   UNL     1      14.920  18.271  42.315  1.00  0.00     0.000 C 
BRANCH   2   3
ATOM      3  C   UNL     1      16.065  17.561  41.568  1.00  0.00     0.000 C 
BRANCH   3   4
ATOM      4  C   UNL     1      17.402  17.532  42.339  1.00  0.00     0.000 C 
BRANCH   4   5
ATOM      5  C   UNL     1      18.082  16.152  42.306  1.00  0.00     0.000 C 
BRANCH   5   6
ATOM      6  C   UNL     1      19.569  16.231  42.692  1.00  0.00     0.000 C 
BRANCH   6   7
ATOM      7  C   UNL     1      20.383  15.057  42.116  1.00  0.00     0.000 C 
BRANCH   7   8
ATOM      8  C   UNL     1      20.144  13.750  42.888  1.00  0.00     0.000 C 
BRANCH   8   9
ATOM      9  C   UNL     1      20.297  13.933  44.406  1.00  0.00     0.000 C 
BRANCH   9  10
ATOM     10  C   UNL     1      19.163  13.222  45.160  1.00  0.00     0.000 C 
BRANCH  10  11
ATOM     11  C   UNL     1      19.670  12.122  46.111  1.00  0.00     0.000 C 
BRANCH  11  12
ATOM     12  C   UNL     1      19.848  10.736  45.464  1.00  0.00     0.000 C 
BRANCH  12  13
ATOM     13  C   UNL     1      21.321  10.385  45.192  1.00  0.00     0.006 C 
BRANCH  13  14
ATOM     14  C   UNL     1      21.478   9.416  44.013  1.00  0.00     0.053 C 
BRANCH  14  15
ATOM     15  C   UNL     1      21.580  10.137  42.704  1.00  0.00     0.041 C 
ATOM     16  O   UNL     1      20.555  10.304  41.991  1.00  0.00    -0.550 OA
ATOM     17  O   UNL     1      22.805  10.636  42.277  1.00  0.00    -0.550 OA
ENDBRANCH  14  15
ENDBRANCH  13  14
ENDBRANCH  12  13
ENDBRANCH  11  12
ENDBRANCH  10  11
ENDBRANCH   9  10
ENDBRANCH   8   9
ENDBRANCH   7   8
ENDBRANCH   6   7
ENDBRANCH   5   6
ENDBRANCH   4   5
ENDBRANCH   3   4
ENDBRANCH   2   3
ENDBRANCH   1   2
BRANCH   1  18
ATOM     18  C   UNL     1      12.387  17.707  42.102  1.00  0.00     0.000 C 
BRANCH  18  19
ATOM     19  C   UNL     1      11.361  16.567  42.239  1.00  0.00     0.000 C 
BRANCH  19  20
ATOM     20  C   UNL     1       9.917  17.044  42.013  1.00  0.00     0.000 C 
BRANCH  20  21
ATOM     21  C   UNL     1       8.990  15.931  41.504  1.00  0.00     0.000 C 
BRANCH  21  22
ATOM     22  C   UNL     1       9.714  14.579  41.499  1.00  0.00     0.000 C 
BRANCH  22  23
ATOM     23  C   UNL     1       9.340  13.754  40.258  1.00  0.00     0.000 C 
BRANCH  23  24
ATOM     24  C   UNL     1       8.889  12.327  40.608  1.00  0.00    -0.000 C 
BRANCH  24  25
ATOM     25  C   UNL     1       8.607  12.151  42.111  1.00  0.00    -0.000 C 
BRANCH  25  26
ATOM     26  C   UNL     1       7.812  10.871  42.417  1.00  0.00    -0.000 C 
BRANCH  26  27
ATOM     27  C   UNL     1       8.506   9.604  41.886  1.00  0.00    -0.000 C 
BRANCH  27  28
ATOM     28  C   UNL     1       8.293   8.382  42.798  1.00  0.00    -0.000 C 
BRANCH  28  29
ATOM     29  C   UNL     1       9.432   8.106  43.800  1.00  0.00    -0.000 C 
BRANCH  29  30
ATOM     30  C   UNL     1       9.485   9.057  45.011  1.00  0.00    -0.000 C 
BRANCH  30  31
ATOM     31  C   UNL     1      10.902   9.467  45.448  1.00  0.00    -0.003 C 
ATOM     32  C   UNL     1      11.889   8.300  45.431  1.00  0.00     0.004 C 
ENDBRANCH  30  31
ENDBRANCH  29  30
ENDBRANCH  28  29
ENDBRANCH  27  28
ENDBRANCH  26  27
ENDBRANCH  25  26
ENDBRANCH  24  25
ENDBRANCH  23  24
ENDBRANCH  22  23
ENDBRANCH  21  22
ENDBRANCH  20  21
ENDBRANCH  19  20
ENDBRANCH  18  19
ENDBRANCH   1  18
TORSDOF 28
ENDMDL
MODEL 2
REMARK VINA RESULT:    -5.960      1.745      2.556
REMARK INTER + INTRA:         -17.477
REMARK INTER:                 -15.971
REMARK INTRA:                  -1.506
REMARK UNBOUND:                -1.761
REMARK SMILES CCCCCCCCCCCCCCCCCCCCCCCCCCCCCC(=O)[O-]
REMARK SMILES IDX 16 1 17 2 18 3 19 4 20 5 21 6 22 7 23 8 24 9 25 10 26 11
REMARK SMILES IDX 27 12 28 13 29 14 30 15 31 16 32 17 15 18 14 19 13 20 12 21
REMARK SMILES IDX 11 22 10 23 9 24 8 25 7 26 6 27 5 28 4 29 3 30 2 31 1 32
REMARK H PARENT
REMARK Flexibility Score: inf
ROOT
ATOM      1  C   UNL     1      13.875  18.757  42.008  1.00  0.00     0.000 C 
ENDROOT
BRANCH   1   2
ATOM      2  C   UNL     1      15.361  18.716  42.413  1.00  0.00     0.000 C 
BRANCH   2   3
ATOM      3  C   UNL     1      16.156  17.497  41.907  1.00  0.00     0.000 C 
BRANCH   3   4
ATOM      4  C   UNL     1      17.663  17.544  42.236  1.00  0.00     0.000 C 
BRANCH   4   5
ATOM      5  C   UNL     1      18.296  16.146  42.347  1.00  0.00     0.000 C 
BRANCH   5   6
ATOM      6  C   UNL     1      19.734  16.203  42.890  1.00  0.00     0.000 C 
BRANCH   6   7
ATOM      7  C   UNL     1      20.712  16.829  41.879  1.00  0.00     0.000 C 
BRANCH   7   8
ATOM      8  C   UNL     1      22.176  16.702  42.331  1.00  0.00     0.000 C 
BRANCH   8   9
ATOM      9  C   UNL     1      23.077  16.121  41.231  1.00  0.00     0.000 C 
BRANCH   9  10
ATOM     10  C   UNL     1      23.406  14.647  41.514  1.00  0.00     0.000 C 
BRANCH  10  11
ATOM     11  C   UNL     1      22.624  14.076  42.711  1.00  0.00     0.000 C 
BRANCH  11  12
ATOM     12  C   UNL     1      22.442  12.546  42.699  1.00  0.00     0.000 C 
BRANCH  12  13
ATOM     13  C   UNL     1      20.965  12.118  42.714  1.00  0.00     0.006 C 
BRANCH  13  14
ATOM     14  C   UNL     1      20.606  11.318  43.974  1.00  0.00     0.053 C 
BRANCH  14  15
ATOM     15  C   UNL     1      19.929  12.169  45.004  1.00  0.00     0.041 C 
ATOM     16  O   UNL     1      19.896  13.420  44.869  1.00  0.00    -0.550 OA
ATOM     17  O   UNL     1      19.324  11.578  46.107  1.00  0.00    -0.550 OA
ENDBRANCH  14  15
ENDBRANCH  13  14
ENDBRANCH  12  13
ENDBRANCH  11  12
ENDBRANCH  10  11
ENDBRANCH   9  10
ENDBRANCH   8   9
ENDBRANCH   7   8
ENDBRANCH   6   7
ENDBRANCH   5   6
ENDBRANCH   4   5
ENDBRANCH   3   4
ENDBRANCH   2   3
ENDBRANCH   1   2
BRANCH   1  18
ATOM     18  C   UNL     1      13.050  17.513  42.392  1.00  0.00     0.000 C 
BRANCH  18  19
ATOM     19  C   UNL     1      11.559  17.648  42.036  1.00  0.00     0.000 C 
BRANCH  19  20
ATOM     20  C   UNL     1      10.812  16.306  42.108  1.00  0.00     0.000 C 
BRANCH  20  21
ATOM     21  C   UNL     1       9.286  16.467  42.106  1.00  0.00     0.000 C 
BRANCH  21  22
ATOM     22  C   UNL     1       8.616  15.303  41.364  1.00  0.00     0.000 C 
BRANCH  22  23
ATOM     23  C   UNL     1       9.467  14.027  41.454  1.00  0.00     0.000 C 
BRANCH  23  24
ATOM     24  C   UNL     1       9.310  13.122  40.220  1.00  0.00    -0.000 C 
BRANCH  24  25
ATOM     25  C   UNL     1       8.703  11.751  40.570  1.00  0.00    -0.000 C 
BRANCH  25  26
ATOM     26  C   UNL     1       8.576  11.532  42.087  1.00  0.00    -0.000 C 
BRANCH  26  27
ATOM     27  C   UNL     1       7.476  10.517  42.446  1.00  0.00    -0.000 C 
BRANCH  27  28
ATOM     28  C   UNL     1       7.596   9.994  43.889  1.00  0.00    -0.000 C 
BRANCH  28  29
ATOM     29  C   UNL     1       8.603   8.843  44.087  1.00  0.00    -0.000 C 
BRANCH  29  30
ATOM     30  C   UNL     1       9.383   8.875  45.415  1.00  0.00    -0.000 C 
BRANCH  30  31
ATOM     31  C   UNL     1      10.789   9.494  45.323  1.00  0.00    -0.003 C 
ATOM     32  C   UNL     1      11.904   8.463  45.490  1.00  0.00     0.004 C 
ENDBRANCH  30  31
ENDBRANCH  29  30
ENDBRANCH  28  29
ENDBRANCH  27  28
ENDBRANCH  26  27
ENDBRANCH  25  26
ENDBRANCH  24  25
ENDBRANCH  23  24
ENDBRANCH  22  23
ENDBRANCH  21  22
ENDBRANCH  20  21
ENDBRANCH  19  20
ENDBRANCH  18  19
ENDBRANCH   1  18
TORSDOF 28
ENDMDL
MODEL 3
REMARK VINA RESULT:    -5.959      1.224      2.798
REMARK INTER + INTRA:         -17.476
REMARK INTER:                 -16.053
REMARK INTRA:                  -1.422
REMARK UNBOUND:                -1.761
REMARK SMILES CCCCCCCCCCCCCCCCCCCCCCCCCCCCCC(=O)[O-]
REMARK SMILES IDX 16 1 17 2 18 3 19 4 20 5 21 6 22 7 23 8 24 9 25 10 26 11
REMARK SMILES IDX 27 12 28 13 29 14 30 15 31 16 32 17 15 18 14 19 13 20 12 21
REMARK SMILES IDX 11 22 10 23 9 24 8 25 7 26 6 27 5 28 4 29 3 30 2 31 1 32
REMARK H PARENT
REMARK Flexibility Score: inf
ROOT
ATOM      1  C   UNL     1      10.863  16.341  42.006  1.00  0.00     0.000 C 
ENDROOT
BRANCH   1   2
ATOM      2  C   UNL     1      11.658  17.659  42.064  1.00  0.00     0.000 C 
BRANCH   2   3
ATOM      3  C   UNL     1      13.156  17.522  42.402  1.00  0.00     0.000 C 
BRANCH   3   4
ATOM      4  C   UNL     1      13.991  18.782  42.098  1.00  0.00     0.000 C 
BRANCH   4   5
ATOM      5  C   UNL     1      15.311  18.465  41.372  1.00  0.00     0.000 C 
BRANCH   5   6
ATOM      6  C   UNL     1      16.023  17.242  41.974  1.00  0.00     0.000 C 
BRANCH   6   7
ATOM      7  C   UNL     1      17.501  17.529  42.294  1.00  0.00     0.000 C 
BRANCH   7   8
ATOM      8  C   UNL     1      18.357  16.252  42.281  1.00  0.00     0.000 C 
BRANCH   8   9
ATOM      9  C   UNL     1      19.841  16.542  42.558  1.00  0.00     0.000 C 
BRANCH   9  10
ATOM     10  C   UNL     1      20.627  15.237  42.751  1.00  0.00     0.000 C 
BRANCH  10  11
ATOM     11  C   UNL     1      19.954  14.270  43.742  1.00  0.00     0.000 C 
BRANCH  11  12
ATOM     12  C   UNL     1      20.707  12.946  43.972  1.00  0.00     0.000 C 
BRANCH  12  13
ATOM     13  C   UNL     1      21.054  12.218  42.662  1.00  0.00     0.006 C 
BRANCH  13  14
ATOM     14  C   UNL     1      20.784  10.709  42.749  1.00  0.00     0.053 C 
BRANCH  14  15
ATOM     15  C   UNL     1      22.022   9.903  42.500  1.00  0.00     0.041 C 
ATOM     16  O   UNL     1      22.752  10.155  41.504  1.00  0.00    -0.550 OA
ATOM     17  O   UNL     1      22.375   8.882  43.374  1.00  0.00    -0.550 OA
ENDBRANCH  14  15
ENDBRANCH  13  14
ENDBRANCH  12  13
ENDBRANCH  11  12
ENDBRANCH  10  11
ENDBRANCH   9  10
ENDBRANCH   8   9
ENDBRANCH   7   8
ENDBRANCH   6   7
ENDBRANCH   5   6
ENDBRANCH   4   5
ENDBRANCH   3   4
ENDBRANCH   2   3
ENDBRANCH   1   2
BRANCH   1  18
ATOM     18  C   UNL     1       9.341  16.494  41.823  1.00  0.00     0.000 C 
BRANCH  18  19
ATOM     19  C   UNL     1       8.676  15.235  41.239  1.00  0.00     0.000 C 
BRANCH  19  20
ATOM     20  C   UNL     1       9.363  13.939  41.700  1.00  0.00     0.000 C 
BRANCH  20  21
ATOM     21  C   UNL     1       9.022  12.732  40.814  1.00  0.00     0.000 C 
BRANCH  21  22
ATOM     22  C   UNL     1       9.483  12.969  39.371  1.00  0.00     0.000 C 
BRANCH  22  23
ATOM     23  C   UNL     1      10.132  11.707  38.782  1.00  0.00     0.000 C 
BRANCH  23  24
ATOM     24  C   UNL     1       9.113  10.589  38.505  1.00  0.00    -0.000 C 
BRANCH  24  25
ATOM     25  C   UNL     1       9.456   9.284  39.246  1.00  0.00    -0.000 C 
BRANCH  25  26
ATOM     26  C   UNL     1       8.310   8.800  40.150  1.00  0.00    -0.000 C 
BRANCH  26  27
ATOM     27  C   UNL     1       8.346   9.448  41.546  1.00  0.00    -0.000 C 
BRANCH  27  28
ATOM     28  C   UNL     1       8.141   8.428  42.681  1.00  0.00    -0.000 C 
BRANCH  28  29
ATOM     29  C   UNL     1       9.412   8.076  43.481  1.00  0.00    -0.000 C 
BRANCH  29  30
ATOM     30  C   UNL     1       9.410   8.535  44.952  1.00  0.00    -0.000 C 
BRANCH  30  31
ATOM     31  C   UNL     1      10.667   9.309  45.387  1.00  0.00    -0.003 C 
ATOM     32  C   UNL     1      11.891   8.409  45.555  1.00  0.00     0.004 C 
ENDBRANCH  30  31
ENDBRANCH  29  30
ENDBRANCH  28  29
ENDBRANCH  27  28
ENDBRANCH  26  27
ENDBRANCH  25  26
ENDBRANCH  24  25
ENDBRANCH  23  24
ENDBRANCH  22  23
ENDBRANCH  21  22
ENDBRANCH  20  21
ENDBRANCH  19  20
ENDBRANCH  18  19
ENDBRANCH   1  18
TORSDOF 28
ENDMDL
MODEL 4
REMARK VINA RESULT:    -5.901      1.239      2.160
REMARK INTER + INTRA:         -17.322
REMARK INTER:                 -15.354
REMARK INTRA:                  -1.968
REMARK UNBOUND:                -1.761
REMARK SMILES CCCCCCCCCCCCCCCCCCCCCCCCCCCCCC(=O)[O-]
REMARK SMILES IDX 16 1 17 2 18 3 19 4 20 5 21 6 22 7 23 8 24 9 25 10 26 11
REMARK SMILES IDX 27 12 28 13 29 14 30 15 31 16 32 17 15 18 14 19 13 20 12 21
REMARK SMILES IDX 11 22 10 23 9 24 8 25 7 26 6 27 5 28 4 29 3 30 2 31 1 32
REMARK H PARENT
REMARK Flexibility Score: inf
ROOT
ATOM      1  C   UNL     1      15.487  18.519  41.917  1.00  0.00     0.000 C 
ENDROOT
BRANCH   1   2
ATOM      2  C   UNL     1      16.352  17.245  41.984  1.00  0.00     0.000 C 
BRANCH   2   3
ATOM      3  C   UNL     1      17.847  17.469  42.281  1.00  0.00     0.000 C 
BRANCH   3   4
ATOM      4  C   UNL     1      18.669  16.169  42.406  1.00  0.00     0.000 C 
BRANCH   4   5
ATOM      5  C   UNL     1      20.160  16.427  42.689  1.00  0.00     0.000 C 
BRANCH   5   6
ATOM      6  C   UNL     1      20.997  16.450  41.399  1.00  0.00     0.000 C 
BRANCH   6   7
ATOM      7  C   UNL     1      21.997  15.281  41.334  1.00  0.00     0.000 C 
BRANCH   7   8
ATOM      8  C   UNL     1      22.131  14.556  42.682  1.00  0.00     0.000 C 
BRANCH   8   9
ATOM      9  C   UNL     1      21.802  13.058  42.573  1.00  0.00     0.000 C 
BRANCH   9  10
ATOM     10  C   UNL     1      20.390  12.767  43.104  1.00  0.00     0.000 C 
BRANCH  10  11
ATOM     11  C   UNL     1      20.129  13.386  44.489  1.00  0.00     0.000 C 
BRANCH  11  12
ATOM     12  C   UNL     1      19.662  12.392  45.568  1.00  0.00     0.000 C 
BRANCH  12  13
ATOM     13  C   UNL     1      19.894  10.923  45.172  1.00  0.00     0.006 C 
BRANCH  13  14
ATOM     14  C   UNL     1      20.947  10.244  46.059  1.00  0.00     0.053 C 
BRANCH  14  15
ATOM     15  C   UNL     1      22.223   9.988  45.317  1.00  0.00     0.041 C 
ATOM     16  O   UNL     1      23.318   9.942  45.939  1.00  0.00    -0.550 OA
ATOM     17  O   UNL     1      22.201   9.788  43.942  1.00  0.00    -0.550 OA
ENDBRANCH  14  15
ENDBRANCH  13  14
ENDBRANCH  12  13
ENDBRANCH  11  12
ENDBRANCH  10  11
ENDBRANCH   9  10
ENDBRANCH   8   9
ENDBRANCH   7   8
ENDBRANCH   6   7
ENDBRANCH   5   6
ENDBRANCH   4   5
ENDBRANCH   3   4
ENDBRANCH   2   3
ENDBRANCH   1   2
BRANCH   1  18
ATOM     18  C   UNL     1      14.175  18.469  42.723  1.00  0.00     0.000 C 
BRANCH  18  19
ATOM     19  C   UNL     1      13.274  17.284  42.331  1.00  0.00     0.000 C 
BRANCH  19  20
ATOM     20  C   UNL     1      11.783  17.659  42.310  1.00  0.00     0.000 C 
BRANCH  20  21
ATOM     21  C   UNL     1      10.870  16.472  41.971  1.00  0.00     0.000 C 
BRANCH  21  22
ATOM     22  C   UNL     1       9.398  16.901  41.967  1.00  0.00     0.000 C 
BRANCH  22  23
ATOM     23  C   UNL     1       8.507  15.834  42.621  1.00  0.00     0.000 C 
BRANCH  23  24
ATOM     24  C   UNL     1       8.980  14.401  42.321  1.00  0.00    -0.000 C 
BRANCH  24  25
ATOM     25  C   UNL     1       7.915  13.575  41.578  1.00  0.00    -0.000 C 
BRANCH  25  26
ATOM     26  C   UNL     1       7.518  12.300  42.342  1.00  0.00    -0.000 C 
BRANCH  26  27
ATOM     27  C   UNL     1       8.711  11.356  42.574  1.00  0.00    -0.000 C 
BRANCH  27  28
ATOM     28  C   UNL     1       8.391   9.893  42.215  1.00  0.00    -0.000 C 
BRANCH  28  29
ATOM     29  C   UNL     1       8.573   8.882  43.365  1.00  0.00    -0.000 C 
BRANCH  29  30
ATOM     30  C   UNL     1       8.749   9.505  44.764  1.00  0.00    -0.000 C 
BRANCH  30  31
ATOM     31  C   UNL     1       9.784   8.800  45.658  1.00  0.00    -0.003 C 
ATOM     32  C   UNL     1      11.220   9.003  45.178  1.00  0.00     0.004 C 
ENDBRANCH  30  31
ENDBRANCH  29  30
ENDBRANCH  28  29
ENDBRANCH  27  28
ENDBRANCH  26  27
ENDBRANCH  25  26
ENDBRANCH  24  25
ENDBRANCH  23  24
ENDBRANCH  22  23
ENDBRANCH  21  22
ENDBRANCH  20  21
ENDBRANCH  19  20
ENDBRANCH  18  19
ENDBRANCH   1  18
TORSDOF 28
ENDMDL
MODEL 5
REMARK VINA RESULT:    -5.871      3.097     10.495
REMARK INTER + INTRA:         -17.243
REMARK INTER:                 -15.962
REMARK INTRA:                  -1.280
REMARK UNBOUND:                -1.761
REMARK SMILES CCCCCCCCCCCCCCCCCCCCCCCCCCCCCC(=O)[O-]
REMARK SMILES IDX 16 1 17 2 18 3 19 4 20 5 21 6 22 7 23 8 24 9 25 10 26 11
REMARK SMILES IDX 27 12 28 13 29 14 30 15 31 16 32 17 15 18 14 19 13 20 12 21
REMARK SMILES IDX 11 22 10 23 9 24 8 25 7 26 6 27 5 28 4 29 3 30 2 31 1 32
REMARK H PARENT
REMARK Flexibility Score: inf
ROOT
ATOM      1  C   UNL     1      13.518  17.626  42.765  1.00  0.00     0.000 C 
ENDROOT
BRANCH   1   2
ATOM      2  C   UNL     1      12.173  17.704  42.017  1.00  0.00     0.000 C 
BRANCH   2   3
ATOM      3  C   UNL     1      11.209  16.525  42.255  1.00  0.00     0.000 C 
BRANCH   3   4
ATOM      4  C   UNL     1       9.778  16.762  41.727  1.00  0.00     0.000 C 
BRANCH   4   5
ATOM      5  C   UNL     1       8.798  15.647  42.132  1.00  0.00     0.000 C 
BRANCH   5   6
ATOM      6  C   UNL     1       9.448  14.254  42.066  1.00  0.00     0.000 C 
BRANCH   6   7
ATOM      7  C   UNL     1       9.162  13.542  40.731  1.00  0.00     0.000 C 
BRANCH   7   8
ATOM      8  C   UNL     1       8.560  12.143  40.935  1.00  0.00     0.000 C 
BRANCH   8   9
ATOM      9  C   UNL     1       8.358  11.807  42.421  1.00  0.00     0.000 C 
BRANCH   9  10
ATOM     10  C   UNL     1       7.725  10.417  42.587  1.00  0.00     0.000 C 
BRANCH  10  11
ATOM     11  C   UNL     1       8.620   9.281  42.059  1.00  0.00     0.000 C 
BRANCH  11  12
ATOM     12  C   UNL     1       9.197   8.351  43.143  1.00  0.00     0.000 C 
BRANCH  12  13
ATOM     13  C   UNL     1       8.280   8.220  44.372  1.00  0.00     0.006 C 
BRANCH  13  14
ATOM     14  C   UNL     1       8.802   9.022  45.572  1.00  0.00     0.053 C 
BRANCH  14  15
ATOM     15  C   UNL     1      10.276   9.268  45.483  1.00  0.00     0.041 C 
ATOM     16  O   UNL     1      11.086   8.310  45.597  1.00  0.00    -0.550 OA
ATOM     17  O   UNL     1      10.755  10.554  45.263  1.00  0.00    -0.550 OA
ENDBRANCH  14  15
ENDBRANCH  13  14
ENDBRANCH  12  13
ENDBRANCH  11  12
ENDBRANCH  10  11
ENDBRANCH   9  10
ENDBRANCH   8   9
ENDBRANCH   7   8
ENDBRANCH   6   7
ENDBRANCH   5   6
ENDBRANCH   4   5
ENDBRANCH   3   4
ENDBRANCH   2   3
ENDBRANCH   1   2
BRANCH   1  18
ATOM     18  C   UNL     1      14.656  18.475  42.167  1.00  0.00     0.000 C 
BRANCH  18  19
ATOM     19  C   UNL     1      15.736  17.628  41.470  1.00  0.00     0.000 C 
BRANCH  19  20
ATOM     20  C   UNL     1      17.111  17.754  42.146  1.00  0.00     0.000 C 
BRANCH  20  21
ATOM     21  C   UNL     1      17.804  16.399  42.353  1.00  0.00     0.000 C 
BRANCH  21  22
ATOM     22  C   UNL     1      19.309  16.587  42.582  1.00  0.00     0.000 C 
BRANCH  22  23
ATOM     23  C   UNL     1      19.979  15.262  42.976  1.00  0.00     0.000 C 
BRANCH  23  24
ATOM     24  C   UNL     1      21.141  14.883  42.042  1.00  0.00    -0.000 C 
BRANCH  24  25
ATOM     25  C   UNL     1      21.694  13.476  42.332  1.00  0.00    -0.000 C 
BRANCH  25  26
ATOM     26  C   UNL     1      21.015  12.813  43.542  1.00  0.00    -0.000 C 
BRANCH  26  27
ATOM     27  C   UNL     1      20.674  11.334  43.289  1.00  0.00    -0.000 C 
BRANCH  27  28
ATOM     28  C   UNL     1      21.267  10.803  41.970  1.00  0.00    -0.000 C 
BRANCH  28  29
ATOM     29  C   UNL     1      20.713   9.443  41.503  1.00  0.00    -0.000 C 
BRANCH  29  30
ATOM     30  C   UNL     1      20.443   9.328  39.991  1.00  0.00    -0.000 C 
BRANCH  30  31
ATOM     31  C   UNL     1      19.022   9.731  39.557  1.00  0.00    -0.003 C 
ATOM     32  C   UNL     1      17.984   8.646  39.841  1.00  0.00     0.004 C 
ENDBRANCH  30  31
ENDBRANCH  29  30
ENDBRANCH  28  29
ENDBRANCH  27  28
ENDBRANCH  26  27
ENDBRANCH  25  26
ENDBRANCH  24  25
ENDBRANCH  23  24
ENDBRANCH  22  23
ENDBRANCH  21  22
ENDBRANCH  20  21
ENDBRANCH  19  20
ENDBRANCH  18  19
ENDBRANCH   1  18
TORSDOF 28
ENDMDL
MODEL 6
REMARK VINA RESULT:    -5.851      1.468      2.223
REMARK INTER + INTRA:         -17.188
REMARK INTER:                 -15.904
REMARK INTRA:                  -1.284
REMARK UNBOUND:                -1.761
REMARK SMILES CCCCCCCCCCCCCCCCCCCCCCCCCCCCCC(=O)[O-]
REMARK SMILES IDX 16 1 17 2 18 3 19 4 20 5 21 6 22 7 23 8 24 9 25 10 26 11
REMARK SMILES IDX 27 12 28 13 29 14 30 15 31 16 32 17 15 18 14 19 13 20 12 21
REMARK SMILES IDX 11 22 10 23 9 24 8 25 7 26 6 27 5 28 4 29 3 30 2 31 1 32
REMARK H PARENT
REMARK Flexibility Score: inf
ROOT
ATOM      1  C   UNL     1      14.711  18.348  42.019  1.00  0.00     0.000 C 
ENDROOT
BRANCH   1   2
ATOM      2  C   UNL     1      15.840  17.374  41.628  1.00  0.00     0.000 C 
BRANCH   2   3
ATOM      3  C   UNL     1      17.227  17.687  42.220  1.00  0.00     0.000 C 
BRANCH   3   4
ATOM      4  C   UNL     1      18.178  16.474  42.281  1.00  0.00     0.000 C 
BRANCH   4   5
ATOM      5  C   UNL     1      19.664  16.875  42.261  1.00  0.00     0.000 C 
BRANCH   5   6
ATOM      6  C   UNL     1      20.590  15.658  42.099  1.00  0.00     0.000 C 
BRANCH   6   7
ATOM      7  C   UNL     1      19.963  14.371  42.667  1.00  0.00     0.000 C 
BRANCH   7   8
ATOM      8  C   UNL     1      20.922  13.624  43.607  1.00  0.00     0.000 C 
BRANCH   8   9
ATOM      9  C   UNL     1      20.685  12.106  43.596  1.00  0.00     0.000 C 
BRANCH   9  10
ATOM     10  C   UNL     1      21.916  11.355  44.125  1.00  0.00     0.000 C 
BRANCH  10  11
ATOM     11  C   UNL     1      22.071   9.950  43.514  1.00  0.00     0.000 C 
BRANCH  11  12
ATOM     12  C   UNL     1      20.768   9.134  43.421  1.00  0.00     0.000 C 
BRANCH  12  13
ATOM     13  C   UNL     1      20.526   8.548  42.019  1.00  0.00     0.006 C 
BRANCH  13  14
ATOM     14  C   UNL     1      20.041   9.610  41.023  1.00  0.00     0.053 C 
BRANCH  14  15
ATOM     15  C   UNL     1      19.648   9.008  39.709  1.00  0.00     0.041 C 
ATOM     16  O   UNL     1      20.508   8.423  38.998  1.00  0.00    -0.550 OA
ATOM     17  O   UNL     1      18.330   9.084  39.274  1.00  0.00    -0.550 OA
ENDBRANCH  14  15
ENDBRANCH  13  14
ENDBRANCH  12  13
ENDBRANCH  11  12
ENDBRANCH  10  11
ENDBRANCH   9  10
ENDBRANCH   8   9
ENDBRANCH   7   8
ENDBRANCH   6   7
ENDBRANCH   5   6
ENDBRANCH   4   5
ENDBRANCH   3   4
ENDBRANCH   2   3
ENDBRANCH   1   2
BRANCH   1  18
ATOM     18  C   UNL     1      13.542  17.723  42.803  1.00  0.00     0.000 C 
BRANCH  18  19
ATOM     19  C   UNL     1      12.196  17.836  42.065  1.00  0.00     0.000 C 
BRANCH  19  20
ATOM     20  C   UNL     1      11.359  16.550  42.166  1.00  0.00     0.000 C 
BRANCH  20  21
ATOM     21  C   UNL     1       9.856  16.794  41.964  1.00  0.00     0.000 C 
BRANCH  21  22
ATOM     22  C   UNL     1       9.048  15.540  42.322  1.00  0.00     0.000 C 
BRANCH  22  23
ATOM     23  C   UNL     1       9.275  14.422  41.293  1.00  0.00     0.000 C 
BRANCH  23  24
ATOM     24  C   UNL     1       9.060  13.019  41.884  1.00  0.00    -0.000 C 
BRANCH  24  25
ATOM     25  C   UNL     1       7.787  12.342  41.344  1.00  0.00    -0.000 C 
BRANCH  25  26
ATOM     26  C   UNL     1       7.853  10.808  41.429  1.00  0.00    -0.000 C 
BRANCH  26  27
ATOM     27  C   UNL     1       8.132  10.309  42.858  1.00  0.00    -0.000 C 
BRANCH  27  28
ATOM     28  C   UNL     1       8.833   8.938  42.883  1.00  0.00    -0.000 C 
BRANCH  28  29
ATOM     29  C   UNL     1       8.982   8.304  44.280  1.00  0.00    -0.000 C 
BRANCH  29  30
ATOM     30  C   UNL     1       9.388   9.278  45.403  1.00  0.00    -0.000 C 
BRANCH  30  31
ATOM     31  C   UNL     1      10.899   9.556  45.500  1.00  0.00    -0.003 C 
ATOM     32  C   UNL     1      11.740   8.281  45.492  1.00  0.00     0.004 C 
ENDBRANCH  30  31
ENDBRANCH  29  30
ENDBRANCH  28  29
ENDBRANCH  27  28
ENDBRANCH  26  27
ENDBRANCH  25  26
ENDBRANCH  24  25
ENDBRANCH  23  24
ENDBRANCH  22  23
ENDBRANCH  21  22
ENDBRANCH  20  21
ENDBRANCH  19  20
ENDBRANCH  18  19
ENDBRANCH   1  18
TORSDOF 28
ENDMDL
MODEL 7
REMARK VINA RESULT:    -5.820      1.481      3.016
REMARK INTER + INTRA:         -17.109
REMARK INTER:                 -15.729
REMARK INTRA:                  -1.380
REMARK UNBOUND:                -1.761
REMARK SMILES CCCCCCCCCCCCCCCCCCCCCCCCCCCCCC(=O)[O-]
REMARK SMILES IDX 16 1 17 2 18 3 19 4 20 5 21 6 22 7 23 8 24 9 25 10 26 11
REMARK SMILES IDX 27 12 28 13 29 14 30 15 31 16 32 17 15 18 14 19 13 20 12 21
REMARK SMILES IDX 11 22 10 23 9 24 8 25 7 26 6 27 5 28 4 29 3 30 2 31 1 32
REMARK H PARENT
REMARK Flexibility Score: inf
ROOT
ATOM      1  C   UNL     1      16.055  17.372  41.638  1.00  0.00     0.000 C 
ENDROOT
BRANCH   1   2
ATOM      2  C   UNL     1      17.418  17.474  42.352  1.00  0.00     0.000 C 
BRANCH   2   3
ATOM      3  C   UNL     1      18.274  16.192  42.341  1.00  0.00     0.000 C 
BRANCH   3   4
ATOM      4  C   UNL     1      19.794  16.446  42.417  1.00  0.00     0.000 C 
BRANCH   4   5
ATOM      5  C   UNL     1      20.542  15.366  43.217  1.00  0.00     0.000 C 
BRANCH   5   6
ATOM      6  C   UNL     1      19.603  14.245  43.695  1.00  0.00     0.000 C 
BRANCH   6   7
ATOM      7  C   UNL     1      20.334  13.205  44.563  1.00  0.00     0.000 C 
BRANCH   7   8
ATOM      8  C   UNL     1      19.451  12.677  45.705  1.00  0.00     0.000 C 
BRANCH   8   9
ATOM      9  C   UNL     1      19.640  11.170  45.940  1.00  0.00     0.000 C 
BRANCH   9  10
ATOM     10  C   UNL     1      20.859  10.644  45.167  1.00  0.00     0.000 C 
BRANCH  10  11
ATOM     11  C   UNL     1      20.529   9.434  44.274  1.00  0.00     0.000 C 
BRANCH  11  12
ATOM     12  C   UNL     1      20.685   9.681  42.762  1.00  0.00     0.000 C 
BRANCH  12  13
ATOM     13  C   UNL     1      20.824   8.380  41.953  1.00  0.00     0.006 C 
BRANCH  13  14
ATOM     14  C   UNL     1      19.538   8.031  41.191  1.00  0.00     0.053 C 
BRANCH  14  15
ATOM     15  C   UNL     1      19.520   8.631  39.819  1.00  0.00     0.041 C 
ATOM     16  O   UNL     1      18.493   9.233  39.405  1.00  0.00    -0.550 OA
ATOM     17  O   UNL     1      20.640   8.535  39.002  1.00  0.00    -0.550 OA
ENDBRANCH  14  15
ENDBRANCH  13  14
ENDBRANCH  12  13
ENDBRANCH  11  12
ENDBRANCH  10  11
ENDBRANCH   9  10
ENDBRANCH   8   9
ENDBRANCH   7   8
ENDBRANCH   6   7
ENDBRANCH   5   6
ENDBRANCH   4   5
ENDBRANCH   3   4
ENDBRANCH   2   3
ENDBRANCH   1   2
BRANCH   1  18
ATOM     18  C   UNL     1      15.241  18.679  41.580  1.00  0.00     0.000 C 
BRANCH  18  19
ATOM     19  C   UNL     1      14.087  18.714  42.598  1.00  0.00     0.000 C 
BRANCH  19  20
ATOM     20  C   UNL     1      13.248  17.426  42.581  1.00  0.00     0.000 C 
BRANCH  20  21
ATOM     21  C   UNL     1      11.828  17.643  42.039  1.00  0.00     0.000 C 
BRANCH  21  22
ATOM     22  C   UNL     1      11.007  16.350  42.129  1.00  0.00     0.000 C 
BRANCH  22  23
ATOM     23  C   UNL     1       9.501  16.650  42.149  1.00  0.00     0.000 C 
BRANCH  23  24
ATOM     24  C   UNL     1       8.695  15.701  41.246  1.00  0.00    -0.000 C 
BRANCH  24  25
ATOM     25  C   UNL     1       9.335  14.305  41.140  1.00  0.00    -0.000 C 
BRANCH  25  26
ATOM     26  C   UNL     1       8.307  13.206  40.823  1.00  0.00    -0.000 C 
BRANCH  26  27
ATOM     27  C   UNL     1       8.837  11.795  41.133  1.00  0.00    -0.000 C 
BRANCH  27  28
ATOM     28  C   UNL     1       7.956  11.037  42.144  1.00  0.00    -0.000 C 
BRANCH  28  29
ATOM     29  C   UNL     1       8.677  10.581  43.428  1.00  0.00    -0.000 C 
BRANCH  29  30
ATOM     30  C   UNL     1       8.758   9.055  43.627  1.00  0.00    -0.000 C 
BRANCH  30  31
ATOM     31  C   UNL     1      10.033   8.564  44.335  1.00  0.00    -0.003 C 
ATOM     32  C   UNL     1      10.478   9.488  45.468  1.00  0.00     0.004 C 
ENDBRANCH  30  31
ENDBRANCH  29  30
ENDBRANCH  28  29
ENDBRANCH  27  28
ENDBRANCH  26  27
ENDBRANCH  25  26
ENDBRANCH  24  25
ENDBRANCH  23  24
ENDBRANCH  22  23
ENDBRANCH  21  22
ENDBRANCH  20  21
ENDBRANCH  19  20
ENDBRANCH  18  19
ENDBRANCH   1  18
TORSDOF 28
ENDMDL
MODEL 8
REMARK VINA RESULT:    -5.809      1.767      3.027
REMARK INTER + INTRA:         -17.079
REMARK INTER:                 -15.454
REMARK INTRA:                  -1.625
REMARK UNBOUND:                -1.761
REMARK SMILES CCCCCCCCCCCCCCCCCCCCCCCCCCCCCC(=O)[O-]
REMARK SMILES IDX 16 1 17 2 18 3 19 4 20 5 21 6 22 7 23 8 24 9 25 10 26 11
REMARK SMILES IDX 27 12 28 13 29 14 30 15 31 16 32 17 15 18 14 19 13 20 12 21
REMARK SMILES IDX 11 22 10 23 9 24 8 25 7 26 6 27 5 28 4 29 3 30 2 31 1 32
REMARK H PARENT
REMARK Flexibility Score: inf
ROOT
ATOM      1  C   UNL     1      11.009  16.104  41.997  1.00  0.00     0.000 C 
ENDROOT
BRANCH   1   2
ATOM      2  C   UNL     1      11.649  17.504  42.064  1.00  0.00     0.000 C 
BRANCH   2   3
ATOM      3  C   UNL     1      13.125  17.542  42.506  1.00  0.00     0.000 C 
BRANCH   3   4
ATOM      4  C   UNL     1      13.937  18.706  41.900  1.00  0.00     0.000 C 
BRANCH   4   5
ATOM      5  C   UNL     1      15.402  18.723  42.373  1.00  0.00     0.000 C 
BRANCH   5   6
ATOM      6  C   UNL     1      16.150  17.437  41.985  1.00  0.00     0.000 C 
BRANCH   6   7
ATOM      7  C   UNL     1      17.676  17.586  42.126  1.00  0.00     0.000 C 
BRANCH   7   8
ATOM      8  C   UNL     1      18.369  16.242  42.396  1.00  0.00     0.000 C 
BRANCH   8   9
ATOM      9  C   UNL     1      19.798  16.420  42.934  1.00  0.00     0.000 C 
BRANCH   9  10
ATOM     10  C   UNL     1      20.480  15.059  43.140  1.00  0.00     0.000 C 
BRANCH  10  11
ATOM     11  C   UNL     1      19.848  13.936  42.296  1.00  0.00     0.000 C 
BRANCH  11  12
ATOM     12  C   UNL     1      20.538  12.565  42.418  1.00  0.00     0.000 C 
BRANCH  12  13
ATOM     13  C   UNL     1      21.185  12.339  43.796  1.00  0.00     0.006 C 
BRANCH  13  14
ATOM     14  C   UNL     1      20.599  11.118  44.518  1.00  0.00     0.053 C 
BRANCH  14  15
ATOM     15  C   UNL     1      19.819  11.507  45.736  1.00  0.00     0.041 C 
ATOM     16  O   UNL     1      19.275  12.641  45.803  1.00  0.00    -0.550 OA
ATOM     17  O   UNL     1      19.684  10.614  46.791  1.00  0.00    -0.550 OA
ENDBRANCH  14  15
ENDBRANCH  13  14
ENDBRANCH  12  13
ENDBRANCH  11  12
ENDBRANCH  10  11
ENDBRANCH   9  10
ENDBRANCH   8   9
ENDBRANCH   7   8
ENDBRANCH   6   7
ENDBRANCH   5   6
ENDBRANCH   4   5
ENDBRANCH   3   4
ENDBRANCH   2   3
ENDBRANCH   1   2
BRANCH   1  18
ATOM     18  C   UNL     1       9.531  16.032  42.428  1.00  0.00     0.000 C 
BRANCH  18  19
ATOM     19  C   UNL     1       8.718  17.265  41.993  1.00  0.00     0.000 C 
BRANCH  19  20
ATOM     20  C   UNL     1       7.256  17.202  42.464  1.00  0.00     0.000 C 
BRANCH  20  21
ATOM     21  C   UNL     1       6.901  15.873  43.145  1.00  0.00     0.000 C 
BRANCH  21  22
ATOM     22  C   UNL     1       5.926  15.062  42.282  1.00  0.00     0.000 C 
BRANCH  22  23
ATOM     23  C   UNL     1       6.375  13.598  42.166  1.00  0.00     0.000 C 
BRANCH  23  24
ATOM     24  C   UNL     1       7.832  13.459  41.696  1.00  0.00    -0.000 C 
BRANCH  24  25
ATOM     25  C   UNL     1       8.492  12.162  42.200  1.00  0.00    -0.000 C 
BRANCH  25  26
ATOM     26  C   UNL     1       7.461  11.084  42.576  1.00  0.00    -0.000 C 
BRANCH  26  27
ATOM     27  C   UNL     1       8.096   9.690  42.730  1.00  0.00    -0.000 C 
BRANCH  27  28
ATOM     28  C   UNL     1       7.620   8.956  43.998  1.00  0.00    -0.000 C 
BRANCH  28  29
ATOM     29  C   UNL     1       8.223   9.473  45.319  1.00  0.00    -0.000 C 
BRANCH  29  30
ATOM     30  C   UNL     1       9.503   8.751  45.782  1.00  0.00    -0.000 C 
BRANCH  30  31
ATOM     31  C   UNL     1      10.815   9.374  45.272  1.00  0.00    -0.003 C 
ATOM     32  C   UNL     1      12.009   8.428  45.395  1.00  0.00     0.004 C 
ENDBRANCH  30  31
ENDBRANCH  29  30
ENDBRANCH  28  29
ENDBRANCH  27  28
ENDBRANCH  26  27
ENDBRANCH  25  26
ENDBRANCH  24  25
ENDBRANCH  23  24
ENDBRANCH  22  23
ENDBRANCH  21  22
ENDBRANCH  20  21
ENDBRANCH  19  20
ENDBRANCH  18  19
ENDBRANCH   1  18
TORSDOF 28
ENDMDL
MODEL 9
REMARK VINA RESULT:    -5.726      1.038      2.326
REMARK INTER + INTRA:         -16.861
REMARK INTER:                 -15.439
REMARK INTRA:                  -1.422
REMARK UNBOUND:                -1.761
REMARK SMILES CCCCCCCCCCCCCCCCCCCCCCCCCCCCCC(=O)[O-]
REMARK SMILES IDX 16 1 17 2 18 3 19 4 20 5 21 6 22 7 23 8 24 9 25 10 26 11
REMARK SMILES IDX 27 12 28 13 29 14 30 15 31 16 32 17 15 18 14 19 13 20 12 21
REMARK SMILES IDX 11 22 10 23 9 24 8 25 7 26 6 27 5 28 4 29 3 30 2 31 1 32
REMARK H PARENT
REMARK Flexibility Score: inf
ROOT
ATOM      1  C   UNL     1      16.071  17.470  42.013  1.00  0.00     0.000 C 
ENDROOT
BRANCH   1   2
ATOM      2  C   UNL     1      17.608  17.572  42.012  1.00  0.00     0.000 C 
BRANCH   2   3
ATOM      3  C   UNL     1      18.363  16.280  42.381  1.00  0.00     0.000 C 
BRANCH   3   4
ATOM      4  C   UNL     1      19.900  16.410  42.336  1.00  0.00     0.000 C 
BRANCH   4   5
ATOM      5  C   UNL     1      20.611  15.441  43.297  1.00  0.00     0.000 C 
BRANCH   5   6
ATOM      6  C   UNL     1      20.756  14.032  42.697  1.00  0.00     0.000 C 
BRANCH   6   7
ATOM      7  C   UNL     1      20.453  12.928  43.725  1.00  0.00     0.000 C 
BRANCH   7   8
ATOM      8  C   UNL     1      19.731  13.473  44.967  1.00  0.00     0.000 C 
BRANCH   8   9
ATOM      9  C   UNL     1      19.608  12.419  46.080  1.00  0.00     0.000 C 
BRANCH   9  10
ATOM     10  C   UNL     1      19.607  11.000  45.492  1.00  0.00     0.000 C 
BRANCH  10  11
ATOM     11  C   UNL     1      20.767  10.132  46.015  1.00  0.00     0.000 C 
BRANCH  11  12
ATOM     12  C   UNL     1      21.174   8.967  45.094  1.00  0.00     0.000 C 
BRANCH  12  13
ATOM     13  C   UNL     1      20.958   9.278  43.602  1.00  0.00     0.006 C 
BRANCH  13  14
ATOM     14  C   UNL     1      22.024   8.622  42.714  1.00  0.00     0.053 C 
BRANCH  14  15
ATOM     15  C   UNL     1      22.050   9.217  41.339  1.00  0.00     0.041 C 
ATOM     16  O   UNL     1      21.082   9.913  40.932  1.00  0.00    -0.550 OA
ATOM     17  O   UNL     1      23.148   9.012  40.513  1.00  0.00    -0.550 OA
ENDBRANCH  14  15
ENDBRANCH  13  14
ENDBRANCH  12  13
ENDBRANCH  11  12
ENDBRANCH  10  11
ENDBRANCH   9  10
ENDBRANCH   8   9
ENDBRANCH   7   8
ENDBRANCH   6   7
ENDBRANCH   5   6
ENDBRANCH   4   5
ENDBRANCH   3   4
ENDBRANCH   2   3
ENDBRANCH   1   2
BRANCH   1  18
ATOM     18  C   UNL     1      15.324  18.751  42.432  1.00  0.00     0.000 C 
BRANCH  18  19
ATOM     19  C   UNL     1      13.848  18.756  41.995  1.00  0.00     0.000 C 
BRANCH  19  20
ATOM     20  C   UNL     1      13.095  17.495  42.450  1.00  0.00     0.000 C 
BRANCH  20  21
ATOM     21  C   UNL     1      11.614  17.503  42.047  1.00  0.00     0.000 C 
BRANCH  21  22
ATOM     22  C   UNL     1      11.045  16.078  42.037  1.00  0.00     0.000 C 
BRANCH  22  23
ATOM     23  C   UNL     1       9.525  16.090  41.813  1.00  0.00     0.000 C 
BRANCH  23  24
ATOM     24  C   UNL     1       9.021  14.826  41.097  1.00  0.00    -0.000 C 
BRANCH  24  25
ATOM     25  C   UNL     1       8.099  13.973  41.987  1.00  0.00    -0.000 C 
BRANCH  25  26
ATOM     26  C   UNL     1       8.712  12.606  42.334  1.00  0.00    -0.000 C 
BRANCH  26  27
ATOM     27  C   UNL     1       7.652  11.497  42.451  1.00  0.00    -0.000 C 
BRANCH  27  28
ATOM     28  C   UNL     1       8.269  10.105  42.683  1.00  0.00    -0.000 C 
BRANCH  28  29
ATOM     29  C   UNL     1       8.412   9.691  44.161  1.00  0.00    -0.000 C 
BRANCH  29  30
ATOM     30  C   UNL     1       9.838   9.797  44.737  1.00  0.00    -0.000 C 
BRANCH  30  31
ATOM     31  C   UNL     1      10.463   8.457  45.162  1.00  0.00    -0.003 C 
ATOM     32  C   UNL     1      11.949   8.575  45.498  1.00  0.00     0.004 C 
ENDBRANCH  30  31
ENDBRANCH  29  30
ENDBRANCH  28  29
ENDBRANCH  27  28
ENDBRANCH  26  27
ENDBRANCH  25  26
ENDBRANCH  24  25
ENDBRANCH  23  24
ENDBRANCH  22  23
ENDBRANCH  21  22
ENDBRANCH  20  21
ENDBRANCH  19  20
ENDBRANCH  18  19
ENDBRANCH   1  18
TORSDOF 28
ENDMDL
