MODEL 1
REMARK VINA RESULT:    -8.228      0.000      0.000
REMARK INTER + INTRA:          -9.648
REMARK INTER:                  -9.911
REMARK INTRA:                   0.263
REMARK UNBOUND:                 0.263
REMARK SMILES O=c1c(O)c(-c2ccc(O)c(O)c2)oc2cc(O)cc(O)c12
REMARK SMILES IDX 5 1 3 2 2 3 1 4 22 5 20 6 19 7 17 8 16 9 15 10 14 11 6 12
REMARK SMILES IDX 7 13 8 14 9 15 13 16 11 17 10 18 12 20 4 22 21 24 18 26
REMARK H PARENT 10 19 12 21 4 23 21 25 18 27
REMARK Flexibility Score: inf
ROOT
ATOM      1  C   UNL     1      83.082  63.616   9.007  1.00  0.00     0.180 A 
ATOM      2  C   UNL     1      83.307  64.960   9.351  1.00  0.00     0.208 A 
ATOM      3  C   UNL     1      84.409  65.280  10.160  1.00  0.00     0.238 A 
ATOM      4  O   UNL     1      84.573  66.479  10.510  1.00  0.00    -0.285 OA
ATOM      5  C   UNL     1      85.281  64.257  10.599  1.00  0.00     0.111 A 
ATOM      6  C   UNL     1      86.452  64.472  11.388  1.00  0.00     0.134 A 
ATOM      7  C   UNL     1      87.169  63.373  11.875  1.00  0.00     0.093 A 
ATOM      8  C   UNL     1      86.795  62.067  11.547  1.00  0.00     0.123 A 
ATOM      9  C   UNL     1      85.690  61.849  10.729  1.00  0.00     0.094 A 
ATOM     10  C   UNL     1      84.933  62.924  10.257  1.00  0.00     0.146 A 
ATOM     11  O   UNL     1      83.881  62.671   9.489  1.00  0.00    -0.452 OA
ENDROOT
BRANCH   1  12
ATOM     12  C   UNL     1      81.955  63.202   8.139  1.00  0.00     0.025 A 
ATOM     13  C   UNL     1      80.739  63.907   8.134  1.00  0.00     0.016 A 
ATOM     14  C   UNL     1      79.699  63.514   7.288  1.00  0.00     0.051 A 
ATOM     15  C   UNL     1      79.860  62.420   6.428  1.00  0.00     0.157 A 
ATOM     16  C   UNL     1      82.120  62.120   7.260  1.00  0.00     0.062 A 
ATOM     17  C   UNL     1      81.080  61.721   6.413  1.00  0.00     0.158 A 
BRANCH  15  18
ATOM     18  O   UNL     1      78.819  62.028   5.588  1.00  0.00    -0.504 OA
ATOM     19  H   UNL     1      78.270  61.198   5.775  1.00  0.00     0.293 HD
ENDBRANCH  15  18
BRANCH  17  20
ATOM     20  O   UNL     1      81.276  60.634   5.563  1.00  0.00    -0.504 OA
ATOM     21  H   UNL     1      81.452  59.701   5.916  1.00  0.00     0.293 HD
ENDBRANCH  17  20
ENDBRANCH   1  12
BRANCH   2  22
ATOM     22  O   UNL     1      82.420  65.953   8.924  1.00  0.00    -0.502 OA
ATOM     23  H   UNL     1      81.416  65.858   9.009  1.00  0.00     0.293 HD
ENDBRANCH   2  22
BRANCH   6  24
ATOM     24  O   UNL     1      86.964  65.737  11.696  1.00  0.00    -0.507 OA
ATOM     25  H   UNL     1      87.700  65.911  12.364  1.00  0.00     0.293 HD
ENDBRANCH   6  24
BRANCH   8  26
ATOM     26  O   UNL     1      87.524  60.978  12.023  1.00  0.00    -0.508 OA
ATOM     27  H   UNL     1      88.014  60.354  11.394  1.00  0.00     0.293 HD
ENDBRANCH   8  26
TORSDOF 6
ENDMDL
MODEL 2
REMARK VINA RESULT:    -8.108      1.504      1.613
REMARK INTER + INTRA:          -9.503
REMARK INTER:                  -9.226
REMARK INTRA:                  -0.277
REMARK UNBOUND:                 0.263
REMARK SMILES O=c1c(O)c(-c2ccc(O)c(O)c2)oc2cc(O)cc(O)c12
REMARK SMILES IDX 5 1 3 2 2 3 1 4 22 5 20 6 19 7 17 8 16 9 15 10 14 11 6 12
REMARK SMILES IDX 7 13 8 14 9 15 13 16 11 17 10 18 12 20 4 22 21 24 18 26
REMARK H PARENT 10 19 12 21 4 23 21 25 18 27
REMARK Flexibility Score: inf
ROOT
ATOM      1  C   UNL     1      83.553  64.225   8.994  1.00  0.00     0.180 A 
ATOM      2  C   UNL     1      83.891  65.412   9.665  1.00  0.00     0.208 A 
ATOM      3  C   UNL     1      84.930  65.389  10.608  1.00  0.00     0.238 A 
ATOM      4  O   UNL     1      85.192  66.443  11.245  1.00  0.00    -0.285 OA
ATOM      5  C   UNL     1      85.629  64.184  10.856  1.00  0.00     0.111 A 
ATOM      6  C   UNL     1      86.727  64.055  11.760  1.00  0.00     0.134 A 
ATOM      7  C   UNL     1      87.258  62.786  12.024  1.00  0.00     0.093 A 
ATOM      8  C   UNL     1      86.776  61.652  11.366  1.00  0.00     0.123 A 
ATOM      9  C   UNL     1      85.746  61.777  10.438  1.00  0.00     0.094 A 
ATOM     10  C   UNL     1      85.171  63.024  10.180  1.00  0.00     0.146 A 
ATOM     11  O   UNL     1      84.184  63.096   9.296  1.00  0.00    -0.452 OA
ENDROOT
BRANCH   1  12
ATOM     12  C   UNL     1      82.485  64.175   7.968  1.00  0.00     0.025 A 
ATOM     13  C   UNL     1      81.208  63.667   8.267  1.00  0.00     0.016 A 
ATOM     14  C   UNL     1      80.208  63.652   7.291  1.00  0.00     0.051 A 
ATOM     15  C   UNL     1      80.463  64.155   6.009  1.00  0.00     0.157 A 
ATOM     16  C   UNL     1      82.729  64.698   6.688  1.00  0.00     0.062 A 
ATOM     17  C   UNL     1      81.730  64.683   5.708  1.00  0.00     0.158 A 
BRANCH  15  18
ATOM     18  O   UNL     1      79.464  64.137   5.037  1.00  0.00    -0.504 OA
ATOM     19  H   UNL     1      78.652  64.740   5.098  1.00  0.00     0.293 HD
ENDBRANCH  15  18
BRANCH  17  20
ATOM     20  O   UNL     1      82.014  65.198   4.444  1.00  0.00    -0.504 OA
ATOM     21  H   UNL     1      82.341  66.147   4.310  1.00  0.00     0.293 HD
ENDBRANCH  17  20
ENDBRANCH   1  12
BRANCH   2  22
ATOM     22  O   UNL     1      83.173  66.587   9.421  1.00  0.00    -0.502 OA
ATOM     23  H   UNL     1      83.379  67.458   9.892  1.00  0.00     0.293 HD
ENDBRANCH   2  22
BRANCH   6  24
ATOM     24  O   UNL     1      87.343  65.135  12.399  1.00  0.00    -0.507 OA
ATOM     25  H   UNL     1      87.187  66.105  12.168  1.00  0.00     0.293 HD
ENDBRANCH   6  24
BRANCH   8  26
ATOM     26  O   UNL     1      87.322  60.396  11.623  1.00  0.00    -0.508 OA
ATOM     27  H   UNL     1      88.235  60.134  11.272  1.00  0.00     0.293 HD
ENDBRANCH   8  26
TORSDOF 6
ENDMDL
MODEL 3
REMARK VINA RESULT:    -7.877      6.874     10.387
REMARK INTER + INTRA:          -9.226
REMARK INTER:                  -9.146
REMARK INTRA:                  -0.079
REMARK UNBOUND:                 0.263
REMARK SMILES O=c1c(O)c(-c2ccc(O)c(O)c2)oc2cc(O)cc(O)c12
REMARK SMILES IDX 5 1 3 2 2 3 1 4 22 5 20 6 19 7 17 8 16 9 15 10 14 11 6 12
REMARK SMILES IDX 7 13 8 14 9 15 13 16 11 17 10 18 12 20 4 22 21 24 18 26
REMARK H PARENT 10 19 12 21 4 23 21 25 18 27
REMARK Flexibility Score: inf
ROOT
ATOM      1  C   UNL     1      75.842  62.188   1.969  1.00  0.00     0.180 A 
ATOM      2  C   UNL     1      76.332  63.223   1.154  1.00  0.00     0.208 A 
ATOM      3  C   UNL     1      77.643  63.685   1.355  1.00  0.00     0.238 A 
ATOM      4  O   UNL     1      78.056  64.649   0.659  1.00  0.00    -0.285 OA
ATOM      5  C   UNL     1      78.451  63.095   2.355  1.00  0.00     0.111 A 
ATOM      6  C   UNL     1      79.807  63.457   2.618  1.00  0.00     0.134 A 
ATOM      7  C   UNL     1      80.470  62.898   3.718  1.00  0.00     0.093 A 
ATOM      8  C   UNL     1      79.848  61.943   4.525  1.00  0.00     0.123 A 
ATOM      9  C   UNL     1      78.546  61.540   4.240  1.00  0.00     0.094 A 
ATOM     10  C   UNL     1      77.846  62.105   3.171  1.00  0.00     0.146 A 
ATOM     11  O   UNL     1      76.603  61.700   2.942  1.00  0.00    -0.452 OA
ENDROOT
BRANCH   1  12
ATOM     12  C   UNL     1      74.479  61.631   1.802  1.00  0.00     0.025 A 
ATOM     13  C   UNL     1      73.539  61.676   2.847  1.00  0.00     0.016 A 
ATOM     14  C   UNL     1      72.252  61.167   2.660  1.00  0.00     0.051 A 
ATOM     15  C   UNL     1      71.880  60.618   1.425  1.00  0.00     0.157 A 
ATOM     16  C   UNL     1      74.096  61.099   0.561  1.00  0.00     0.062 A 
ATOM     17  C   UNL     1      72.808  60.587   0.370  1.00  0.00     0.158 A 
BRANCH  15  18
ATOM     18  O   UNL     1      70.595  60.108   1.243  1.00  0.00    -0.504 OA
ATOM     19  H   UNL     1      70.070  60.284   0.394  1.00  0.00     0.293 HD
ENDBRANCH  15  18
BRANCH  17  20
ATOM     20  O   UNL     1      72.467  60.054  -0.872  1.00  0.00    -0.504 OA
ATOM     21  H   UNL     1      72.350  59.059  -1.018  1.00  0.00     0.293 HD
ENDBRANCH  17  20
ENDBRANCH   1  12
BRANCH   2  22
ATOM     22  O   UNL     1      75.508  63.806   0.187  1.00  0.00    -0.502 OA
ATOM     23  H   UNL     1      74.655  64.296   0.423  1.00  0.00     0.293 HD
ENDBRANCH   2  22
BRANCH   6  24
ATOM     24  O   UNL     1      80.551  64.332   1.820  1.00  0.00    -0.507 OA
ATOM     25  H   UNL     1      80.351  65.314   1.704  1.00  0.00     0.293 HD
ENDBRANCH   6  24
BRANCH   8  26
ATOM     26  O   UNL     1      80.521  61.380   5.608  1.00  0.00    -0.508 OA
ATOM     27  H   UNL     1      81.532  61.384   5.663  1.00  0.00     0.293 HD
ENDBRANCH   8  26
TORSDOF 6
ENDMDL
MODEL 4
REMARK VINA RESULT:    -7.757      9.499     11.886
REMARK INTER + INTRA:          -9.080
REMARK INTER:                  -8.771
REMARK INTRA:                  -0.309
REMARK UNBOUND:                 0.263
REMARK SMILES O=c1c(O)c(-c2ccc(O)c(O)c2)oc2cc(O)cc(O)c12
REMARK SMILES IDX 5 1 3 2 2 3 1 4 22 5 20 6 19 7 17 8 16 9 15 10 14 11 6 12
REMARK SMILES IDX 7 13 8 14 9 15 13 16 11 17 10 18 12 20 4 22 21 24 18 26
REMARK H PARENT 10 19 12 21 4 23 21 25 18 27
REMARK Flexibility Score: inf
ROOT
ATOM      1  C   UNL     1      75.500  62.290   1.368  1.00  0.00     0.180 A 
ATOM      2  C   UNL     1      76.632  61.700   1.953  1.00  0.00     0.208 A 
ATOM      3  C   UNL     1      77.864  62.369   1.879  1.00  0.00     0.238 A 
ATOM      4  O   UNL     1      78.886  61.809   2.357  1.00  0.00    -0.285 OA
ATOM      5  C   UNL     1      77.944  63.628   1.238  1.00  0.00     0.111 A 
ATOM      6  C   UNL     1      79.132  64.414   1.141  1.00  0.00     0.134 A 
ATOM      7  C   UNL     1      79.125  65.584   0.370  1.00  0.00     0.093 A 
ATOM      8  C   UNL     1      77.956  66.029  -0.253  1.00  0.00     0.123 A 
ATOM      9  C   UNL     1      76.778  65.300  -0.114  1.00  0.00     0.094 A 
ATOM     10  C   UNL     1      76.762  64.111   0.619  1.00  0.00     0.146 A 
ATOM     11  O   UNL     1      75.620  63.442   0.716  1.00  0.00    -0.452 OA
ENDROOT
BRANCH   1  12
ATOM     12  C   UNL     1      74.162  61.657   1.425  1.00  0.00     0.025 A 
ATOM     13  C   UNL     1      73.361  61.742   2.578  1.00  0.00     0.016 A 
ATOM     14  C   UNL     1      72.092  61.158   2.600  1.00  0.00     0.051 A 
ATOM     15  C   UNL     1      71.598  60.493   1.470  1.00  0.00     0.157 A 
ATOM     16  C   UNL     1      73.654  61.007   0.288  1.00  0.00     0.062 A 
ATOM     17  C   UNL     1      72.384  60.420   0.307  1.00  0.00     0.158 A 
BRANCH  15  18
ATOM     18  O   UNL     1      70.333  59.909   1.497  1.00  0.00    -0.504 OA
ATOM     19  H   UNL     1      70.176  59.000   1.916  1.00  0.00     0.293 HD
ENDBRANCH  15  18
BRANCH  17  20
ATOM     20  O   UNL     1      71.920  59.772  -0.836  1.00  0.00    -0.504 OA
ATOM     21  H   UNL     1      72.300  58.885  -1.144  1.00  0.00     0.293 HD
ENDBRANCH  17  20
ENDBRANCH   1  12
BRANCH   2  22
ATOM     22  O   UNL     1      76.536  60.445   2.562  1.00  0.00    -0.502 OA
ATOM     23  H   UNL     1      76.421  60.333   3.562  1.00  0.00     0.293 HD
ENDBRANCH   2  22
BRANCH   6  24
ATOM     24  O   UNL     1      80.327  64.108   1.799  1.00  0.00    -0.507 OA
ATOM     25  H   UNL     1      80.924  64.785   2.252  1.00  0.00     0.293 HD
ENDBRANCH   6  24
BRANCH   8  26
ATOM     26  O   UNL     1      77.955  67.203  -1.004  1.00  0.00    -0.508 OA
ATOM     27  H   UNL     1      78.784  67.521  -1.491  1.00  0.00     0.293 HD
ENDBRANCH   8  26
TORSDOF 6
ENDMDL
MODEL 5
REMARK VINA RESULT:    -7.742      5.912     12.051
REMARK INTER + INTRA:          -9.062
REMARK INTER:                  -9.445
REMARK INTRA:                   0.383
REMARK UNBOUND:                 0.263
REMARK SMILES O=c1c(O)c(-c2ccc(O)c(O)c2)oc2cc(O)cc(O)c12
REMARK SMILES IDX 5 1 3 2 2 3 1 4 22 5 20 6 19 7 17 8 16 9 15 10 14 11 6 12
REMARK SMILES IDX 7 13 8 14 9 15 13 16 11 17 10 18 12 20 4 22 21 24 18 26
REMARK H PARENT 10 19 12 21 4 23 21 25 18 27
REMARK Flexibility Score: inf
ROOT
ATOM      1  C   UNL     1      76.904  61.366   2.947  1.00  0.00     0.180 A 
ATOM      2  C   UNL     1      77.209  61.059   1.610  1.00  0.00     0.208 A 
ATOM      3  C   UNL     1      76.159  60.895   0.693  1.00  0.00     0.238 A 
ATOM      4  O   UNL     1      76.436  60.567  -0.491  1.00  0.00    -0.285 OA
ATOM      5  C   UNL     1      74.819  61.057   1.120  1.00  0.00     0.111 A 
ATOM      6  C   UNL     1      73.679  60.954   0.266  1.00  0.00     0.134 A 
ATOM      7  C   UNL     1      72.394  61.004   0.822  1.00  0.00     0.093 A 
ATOM      8  C   UNL     1      72.209  61.217   2.190  1.00  0.00     0.123 A 
ATOM      9  C   UNL     1      73.314  61.378   3.021  1.00  0.00     0.094 A 
ATOM     10  C   UNL     1      74.609  61.298   2.502  1.00  0.00     0.146 A 
ATOM     11  O   UNL     1      75.635  61.446   3.331  1.00  0.00    -0.452 OA
ENDROOT
BRANCH   1  12
ATOM     12  C   UNL     1      77.956  61.577   3.968  1.00  0.00     0.025 A 
ATOM     13  C   UNL     1      79.263  61.091   3.782  1.00  0.00     0.016 A 
ATOM     14  C   UNL     1      80.246  61.323   4.747  1.00  0.00     0.051 A 
ATOM     15  C   UNL     1      79.945  62.053   5.904  1.00  0.00     0.157 A 
ATOM     16  C   UNL     1      77.664  62.326   5.119  1.00  0.00     0.062 A 
ATOM     17  C   UNL     1      78.646  62.559   6.088  1.00  0.00     0.158 A 
BRANCH  15  18
ATOM     18  O   UNL     1      80.928  62.281   6.866  1.00  0.00    -0.504 OA
ATOM     19  H   UNL     1      81.371  61.517   7.362  1.00  0.00     0.293 HD
ENDBRANCH  15  18
BRANCH  17  20
ATOM     20  O   UNL     1      78.316  63.296   7.225  1.00  0.00    -0.504 OA
ATOM     21  H   UNL     1      78.768  64.174   7.447  1.00  0.00     0.293 HD
ENDBRANCH  17  20
ENDBRANCH   1  12
BRANCH   2  22
ATOM     22  O   UNL     1      78.538  60.882   1.215  1.00  0.00    -0.502 OA
ATOM     23  H   UNL     1      79.208  61.641   1.206  1.00  0.00     0.293 HD
ENDBRANCH   2  22
BRANCH   6  24
ATOM     24  O   UNL     1      73.753  60.832  -1.125  1.00  0.00    -0.507 OA
ATOM     25  H   UNL     1      73.027  61.117  -1.766  1.00  0.00     0.293 HD
ENDBRANCH   6  24
BRANCH   8  26
ATOM     26  O   UNL     1      70.926  61.280   2.732  1.00  0.00    -0.508 OA
ATOM     27  H   UNL     1      70.145  61.645   2.200  1.00  0.00     0.293 HD
ENDBRANCH   8  26
TORSDOF 6
ENDMDL
MODEL 6
REMARK VINA RESULT:    -7.592      5.810     11.873
REMARK INTER + INTRA:          -8.882
REMARK INTER:                  -8.680
REMARK INTRA:                  -0.202
REMARK UNBOUND:                 0.263
REMARK SMILES O=c1c(O)c(-c2ccc(O)c(O)c2)oc2cc(O)cc(O)c12
REMARK SMILES IDX 5 1 3 2 2 3 1 4 22 5 20 6 19 7 17 8 16 9 15 10 14 11 6 12
REMARK SMILES IDX 7 13 8 14 9 15 13 16 11 17 10 18 12 20 4 22 21 24 18 26
REMARK H PARENT 10 19 12 21 4 23 21 25 18 27
REMARK Flexibility Score: inf
ROOT
ATOM      1  C   UNL     1      77.208  61.930   2.850  1.00  0.00     0.180 A 
ATOM      2  C   UNL     1      77.564  61.245   1.676  1.00  0.00     0.208 A 
ATOM      3  C   UNL     1      76.557  60.879   0.769  1.00  0.00     0.238 A 
ATOM      4  O   UNL     1      76.876  60.218  -0.254  1.00  0.00    -0.285 OA
ATOM      5  C   UNL     1      75.209  61.217   1.039  1.00  0.00     0.111 A 
ATOM      6  C   UNL     1      74.113  60.932   0.170  1.00  0.00     0.134 A 
ATOM      7  C   UNL     1      72.806  61.196   0.599  1.00  0.00     0.093 A 
ATOM      8  C   UNL     1      72.561  61.794   1.837  1.00  0.00     0.123 A 
ATOM      9  C   UNL     1      73.628  62.131   2.666  1.00  0.00     0.094 A 
ATOM     10  C   UNL     1      74.941  61.847   2.282  1.00  0.00     0.146 A 
ATOM     11  O   UNL     1      75.928  62.175   3.107  1.00  0.00    -0.452 OA
ENDROOT
BRANCH   1  12
ATOM     12  C   UNL     1      78.215  62.370   3.843  1.00  0.00     0.025 A 
ATOM     13  C   UNL     1      78.312  61.760   5.107  1.00  0.00     0.016 A 
ATOM     14  C   UNL     1      79.286  62.174   6.018  1.00  0.00     0.051 A 
ATOM     15  C   UNL     1      80.185  63.194   5.679  1.00  0.00     0.157 A 
ATOM     16  C   UNL     1      79.131  63.377   3.500  1.00  0.00     0.062 A 
ATOM     17  C   UNL     1      80.107  63.796   4.411  1.00  0.00     0.158 A 
BRANCH  15  18
ATOM     18  O   UNL     1      81.154  63.608   6.592  1.00  0.00    -0.504 OA
ATOM     19  H   UNL     1      81.901  64.236   6.324  1.00  0.00     0.293 HD
ENDBRANCH  15  18
BRANCH  17  20
ATOM     20  O   UNL     1      80.991  64.808   4.040  1.00  0.00    -0.504 OA
ATOM     21  H   UNL     1      80.773  65.471   3.306  1.00  0.00     0.293 HD
ENDBRANCH  17  20
ENDBRANCH   1  12
BRANCH   2  22
ATOM     22  O   UNL     1      78.898  60.901   1.440  1.00  0.00    -0.502 OA
ATOM     23  H   UNL     1      79.598  60.904   2.171  1.00  0.00     0.293 HD
ENDBRANCH   2  22
BRANCH   6  24
ATOM     24  O   UNL     1      74.254  60.419  -1.123  1.00  0.00    -0.507 OA
ATOM     25  H   UNL     1      74.545  60.958  -1.926  1.00  0.00     0.293 HD
ENDBRANCH   6  24
BRANCH   8  26
ATOM     26  O   UNL     1      71.257  62.068   2.249  1.00  0.00    -0.508 OA
ATOM     27  H   UNL     1      70.964  63.009   2.485  1.00  0.00     0.293 HD
ENDBRANCH   8  26
TORSDOF 6
ENDMDL
MODEL 7
REMARK VINA RESULT:    -7.504      1.748      6.809
REMARK INTER + INTRA:          -8.776
REMARK INTER:                  -8.923
REMARK INTRA:                   0.146
REMARK UNBOUND:                 0.263
REMARK SMILES O=c1c(O)c(-c2ccc(O)c(O)c2)oc2cc(O)cc(O)c12
REMARK SMILES IDX 5 1 3 2 2 3 1 4 22 5 20 6 19 7 17 8 16 9 15 10 14 11 6 12
REMARK SMILES IDX 7 13 8 14 9 15 13 16 11 17 10 18 12 20 4 22 21 24 18 26
REMARK H PARENT 10 19 12 21 4 23 21 25 18 27
REMARK Flexibility Score: inf
ROOT
ATOM      1  C   UNL     1      84.128  63.595   8.648  1.00  0.00     0.180 A 
ATOM      2  C   UNL     1      84.393  64.737   7.873  1.00  0.00     0.208 A 
ATOM      3  C   UNL     1      83.469  65.121   6.888  1.00  0.00     0.238 A 
ATOM      4  O   UNL     1      83.739  66.113   6.161  1.00  0.00    -0.285 OA
ATOM      5  C   UNL     1      82.285  64.369   6.702  1.00  0.00     0.111 A 
ATOM      6  C   UNL     1      81.260  64.690   5.761  1.00  0.00     0.134 A 
ATOM      7  C   UNL     1      80.194  63.803   5.572  1.00  0.00     0.093 A 
ATOM      8  C   UNL     1      80.082  62.638   6.335  1.00  0.00     0.123 A 
ATOM      9  C   UNL     1      81.045  62.346   7.297  1.00  0.00     0.094 A 
ATOM     10  C   UNL     1      82.140  63.194   7.485  1.00  0.00     0.146 A 
ATOM     11  O   UNL     1      83.040  62.873   8.405  1.00  0.00    -0.452 OA
ENDROOT
BRANCH   1  12
ATOM     12  C   UNL     1      85.043  63.140   9.721  1.00  0.00     0.025 A 
ATOM     13  C   UNL     1      85.369  61.781   9.876  1.00  0.00     0.016 A 
ATOM     14  C   UNL     1      86.253  61.378  10.880  1.00  0.00     0.051 A 
ATOM     15  C   UNL     1      86.833  62.324  11.735  1.00  0.00     0.157 A 
ATOM     16  C   UNL     1      85.643  64.087  10.567  1.00  0.00     0.062 A 
ATOM     17  C   UNL     1      86.527  63.687  11.574  1.00  0.00     0.158 A 
BRANCH  15  18
ATOM     18  O   UNL     1      87.713  61.918  12.738  1.00  0.00    -0.504 OA
ATOM     19  H   UNL     1      88.716  62.022  12.638  1.00  0.00     0.293 HD
ENDBRANCH  15  18
BRANCH  17  20
ATOM     20  O   UNL     1      87.093  64.654  12.404  1.00  0.00    -0.504 OA
ATOM     21  H   UNL     1      87.963  64.498  12.897  1.00  0.00     0.293 HD
ENDBRANCH  17  20
ENDBRANCH   1  12
BRANCH   2  22
ATOM     22  O   UNL     1      85.580  65.453   8.059  1.00  0.00    -0.502 OA
ATOM     23  H   UNL     1      85.603  66.463   8.106  1.00  0.00     0.293 HD
ENDBRANCH   2  22
BRANCH   6  24
ATOM     24  O   UNL     1      81.229  65.872   5.014  1.00  0.00    -0.507 OA
ATOM     25  H   UNL     1      80.657  66.674   5.233  1.00  0.00     0.293 HD
ENDBRANCH   6  24
BRANCH   8  26
ATOM     26  O   UNL     1      79.008  61.768   6.151  1.00  0.00    -0.508 OA
ATOM     27  H   UNL     1      78.313  61.930   5.433  1.00  0.00     0.293 HD
ENDBRANCH   8  26
TORSDOF 6
ENDMDL
MODEL 8
REMARK VINA RESULT:    -7.479      2.712      7.064
REMARK INTER + INTRA:          -8.746
REMARK INTER:                  -8.423
REMARK INTRA:                  -0.322
REMARK UNBOUND:                 0.263
REMARK SMILES O=c1c(O)c(-c2ccc(O)c(O)c2)oc2cc(O)cc(O)c12
REMARK SMILES IDX 5 1 3 2 2 3 1 4 22 5 20 6 19 7 17 8 16 9 15 10 14 11 6 12
REMARK SMILES IDX 7 13 8 14 9 15 13 16 11 17 10 18 12 20 4 22 21 24 18 26
REMARK H PARENT 10 19 12 21 4 23 21 25 18 27
REMARK Flexibility Score: inf
ROOT
ATOM      1  C   UNL     1      84.099  64.660   8.616  1.00  0.00     0.180 A 
ATOM      2  C   UNL     1      82.781  64.243   8.866  1.00  0.00     0.208 A 
ATOM      3  C   UNL     1      81.836  64.315   7.830  1.00  0.00     0.238 A 
ATOM      4  O   UNL     1      80.644  63.992   8.076  1.00  0.00    -0.285 OA
ATOM      5  C   UNL     1      82.225  64.787   6.554  1.00  0.00     0.111 A 
ATOM      6  C   UNL     1      81.360  64.864   5.421  1.00  0.00     0.134 A 
ATOM      7  C   UNL     1      81.817  65.469   4.243  1.00  0.00     0.093 A 
ATOM      8  C   UNL     1      83.128  65.941   4.137  1.00  0.00     0.123 A 
ATOM      9  C   UNL     1      83.996  65.815   5.218  1.00  0.00     0.094 A 
ATOM     10  C   UNL     1      83.559  65.249   6.418  1.00  0.00     0.146 A 
ATOM     11  O   UNL     1      84.417  65.159   7.427  1.00  0.00    -0.452 OA
ENDROOT
BRANCH   1  12
ATOM     12  C   UNL     1      85.158  64.592   9.650  1.00  0.00     0.025 A 
ATOM     13  C   UNL     1      85.410  65.675  10.511  1.00  0.00     0.016 A 
ATOM     14  C   UNL     1      86.396  65.579  11.495  1.00  0.00     0.051 A 
ATOM     15  C   UNL     1      87.137  64.399  11.643  1.00  0.00     0.157 A 
ATOM     16  C   UNL     1      85.888  63.404   9.816  1.00  0.00     0.062 A 
ATOM     17  C   UNL     1      86.878  63.305  10.799  1.00  0.00     0.158 A 
BRANCH  15  18
ATOM     18  O   UNL     1      88.123  64.308  12.625  1.00  0.00    -0.504 OA
ATOM     19  H   UNL     1      88.707  63.486  12.715  1.00  0.00     0.293 HD
ENDBRANCH  15  18
BRANCH  17  20
ATOM     20  O   UNL     1      87.593  62.115  10.925  1.00  0.00    -0.504 OA
ATOM     21  H   UNL     1      87.356  61.415  11.618  1.00  0.00     0.293 HD
ENDBRANCH  17  20
ENDBRANCH   1  12
BRANCH   2  22
ATOM     22  O   UNL     1      82.413  63.801  10.140  1.00  0.00    -0.502 OA
ATOM     23  H   UNL     1      82.268  64.436  10.915  1.00  0.00     0.293 HD
ENDBRANCH   2  22
BRANCH   6  24
ATOM     24  O   UNL     1      80.063  64.341   5.391  1.00  0.00    -0.507 OA
ATOM     25  H   UNL     1      79.831  63.372   5.554  1.00  0.00     0.293 HD
ENDBRANCH   6  24
BRANCH   8  26
ATOM     26  O   UNL     1      83.579  66.527   2.956  1.00  0.00    -0.508 OA
ATOM     27  H   UNL     1      83.767  65.973   2.129  1.00  0.00     0.293 HD
ENDBRANCH   8  26
TORSDOF 6
ENDMDL
MODEL 9
REMARK VINA RESULT:    -7.386      1.698      2.342
REMARK INTER + INTRA:          -8.634
REMARK INTER:                  -8.378
REMARK INTRA:                  -0.256
REMARK UNBOUND:                 0.263
REMARK SMILES O=c1c(O)c(-c2ccc(O)c(O)c2)oc2cc(O)cc(O)c12
REMARK SMILES IDX 5 1 3 2 2 3 1 4 22 5 20 6 19 7 17 8 16 9 15 10 14 11 6 12
REMARK SMILES IDX 7 13 8 14 9 15 13 16 11 17 10 18 12 20 4 22 21 24 18 26
REMARK H PARENT 10 19 12 21 4 23 21 25 18 27
REMARK Flexibility Score: inf
ROOT
ATOM      1  C   UNL     1      81.747  63.509   7.182  1.00  0.00     0.180 A 
ATOM      2  C   UNL     1      82.112  64.865   7.128  1.00  0.00     0.208 A 
ATOM      3  C   UNL     1      83.261  65.288   7.816  1.00  0.00     0.238 A 
ATOM      4  O   UNL     1      83.552  66.513   7.809  1.00  0.00    -0.285 OA
ATOM      5  C   UNL     1      84.039  64.349   8.533  1.00  0.00     0.111 A 
ATOM      6  C   UNL     1      85.244  64.660   9.232  1.00  0.00     0.134 A 
ATOM      7  C   UNL     1      85.861  63.677  10.016  1.00  0.00     0.093 A 
ATOM      8  C   UNL     1      85.352  62.377  10.074  1.00  0.00     0.123 A 
ATOM      9  C   UNL     1      84.210  62.049   9.348  1.00  0.00     0.094 A 
ATOM     10  C   UNL     1      83.552  63.017   8.585  1.00  0.00     0.146 A 
ATOM     11  O   UNL     1      82.461  62.664   7.917  1.00  0.00    -0.452 OA
ENDROOT
BRANCH   1  12
ATOM     12  C   UNL     1      80.563  62.982   6.464  1.00  0.00     0.025 A 
ATOM     13  C   UNL     1      79.258  63.234   6.923  1.00  0.00     0.016 A 
ATOM     14  C   UNL     1      78.156  62.748   6.216  1.00  0.00     0.051 A 
ATOM     15  C   UNL     1      78.338  62.015   5.036  1.00  0.00     0.157 A 
ATOM     16  C   UNL     1      80.741  62.265   5.270  1.00  0.00     0.062 A 
ATOM     17  C   UNL     1      79.639  61.775   4.560  1.00  0.00     0.158 A 
BRANCH  15  18
ATOM     18  O   UNL     1      77.235  61.529   4.334  1.00  0.00    -0.504 OA
ATOM     19  H   UNL     1      76.441  62.120   4.120  1.00  0.00     0.293 HD
ENDBRANCH  15  18
BRANCH  17  20
ATOM     20  O   UNL     1      79.854  61.056   3.386  1.00  0.00    -0.504 OA
ATOM     21  H   UNL     1      79.108  60.862   2.729  1.00  0.00     0.293 HD
ENDBRANCH  17  20
ENDBRANCH   1  12
BRANCH   2  22
ATOM     22  O   UNL     1      81.318  65.780   6.432  1.00  0.00    -0.502 OA
ATOM     23  H   UNL     1      81.649  66.700   6.170  1.00  0.00     0.293 HD
ENDBRANCH   2  22
BRANCH   6  24
ATOM     24  O   UNL     1      85.886  65.900   9.168  1.00  0.00    -0.507 OA
ATOM     25  H   UNL     1      85.499  66.726   8.735  1.00  0.00     0.293 HD
ENDBRANCH   6  24
BRANCH   8  26
ATOM     26  O   UNL     1      85.981  61.401  10.845  1.00  0.00    -0.508 OA
ATOM     27  H   UNL     1      85.522  60.978  11.642  1.00  0.00     0.293 HD
ENDBRANCH   8  26
TORSDOF 6
ENDMDL
