MODEL 1
REMARK VINA RESULT:    -7.080      0.000      0.000
REMARK INTER + INTRA:          -8.599
REMARK INTER:                  -8.322
REMARK INTRA:                  -0.277
REMARK UNBOUND:                -0.277
REMARK SMILES O=c1cc(-c2ccc(O)c(O)c2)oc2cc(O)cc(O)c12
REMARK SMILES IDX 4 1 3 2 2 3 1 4 21 5 19 6 18 7 16 8 15 9 14 10 13 11 5 12
REMARK SMILES IDX 6 13 7 14 8 15 12 16 10 17 9 18 11 20 20 22 17 24
REMARK H PARENT 9 19 11 21 20 23 17 25
REMARK Flexibility Score: inf
ROOT
ATOM      1  C   UNL     1       7.419  26.833  58.464  1.00  0.00     0.138 A 
ATOM      2  C   UNL     1       6.975  26.253  59.661  1.00  0.00     0.100 A 
ATOM      3  C   UNL     1       7.866  25.515  60.442  1.00  0.00     0.197 A 
ATOM      4  O   UNL     1       7.456  25.060  61.541  1.00  0.00    -0.289 OA
ATOM      5  C   UNL     1       9.200  25.333  60.005  1.00  0.00     0.107 A 
ATOM      6  C   UNL     1      10.184  24.567  60.699  1.00  0.00     0.134 A 
ATOM      7  C   UNL     1      11.504  24.553  60.230  1.00  0.00     0.093 A 
ATOM      8  C   UNL     1      11.860  25.228  59.059  1.00  0.00     0.123 A 
ATOM      9  C   UNL     1      10.895  25.934  58.347  1.00  0.00     0.094 A 
ATOM     10  C   UNL     1       9.578  25.995  58.806  1.00  0.00     0.146 A 
ATOM     11  O   UNL     1       8.690  26.692  58.105  1.00  0.00    -0.456 OA
ENDROOT
BRANCH   1  12
ATOM     12  C   UNL     1       6.513  27.626  57.595  1.00  0.00     0.021 A 
ATOM     13  C   UNL     1       6.948  28.865  57.091  1.00  0.00     0.016 A 
ATOM     14  C   UNL     1       6.118  29.627  56.265  1.00  0.00     0.051 A 
ATOM     15  C   UNL     1       4.844  29.160  55.920  1.00  0.00     0.157 A 
ATOM     16  C   UNL     1       5.235  27.157  57.233  1.00  0.00     0.062 A 
ATOM     17  C   UNL     1       4.404  27.922  56.402  1.00  0.00     0.158 A 
BRANCH  15  18
ATOM     18  O   UNL     1       4.013  29.917  55.098  1.00  0.00    -0.504 OA
ATOM     19  H   UNL     1       3.974  29.762  54.096  1.00  0.00     0.293 HD
ENDBRANCH  15  18
BRANCH  17  20
ATOM     20  O   UNL     1       3.139  27.455  56.047  1.00  0.00    -0.504 OA
ATOM     21  H   UNL     1       3.010  26.794  55.289  1.00  0.00     0.293 HD
ENDBRANCH  17  20
ENDBRANCH   1  12
BRANCH   6  22
ATOM     22  O   UNL     1       9.915  23.788  61.828  1.00  0.00    -0.507 OA
ATOM     23  H   UNL     1       9.933  22.780  61.851  1.00  0.00     0.293 HD
ENDBRANCH   6  22
BRANCH   8  24
ATOM     24  O   UNL     1      13.173  25.196  58.593  1.00  0.00    -0.508 OA
ATOM     25  H   UNL     1      13.802  25.980  58.727  1.00  0.00     0.293 HD
ENDBRANCH   8  24
TORSDOF 5
ENDMDL
MODEL 2
REMARK VINA RESULT:    -6.730      1.689      6.796
REMARK INTER + INTRA:          -8.187
REMARK INTER:                  -7.917
REMARK INTRA:                  -0.270
REMARK UNBOUND:                -0.277
REMARK SMILES O=c1cc(-c2ccc(O)c(O)c2)oc2cc(O)cc(O)c12
REMARK SMILES IDX 4 1 3 2 2 3 1 4 21 5 19 6 18 7 16 8 15 9 14 10 13 11 5 12
REMARK SMILES IDX 6 13 7 14 8 15 12 16 10 17 9 18 11 20 20 22 17 24
REMARK H PARENT 9 19 11 21 20 23 17 25
REMARK Flexibility Score: inf
ROOT
ATOM      1  C   UNL     1       8.561  26.201  58.954  1.00  0.00     0.138 A 
ATOM      2  C   UNL     1       7.601  25.326  59.482  1.00  0.00     0.100 A 
ATOM      3  C   UNL     1       6.250  25.529  59.194  1.00  0.00     0.197 A 
ATOM      4  O   UNL     1       5.419  24.691  59.630  1.00  0.00    -0.289 OA
ATOM      5  C   UNL     1       5.859  26.631  58.398  1.00  0.00     0.107 A 
ATOM      6  C   UNL     1       4.509  26.960  58.073  1.00  0.00     0.134 A 
ATOM      7  C   UNL     1       4.249  28.008  57.181  1.00  0.00     0.093 A 
ATOM      8  C   UNL     1       5.288  28.777  56.651  1.00  0.00     0.123 A 
ATOM      9  C   UNL     1       6.606  28.498  57.005  1.00  0.00     0.094 A 
ATOM     10  C   UNL     1       6.900  27.438  57.864  1.00  0.00     0.146 A 
ATOM     11  O   UNL     1       8.171  27.196  58.165  1.00  0.00    -0.456 OA
ENDROOT
BRANCH   1  12
ATOM     12  C   UNL     1      10.011  26.032  59.229  1.00  0.00     0.021 A 
ATOM     13  C   UNL     1      10.512  26.339  60.507  1.00  0.00     0.016 A 
ATOM     14  C   UNL     1      11.870  26.181  60.794  1.00  0.00     0.051 A 
ATOM     15  C   UNL     1      12.748  25.706  59.813  1.00  0.00     0.157 A 
ATOM     16  C   UNL     1      10.899  25.542  58.252  1.00  0.00     0.062 A 
ATOM     17  C   UNL     1      12.261  25.383  58.542  1.00  0.00     0.158 A 
BRANCH  15  18
ATOM     18  O   UNL     1      14.104  25.549  60.095  1.00  0.00    -0.504 OA
ATOM     19  H   UNL     1      14.616  26.237  60.637  1.00  0.00     0.293 HD
ENDBRANCH  15  18
BRANCH  17  20
ATOM     20  O   UNL     1      13.138  24.900  57.571  1.00  0.00    -0.504 OA
ATOM     21  H   UNL     1      13.386  23.917  57.521  1.00  0.00     0.293 HD
ENDBRANCH  17  20
ENDBRANCH   1  12
BRANCH   6  22
ATOM     22  O   UNL     1       3.395  26.310  58.614  1.00  0.00    -0.507 OA
ATOM     23  H   UNL     1       3.365  25.336  58.874  1.00  0.00     0.293 HD
ENDBRANCH   6  22
BRANCH   8  24
ATOM     24  O   UNL     1       5.019  29.828  55.776  1.00  0.00    -0.508 OA
ATOM     25  H   UNL     1       4.147  29.879  55.262  1.00  0.00     0.293 HD
ENDBRANCH   8  24
TORSDOF 5
ENDMDL
MODEL 3
REMARK VINA RESULT:    -6.618      1.598      3.214
REMARK INTER + INTRA:          -8.055
REMARK INTER:                  -7.750
REMARK INTRA:                  -0.305
REMARK UNBOUND:                -0.277
REMARK SMILES O=c1cc(-c2ccc(O)c(O)c2)oc2cc(O)cc(O)c12
REMARK SMILES IDX 4 1 3 2 2 3 1 4 21 5 19 6 18 7 16 8 15 9 14 10 13 11 5 12
REMARK SMILES IDX 6 13 7 14 8 15 12 16 10 17 9 18 11 20 20 22 17 24
REMARK H PARENT 9 19 11 21 20 23 17 25
REMARK Flexibility Score: inf
ROOT
ATOM      1  C   UNL     1       6.881  26.618  58.485  1.00  0.00     0.138 A 
ATOM      2  C   UNL     1       8.280  26.536  58.476  1.00  0.00     0.100 A 
ATOM      3  C   UNL     1       8.926  25.652  59.343  1.00  0.00     0.197 A 
ATOM      4  O   UNL     1      10.178  25.556  59.268  1.00  0.00    -0.289 OA
ATOM      5  C   UNL     1       8.164  24.869  60.243  1.00  0.00     0.107 A 
ATOM      6  C   UNL     1       8.716  23.964  61.199  1.00  0.00     0.134 A 
ATOM      7  C   UNL     1       7.860  23.156  61.958  1.00  0.00     0.093 A 
ATOM      8  C   UNL     1       6.472  23.265  61.837  1.00  0.00     0.123 A 
ATOM      9  C   UNL     1       5.924  24.183  60.945  1.00  0.00     0.094 A 
ATOM     10  C   UNL     1       6.751  24.979  60.150  1.00  0.00     0.146 A 
ATOM     11  O   UNL     1       6.188  25.832  59.301  1.00  0.00    -0.456 OA
ENDROOT
BRANCH   1  12
ATOM     12  C   UNL     1       6.144  27.542  57.585  1.00  0.00     0.021 A 
ATOM     13  C   UNL     1       6.744  28.753  57.197  1.00  0.00     0.016 A 
ATOM     14  C   UNL     1       6.075  29.636  56.345  1.00  0.00     0.051 A 
ATOM     15  C   UNL     1       4.801  29.319  55.859  1.00  0.00     0.157 A 
ATOM     16  C   UNL     1       4.868  27.225  57.081  1.00  0.00     0.062 A 
ATOM     17  C   UNL     1       4.198  28.111  56.225  1.00  0.00     0.158 A 
BRANCH  15  18
ATOM     18  O   UNL     1       4.131  30.198  55.011  1.00  0.00    -0.504 OA
ATOM     19  H   UNL     1       4.472  30.397  54.076  1.00  0.00     0.293 HD
ENDBRANCH  15  18
BRANCH  17  20
ATOM     20  O   UNL     1       2.934  27.794  55.730  1.00  0.00    -0.504 OA
ATOM     21  H   UNL     1       2.290  28.514  55.420  1.00  0.00     0.293 HD
ENDBRANCH  17  20
ENDBRANCH   1  12
BRANCH   6  22
ATOM     22  O   UNL     1      10.084  23.840  61.458  1.00  0.00    -0.507 OA
ATOM     23  H   UNL     1      10.693  23.160  61.030  1.00  0.00     0.293 HD
ENDBRANCH   6  22
BRANCH   8  24
ATOM     24  O   UNL     1       5.628  22.467  62.607  1.00  0.00    -0.508 OA
ATOM     25  H   UNL     1       4.707  22.200  62.280  1.00  0.00     0.293 HD
ENDBRANCH   8  24
TORSDOF 5
ENDMDL
MODEL 4
REMARK VINA RESULT:    -6.258      0.831      1.536
REMARK INTER + INTRA:          -7.633
REMARK INTER:                  -7.319
REMARK INTRA:                  -0.314
REMARK UNBOUND:                -0.277
REMARK SMILES O=c1cc(-c2ccc(O)c(O)c2)oc2cc(O)cc(O)c12
REMARK SMILES IDX 4 1 3 2 2 3 1 4 21 5 19 6 18 7 16 8 15 9 14 10 13 11 5 12
REMARK SMILES IDX 6 13 7 14 8 15 12 16 10 17 9 18 11 20 20 22 17 24
REMARK H PARENT 9 19 11 21 20 23 17 25
REMARK Flexibility Score: inf
ROOT
ATOM      1  C   UNL     1       7.441  26.450  58.758  1.00  0.00     0.138 A 
ATOM      2  C   UNL     1       6.944  25.643  59.790  1.00  0.00     0.100 A 
ATOM      3  C   UNL     1       7.831  24.911  60.582  1.00  0.00     0.197 A 
ATOM      4  O   UNL     1       7.361  24.246  61.540  1.00  0.00    -0.289 OA
ATOM      5  C   UNL     1       9.220  24.966  60.315  1.00  0.00     0.107 A 
ATOM      6  C   UNL     1      10.213  24.231  61.030  1.00  0.00     0.134 A 
ATOM      7  C   UNL     1      11.568  24.454  60.753  1.00  0.00     0.093 A 
ATOM      8  C   UNL     1      11.962  25.340  59.747  1.00  0.00     0.123 A 
ATOM      9  C   UNL     1      10.998  26.021  59.008  1.00  0.00     0.094 A 
ATOM     10  C   UNL     1       9.640  25.846  59.282  1.00  0.00     0.146 A 
ATOM     11  O   UNL     1       8.753  26.526  58.564  1.00  0.00    -0.456 OA
ENDROOT
BRANCH   1  12
ATOM     12  C   UNL     1       6.542  27.248  57.885  1.00  0.00     0.021 A 
ATOM     13  C   UNL     1       5.170  26.944  57.844  1.00  0.00     0.016 A 
ATOM     14  C   UNL     1       4.302  27.685  57.038  1.00  0.00     0.051 A 
ATOM     15  C   UNL     1       4.789  28.747  56.267  1.00  0.00     0.157 A 
ATOM     16  C   UNL     1       7.021  28.327  57.117  1.00  0.00     0.062 A 
ATOM     17  C   UNL     1       6.149  29.071  56.309  1.00  0.00     0.158 A 
BRANCH  15  18
ATOM     18  O   UNL     1       3.926  29.487  55.461  1.00  0.00    -0.504 OA
ATOM     19  H   UNL     1       3.212  29.039  54.896  1.00  0.00     0.293 HD
ENDBRANCH  15  18
BRANCH  17  20
ATOM     20  O   UNL     1       6.628  30.137  55.548  1.00  0.00    -0.504 OA
ATOM     21  H   UNL     1       6.029  30.637  54.900  1.00  0.00     0.293 HD
ENDBRANCH  17  20
ENDBRANCH   1  12
BRANCH   6  22
ATOM     22  O   UNL     1       9.925  23.261  61.994  1.00  0.00    -0.507 OA
ATOM     23  H   UNL     1       9.212  23.346  62.703  1.00  0.00     0.293 HD
ENDBRANCH   6  22
BRANCH   8  24
ATOM     24  O   UNL     1      13.312  25.544  59.469  1.00  0.00    -0.508 OA
ATOM     25  H   UNL     1      13.838  26.289  59.912  1.00  0.00     0.293 HD
ENDBRANCH   8  24
TORSDOF 5
ENDMDL
MODEL 5
REMARK VINA RESULT:    -6.186      2.223      4.082
REMARK INTER + INTRA:          -7.548
REMARK INTER:                  -7.252
REMARK INTRA:                  -0.296
REMARK UNBOUND:                -0.277
REMARK SMILES O=c1cc(-c2ccc(O)c(O)c2)oc2cc(O)cc(O)c12
REMARK SMILES IDX 4 1 3 2 2 3 1 4 21 5 19 6 18 7 16 8 15 9 14 10 13 11 5 12
REMARK SMILES IDX 6 13 7 14 8 15 12 16 10 17 9 18 11 20 20 22 17 24
REMARK H PARENT 9 19 11 21 20 23 17 25
REMARK Flexibility Score: inf
ROOT
ATOM      1  C   UNL     1       6.435  26.317  58.818  1.00  0.00     0.138 A 
ATOM      2  C   UNL     1       7.799  26.106  59.060  1.00  0.00     0.100 A 
ATOM      3  C   UNL     1       8.194  25.149  59.997  1.00  0.00     0.197 A 
ATOM      4  O   UNL     1       9.425  24.937  60.146  1.00  0.00    -0.289 OA
ATOM      5  C   UNL     1       7.215  24.423  60.716  1.00  0.00     0.107 A 
ATOM      6  C   UNL     1       7.500  23.453  61.723  1.00  0.00     0.134 A 
ATOM      7  C   UNL     1       6.451  22.714  62.285  1.00  0.00     0.093 A 
ATOM      8  C   UNL     1       5.124  22.954  61.920  1.00  0.00     0.123 A 
ATOM      9  C   UNL     1       4.832  23.936  60.977  1.00  0.00     0.094 A 
ATOM     10  C   UNL     1       5.857  24.666  60.373  1.00  0.00     0.146 A 
ATOM     11  O   UNL     1       5.537  25.584  59.467  1.00  0.00    -0.456 OA
ENDROOT
BRANCH   1  12
ATOM     12  C   UNL     1       5.960  27.323  57.834  1.00  0.00     0.021 A 
ATOM     13  C   UNL     1       4.585  27.423  57.555  1.00  0.00     0.016 A 
ATOM     14  C   UNL     1       4.113  28.366  56.639  1.00  0.00     0.051 A 
ATOM     15  C   UNL     1       5.004  29.231  55.994  1.00  0.00     0.157 A 
ATOM     16  C   UNL     1       6.849  28.206  57.190  1.00  0.00     0.062 A 
ATOM     17  C   UNL     1       6.373  29.154  56.272  1.00  0.00     0.158 A 
BRANCH  15  18
ATOM     18  O   UNL     1       4.536  30.172  55.079  1.00  0.00    -0.504 OA
ATOM     19  H   UNL     1       3.779  30.806  55.310  1.00  0.00     0.293 HD
ENDBRANCH  15  18
BRANCH  17  20
ATOM     20  O   UNL     1       7.256  30.025  55.636  1.00  0.00    -0.504 OA
ATOM     21  H   UNL     1       7.538  30.901  56.062  1.00  0.00     0.293 HD
ENDBRANCH  17  20
ENDBRANCH   1  12
BRANCH   6  22
ATOM     22  O   UNL     1       8.781  23.196  62.221  1.00  0.00    -0.507 OA
ATOM     23  H   UNL     1       9.371  23.878  62.671  1.00  0.00     0.293 HD
ENDBRANCH   6  22
BRANCH   8  24
ATOM     24  O   UNL     1       4.086  22.224  62.496  1.00  0.00    -0.508 OA
ATOM     25  H   UNL     1       3.505  22.616  63.228  1.00  0.00     0.293 HD
ENDBRANCH   8  24
TORSDOF 5
ENDMDL
MODEL 6
REMARK VINA RESULT:    -5.948      1.821      2.709
REMARK INTER + INTRA:          -7.269
REMARK INTER:                  -6.951
REMARK INTRA:                  -0.318
REMARK UNBOUND:                -0.277
REMARK SMILES O=c1cc(-c2ccc(O)c(O)c2)oc2cc(O)cc(O)c12
REMARK SMILES IDX 4 1 3 2 2 3 1 4 21 5 19 6 18 7 16 8 15 9 14 10 13 11 5 12
REMARK SMILES IDX 6 13 7 14 8 15 12 16 10 17 9 18 11 20 20 22 17 24
REMARK H PARENT 9 19 11 21 20 23 17 25
REMARK Flexibility Score: inf
ROOT
ATOM      1  C   UNL     1       6.320  26.030  59.126  1.00  0.00     0.138 A 
ATOM      2  C   UNL     1       5.350  25.270  59.794  1.00  0.00     0.100 A 
ATOM      3  C   UNL     1       5.749  24.300  60.716  1.00  0.00     0.197 A 
ATOM      4  O   UNL     1       4.855  23.678  61.346  1.00  0.00    -0.289 OA
ATOM      5  C   UNL     1       7.126  24.071  60.944  1.00  0.00     0.107 A 
ATOM      6  C   UNL     1       7.649  23.082  61.830  1.00  0.00     0.134 A 
ATOM      7  C   UNL     1       9.030  23.025  62.063  1.00  0.00     0.093 A 
ATOM      8  C   UNL     1       9.909  23.881  61.396  1.00  0.00     0.123 A 
ATOM      9  C   UNL     1       9.412  24.815  60.489  1.00  0.00     0.094 A 
ATOM     10  C   UNL     1       8.039  24.919  60.261  1.00  0.00     0.146 A 
ATOM     11  O   UNL     1       7.605  25.833  59.399  1.00  0.00    -0.456 OA
ENDROOT
BRANCH   1  12
ATOM     12  C   UNL     1       5.951  27.073  58.135  1.00  0.00     0.021 A 
ATOM     13  C   UNL     1       4.597  27.274  57.814  1.00  0.00     0.016 A 
ATOM     14  C   UNL     1       4.224  28.255  56.891  1.00  0.00     0.051 A 
ATOM     15  C   UNL     1       5.195  29.056  56.281  1.00  0.00     0.157 A 
ATOM     16  C   UNL     1       6.922  27.893  57.526  1.00  0.00     0.062 A 
ATOM     17  C   UNL     1       6.545  28.878  56.602  1.00  0.00     0.158 A 
BRANCH  15  18
ATOM     18  O   UNL     1       4.826  30.034  55.359  1.00  0.00    -0.504 OA
ATOM     19  H   UNL     1       5.507  30.467  54.744  1.00  0.00     0.293 HD
ENDBRANCH  15  18
BRANCH  17  20
ATOM     20  O   UNL     1       7.509  29.686  56.000  1.00  0.00    -0.504 OA
ATOM     21  H   UNL     1       8.398  29.877  56.450  1.00  0.00     0.293 HD
ENDBRANCH  17  20
ENDBRANCH   1  12
BRANCH   6  22
ATOM     22  O   UNL     1       6.867  22.123  62.481  1.00  0.00    -0.507 OA
ATOM     23  H   UNL     1       6.139  22.329  63.148  1.00  0.00     0.293 HD
ENDBRANCH   6  22
BRANCH   8  24
ATOM     24  O   UNL     1      11.282  23.807  61.623  1.00  0.00    -0.508 OA
ATOM     25  H   UNL     1      11.665  23.246  62.375  1.00  0.00     0.293 HD
ENDBRANCH   8  24
TORSDOF 5
ENDMDL
MODEL 7
REMARK VINA RESULT:    -5.774      5.408      7.034
REMARK INTER + INTRA:          -7.064
REMARK INTER:                  -6.801
REMARK INTRA:                  -0.263
REMARK UNBOUND:                -0.277
REMARK SMILES O=c1cc(-c2ccc(O)c(O)c2)oc2cc(O)cc(O)c12
REMARK SMILES IDX 4 1 3 2 2 3 1 4 21 5 19 6 18 7 16 8 15 9 14 10 13 11 5 12
REMARK SMILES IDX 6 13 7 14 8 15 12 16 10 17 9 18 11 20 20 22 17 24
REMARK H PARENT 9 19 11 21 20 23 17 25
REMARK Flexibility Score: inf
ROOT
ATOM      1  C   UNL     1       5.879  30.776  61.271  1.00  0.00     0.138 A 
ATOM      2  C   UNL     1       5.520  29.864  62.272  1.00  0.00     0.100 A 
ATOM      3  C   UNL     1       5.031  28.605  61.917  1.00  0.00     0.197 A 
ATOM      4  O   UNL     1       4.777  27.786  62.836  1.00  0.00    -0.289 OA
ATOM      5  C   UNL     1       4.874  28.274  60.550  1.00  0.00     0.107 A 
ATOM      6  C   UNL     1       4.348  27.037  60.070  1.00  0.00     0.134 A 
ATOM      7  C   UNL     1       4.347  26.775  58.694  1.00  0.00     0.093 A 
ATOM      8  C   UNL     1       4.797  27.729  57.779  1.00  0.00     0.123 A 
ATOM      9  C   UNL     1       5.262  28.960  58.234  1.00  0.00     0.094 A 
ATOM     10  C   UNL     1       5.308  29.238  59.602  1.00  0.00     0.146 A 
ATOM     11  O   UNL     1       5.773  30.419  59.996  1.00  0.00    -0.456 OA
ENDROOT
BRANCH   1  12
ATOM     12  C   UNL     1       6.402  32.128  61.594  1.00  0.00     0.021 A 
ATOM     13  C   UNL     1       7.791  32.323  61.708  1.00  0.00     0.016 A 
ATOM     14  C   UNL     1       8.308  33.587  62.003  1.00  0.00     0.051 A 
ATOM     15  C   UNL     1       7.450  34.678  62.179  1.00  0.00     0.157 A 
ATOM     16  C   UNL     1       5.546  33.234  61.760  1.00  0.00     0.062 A 
ATOM     17  C   UNL     1       6.067  34.503  62.054  1.00  0.00     0.158 A 
BRANCH  15  18
ATOM     18  O   UNL     1       7.963  35.939  62.475  1.00  0.00    -0.504 OA
ATOM     19  H   UNL     1       8.902  36.057  62.841  1.00  0.00     0.293 HD
ENDBRANCH  15  18
BRANCH  17  20
ATOM     20  O   UNL     1       5.216  35.594  62.219  1.00  0.00    -0.504 OA
ATOM     21  H   UNL     1       4.208  35.484  62.237  1.00  0.00     0.293 HD
ENDBRANCH  17  20
ENDBRANCH   1  12
BRANCH   6  22
ATOM     22  O   UNL     1       3.795  26.051  60.893  1.00  0.00    -0.507 OA
ATOM     23  H   UNL     1       3.145  25.343  60.588  1.00  0.00     0.293 HD
ENDBRANCH   6  22
BRANCH   8  24
ATOM     24  O   UNL     1       4.778  27.465  56.411  1.00  0.00    -0.508 OA
ATOM     25  H   UNL     1       5.463  27.871  55.783  1.00  0.00     0.293 HD
ENDBRANCH   8  24
TORSDOF 5
ENDMDL
MODEL 8
REMARK VINA RESULT:    -5.573      5.129      6.799
REMARK INTER + INTRA:          -6.828
REMARK INTER:                  -6.538
REMARK INTRA:                  -0.290
REMARK UNBOUND:                -0.277
REMARK SMILES O=c1cc(-c2ccc(O)c(O)c2)oc2cc(O)cc(O)c12
REMARK SMILES IDX 4 1 3 2 2 3 1 4 21 5 19 6 18 7 16 8 15 9 14 10 13 11 5 12
REMARK SMILES IDX 6 13 7 14 8 15 12 16 10 17 9 18 11 20 20 22 17 24
REMARK H PARENT 9 19 11 21 20 23 17 25
REMARK Flexibility Score: inf
ROOT
ATOM      1  C   UNL     1       5.733  30.131  61.241  1.00  0.00     0.138 A 
ATOM      2  C   UNL     1       6.312  29.009  61.851  1.00  0.00     0.100 A 
ATOM      3  C   UNL     1       6.307  27.782  61.185  1.00  0.00     0.197 A 
ATOM      4  O   UNL     1       6.889  26.809  61.729  1.00  0.00    -0.289 OA
ATOM      5  C   UNL     1       5.692  27.675  59.915  1.00  0.00     0.107 A 
ATOM      6  C   UNL     1       5.592  26.467  59.161  1.00  0.00     0.134 A 
ATOM      7  C   UNL     1       5.063  26.506  57.864  1.00  0.00     0.093 A 
ATOM      8  C   UNL     1       4.578  27.697  57.319  1.00  0.00     0.123 A 
ATOM      9  C   UNL     1       4.623  28.870  58.067  1.00  0.00     0.094 A 
ATOM     10  C   UNL     1       5.174  28.871  59.350  1.00  0.00     0.146 A 
ATOM     11  O   UNL     1       5.211  30.015  60.026  1.00  0.00    -0.456 OA
ENDROOT
BRANCH   1  12
ATOM     12  C   UNL     1       5.710  31.459  61.907  1.00  0.00     0.021 A 
ATOM     13  C   UNL     1       5.304  31.552  63.250  1.00  0.00     0.016 A 
ATOM     14  C   UNL     1       5.281  32.789  63.900  1.00  0.00     0.051 A 
ATOM     15  C   UNL     1       5.671  33.950  63.223  1.00  0.00     0.157 A 
ATOM     16  C   UNL     1       6.114  32.630  61.236  1.00  0.00     0.062 A 
ATOM     17  C   UNL     1       6.092  33.870  61.891  1.00  0.00     0.158 A 
BRANCH  15  18
ATOM     18  O   UNL     1       5.648  35.185  63.869  1.00  0.00    -0.504 OA
ATOM     19  H   UNL     1       6.067  35.313  64.783  1.00  0.00     0.293 HD
ENDBRANCH  15  18
BRANCH  17  20
ATOM     20  O   UNL     1       6.490  35.028  61.224  1.00  0.00    -0.504 OA
ATOM     21  H   UNL     1       6.385  35.124  60.220  1.00  0.00     0.293 HD
ENDBRANCH  17  20
ENDBRANCH   1  12
BRANCH   6  22
ATOM     22  O   UNL     1       5.969  25.211  59.644  1.00  0.00    -0.507 OA
ATOM     23  H   UNL     1       6.918  24.924  59.828  1.00  0.00     0.293 HD
ENDBRANCH   6  22
BRANCH   8  24
ATOM     24  O   UNL     1       4.040  27.722  56.033  1.00  0.00    -0.508 OA
ATOM     25  H   UNL     1       3.065  27.945  55.871  1.00  0.00     0.293 HD
ENDBRANCH   8  24
TORSDOF 5
ENDMDL
MODEL 9
REMARK VINA RESULT:    -5.569      1.765      6.859
REMARK INTER + INTRA:          -6.822
REMARK INTER:                  -6.538
REMARK INTRA:                  -0.284
REMARK UNBOUND:                -0.277
REMARK SMILES O=c1cc(-c2ccc(O)c(O)c2)oc2cc(O)cc(O)c12
REMARK SMILES IDX 4 1 3 2 2 3 1 4 21 5 19 6 18 7 16 8 15 9 14 10 13 11 5 12
REMARK SMILES IDX 6 13 7 14 8 15 12 16 10 17 9 18 11 20 20 22 17 24
REMARK H PARENT 9 19 11 21 20 23 17 25
REMARK Flexibility Score: inf
ROOT
ATOM      1  C   UNL     1       8.908  26.098  59.655  1.00  0.00     0.138 A 
ATOM      2  C   UNL     1       8.549  26.538  60.936  1.00  0.00     0.100 A 
ATOM      3  C   UNL     1       7.292  27.109  61.143  1.00  0.00     0.197 A 
ATOM      4  O   UNL     1       6.974  27.437  62.315  1.00  0.00    -0.289 OA
ATOM      5  C   UNL     1       6.404  27.267  60.052  1.00  0.00     0.107 A 
ATOM      6  C   UNL     1       5.114  27.872  60.136  1.00  0.00     0.134 A 
ATOM      7  C   UNL     1       4.276  27.868  59.014  1.00  0.00     0.093 A 
ATOM      8  C   UNL     1       4.705  27.336  57.796  1.00  0.00     0.123 A 
ATOM      9  C   UNL     1       5.983  26.791  57.690  1.00  0.00     0.094 A 
ATOM     10  C   UNL     1       6.829  26.749  58.799  1.00  0.00     0.146 A 
ATOM     11  O   UNL     1       8.035  26.208  58.660  1.00  0.00    -0.456 OA
ENDROOT
BRANCH   1  12
ATOM     12  C   UNL     1      10.233  25.485  59.380  1.00  0.00     0.021 A 
ATOM     13  C   UNL     1      10.862  25.724  58.145  1.00  0.00     0.016 A 
ATOM     14  C   UNL     1      12.112  25.166  57.865  1.00  0.00     0.051 A 
ATOM     15  C   UNL     1      12.757  24.367  58.816  1.00  0.00     0.157 A 
ATOM     16  C   UNL     1      10.895  24.691  60.336  1.00  0.00     0.062 A 
ATOM     17  C   UNL     1      12.150  24.133  60.055  1.00  0.00     0.158 A 
BRANCH  15  18
ATOM     18  O   UNL     1      14.003  23.807  58.540  1.00  0.00    -0.504 OA
ATOM     19  H   UNL     1      14.188  23.332  57.663  1.00  0.00     0.293 HD
ENDBRANCH  15  18
BRANCH  17  20
ATOM     20  O   UNL     1      12.801  23.345  61.004  1.00  0.00    -0.504 OA
ATOM     21  H   UNL     1      12.314  22.980  61.814  1.00  0.00     0.293 HD
ENDBRANCH  17  20
ENDBRANCH   1  12
BRANCH   6  22
ATOM     22  O   UNL     1       4.622  28.507  61.280  1.00  0.00    -0.507 OA
ATOM     23  H   UNL     1       3.905  29.217  61.283  1.00  0.00     0.293 HD
ENDBRANCH   6  22
BRANCH   8  24
ATOM     24  O   UNL     1       3.870  27.350  56.681  1.00  0.00    -0.508 OA
ATOM     25  H   UNL     1       2.989  26.848  56.672  1.00  0.00     0.293 HD
ENDBRANCH   8  24
TORSDOF 5
ENDMDL
