MODEL 1
REMARK VINA RESULT:     0.124      0.000      0.000
REMARK INTER + INTRA:          -1.039
REMARK INTER:                   0.240
REMARK INTRA:                  -1.279
REMARK UNBOUND:                -1.279
REMARK SMILES CCCCCCCCCCCCCCCCCC(=O)[O-]
REMARK SMILES IDX 10 1 11 2 12 3 13 4 14 5 15 6 16 7 17 8 18 9 19 10 20 11
REMARK SMILES IDX 9 12 8 13 7 14 6 15 5 16 4 17 3 18 2 19 1 20
REMARK H PARENT
REMARK Flexibility Score: inf
ROOT
ATOM      1  C   UNL     1      12.075  20.697  19.392  1.00  0.00     0.000 C 
ENDROOT
BRANCH   1   2
ATOM      2  C   UNL     1      12.881  19.989  20.493  1.00  0.00     0.000 C 
BRANCH   2   3
ATOM      3  C   UNL     1      12.762  20.697  21.855  1.00  0.00     0.000 C 
BRANCH   3   4
ATOM      4  C   UNL     1      11.962  19.875  22.882  1.00  0.00     0.000 C 
BRANCH   4   5
ATOM      5  C   UNL     1      10.647  20.563  23.287  1.00  0.00     0.000 C 
BRANCH   5   6
ATOM      6  C   UNL     1      10.823  22.067  23.553  1.00  0.00     0.000 C 
BRANCH   6   7
ATOM      7  C   UNL     1       9.875  22.935  22.711  1.00  0.00     0.006 C 
BRANCH   7   8
ATOM      8  C   UNL     1       9.876  22.484  21.246  1.00  0.00     0.053 C 
BRANCH   8   9
ATOM      9  C   UNL     1      10.599  23.479  20.395  1.00  0.00     0.041 C 
ATOM     10  O   UNL     1      11.797  23.780  20.652  1.00  0.00    -0.550 OA
ATOM     11  O   UNL     1       9.967  24.036  19.290  1.00  0.00    -0.550 OA
ENDBRANCH   8   9
ENDBRANCH   7   8
ENDBRANCH   6   7
ENDBRANCH   5   6
ENDBRANCH   4   5
ENDBRANCH   3   4
ENDBRANCH   2   3
ENDBRANCH   1   2
BRANCH   1  12
ATOM     12  C   UNL     1      10.854  19.878  18.939  1.00  0.00     0.000 C 
BRANCH  12  13
ATOM     13  C   UNL     1       9.956  20.648  17.953  1.00  0.00    -0.000 C 
BRANCH  13  14
ATOM     14  C   UNL     1      10.527  20.788  16.524  1.00  0.00    -0.000 C 
BRANCH  14  15
ATOM     15  C   UNL     1      10.979  22.208  16.136  1.00  0.00    -0.000 C 
BRANCH  15  16
ATOM     16  C   UNL     1      12.002  22.218  14.989  1.00  0.00    -0.000 C 
BRANCH  16  17
ATOM     17  C   UNL     1      13.428  22.011  15.521  1.00  0.00    -0.000 C 
BRANCH  17  18
ATOM     18  C   UNL     1      13.616  20.636  16.186  1.00  0.00    -0.000 C 
BRANCH  18  19
ATOM     19  C   UNL     1      14.877  20.572  17.060  1.00  0.00    -0.003 C 
ATOM     20  C   UNL     1      16.135  20.466  16.200  1.00  0.00     0.004 C 
ENDBRANCH  18  19
ENDBRANCH  17  18
ENDBRANCH  16  17
ENDBRANCH  15  16
ENDBRANCH  14  15
ENDBRANCH  13  14
ENDBRANCH  12  13
ENDBRANCH   1  12
TORSDOF 16
ENDMDL
MODEL 2
REMARK VINA RESULT:     0.918      1.684      6.264
REMARK INTER + INTRA:           0.498
REMARK INTER:                   1.164
REMARK INTRA:                  -0.666
REMARK UNBOUND:                -1.279
REMARK SMILES CCCCCCCCCCCCCCCCCC(=O)[O-]
REMARK SMILES IDX 10 1 11 2 12 3 13 4 14 5 15 6 16 7 17 8 18 9 19 10 20 11
REMARK SMILES IDX 9 12 8 13 7 14 6 15 5 16 4 17 3 18 2 19 1 20
REMARK H PARENT
REMARK Flexibility Score: inf
ROOT
ATOM      1  C   UNL     1      12.545  20.513  18.888  1.00  0.00     0.000 C 
ENDROOT
BRANCH   1   2
ATOM      2  C   UNL     1      13.009  19.939  17.539  1.00  0.00     0.000 C 
BRANCH   2   3
ATOM      3  C   UNL     1      14.359  20.524  17.085  1.00  0.00     0.000 C 
BRANCH   3   4
ATOM      4  C   UNL     1      14.196  21.718  16.129  1.00  0.00     0.000 C 
BRANCH   4   5
ATOM      5  C   UNL     1      13.316  21.381  14.913  1.00  0.00     0.000 C 
BRANCH   5   6
ATOM      6  C   UNL     1      12.211  22.424  14.675  1.00  0.00     0.000 C 
BRANCH   6   7
ATOM      7  C   UNL     1      11.028  21.863  13.871  1.00  0.00     0.006 C 
BRANCH   7   8
ATOM      8  C   UNL     1       9.875  21.463  14.798  1.00  0.00     0.053 C 
BRANCH   8   9
ATOM      9  C   UNL     1       9.987  22.179  16.106  1.00  0.00     0.041 C 
ATOM     10  O   UNL     1       9.893  21.539  17.189  1.00  0.00    -0.550 OA
ATOM     11  O   UNL     1      10.245  23.546  16.130  1.00  0.00    -0.550 OA
ENDBRANCH   8   9
ENDBRANCH   7   8
ENDBRANCH   6   7
ENDBRANCH   5   6
ENDBRANCH   4   5
ENDBRANCH   3   4
ENDBRANCH   2   3
ENDBRANCH   1   2
BRANCH   1  12
ATOM     12  C   UNL     1      13.449  20.078  20.055  1.00  0.00     0.000 C 
BRANCH  12  13
ATOM     13  C   UNL     1      13.077  20.763  21.382  1.00  0.00    -0.000 C 
BRANCH  13  14
ATOM     14  C   UNL     1      12.301  19.875  22.380  1.00  0.00    -0.000 C 
BRANCH  14  15
ATOM     15  C   UNL     1      10.775  20.075  22.385  1.00  0.00    -0.000 C 
BRANCH  15  16
ATOM     16  C   UNL     1      10.319  21.236  21.487  1.00  0.00    -0.000 C 
BRANCH  16  17
ATOM     17  C   UNL     1      10.181  22.536  22.296  1.00  0.00    -0.000 C 
BRANCH  17  18
ATOM     18  C   UNL     1       9.897  23.757  21.406  1.00  0.00    -0.000 C 
BRANCH  18  19
ATOM     19  C   UNL     1      10.797  23.802  20.162  1.00  0.00    -0.003 C 
ATOM     20  C   UNL     1      10.142  24.606  19.040  1.00  0.00     0.004 C 
ENDBRANCH  18  19
ENDBRANCH  17  18
ENDBRANCH  16  17
ENDBRANCH  15  16
ENDBRANCH  14  15
ENDBRANCH  13  14
ENDBRANCH  12  13
ENDBRANCH   1  12
TORSDOF 16
ENDMDL
MODEL 3
REMARK VINA RESULT:     0.999      1.768      6.146
REMARK INTER + INTRA:           0.655
REMARK INTER:                   0.417
REMARK INTRA:                   0.238
REMARK UNBOUND:                -1.279
REMARK SMILES CCCCCCCCCCCCCCCCCC(=O)[O-]
REMARK SMILES IDX 10 1 11 2 12 3 13 4 14 5 15 6 16 7 17 8 18 9 19 10 20 11
REMARK SMILES IDX 9 12 8 13 7 14 6 15 5 16 4 17 3 18 2 19 1 20
REMARK H PARENT
REMARK Flexibility Score: inf
ROOT
ATOM      1  C   UNL     1      12.307  20.812  20.977  1.00  0.00     0.000 C 
ENDROOT
BRANCH   1   2
ATOM      2  C   UNL     1      12.613  20.212  19.595  1.00  0.00     0.000 C 
BRANCH   2   3
ATOM      3  C   UNL     1      14.122  20.177  19.291  1.00  0.00     0.000 C 
BRANCH   3   4
ATOM      4  C   UNL     1      14.422  20.156  17.783  1.00  0.00     0.000 C 
BRANCH   4   5
ATOM      5  C   UNL     1      13.144  20.080  16.930  1.00  0.00     0.000 C 
BRANCH   5   6
ATOM      6  C   UNL     1      12.569  21.468  16.601  1.00  0.00     0.000 C 
BRANCH   6   7
ATOM      7  C   UNL     1      12.994  21.974  15.214  1.00  0.00     0.006 C 
BRANCH   7   8
ATOM      8  C   UNL     1      11.864  22.768  14.550  1.00  0.00     0.053 C 
BRANCH   8   9
ATOM      9  C   UNL     1      10.536  22.326  15.080  1.00  0.00     0.041 C 
ATOM     10  O   UNL     1       9.976  22.974  16.006  1.00  0.00    -0.550 OA
ATOM     11  O   UNL     1       9.895  21.228  14.517  1.00  0.00    -0.550 OA
ENDBRANCH   8   9
ENDBRANCH   7   8
ENDBRANCH   6   7
ENDBRANCH   5   6
ENDBRANCH   4   5
ENDBRANCH   3   4
ENDBRANCH   2   3
ENDBRANCH   1   2
BRANCH   1  12
ATOM     12  C   UNL     1      12.714  19.875  22.129  1.00  0.00     0.000 C 
BRANCH  12  13
ATOM     13  C   UNL     1      12.078  20.275  23.472  1.00  0.00    -0.000 C 
BRANCH  13  14
ATOM     14  C   UNL     1      10.534  20.261  23.493  1.00  0.00    -0.000 C 
BRANCH  14  15
ATOM     15  C   UNL     1       9.875  21.516  24.094  1.00  0.00    -0.000 C 
BRANCH  15  16
ATOM     16  C   UNL     1       9.981  22.745  23.176  1.00  0.00    -0.000 C 
BRANCH  16  17
ATOM     17  C   UNL     1       9.912  22.335  21.697  1.00  0.00    -0.000 C 
BRANCH  17  18
ATOM     18  C   UNL     1      10.100  23.529  20.745  1.00  0.00    -0.000 C 
BRANCH  18  19
ATOM     19  C   UNL     1       9.875  23.150  19.273  1.00  0.00    -0.003 C 
ATOM     20  C   UNL     1       9.923  21.635  19.083  1.00  0.00     0.004 C 
ENDBRANCH  18  19
ENDBRANCH  17  18
ENDBRANCH  16  17
ENDBRANCH  15  16
ENDBRANCH  14  15
ENDBRANCH  13  14
ENDBRANCH  12  13
ENDBRANCH   1  12
TORSDOF 16
ENDMDL
MODEL 4
REMARK VINA RESULT:     1.774      1.358      2.352
REMARK INTER + INTRA:           2.154
REMARK INTER:                   0.985
REMARK INTRA:                   1.169
REMARK UNBOUND:                -1.279
REMARK SMILES CCCCCCCCCCCCCCCCCC(=O)[O-]
REMARK SMILES IDX 10 1 11 2 12 3 13 4 14 5 15 6 16 7 17 8 18 9 19 10 20 11
REMARK SMILES IDX 9 12 8 13 7 14 6 15 5 16 4 17 3 18 2 19 1 20
REMARK H PARENT
REMARK Flexibility Score: inf
ROOT
ATOM      1  C   UNL     1      10.942  20.742  20.480  1.00  0.00     0.000 C 
ENDROOT
BRANCH   1   2
ATOM      2  C   UNL     1      11.980  19.879  21.216  1.00  0.00     0.000 C 
BRANCH   2   3
ATOM      3  C   UNL     1      12.668  20.640  22.364  1.00  0.00     0.000 C 
BRANCH   3   4
ATOM      4  C   UNL     1      11.856  20.606  23.670  1.00  0.00     0.000 C 
BRANCH   4   5
ATOM      5  C   UNL     1      10.621  21.522  23.617  1.00  0.00     0.000 C 
BRANCH   5   6
ATOM      6  C   UNL     1      10.931  22.898  23.003  1.00  0.00     0.000 C 
BRANCH   6   7
ATOM      7  C   UNL     1      10.184  23.142  21.683  1.00  0.00     0.006 C 
BRANCH   7   8
ATOM      8  C   UNL     1      11.124  23.722  20.620  1.00  0.00     0.053 C 
BRANCH   8   9
ATOM      9  C   UNL     1      10.347  24.145  19.414  1.00  0.00     0.041 C 
ATOM     10  O   UNL     1       9.879  25.314  19.339  1.00  0.00    -0.550 OA
ATOM     11  O   UNL     1      10.183  23.264  18.350  1.00  0.00    -0.550 OA
ENDBRANCH   8   9
ENDBRANCH   7   8
ENDBRANCH   6   7
ENDBRANCH   5   6
ENDBRANCH   4   5
ENDBRANCH   3   4
ENDBRANCH   2   3
ENDBRANCH   1   2
BRANCH   1  12
ATOM     12  C   UNL     1       9.950  19.898  19.661  1.00  0.00     0.000 C 
BRANCH  12  13
ATOM     13  C   UNL     1       9.898  20.314  18.180  1.00  0.00    -0.000 C 
BRANCH  13  14
ATOM     14  C   UNL     1      11.212  20.100  17.395  1.00  0.00    -0.000 C 
BRANCH  14  15
ATOM     15  C   UNL     1      12.460  20.753  18.017  1.00  0.00    -0.000 C 
BRANCH  15  16
ATOM     16  C   UNL     1      13.088  21.826  17.112  1.00  0.00    -0.000 C 
BRANCH  16  17
ATOM     17  C   UNL     1      13.374  21.264  15.710  1.00  0.00    -0.000 C 
BRANCH  17  18
ATOM     18  C   UNL     1      12.514  21.929  14.622  1.00  0.00    -0.000 C 
BRANCH  18  19
ATOM     19  C   UNL     1      11.200  22.499  15.176  1.00  0.00    -0.003 C 
ATOM     20  C   UNL     1      10.045  22.254  14.207  1.00  0.00     0.004 C 
ENDBRANCH  18  19
ENDBRANCH  17  18
ENDBRANCH  16  17
ENDBRANCH  15  16
ENDBRANCH  14  15
ENDBRANCH  13  14
ENDBRANCH  12  13
ENDBRANCH   1  12
TORSDOF 16
ENDMDL
MODEL 5
REMARK VINA RESULT:     2.065      1.532      6.130
REMARK INTER + INTRA:           2.717
REMARK INTER:                   2.161
REMARK INTRA:                   0.557
REMARK UNBOUND:                -1.279
REMARK SMILES CCCCCCCCCCCCCCCCCC(=O)[O-]
REMARK SMILES IDX 10 1 11 2 12 3 13 4 14 5 15 6 16 7 17 8 18 9 19 10 20 11
REMARK SMILES IDX 9 12 8 13 7 14 6 15 5 16 4 17 3 18 2 19 1 20
REMARK H PARENT
REMARK Flexibility Score: inf
ROOT
ATOM      1  C   UNL     1      14.305  21.460  17.898  1.00  0.00     0.000 C 
ENDROOT
BRANCH   1   2
ATOM      2  C   UNL     1      14.918  20.832  16.636  1.00  0.00     0.000 C 
BRANCH   2   3
ATOM      3  C   UNL     1      15.037  21.840  15.478  1.00  0.00     0.000 C 
BRANCH   3   4
ATOM      4  C   UNL     1      13.826  21.800  14.530  1.00  0.00     0.000 C 
BRANCH   4   5
ATOM      5  C   UNL     1      12.488  21.919  15.281  1.00  0.00     0.000 C 
BRANCH   5   6
ATOM      6  C   UNL     1      11.344  22.406  14.376  1.00  0.00     0.000 C 
BRANCH   6   7
ATOM      7  C   UNL     1       9.973  22.348  15.069  1.00  0.00     0.006 C 
BRANCH   7   8
ATOM      8  C   UNL     1       9.982  23.161  16.368  1.00  0.00     0.053 C 
BRANCH   8   9
ATOM      9  C   UNL     1      10.050  22.249  17.552  1.00  0.00     0.041 C 
ATOM     10  O   UNL     1      10.198  22.726  18.711  1.00  0.00    -0.550 OA
ATOM     11  O   UNL     1       9.899  20.878  17.381  1.00  0.00    -0.550 OA
ENDBRANCH   8   9
ENDBRANCH   7   8
ENDBRANCH   6   7
ENDBRANCH   5   6
ENDBRANCH   4   5
ENDBRANCH   3   4
ENDBRANCH   2   3
ENDBRANCH   1   2
BRANCH   1  12
ATOM     12  C   UNL     1      13.011  20.753  18.338  1.00  0.00     0.000 C 
BRANCH  12  13
ATOM     13  C   UNL     1      13.204  19.888  19.596  1.00  0.00    -0.000 C 
BRANCH  13  14
ATOM     14  C   UNL     1      12.667  20.509  20.904  1.00  0.00    -0.000 C 
BRANCH  14  15
ATOM     15  C   UNL     1      11.361  19.892  21.435  1.00  0.00    -0.000 C 
BRANCH  15  16
ATOM     16  C   UNL     1      10.137  20.793  21.206  1.00  0.00    -0.000 C 
BRANCH  16  17
ATOM     17  C   UNL     1      10.084  21.924  22.245  1.00  0.00    -0.000 C 
BRANCH  17  18
ATOM     18  C   UNL     1      11.383  22.038  23.060  1.00  0.00    -0.000 C 
BRANCH  18  19
ATOM     19  C   UNL     1      12.221  23.263  22.665  1.00  0.00    -0.003 C 
ATOM     20  C   UNL     1      11.868  23.739  21.257  1.00  0.00     0.004 C 
ENDBRANCH  18  19
ENDBRANCH  17  18
ENDBRANCH  16  17
ENDBRANCH  15  16
ENDBRANCH  14  15
ENDBRANCH  13  14
ENDBRANCH  12  13
ENDBRANCH   1  12
TORSDOF 16
ENDMDL
MODEL 6
REMARK VINA RESULT:     2.068      6.911     10.280
REMARK INTER + INTRA:           2.723
REMARK INTER:                   3.268
REMARK INTRA:                  -0.545
REMARK UNBOUND:                -1.279
REMARK SMILES CCCCCCCCCCCCCCCCCC(=O)[O-]
REMARK SMILES IDX 10 1 11 2 12 3 13 4 14 5 15 6 16 7 17 8 18 9 19 10 20 11
REMARK SMILES IDX 9 12 8 13 7 14 6 15 5 16 4 17 3 18 2 19 1 20
REMARK H PARENT
REMARK Flexibility Score: inf
ROOT
ATOM      1  C   UNL     1      20.381  20.637  15.655  1.00  0.00     0.000 C 
ENDROOT
BRANCH   1   2
ATOM      2  C   UNL     1      19.080  19.911  15.278  1.00  0.00     0.000 C 
BRANCH   2   3
ATOM      3  C   UNL     1      18.069  19.876  16.438  1.00  0.00     0.000 C 
BRANCH   3   4
ATOM      4  C   UNL     1      16.691  20.433  16.041  1.00  0.00     0.000 C 
BRANCH   4   5
ATOM      5  C   UNL     1      15.729  20.526  17.238  1.00  0.00     0.000 C 
BRANCH   5   6
ATOM      6  C   UNL     1      14.255  20.367  16.826  1.00  0.00     0.000 C 
BRANCH   6   7
ATOM      7  C   UNL     1      13.286  20.552  18.004  1.00  0.00     0.006 C 
BRANCH   7   8
ATOM      8  C   UNL     1      11.895  20.965  17.509  1.00  0.00     0.053 C 
BRANCH   8   9
ATOM      9  C   UNL     1      11.131  21.636  18.606  1.00  0.00     0.041 C 
ATOM     10  O   UNL     1      10.523  22.719  18.384  1.00  0.00    -0.550 OA
ATOM     11  O   UNL     1      11.049  21.041  19.860  1.00  0.00    -0.550 OA
ENDBRANCH   8   9
ENDBRANCH   7   8
ENDBRANCH   6   7
ENDBRANCH   5   6
ENDBRANCH   4   5
ENDBRANCH   3   4
ENDBRANCH   2   3
ENDBRANCH   1   2
BRANCH   1  12
ATOM     12  C   UNL     1      21.635  19.883  15.177  1.00  0.00     0.000 C 
BRANCH  12  13
ATOM     13  C   UNL     1      22.883  20.783  15.123  1.00  0.00    -0.000 C 
BRANCH  13  14
ATOM     14  C   UNL     1      24.112  20.241  15.887  1.00  0.00    -0.000 C 
BRANCH  14  15
ATOM     15  C   UNL     1      25.321  19.875  15.008  1.00  0.00    -0.000 C 
BRANCH  15  16
ATOM     16  C   UNL     1      25.116  20.235  13.527  1.00  0.00    -0.000 C 
BRANCH  16  17
ATOM     17  C   UNL     1      26.427  20.090  12.739  1.00  0.00    -0.000 C 
BRANCH  17  18
ATOM     18  C   UNL     1      27.664  20.056  13.653  1.00  0.00    -0.000 C 
BRANCH  18  19
ATOM     19  C   UNL     1      28.285  21.446  13.857  1.00  0.00    -0.003 C 
ATOM     20  C   UNL     1      28.674  22.074  12.520  1.00  0.00     0.004 C 
ENDBRANCH  18  19
ENDBRANCH  17  18
ENDBRANCH  16  17
ENDBRANCH  15  16
ENDBRANCH  14  15
ENDBRANCH  13  14
ENDBRANCH  12  13
ENDBRANCH   1  12
TORSDOF 16
ENDMDL
MODEL 7
REMARK VINA RESULT:     2.283      6.744     10.861
REMARK INTER + INTRA:           3.139
REMARK INTER:                   3.681
REMARK INTRA:                  -0.542
REMARK UNBOUND:                -1.279
REMARK SMILES CCCCCCCCCCCCCCCCCC(=O)[O-]
REMARK SMILES IDX 10 1 11 2 12 3 13 4 14 5 15 6 16 7 17 8 18 9 19 10 20 11
REMARK SMILES IDX 9 12 8 13 7 14 6 15 5 16 4 17 3 18 2 19 1 20
REMARK H PARENT
REMARK Flexibility Score: inf
ROOT
ATOM      1  C   UNL     1      17.432  20.872  15.955  1.00  0.00     0.000 C 
ENDROOT
BRANCH   1   2
ATOM      2  C   UNL     1      18.360  19.875  15.242  1.00  0.00     0.000 C 
BRANCH   2   3
ATOM      3  C   UNL     1      19.834  20.052  15.648  1.00  0.00     0.000 C 
BRANCH   3   4
ATOM      4  C   UNL     1      20.800  19.875  14.463  1.00  0.00     0.000 C 
BRANCH   4   5
ATOM      5  C   UNL     1      22.275  19.893  14.901  1.00  0.00     0.000 C 
BRANCH   5   6
ATOM      6  C   UNL     1      22.607  21.086  15.813  1.00  0.00     0.000 C 
BRANCH   6   7
ATOM      7  C   UNL     1      24.004  20.981  16.444  1.00  0.00     0.006 C 
BRANCH   7   8
ATOM      8  C   UNL     1      24.892  20.017  15.651  1.00  0.00     0.053 C 
BRANCH   8   9
ATOM      9  C   UNL     1      26.334  20.250  15.975  1.00  0.00     0.041 C 
ATOM     10  O   UNL     1      27.178  20.386  15.048  1.00  0.00    -0.550 OA
ATOM     11  O   UNL     1      26.737  20.366  17.301  1.00  0.00    -0.550 OA
ENDBRANCH   8   9
ENDBRANCH   7   8
ENDBRANCH   6   7
ENDBRANCH   5   6
ENDBRANCH   4   5
ENDBRANCH   3   4
ENDBRANCH   2   3
ENDBRANCH   1   2
BRANCH   1  12
ATOM     12  C   UNL     1      16.269  20.176  16.684  1.00  0.00     0.000 C 
BRANCH  12  13
ATOM     13  C   UNL     1      14.998  21.043  16.738  1.00  0.00    -0.000 C 
BRANCH  13  14
ATOM     14  C   UNL     1      13.681  20.260  16.928  1.00  0.00    -0.000 C 
BRANCH  14  15
ATOM     15  C   UNL     1      13.046  20.373  18.326  1.00  0.00    -0.000 C 
BRANCH  15  16
ATOM     16  C   UNL     1      11.771  21.231  18.338  1.00  0.00    -0.000 C 
BRANCH  16  17
ATOM     17  C   UNL     1      10.758  20.697  19.362  1.00  0.00    -0.000 C 
BRANCH  17  18
ATOM     18  C   UNL     1      10.306  21.776  20.362  1.00  0.00    -0.000 C 
BRANCH  18  19
ATOM     19  C   UNL     1      10.401  21.305  21.821  1.00  0.00    -0.003 C 
ATOM     20  C   UNL     1      11.596  21.946  22.526  1.00  0.00     0.004 C 
ENDBRANCH  18  19
ENDBRANCH  17  18
ENDBRANCH  16  17
ENDBRANCH  15  16
ENDBRANCH  14  15
ENDBRANCH  13  14
ENDBRANCH  12  13
ENDBRANCH   1  12
TORSDOF 16
ENDMDL
MODEL 8
REMARK VINA RESULT:     2.545      8.805     12.831
REMARK INTER + INTRA:           3.647
REMARK INTER:                   4.110
REMARK INTRA:                  -0.463
REMARK UNBOUND:                -1.279
REMARK SMILES CCCCCCCCCCCCCCCCCC(=O)[O-]
REMARK SMILES IDX 10 1 11 2 12 3 13 4 14 5 15 6 16 7 17 8 18 9 19 10 20 11
REMARK SMILES IDX 9 12 8 13 7 14 6 15 5 16 4 17 3 18 2 19 1 20
REMARK H PARENT
REMARK Flexibility Score: inf
ROOT
ATOM      1  C   UNL     1      20.031  20.231  16.388  1.00  0.00     0.000 C 
ENDROOT
BRANCH   1   2
ATOM      2  C   UNL     1      21.070  20.317  15.258  1.00  0.00     0.000 C 
BRANCH   2   3
ATOM      3  C   UNL     1      22.407  20.913  15.734  1.00  0.00     0.000 C 
BRANCH   3   4
ATOM      4  C   UNL     1      23.594  19.959  15.515  1.00  0.00     0.000 C 
BRANCH   4   5
ATOM      5  C   UNL     1      24.886  20.706  15.140  1.00  0.00     0.000 C 
BRANCH   5   6
ATOM      6  C   UNL     1      26.147  20.015  15.685  1.00  0.00     0.000 C 
BRANCH   6   7
ATOM      7  C   UNL     1      27.260  19.893  14.633  1.00  0.00     0.006 C 
BRANCH   7   8
ATOM      8  C   UNL     1      28.568  20.507  15.145  1.00  0.00     0.053 C 
BRANCH   8   9
ATOM      9  C   UNL     1      29.312  21.158  14.022  1.00  0.00     0.041 C 
ATOM     10  O   UNL     1      29.281  22.411  13.884  1.00  0.00    -0.550 OA
ATOM     11  O   UNL     1      30.079  20.385  13.157  1.00  0.00    -0.550 OA
ENDBRANCH   8   9
ENDBRANCH   7   8
ENDBRANCH   6   7
ENDBRANCH   5   6
ENDBRANCH   4   5
ENDBRANCH   3   4
ENDBRANCH   2   3
ENDBRANCH   1   2
BRANCH   1  12
ATOM     12  C   UNL     1      18.627  19.875  15.870  1.00  0.00     0.000 C 
BRANCH  12  13
ATOM     13  C   UNL     1      17.506  20.407  16.781  1.00  0.00    -0.000 C 
BRANCH  13  14
ATOM     14  C   UNL     1      16.082  19.941  16.404  1.00  0.00    -0.000 C 
BRANCH  14  15
ATOM     15  C   UNL     1      14.977  20.996  16.588  1.00  0.00    -0.000 C 
BRANCH  15  16
ATOM     16  C   UNL     1      13.641  20.390  17.050  1.00  0.00    -0.000 C 
BRANCH  16  17
ATOM     17  C   UNL     1      13.730  19.908  18.506  1.00  0.00    -0.000 C 
BRANCH  17  18
ATOM     18  C   UNL     1      12.363  19.906  19.211  1.00  0.00    -0.000 C 
BRANCH  18  19
ATOM     19  C   UNL     1      11.298  20.697  18.436  1.00  0.00    -0.003 C 
ATOM     20  C   UNL     1      11.089  22.080  19.050  1.00  0.00     0.004 C 
ENDBRANCH  18  19
ENDBRANCH  17  18
ENDBRANCH  16  17
ENDBRANCH  15  16
ENDBRANCH  14  15
ENDBRANCH  13  14
ENDBRANCH  12  13
ENDBRANCH   1  12
TORSDOF 16
ENDMDL
