MODEL 1
REMARK VINA RESULT:    -7.392      0.000      0.000
REMARK INTER + INTRA:          -9.440
REMARK INTER:                  -9.121
REMARK INTRA:                  -0.319
REMARK UNBOUND:                -0.319
REMARK SMILES Oc1cc(O)c2cc(O)c(-c3cc(O)c(O)c(O)c3)[o+]c2c1.[Cl-]
REMARK SMILES IDX 10 1 20 2 21 3 22 4 2 5 3 6 4 7 6 8 7 9 8 10 11 11 12 12
REMARK SMILES IDX 13 13 19 14 15 15 17 16 14 17 16 19 18 21 9 23 1 25 5 27
REMARK H PARENT 14 18 16 20 18 22 9 24 1 26 5 28
REMARK Flexibility Score: inf
ROOT
ATOM      1  C   UNL     1      14.615  17.769  30.676  1.00  0.00     0.402 A 
ATOM      2  O   UNL     1      15.045  18.656  29.782  1.00  0.00    -0.202 OA
ATOM      3  C   UNL     1      14.276  19.616  29.279  1.00  0.00     0.368 A 
ATOM      4  C   UNL     1      14.819  20.503  28.345  1.00  0.00     0.162 A 
ATOM      5  C   UNL     1      14.034  21.524  27.802  1.00  0.00     0.128 A 
ATOM      6  C   UNL     1      12.700  21.658  28.195  1.00  0.00     0.093 A 
ATOM      7  C   UNL     1      12.132  20.782  29.127  1.00  0.00     0.136 A 
ATOM      8  C   UNL     1      12.925  19.743  29.681  1.00  0.00     0.125 A 
ATOM      9  C   UNL     1      12.436  18.811  30.611  1.00  0.00     0.078 A 
ATOM     10  C   UNL     1      13.277  17.810  31.108  1.00  0.00     0.223 A 
ENDROOT
BRANCH   1  11
ATOM     11  C   UNL     1      15.572  16.752  31.170  1.00  0.00     0.091 A 
ATOM     12  C   UNL     1      16.024  15.750  30.300  1.00  0.00     0.068 A 
ATOM     13  C   UNL     1      16.945  14.786  30.726  1.00  0.00     0.162 A 
ATOM     14  C   UNL     1      16.082  16.802  32.476  1.00  0.00     0.068 A 
ATOM     15  C   UNL     1      17.437  14.827  32.052  1.00  0.00     0.200 A 
ATOM     16  C   UNL     1      17.002  15.847  32.919  1.00  0.00     0.162 A 
BRANCH  13  17
ATOM     17  O   UNL     1      17.338  13.814  29.804  1.00  0.00    -0.504 OA
ATOM     18  H   UNL     1      18.253  13.388  29.785  1.00  0.00     0.293 HD
ENDBRANCH  13  17
BRANCH  15  19
ATOM     19  O   UNL     1      18.351  13.888  32.538  1.00  0.00    -0.502 OA
ATOM     20  H   UNL     1      19.166  14.119  33.087  1.00  0.00     0.293 HD
ENDBRANCH  15  19
BRANCH  16  21
ATOM     21  O   UNL     1      17.476  15.932  34.228  1.00  0.00    -0.504 OA
ATOM     22  H   UNL     1      16.856  16.029  35.023  1.00  0.00     0.293 HD
ENDBRANCH  16  21
ENDBRANCH   1  11
BRANCH  10  23
ATOM     23  O   UNL     1      12.780  16.854  31.994  1.00  0.00    -0.500 OA
ATOM     24  H   UNL     1      12.931  15.863  31.847  1.00  0.00     0.294 HD
ENDBRANCH  10  23
BRANCH   5  25
ATOM     25  O   UNL     1      14.569  22.412  26.872  1.00  0.00    -0.507 OA
ATOM     26  H   UNL     1      15.465  22.859  27.022  1.00  0.00     0.293 HD
ENDBRANCH   5  25
BRANCH   7  27
ATOM     27  O   UNL     1      10.792  20.986  29.470  1.00  0.00    -0.507 OA
ATOM     28  H   UNL     1      10.286  20.436  30.148  1.00  0.00     0.293 HD
ENDBRANCH   7  27
TORSDOF 7
ENDMDL
MODEL 2
REMARK VINA RESULT:    -7.176      2.488      3.272
REMARK INTER + INTRA:          -9.173
REMARK INTER:                  -8.797
REMARK INTRA:                  -0.377
REMARK UNBOUND:                -0.319
REMARK SMILES Oc1cc(O)c2cc(O)c(-c3cc(O)c(O)c(O)c3)[o+]c2c1.[Cl-]
REMARK SMILES IDX 10 1 20 2 21 3 22 4 2 5 3 6 4 7 6 8 7 9 8 10 11 11 12 12
REMARK SMILES IDX 13 13 19 14 15 15 17 16 14 17 16 19 18 21 9 23 1 25 5 27
REMARK H PARENT 14 18 16 20 18 22 9 24 1 26 5 28
REMARK Flexibility Score: inf
ROOT
ATOM      1  C   UNL     1      14.363  17.173  32.488  1.00  0.00     0.402 A 
ATOM      2  O   UNL     1      13.623  17.549  31.446  1.00  0.00    -0.202 OA
ATOM      3  C   UNL     1      13.252  18.806  31.230  1.00  0.00     0.368 A 
ATOM      4  C   UNL     1      12.477  19.102  30.106  1.00  0.00     0.162 A 
ATOM      5  C   UNL     1      12.076  20.417  29.852  1.00  0.00     0.128 A 
ATOM      6  C   UNL     1      12.452  21.440  30.726  1.00  0.00     0.093 A 
ATOM      7  C   UNL     1      13.228  21.169  31.859  1.00  0.00     0.136 A 
ATOM      8  C   UNL     1      13.637  19.835  32.123  1.00  0.00     0.125 A 
ATOM      9  C   UNL     1      14.404  19.469  33.240  1.00  0.00     0.078 A 
ATOM     10  C   UNL     1      14.765  18.132  33.436  1.00  0.00     0.223 A 
ENDROOT
BRANCH   1  11
ATOM     11  C   UNL     1      14.719  15.742  32.614  1.00  0.00     0.091 A 
ATOM     12  C   UNL     1      13.774  14.837  33.117  1.00  0.00     0.068 A 
ATOM     13  C   UNL     1      14.070  13.474  33.230  1.00  0.00     0.162 A 
ATOM     14  C   UNL     1      15.966  15.259  32.188  1.00  0.00     0.068 A 
ATOM     15  C   UNL     1      15.338  12.997  32.821  1.00  0.00     0.200 A 
ATOM     16  C   UNL     1      16.279  13.901  32.293  1.00  0.00     0.162 A 
BRANCH  13  17
ATOM     17  O   UNL     1      13.080  12.638  33.751  1.00  0.00    -0.504 OA
ATOM     18  H   UNL     1      12.090  12.809  33.664  1.00  0.00     0.293 HD
ENDBRANCH  13  17
BRANCH  15  19
ATOM     19  O   UNL     1      15.694  11.649  32.917  1.00  0.00    -0.502 OA
ATOM     20  H   UNL     1      15.191  10.895  32.472  1.00  0.00     0.293 HD
ENDBRANCH  15  19
BRANCH  16  21
ATOM     21  O   UNL     1      17.532  13.467  31.864  1.00  0.00    -0.504 OA
ATOM     22  H   UNL     1      17.647  12.682  31.233  1.00  0.00     0.293 HD
ENDBRANCH  16  21
ENDBRANCH   1  11
BRANCH  10  23
ATOM     23  O   UNL     1      15.484  17.760  34.571  1.00  0.00    -0.500 OA
ATOM     24  H   UNL     1      15.684  16.788  34.779  1.00  0.00     0.294 HD
ENDBRANCH  10  23
BRANCH   5  25
ATOM     25  O   UNL     1      11.303  20.720  28.733  1.00  0.00    -0.507 OA
ATOM     26  H   UNL     1      10.408  20.272  28.571  1.00  0.00     0.293 HD
ENDBRANCH   5  25
BRANCH   7  27
ATOM     27  O   UNL     1      13.566  22.248  32.681  1.00  0.00    -0.507 OA
ATOM     28  H   UNL     1      14.485  22.664  32.729  1.00  0.00     0.293 HD
ENDBRANCH   7  27
TORSDOF 7
ENDMDL
MODEL 3
REMARK VINA RESULT:    -7.138      1.779      6.920
REMARK INTER + INTRA:          -9.126
REMARK INTER:                  -8.761
REMARK INTRA:                  -0.365
REMARK UNBOUND:                -0.319
REMARK SMILES Oc1cc(O)c2cc(O)c(-c3cc(O)c(O)c(O)c3)[o+]c2c1.[Cl-]
REMARK SMILES IDX 10 1 20 2 21 3 22 4 2 5 3 6 4 7 6 8 7 9 8 10 11 11 12 12
REMARK SMILES IDX 13 13 19 14 15 15 17 16 14 17 16 19 18 21 9 23 1 25 5 27
REMARK H PARENT 14 18 16 20 18 22 9 24 1 26 5 28
REMARK Flexibility Score: inf
ROOT
ATOM      1  C   UNL     1      14.525  17.871  30.287  1.00  0.00     0.402 A 
ATOM      2  O   UNL     1      15.590  17.075  30.350  1.00  0.00    -0.202 OA
ATOM      3  C   UNL     1      15.621  15.951  31.057  1.00  0.00     0.368 A 
ATOM      4  C   UNL     1      16.786  15.180  31.059  1.00  0.00     0.162 A 
ATOM      5  C   UNL     1      16.845  13.991  31.792  1.00  0.00     0.128 A 
ATOM      6  C   UNL     1      15.733  13.571  32.526  1.00  0.00     0.093 A 
ATOM      7  C   UNL     1      14.554  14.325  32.541  1.00  0.00     0.136 A 
ATOM      8  C   UNL     1      14.489  15.535  31.800  1.00  0.00     0.125 A 
ATOM      9  C   UNL     1      13.355  16.361  31.767  1.00  0.00     0.078 A 
ATOM     10  C   UNL     1      13.368  17.541  31.018  1.00  0.00     0.223 A 
ENDROOT
BRANCH   1  11
ATOM     11  C   UNL     1      14.611  19.093  29.455  1.00  0.00     0.091 A 
ATOM     12  C   UNL     1      14.972  20.309  30.051  1.00  0.00     0.068 A 
ATOM     13  C   UNL     1      15.084  21.479  29.292  1.00  0.00     0.162 A 
ATOM     14  C   UNL     1      14.395  19.050  28.070  1.00  0.00     0.068 A 
ATOM     15  C   UNL     1      14.841  21.434  27.898  1.00  0.00     0.200 A 
ATOM     16  C   UNL     1      14.502  20.209  27.295  1.00  0.00     0.162 A 
BRANCH  13  17
ATOM     17  O   UNL     1      15.436  22.654  29.960  1.00  0.00    -0.504 OA
ATOM     18  H   UNL     1      15.027  22.954  30.833  1.00  0.00     0.293 HD
ENDBRANCH  13  17
BRANCH  15  19
ATOM     19  O   UNL     1      14.929  22.571  27.090  1.00  0.00    -0.502 OA
ATOM     20  H   UNL     1      14.639  22.604  26.123  1.00  0.00     0.293 HD
ENDBRANCH  15  19
BRANCH  16  21
ATOM     21  O   UNL     1      14.271  20.120  25.923  1.00  0.00    -0.504 OA
ATOM     22  H   UNL     1      13.346  19.965  25.538  1.00  0.00     0.293 HD
ENDBRANCH  16  21
ENDBRANCH   1  11
BRANCH  10  23
ATOM     23  O   UNL     1      12.260  18.388  31.025  1.00  0.00    -0.500 OA
ATOM     24  H   UNL     1      12.008  18.927  31.845  1.00  0.00     0.294 HD
ENDBRANCH  10  23
BRANCH   5  25
ATOM     25  O   UNL     1      18.004  13.217  31.798  1.00  0.00    -0.507 OA
ATOM     26  H   UNL     1      18.330  12.759  32.641  1.00  0.00     0.293 HD
ENDBRANCH   5  25
BRANCH   7  27
ATOM     27  O   UNL     1      13.485  13.835  33.297  1.00  0.00    -0.507 OA
ATOM     28  H   UNL     1      13.443  12.908  33.694  1.00  0.00     0.293 HD
ENDBRANCH   7  27
TORSDOF 7
ENDMDL
MODEL 4
REMARK VINA RESULT:    -7.083      2.592      3.433
REMARK INTER + INTRA:          -9.059
REMARK INTER:                  -8.676
REMARK INTRA:                  -0.383
REMARK UNBOUND:                -0.319
REMARK SMILES Oc1cc(O)c2cc(O)c(-c3cc(O)c(O)c(O)c3)[o+]c2c1.[Cl-]
REMARK SMILES IDX 10 1 20 2 21 3 22 4 2 5 3 6 4 7 6 8 7 9 8 10 11 11 12 12
REMARK SMILES IDX 13 13 19 14 15 15 17 16 14 17 16 19 18 21 9 23 1 25 5 27
REMARK H PARENT 14 18 16 20 18 22 9 24 1 26 5 28
REMARK Flexibility Score: inf
ROOT
ATOM      1  C   UNL     1      14.916  18.584  30.783  1.00  0.00     0.402 A 
ATOM      2  O   UNL     1      16.148  19.088  30.809  1.00  0.00    -0.202 OA
ATOM      3  C   UNL     1      16.532  20.114  30.058  1.00  0.00     0.368 A 
ATOM      4  C   UNL     1      17.848  20.574  30.157  1.00  0.00     0.162 A 
ATOM      5  C   UNL     1      18.279  21.655  29.382  1.00  0.00     0.128 A 
ATOM      6  C   UNL     1      17.389  22.278  28.503  1.00  0.00     0.093 A 
ATOM      7  C   UNL     1      16.067  21.836  28.384  1.00  0.00     0.136 A 
ATOM      8  C   UNL     1      15.624  20.738  29.169  1.00  0.00     0.125 A 
ATOM      9  C   UNL     1      14.321  20.220  29.106  1.00  0.00     0.078 A 
ATOM     10  C   UNL     1      13.960  19.132  29.907  1.00  0.00     0.223 A 
ENDROOT
BRANCH   1  11
ATOM     11  C   UNL     1      14.606  17.444  31.675  1.00  0.00     0.091 A 
ATOM     12  C   UNL     1      14.829  16.136  31.225  1.00  0.00     0.068 A 
ATOM     13  C   UNL     1      14.567  15.035  32.049  1.00  0.00     0.162 A 
ATOM     14  C   UNL     1      14.147  17.646  32.985  1.00  0.00     0.068 A 
ATOM     15  C   UNL     1      14.081  15.244  33.362  1.00  0.00     0.200 A 
ATOM     16  C   UNL     1      13.880  16.559  33.823  1.00  0.00     0.162 A 
BRANCH  13  17
ATOM     17  O   UNL     1      14.804  13.763  31.525  1.00  0.00    -0.504 OA
ATOM     18  H   UNL     1      15.719  13.349  31.433  1.00  0.00     0.293 HD
ENDBRANCH  13  17
BRANCH  15  19
ATOM     19  O   UNL     1      13.794  14.186  34.228  1.00  0.00    -0.502 OA
ATOM     20  H   UNL     1      14.243  13.282  34.189  1.00  0.00     0.293 HD
ENDBRANCH  15  19
BRANCH  16  21
ATOM     21  O   UNL     1      13.418  16.807  35.115  1.00  0.00    -0.504 OA
ATOM     22  H   UNL     1      12.651  16.286  35.525  1.00  0.00     0.293 HD
ENDBRANCH  16  21
ENDBRANCH   1  11
BRANCH  10  23
ATOM     23  O   UNL     1      12.681  18.584  29.809  1.00  0.00    -0.500 OA
ATOM     24  H   UNL     1      12.483  17.800  29.198  1.00  0.00     0.294 HD
ENDBRANCH  10  23
BRANCH   5  25
ATOM     25  O   UNL     1      19.590  22.118  29.476  1.00  0.00    -0.507 OA
ATOM     26  H   UNL     1      19.873  22.994  29.052  1.00  0.00     0.293 HD
ENDBRANCH   5  25
BRANCH   7  27
ATOM     27  O   UNL     1      15.239  22.515  27.486  1.00  0.00    -0.507 OA
ATOM     28  H   UNL     1      14.351  22.930  27.729  1.00  0.00     0.293 HD
ENDBRANCH   7  27
TORSDOF 7
ENDMDL
MODEL 5
REMARK VINA RESULT:    -6.992      2.436      3.313
REMARK INTER + INTRA:          -8.946
REMARK INTER:                  -8.574
REMARK INTRA:                  -0.372
REMARK UNBOUND:                -0.319
REMARK SMILES Oc1cc(O)c2cc(O)c(-c3cc(O)c(O)c(O)c3)[o+]c2c1.[Cl-]
REMARK SMILES IDX 10 1 20 2 21 3 22 4 2 5 3 6 4 7 6 8 7 9 8 10 11 11 12 12
REMARK SMILES IDX 13 13 19 14 15 15 17 16 14 17 16 19 18 21 9 23 1 25 5 27
REMARK H PARENT 14 18 16 20 18 22 9 24 1 26 5 28
REMARK Flexibility Score: inf
ROOT
ATOM      1  C   UNL     1      15.377  17.168  30.615  1.00  0.00     0.402 A 
ATOM      2  O   UNL     1      16.143  18.107  31.167  1.00  0.00    -0.202 OA
ATOM      3  C   UNL     1      16.113  19.383  30.799  1.00  0.00     0.368 A 
ATOM      4  C   UNL     1      16.954  20.296  31.441  1.00  0.00     0.162 A 
ATOM      5  C   UNL     1      16.941  21.645  31.075  1.00  0.00     0.128 A 
ATOM      6  C   UNL     1      16.082  22.083  30.065  1.00  0.00     0.093 A 
ATOM      7  C   UNL     1      15.230  21.189  29.406  1.00  0.00     0.136 A 
ATOM      8  C   UNL     1      15.240  19.817  29.772  1.00  0.00     0.125 A 
ATOM      9  C   UNL     1      14.430  18.848  29.158  1.00  0.00     0.078 A 
ATOM     10  C   UNL     1      14.501  17.514  29.570  1.00  0.00     0.223 A 
ENDROOT
BRANCH   1  11
ATOM     11  C   UNL     1      15.495  15.781  31.120  1.00  0.00     0.091 A 
ATOM     12  C   UNL     1      14.579  15.313  32.072  1.00  0.00     0.068 A 
ATOM     13  C   UNL     1      14.648  14.002  32.556  1.00  0.00     0.162 A 
ATOM     14  C   UNL     1      16.471  14.904  30.623  1.00  0.00     0.068 A 
ATOM     15  C   UNL     1      15.650  13.129  32.068  1.00  0.00     0.200 A 
ATOM     16  C   UNL     1      16.555  13.591  31.094  1.00  0.00     0.162 A 
BRANCH  13  17
ATOM     17  O   UNL     1      13.708  13.614  33.512  1.00  0.00    -0.504 OA
ATOM     18  H   UNL     1      12.863  14.127  33.718  1.00  0.00     0.293 HD
ENDBRANCH  13  17
BRANCH  15  19
ATOM     19  O   UNL     1      15.774  11.811  32.519  1.00  0.00    -0.502 OA
ATOM     20  H   UNL     1      16.330  11.104  32.060  1.00  0.00     0.293 HD
ENDBRANCH  15  19
BRANCH  16  21
ATOM     21  O   UNL     1      17.545  12.756  30.578  1.00  0.00    -0.504 OA
ATOM     22  H   UNL     1      17.578  12.496  29.599  1.00  0.00     0.293 HD
ENDBRANCH  16  21
ENDBRANCH   1  11
BRANCH  10  23
ATOM     23  O   UNL     1      13.734  16.542  28.927  1.00  0.00    -0.500 OA
ATOM     24  H   UNL     1      14.132  15.928  28.225  1.00  0.00     0.294 HD
ENDBRANCH  10  23
BRANCH   5  25
ATOM     25  O   UNL     1      17.777  22.561  31.711  1.00  0.00    -0.507 OA
ATOM     26  H   UNL     1      17.599  23.557  31.669  1.00  0.00     0.293 HD
ENDBRANCH   5  25
BRANCH   7  27
ATOM     27  O   UNL     1      14.398  21.707  28.409  1.00  0.00    -0.507 OA
ATOM     28  H   UNL     1      14.339  21.345  27.469  1.00  0.00     0.293 HD
ENDBRANCH   7  27
TORSDOF 7
ENDMDL
MODEL 6
REMARK VINA RESULT:    -6.992      2.007      3.329
REMARK INTER + INTRA:          -8.945
REMARK INTER:                  -8.562
REMARK INTRA:                  -0.384
REMARK UNBOUND:                -0.319
REMARK SMILES Oc1cc(O)c2cc(O)c(-c3cc(O)c(O)c(O)c3)[o+]c2c1.[Cl-]
REMARK SMILES IDX 10 1 20 2 21 3 22 4 2 5 3 6 4 7 6 8 7 9 8 10 11 11 12 12
REMARK SMILES IDX 13 13 19 14 15 15 17 16 14 17 16 19 18 21 9 23 1 25 5 27
REMARK H PARENT 14 18 16 20 18 22 9 24 1 26 5 28
REMARK Flexibility Score: inf
ROOT
ATOM      1  C   UNL     1      15.350  17.026  31.202  1.00  0.00     0.402 A 
ATOM      2  O   UNL     1      14.177  17.421  30.712  1.00  0.00    -0.202 OA
ATOM      3  C   UNL     1      13.944  18.656  30.282  1.00  0.00     0.368 A 
ATOM      4  C   UNL     1      12.679  18.975  29.782  1.00  0.00     0.162 A 
ATOM      5  C   UNL     1      12.407  20.266  29.320  1.00  0.00     0.128 A 
ATOM      6  C   UNL     1      13.406  21.242  29.358  1.00  0.00     0.093 A 
ATOM      7  C   UNL     1      14.681  20.949  29.855  1.00  0.00     0.136 A 
ATOM      8  C   UNL     1      14.962  19.640  30.327  1.00  0.00     0.125 A 
ATOM      9  C   UNL     1      16.206  19.259  30.854  1.00  0.00     0.078 A 
ATOM     10  C   UNL     1      16.406  17.951  31.304  1.00  0.00     0.223 A 
ENDROOT
BRANCH   1  11
ATOM     11  C   UNL     1      15.489  15.618  31.639  1.00  0.00     0.091 A 
ATOM     12  C   UNL     1      15.074  15.252  32.927  1.00  0.00     0.068 A 
ATOM     13  C   UNL     1      15.171  13.927  33.367  1.00  0.00     0.162 A 
ATOM     14  C   UNL     1      15.975  14.628  30.772  1.00  0.00     0.068 A 
ATOM     15  C   UNL     1      15.684  12.937  32.496  1.00  0.00     0.200 A 
ATOM     16  C   UNL     1      16.079  13.300  31.194  1.00  0.00     0.162 A 
BRANCH  13  17
ATOM     17  O   UNL     1      14.748  13.644  34.667  1.00  0.00    -0.504 OA
ATOM     18  H   UNL     1      13.962  14.090  35.118  1.00  0.00     0.293 HD
ENDBRANCH  13  17
BRANCH  15  19
ATOM     19  O   UNL     1      15.813  11.600  32.880  1.00  0.00    -0.502 OA
ATOM     20  H   UNL     1      15.447  10.820  32.354  1.00  0.00     0.293 HD
ENDBRANCH  15  19
BRANCH  16  21
ATOM     21  O   UNL     1      16.574  12.351  30.301  1.00  0.00    -0.504 OA
ATOM     22  H   UNL     1      17.277  12.576  29.606  1.00  0.00     0.293 HD
ENDBRANCH  16  21
ENDBRANCH   1  11
BRANCH  10  23
ATOM     23  O   UNL     1      17.626  17.585  31.874  1.00  0.00    -0.500 OA
ATOM     24  H   UNL     1      18.362  18.263  32.035  1.00  0.00     0.294 HD
ENDBRANCH  10  23
BRANCH   5  25
ATOM     25  O   UNL     1      11.148  20.591  28.820  1.00  0.00    -0.507 OA
ATOM     26  H   UNL     1      10.838  21.553  28.752  1.00  0.00     0.293 HD
ENDBRANCH   5  25
BRANCH   7  27
ATOM     27  O   UNL     1      15.625  21.980  29.856  1.00  0.00    -0.507 OA
ATOM     28  H   UNL     1      16.622  21.842  29.783  1.00  0.00     0.293 HD
ENDBRANCH   7  27
TORSDOF 7
ENDMDL
MODEL 7
REMARK VINA RESULT:    -6.953      2.048      2.872
REMARK INTER + INTRA:          -8.898
REMARK INTER:                  -8.521
REMARK INTRA:                  -0.377
REMARK UNBOUND:                -0.319
REMARK SMILES Oc1cc(O)c2cc(O)c(-c3cc(O)c(O)c(O)c3)[o+]c2c1.[Cl-]
REMARK SMILES IDX 10 1 20 2 21 3 22 4 2 5 3 6 4 7 6 8 7 9 8 10 11 11 12 12
REMARK SMILES IDX 13 13 19 14 15 15 17 16 14 17 16 19 18 21 9 23 1 25 5 27
REMARK H PARENT 14 18 16 20 18 22 9 24 1 26 5 28
REMARK Flexibility Score: inf
ROOT
ATOM      1  C   UNL     1      15.283  16.964  31.275  1.00  0.00     0.402 A 
ATOM      2  O   UNL     1      14.136  17.376  30.741  1.00  0.00    -0.202 OA
ATOM      3  C   UNL     1      13.930  18.620  30.324  1.00  0.00     0.368 A 
ATOM      4  C   UNL     1      12.690  18.957  29.773  1.00  0.00     0.162 A 
ATOM      5  C   UNL     1      12.448  20.258  29.323  1.00  0.00     0.128 A 
ATOM      6  C   UNL     1      13.450  21.226  29.423  1.00  0.00     0.093 A 
ATOM      7  C   UNL     1      14.700  20.915  29.971  1.00  0.00     0.136 A 
ATOM      8  C   UNL     1      14.951  19.595  30.431  1.00  0.00     0.125 A 
ATOM      9  C   UNL     1      16.169  19.196  31.005  1.00  0.00     0.078 A 
ATOM     10  C   UNL     1      16.340  17.879  31.440  1.00  0.00     0.223 A 
ENDROOT
BRANCH   1  11
ATOM     11  C   UNL     1      15.393  15.548  31.693  1.00  0.00     0.091 A 
ATOM     12  C   UNL     1      15.963  14.612  30.819  1.00  0.00     0.068 A 
ATOM     13  C   UNL     1      16.102  13.270  31.189  1.00  0.00     0.162 A 
ATOM     14  C   UNL     1      14.990  15.130  32.970  1.00  0.00     0.068 A 
ATOM     15  C   UNL     1      15.672  12.850  32.470  1.00  0.00     0.200 A 
ATOM     16  C   UNL     1      15.121  13.793  33.357  1.00  0.00     0.162 A 
BRANCH  13  17
ATOM     17  O   UNL     1      16.669  12.397  30.258  1.00  0.00    -0.504 OA
ATOM     18  H   UNL     1      16.848  11.419  30.434  1.00  0.00     0.293 HD
ENDBRANCH  13  17
BRANCH  15  19
ATOM     19  O   UNL     1      15.777  11.522  32.893  1.00  0.00    -0.502 OA
ATOM     20  H   UNL     1      15.046  11.020  33.375  1.00  0.00     0.293 HD
ENDBRANCH  15  19
BRANCH  16  21
ATOM     21  O   UNL     1      14.700  13.422  34.634  1.00  0.00    -0.504 OA
ATOM     22  H   UNL     1      15.224  12.771  35.209  1.00  0.00     0.293 HD
ENDBRANCH  16  21
ENDBRANCH   1  11
BRANCH  10  23
ATOM     23  O   UNL     1      17.531  17.494  32.056  1.00  0.00    -0.500 OA
ATOM     24  H   UNL     1      18.176  18.176  32.439  1.00  0.00     0.294 HD
ENDBRANCH  10  23
BRANCH   5  25
ATOM     25  O   UNL     1      11.214  20.601  28.774  1.00  0.00    -0.507 OA
ATOM     26  H   UNL     1      10.442  20.904  29.356  1.00  0.00     0.293 HD
ENDBRANCH   5  25
BRANCH   7  27
ATOM     27  O   UNL     1      15.650  21.938  30.031  1.00  0.00    -0.507 OA
ATOM     28  H   UNL     1      15.717  22.612  30.780  1.00  0.00     0.293 HD
ENDBRANCH   7  27
TORSDOF 7
ENDMDL
MODEL 8
REMARK VINA RESULT:    -6.863      3.619      6.952
REMARK INTER + INTRA:          -8.786
REMARK INTER:                  -8.418
REMARK INTRA:                  -0.368
REMARK UNBOUND:                -0.319
REMARK SMILES Oc1cc(O)c2cc(O)c(-c3cc(O)c(O)c(O)c3)[o+]c2c1.[Cl-]
REMARK SMILES IDX 10 1 20 2 21 3 22 4 2 5 3 6 4 7 6 8 7 9 8 10 11 11 12 12
REMARK SMILES IDX 13 13 19 14 15 15 17 16 14 17 16 19 18 21 9 23 1 25 5 27
REMARK H PARENT 14 18 16 20 18 22 9 24 1 26 5 28
REMARK Flexibility Score: inf
ROOT
ATOM      1  C   UNL     1      16.022  21.304  29.126  1.00  0.00     0.402 A 
ATOM      2  O   UNL     1      16.031  20.238  29.923  1.00  0.00    -0.202 OA
ATOM      3  C   UNL     1      15.208  19.206  29.770  1.00  0.00     0.368 A 
ATOM      4  C   UNL     1      15.295  18.129  30.657  1.00  0.00     0.162 A 
ATOM      5  C   UNL     1      14.444  17.029  30.517  1.00  0.00     0.128 A 
ATOM      6  C   UNL     1      13.503  17.005  29.485  1.00  0.00     0.093 A 
ATOM      7  C   UNL     1      13.396  18.070  28.583  1.00  0.00     0.136 A 
ATOM      8  C   UNL     1      14.256  19.191  28.722  1.00  0.00     0.125 A 
ATOM      9  C   UNL     1      14.211  20.309  27.873  1.00  0.00     0.078 A 
ATOM     10  C   UNL     1      15.088  21.379  28.076  1.00  0.00     0.223 A 
ENDROOT
BRANCH   1  11
ATOM     11  C   UNL     1      16.996  22.387  29.394  1.00  0.00     0.091 A 
ATOM     12  C   UNL     1      16.765  23.277  30.451  1.00  0.00     0.068 A 
ATOM     13  C   UNL     1      17.674  24.299  30.746  1.00  0.00     0.162 A 
ATOM     14  C   UNL     1      18.178  22.507  28.647  1.00  0.00     0.068 A 
ATOM     15  C   UNL     1      18.853  24.430  29.974  1.00  0.00     0.200 A 
ATOM     16  C   UNL     1      19.098  23.522  28.927  1.00  0.00     0.162 A 
BRANCH  13  17
ATOM     17  O   UNL     1      17.367  25.153  31.807  1.00  0.00    -0.504 OA
ATOM     18  H   UNL     1      16.593  25.016  32.440  1.00  0.00     0.293 HD
ENDBRANCH  13  17
BRANCH  15  19
ATOM     19  O   UNL     1      19.794  25.435  30.215  1.00  0.00    -0.502 OA
ATOM     20  H   UNL     1      19.560  26.381  30.480  1.00  0.00     0.293 HD
ENDBRANCH  15  19
BRANCH  16  21
ATOM     21  O   UNL     1      20.255  23.608  28.155  1.00  0.00    -0.504 OA
ATOM     22  H   UNL     1      20.465  24.418  27.582  1.00  0.00     0.293 HD
ENDBRANCH  16  21
ENDBRANCH   1  11
BRANCH  10  23
ATOM     23  O   UNL     1      15.011  22.511  27.265  1.00  0.00    -0.500 OA
ATOM     24  H   UNL     1      14.922  22.439  26.258  1.00  0.00     0.294 HD
ENDBRANCH  10  23
BRANCH   5  25
ATOM     25  O   UNL     1      14.525  15.952  31.398  1.00  0.00    -0.507 OA
ATOM     26  H   UNL     1      15.389  15.438  31.527  1.00  0.00     0.293 HD
ENDBRANCH   5  25
BRANCH   7  27
ATOM     27  O   UNL     1      12.432  17.968  27.576  1.00  0.00    -0.507 OA
ATOM     28  H   UNL     1      12.429  17.258  26.858  1.00  0.00     0.293 HD
ENDBRANCH   7  27
TORSDOF 7
ENDMDL
MODEL 9
REMARK VINA RESULT:    -6.858      1.842      7.110
REMARK INTER + INTRA:          -8.780
REMARK INTER:                  -8.437
REMARK INTRA:                  -0.343
REMARK UNBOUND:                -0.319
REMARK SMILES Oc1cc(O)c2cc(O)c(-c3cc(O)c(O)c(O)c3)[o+]c2c1.[Cl-]
REMARK SMILES IDX 10 1 20 2 21 3 22 4 2 5 3 6 4 7 6 8 7 9 8 10 11 11 12 12
REMARK SMILES IDX 13 13 19 14 15 15 17 16 14 17 16 19 18 21 9 23 1 25 5 27
REMARK H PARENT 14 18 16 20 18 22 9 24 1 26 5 28
REMARK Flexibility Score: inf
ROOT
ATOM      1  C   UNL     1      14.497  17.934  31.465  1.00  0.00     0.402 A 
ATOM      2  O   UNL     1      14.582  16.777  30.812  1.00  0.00    -0.202 OA
ATOM      3  C   UNL     1      14.972  15.643  31.383  1.00  0.00     0.368 A 
ATOM      4  C   UNL     1      15.026  14.478  30.614  1.00  0.00     0.162 A 
ATOM      5  C   UNL     1      15.430  13.270  31.190  1.00  0.00     0.128 A 
ATOM      6  C   UNL     1      15.781  13.228  32.542  1.00  0.00     0.093 A 
ATOM      7  C   UNL     1      15.735  14.381  33.334  1.00  0.00     0.136 A 
ATOM      8  C   UNL     1      15.328  15.611  32.753  1.00  0.00     0.125 A 
ATOM      9  C   UNL     1      15.265  16.818  33.467  1.00  0.00     0.078 A 
ATOM     10  C   UNL     1      14.858  17.992  32.824  1.00  0.00     0.223 A 
ENDROOT
BRANCH   1  11
ATOM     11  C   UNL     1      14.039  19.128  30.719  1.00  0.00     0.091 A 
ATOM     12  C   UNL     1      14.983  20.048  30.242  1.00  0.00     0.068 A 
ATOM     13  C   UNL     1      14.588  21.177  29.515  1.00  0.00     0.162 A 
ATOM     14  C   UNL     1      12.682  19.332  30.429  1.00  0.00     0.068 A 
ATOM     15  C   UNL     1      13.215  21.389  29.246  1.00  0.00     0.200 A 
ATOM     16  C   UNL     1      12.268  20.453  29.704  1.00  0.00     0.162 A 
BRANCH  13  17
ATOM     17  O   UNL     1      15.586  22.052  29.084  1.00  0.00    -0.504 OA
ATOM     18  H   UNL     1      15.500  23.058  29.091  1.00  0.00     0.293 HD
ENDBRANCH  13  17
BRANCH  15  19
ATOM     19  O   UNL     1      12.758  22.501  28.533  1.00  0.00    -0.502 OA
ATOM     20  H   UNL     1      12.187  22.448  27.702  1.00  0.00     0.293 HD
ENDBRANCH  15  19
BRANCH  16  21
ATOM     21  O   UNL     1      10.908  20.618  29.445  1.00  0.00    -0.504 OA
ATOM     22  H   UNL     1      10.368  19.934  28.927  1.00  0.00     0.293 HD
ENDBRANCH  16  21
ENDBRANCH   1  11
BRANCH  10  23
ATOM     23  O   UNL     1      14.843  19.201  33.519  1.00  0.00    -0.500 OA
ATOM     24  H   UNL     1      14.108  19.427  34.179  1.00  0.00     0.294 HD
ENDBRANCH  10  23
BRANCH   5  25
ATOM     25  O   UNL     1      15.487  12.104  30.429  1.00  0.00    -0.507 OA
ATOM     26  H   UNL     1      15.311  11.195  30.841  1.00  0.00     0.293 HD
ENDBRANCH   5  25
BRANCH   7  27
ATOM     27  O   UNL     1      16.098  14.254  34.678  1.00  0.00    -0.507 OA
ATOM     28  H   UNL     1      15.493  13.893  35.401  1.00  0.00     0.293 HD
ENDBRANCH   7  27
TORSDOF 7
ENDMDL
