MODEL 1
REMARK VINA RESULT:    11.763      0.000      0.000
REMARK INTER + INTRA:          32.367
REMARK INTER:                  31.018
REMARK INTRA:                   1.349
REMARK UNBOUND:                 1.349
REMARK SMILES CCCCCCCCCCCCCCCCCCCCCCCCCCCCCC(=O)[O-]
REMARK SMILES IDX 16 1 17 2 18 3 19 4 20 5 21 6 22 7 23 8 24 9 25 10 26 11
REMARK SMILES IDX 27 12 28 13 29 14 30 15 31 16 32 17 15 18 14 19 13 20 12 21
REMARK SMILES IDX 11 22 10 23 9 24 8 25 7 26 6 27 5 28 4 29 3 30 2 31 1 32
REMARK H PARENT
REMARK Flexibility Score: inf
ROOT
ATOM      1  C   UNL     1      -2.652  34.893  21.787  1.00  0.00     0.000 C 
ENDROOT
BRANCH   1   2
ATOM      2  C   UNL     1      -3.767  34.200  22.596  1.00  0.00     0.000 C 
BRANCH   2   3
ATOM      3  C   UNL     1      -4.924  35.140  23.000  1.00  0.00     0.000 C 
BRANCH   3   4
ATOM      4  C   UNL     1      -5.121  35.213  24.524  1.00  0.00     0.000 C 
BRANCH   4   5
ATOM      5  C   UNL     1      -5.125  36.660  25.046  1.00  0.00     0.000 C 
BRANCH   5   6
ATOM      6  C   UNL     1      -4.457  36.791  26.427  1.00  0.00     0.000 C 
BRANCH   6   7
ATOM      7  C   UNL     1      -3.263  37.759  26.407  1.00  0.00     0.000 C 
BRANCH   7   8
ATOM      8  C   UNL     1      -2.133  37.322  27.356  1.00  0.00     0.000 C 
BRANCH   8   9
ATOM      9  C   UNL     1      -2.123  35.797  27.591  1.00  0.00     0.000 C 
BRANCH   9  10
ATOM     10  C   UNL     1      -1.735  35.387  29.023  1.00  0.00     0.000 C 
BRANCH  10  11
ATOM     11  C   UNL     1      -0.905  34.093  29.070  1.00  0.00     0.000 C 
BRANCH  11  12
ATOM     12  C   UNL     1       0.581  34.328  28.758  1.00  0.00     0.000 C 
BRANCH  12  13
ATOM     13  C   UNL     1       1.514  33.564  29.715  1.00  0.00     0.006 C 
BRANCH  13  14
ATOM     14  C   UNL     1       1.420  32.043  29.526  1.00  0.00     0.053 C 
BRANCH  14  15
ATOM     15  C   UNL     1       2.399  31.310  30.393  1.00  0.00     0.041 C 
ATOM     16  O   UNL     1       2.068  30.226  30.946  1.00  0.00    -0.550 OA
ATOM     17  O   UNL     1       3.685  31.808  30.566  1.00  0.00    -0.550 OA
ENDBRANCH  14  15
ENDBRANCH  13  14
ENDBRANCH  12  13
ENDBRANCH  11  12
ENDBRANCH  10  11
ENDBRANCH   9  10
ENDBRANCH   8   9
ENDBRANCH   7   8
ENDBRANCH   6   7
ENDBRANCH   5   6
ENDBRANCH   4   5
ENDBRANCH   3   4
ENDBRANCH   2   3
ENDBRANCH   1   2
BRANCH   1  18
ATOM     18  C   UNL     1      -3.118  36.073  20.911  1.00  0.00     0.000 C 
BRANCH  18  19
ATOM     19  C   UNL     1      -4.598  36.025  20.473  1.00  0.00     0.000 C 
BRANCH  19  20
ATOM     20  C   UNL     1      -5.073  34.675  19.902  1.00  0.00     0.000 C 
BRANCH  20  21
ATOM     21  C   UNL     1      -5.125  34.661  18.365  1.00  0.00     0.000 C 
BRANCH  21  22
ATOM     22  C   UNL     1      -3.810  34.175  17.730  1.00  0.00     0.000 C 
BRANCH  22  23
ATOM     23  C   UNL     1      -3.538  34.813  16.358  1.00  0.00     0.000 C 
BRANCH  23  24
ATOM     24  C   UNL     1      -2.061  35.199  16.170  1.00  0.00    -0.000 C 
BRANCH  24  25
ATOM     25  C   UNL     1      -1.849  36.202  15.026  1.00  0.00    -0.000 C 
BRANCH  25  26
ATOM     26  C   UNL     1      -3.193  36.632  14.417  1.00  0.00    -0.000 C 
BRANCH  26  27
ATOM     27  C   UNL     1      -3.541  38.098  14.725  1.00  0.00    -0.000 C 
BRANCH  27  28
ATOM     28  C   UNL     1      -3.047  38.543  16.113  1.00  0.00    -0.000 C 
BRANCH  28  29
ATOM     29  C   UNL     1      -3.463  37.572  17.232  1.00  0.00    -0.000 C 
BRANCH  29  30
ATOM     30  C   UNL     1      -2.720  37.763  18.568  1.00  0.00    -0.000 C 
BRANCH  30  31
ATOM     31  C   UNL     1      -1.336  38.429  18.419  1.00  0.00    -0.003 C 
ATOM     32  C   UNL     1      -0.191  37.418  18.494  1.00  0.00     0.004 C 
ENDBRANCH  30  31
ENDBRANCH  29  30
ENDBRANCH  28  29
ENDBRANCH  27  28
ENDBRANCH  26  27
ENDBRANCH  25  26
ENDBRANCH  24  25
ENDBRANCH  23  24
ENDBRANCH  22  23
ENDBRANCH  21  22
ENDBRANCH  20  21
ENDBRANCH  19  20
ENDBRANCH  18  19
ENDBRANCH   1  18
TORSDOF 28
ENDMDL
MODEL 2
REMARK VINA RESULT:    12.344      1.370      3.515
REMARK INTER + INTRA:          33.898
REMARK INTER:                  32.429
REMARK INTRA:                   1.469
REMARK UNBOUND:                 1.349
REMARK SMILES CCCCCCCCCCCCCCCCCCCCCCCCCCCCCC(=O)[O-]
REMARK SMILES IDX 16 1 17 2 18 3 19 4 20 5 21 6 22 7 23 8 24 9 25 10 26 11
REMARK SMILES IDX 27 12 28 13 29 14 30 15 31 16 32 17 15 18 14 19 13 20 12 21
REMARK SMILES IDX 11 22 10 23 9 24 8 25 7 26 6 27 5 28 4 29 3 30 2 31 1 32
REMARK H PARENT
REMARK Flexibility Score: inf
ROOT
ATOM      1  C   UNL     1      -5.123  36.107  24.214  1.00  0.00     0.000 C 
ENDROOT
BRANCH   1   2
ATOM      2  C   UNL     1      -5.005  36.668  25.645  1.00  0.00     0.000 C 
BRANCH   2   3
ATOM      3  C   UNL     1      -4.686  38.177  25.703  1.00  0.00     0.000 C 
BRANCH   3   4
ATOM      4  C   UNL     1      -3.726  38.535  26.851  1.00  0.00     0.000 C 
BRANCH   4   5
ATOM      5  C   UNL     1      -2.288  38.060  26.583  1.00  0.00     0.000 C 
BRANCH   5   6
ATOM      6  C   UNL     1      -1.615  37.477  27.838  1.00  0.00     0.000 C 
BRANCH   6   7
ATOM      7  C   UNL     1      -1.522  35.943  27.790  1.00  0.00     0.000 C 
BRANCH   7   8
ATOM      8  C   UNL     1      -2.098  35.277  29.053  1.00  0.00     0.000 C 
BRANCH   8   9
ATOM      9  C   UNL     1      -1.727  33.782  29.146  1.00  0.00     0.000 C 
BRANCH   9  10
ATOM     10  C   UNL     1      -0.430  33.506  29.927  1.00  0.00     0.000 C 
BRANCH  10  11
ATOM     11  C   UNL     1       0.787  34.246  29.344  1.00  0.00     0.000 C 
BRANCH  11  12
ATOM     12  C   UNL     1       2.073  33.999  30.146  1.00  0.00     0.000 C 
BRANCH  12  13
ATOM     13  C   UNL     1       3.344  34.305  29.333  1.00  0.00     0.006 C 
BRANCH  13  14
ATOM     14  C   UNL     1       4.606  33.720  29.985  1.00  0.00     0.053 C 
BRANCH  14  15
ATOM     15  C   UNL     1       4.272  32.727  31.057  1.00  0.00     0.041 C 
ATOM     16  O   UNL     1       3.935  31.552  30.748  1.00  0.00    -0.550 OA
ATOM     17  O   UNL     1       4.364  33.089  32.395  1.00  0.00    -0.550 OA
ENDBRANCH  14  15
ENDBRANCH  13  14
ENDBRANCH  12  13
ENDBRANCH  11  12
ENDBRANCH  10  11
ENDBRANCH   9  10
ENDBRANCH   8   9
ENDBRANCH   7   8
ENDBRANCH   6   7
ENDBRANCH   5   6
ENDBRANCH   4   5
ENDBRANCH   3   4
ENDBRANCH   2   3
ENDBRANCH   1   2
BRANCH   1  18
ATOM     18  C   UNL     1      -4.982  34.577  24.098  1.00  0.00     0.000 C 
BRANCH  18  19
ATOM     19  C   UNL     1      -4.584  34.056  22.700  1.00  0.00     0.000 C 
BRANCH  19  20
ATOM     20  C   UNL     1      -3.478  34.857  21.988  1.00  0.00     0.000 C 
BRANCH  20  21
ATOM     21  C   UNL     1      -4.017  35.736  20.845  1.00  0.00     0.000 C 
BRANCH  21  22
ATOM     22  C   UNL     1      -4.357  37.164  21.304  1.00  0.00     0.000 C 
BRANCH  22  23
ATOM     23  C   UNL     1      -4.867  38.053  20.158  1.00  0.00     0.000 C 
BRANCH  23  24
ATOM     24  C   UNL     1      -4.988  37.288  18.828  1.00  0.00    -0.000 C 
BRANCH  24  25
ATOM     25  C   UNL     1      -3.738  36.456  18.506  1.00  0.00    -0.000 C 
BRANCH  25  26
ATOM     26  C   UNL     1      -2.462  37.296  18.669  1.00  0.00    -0.000 C 
BRANCH  26  27
ATOM     27  C   UNL     1      -2.029  37.978  17.361  1.00  0.00    -0.000 C 
BRANCH  27  28
ATOM     28  C   UNL     1      -1.248  37.031  16.433  1.00  0.00    -0.000 C 
BRANCH  28  29
ATOM     29  C   UNL     1      -2.136  35.934  15.818  1.00  0.00    -0.000 C 
BRANCH  29  30
ATOM     30  C   UNL     1      -3.592  36.357  15.539  1.00  0.00    -0.000 C 
BRANCH  30  31
ATOM     31  C   UNL     1      -3.799  36.988  14.147  1.00  0.00    -0.003 C 
ATOM     32  C   UNL     1      -4.107  38.484  14.225  1.00  0.00     0.004 C 
ENDBRANCH  30  31
ENDBRANCH  29  30
ENDBRANCH  28  29
ENDBRANCH  27  28
ENDBRANCH  26  27
ENDBRANCH  25  26
ENDBRANCH  24  25
ENDBRANCH  23  24
ENDBRANCH  22  23
ENDBRANCH  21  22
ENDBRANCH  20  21
ENDBRANCH  19  20
ENDBRANCH  18  19
ENDBRANCH   1  18
TORSDOF 28
ENDMDL
MODEL 3
REMARK VINA RESULT:    12.643      3.662     11.240
REMARK INTER + INTRA:          34.688
REMARK INTER:                  34.479
REMARK INTRA:                   0.209
REMARK UNBOUND:                 1.349
REMARK SMILES CCCCCCCCCCCCCCCCCCCCCCCCCCCCCC(=O)[O-]
REMARK SMILES IDX 16 1 17 2 18 3 19 4 20 5 21 6 22 7 23 8 24 9 25 10 26 11
REMARK SMILES IDX 27 12 28 13 29 14 30 15 31 16 32 17 15 18 14 19 13 20 12 21
REMARK SMILES IDX 11 22 10 23 9 24 8 25 7 26 6 27 5 28 4 29 3 30 2 31 1 32
REMARK H PARENT
REMARK Flexibility Score: inf
ROOT
ATOM      1  C   UNL     1      -2.836  34.662  22.182  1.00  0.00     0.000 C 
ENDROOT
BRANCH   1   2
ATOM      2  C   UNL     1      -3.382  35.445  20.971  1.00  0.00     0.000 C 
BRANCH   2   3
ATOM      3  C   UNL     1      -4.718  34.901  20.424  1.00  0.00     0.000 C 
BRANCH   3   4
ATOM      4  C   UNL     1      -4.943  35.262  18.945  1.00  0.00     0.000 C 
BRANCH   4   5
ATOM      5  C   UNL     1      -5.105  34.018  18.055  1.00  0.00     0.000 C 
BRANCH   5   6
ATOM      6  C   UNL     1      -3.884  33.778  17.149  1.00  0.00     0.000 C 
BRANCH   6   7
ATOM      7  C   UNL     1      -3.459  35.049  16.395  1.00  0.00     0.000 C 
BRANCH   7   8
ATOM      8  C   UNL     1      -1.944  35.305  16.478  1.00  0.00     0.000 C 
BRANCH   8   9
ATOM      9  C   UNL     1      -1.467  36.334  15.431  1.00  0.00     0.000 C 
BRANCH   9  10
ATOM     10  C   UNL     1      -2.601  37.177  14.820  1.00  0.00     0.000 C 
BRANCH  10  11
ATOM     11  C   UNL     1      -3.573  37.726  15.878  1.00  0.00     0.000 C 
BRANCH  11  12
ATOM     12  C   UNL     1      -2.854  38.413  17.048  1.00  0.00     0.000 C 
BRANCH  12  13
ATOM     13  C   UNL     1      -3.350  37.919  18.419  1.00  0.00     0.006 C 
BRANCH  13  14
ATOM     14  C   UNL     1      -2.196  37.681  19.404  1.00  0.00     0.053 C 
BRANCH  14  15
ATOM     15  C   UNL     1      -0.876  38.095  18.828  1.00  0.00     0.041 C 
ATOM     16  O   UNL     1      -0.562  39.316  18.777  1.00  0.00    -0.550 OA
ATOM     17  O   UNL     1       0.020  37.133  18.377  1.00  0.00    -0.550 OA
ENDBRANCH  14  15
ENDBRANCH  13  14
ENDBRANCH  12  13
ENDBRANCH  11  12
ENDBRANCH  10  11
ENDBRANCH   9  10
ENDBRANCH   8   9
ENDBRANCH   7   8
ENDBRANCH   6   7
ENDBRANCH   5   6
ENDBRANCH   4   5
ENDBRANCH   3   4
ENDBRANCH   2   3
ENDBRANCH   1   2
BRANCH   1  18
ATOM     18  C   UNL     1      -3.863  34.385  23.297  1.00  0.00     0.000 C 
BRANCH  18  19
ATOM     19  C   UNL     1      -5.125  35.275  23.267  1.00  0.00     0.000 C 
BRANCH  19  20
ATOM     20  C   UNL     1      -4.958  36.675  23.886  1.00  0.00     0.000 C 
BRANCH  20  21
ATOM     21  C   UNL     1      -5.066  36.667  25.421  1.00  0.00     0.000 C 
BRANCH  21  22
ATOM     22  C   UNL     1      -4.457  37.924  26.067  1.00  0.00     0.000 C 
BRANCH  22  23
ATOM     23  C   UNL     1      -3.049  37.679  26.636  1.00  0.00     0.000 C 
BRANCH  23  24
ATOM     24  C   UNL     1      -2.826  36.213  27.043  1.00  0.00    -0.000 C 
BRANCH  24  25
ATOM     25  C   UNL     1      -1.754  36.055  28.132  1.00  0.00    -0.000 C 
BRANCH  25  26
ATOM     26  C   UNL     1      -1.832  34.665  28.783  1.00  0.00    -0.000 C 
BRANCH  26  27
ATOM     27  C   UNL     1      -0.581  34.326  29.609  1.00  0.00    -0.000 C 
BRANCH  27  28
ATOM     28  C   UNL     1      -0.616  32.894  30.171  1.00  0.00    -0.000 C 
BRANCH  28  29
ATOM     29  C   UNL     1       0.750  32.188  30.089  1.00  0.00    -0.000 C 
BRANCH  29  30
ATOM     30  C   UNL     1       1.802  32.908  29.223  1.00  0.00    -0.000 C 
BRANCH  30  31
ATOM     31  C   UNL     1       2.997  33.460  30.029  1.00  0.00    -0.003 C 
ATOM     32  C   UNL     1       3.113  34.982  29.931  1.00  0.00     0.004 C 
ENDBRANCH  30  31
ENDBRANCH  29  30
ENDBRANCH  28  29
ENDBRANCH  27  28
ENDBRANCH  26  27
ENDBRANCH  25  26
ENDBRANCH  24  25
ENDBRANCH  23  24
ENDBRANCH  22  23
ENDBRANCH  21  22
ENDBRANCH  20  21
ENDBRANCH  19  20
ENDBRANCH  18  19
ENDBRANCH   1  18
TORSDOF 28
ENDMDL
MODEL 4
REMARK VINA RESULT:    12.674      1.945      3.338
REMARK INTER + INTRA:          34.768
REMARK INTER:                  36.611
REMARK INTRA:                  -1.843
REMARK UNBOUND:                 1.349
REMARK SMILES CCCCCCCCCCCCCCCCCCCCCCCCCCCCCC(=O)[O-]
REMARK SMILES IDX 16 1 17 2 18 3 19 4 20 5 21 6 22 7 23 8 24 9 25 10 26 11
REMARK SMILES IDX 27 12 28 13 29 14 30 15 31 16 32 17 15 18 14 19 13 20 12 21
REMARK SMILES IDX 11 22 10 23 9 24 8 25 7 26 6 27 5 28 4 29 3 30 2 31 1 32
REMARK H PARENT
REMARK Flexibility Score: inf
ROOT
ATOM      1  C   UNL     1      -3.764  34.910  23.636  1.00  0.00     0.000 C 
ENDROOT
BRANCH   1   2
ATOM      2  C   UNL     1      -5.125  35.544  23.989  1.00  0.00     0.000 C 
BRANCH   2   3
ATOM      3  C   UNL     1      -5.119  36.344  25.309  1.00  0.00     0.000 C 
BRANCH   3   4
ATOM      4  C   UNL     1      -4.644  37.796  25.118  1.00  0.00     0.000 C 
BRANCH   4   5
ATOM      5  C   UNL     1      -3.544  38.190  26.117  1.00  0.00     0.000 C 
BRANCH   5   6
ATOM      6  C   UNL     1      -3.036  36.992  26.938  1.00  0.00     0.000 C 
BRANCH   6   7
ATOM      7  C   UNL     1      -1.929  37.392  27.928  1.00  0.00     0.000 C 
BRANCH   7   8
ATOM      8  C   UNL     1      -0.954  36.238  28.221  1.00  0.00     0.000 C 
BRANCH   8   9
ATOM      9  C   UNL     1      -1.686  34.942  28.627  1.00  0.00     0.000 C 
BRANCH   9  10
ATOM     10  C   UNL     1      -0.872  34.029  29.561  1.00  0.00     0.000 C 
BRANCH  10  11
ATOM     11  C   UNL     1       0.565  33.794  29.063  1.00  0.00     0.000 C 
BRANCH  11  12
ATOM     12  C   UNL     1       1.626  34.349  30.025  1.00  0.00     0.000 C 
BRANCH  12  13
ATOM     13  C   UNL     1       3.062  34.053  29.555  1.00  0.00     0.006 C 
BRANCH  13  14
ATOM     14  C   UNL     1       3.729  35.279  28.916  1.00  0.00     0.053 C 
BRANCH  14  15
ATOM     15  C   UNL     1       4.010  35.067  27.459  1.00  0.00     0.041 C 
ATOM     16  O   UNL     1       3.058  34.959  26.639  1.00  0.00    -0.550 OA
ATOM     17  O   UNL     1       5.322  35.020  27.002  1.00  0.00    -0.550 OA
ENDBRANCH  14  15
ENDBRANCH  13  14
ENDBRANCH  12  13
ENDBRANCH  11  12
ENDBRANCH  10  11
ENDBRANCH   9  10
ENDBRANCH   8   9
ENDBRANCH   7   8
ENDBRANCH   6   7
ENDBRANCH   5   6
ENDBRANCH   4   5
ENDBRANCH   3   4
ENDBRANCH   2   3
ENDBRANCH   1   2
BRANCH   1  18
ATOM     18  C   UNL     1      -3.544  34.630  22.136  1.00  0.00     0.000 C 
BRANCH  18  19
ATOM     19  C   UNL     1      -4.741  34.965  21.220  1.00  0.00     0.000 C 
BRANCH  19  20
ATOM     20  C   UNL     1      -4.665  36.329  20.509  1.00  0.00     0.000 C 
BRANCH  20  21
ATOM     21  C   UNL     1      -4.369  36.203  19.005  1.00  0.00     0.000 C 
BRANCH  21  22
ATOM     22  C   UNL     1      -3.701  37.461  18.423  1.00  0.00     0.000 C 
BRANCH  22  23
ATOM     23  C   UNL     1      -2.758  38.152  19.423  1.00  0.00     0.000 C 
BRANCH  23  24
ATOM     24  C   UNL     1      -1.307  38.215  18.916  1.00  0.00    -0.000 C 
BRANCH  24  25
ATOM     25  C   UNL     1      -0.953  37.050  17.980  1.00  0.00    -0.000 C 
BRANCH  25  26
ATOM     26  C   UNL     1      -1.405  37.345  16.541  1.00  0.00    -0.000 C 
BRANCH  26  27
ATOM     27  C   UNL     1      -1.712  36.068  15.741  1.00  0.00    -0.000 C 
BRANCH  27  28
ATOM     28  C   UNL     1      -2.617  36.336  14.526  1.00  0.00    -0.000 C 
BRANCH  28  29
ATOM     29  C   UNL     1      -4.023  36.819  14.926  1.00  0.00    -0.000 C 
BRANCH  29  30
ATOM     30  C   UNL     1      -4.734  37.693  13.875  1.00  0.00    -0.000 C 
BRANCH  30  31
ATOM     31  C   UNL     1      -4.272  39.165  13.876  1.00  0.00    -0.003 C 
ATOM     32  C   UNL     1      -4.608  39.881  15.185  1.00  0.00     0.004 C 
ENDBRANCH  30  31
ENDBRANCH  29  30
ENDBRANCH  28  29
ENDBRANCH  27  28
ENDBRANCH  26  27
ENDBRANCH  25  26
ENDBRANCH  24  25
ENDBRANCH  23  24
ENDBRANCH  22  23
ENDBRANCH  21  22
ENDBRANCH  20  21
ENDBRANCH  19  20
ENDBRANCH  18  19
ENDBRANCH   1  18
TORSDOF 28
ENDMDL
MODEL 5
REMARK VINA RESULT:    12.946      1.987      4.608
REMARK INTER + INTRA:          35.485
REMARK INTER:                  33.893
REMARK INTRA:                   1.593
REMARK UNBOUND:                 1.349
REMARK SMILES CCCCCCCCCCCCCCCCCCCCCCCCCCCCCC(=O)[O-]
REMARK SMILES IDX 16 1 17 2 18 3 19 4 20 5 21 6 22 7 23 8 24 9 25 10 26 11
REMARK SMILES IDX 27 12 28 13 29 14 30 15 31 16 32 17 15 18 14 19 13 20 12 21
REMARK SMILES IDX 11 22 10 23 9 24 8 25 7 26 6 27 5 28 4 29 3 30 2 31 1 32
REMARK H PARENT
REMARK Flexibility Score: inf
ROOT
ATOM      1  C   UNL     1      -0.094  37.275  19.225  1.00  0.00     0.000 C 
ENDROOT
BRANCH   1   2
ATOM      2  C   UNL     1      -0.826  38.076  20.321  1.00  0.00     0.000 C 
BRANCH   2   3
ATOM      3  C   UNL     1      -2.250  37.562  20.626  1.00  0.00     0.000 C 
BRANCH   3   4
ATOM      4  C   UNL     1      -3.306  38.681  20.574  1.00  0.00     0.000 C 
BRANCH   4   5
ATOM      5  C   UNL     1      -4.399  38.506  21.640  1.00  0.00     0.000 C 
BRANCH   5   6
ATOM      6  C   UNL     1      -4.935  39.850  22.163  1.00  0.00     0.000 C 
BRANCH   6   7
ATOM      7  C   UNL     1      -5.081  39.863  23.694  1.00  0.00     0.000 C 
BRANCH   7   8
ATOM      8  C   UNL     1      -4.245  38.766  24.376  1.00  0.00     0.000 C 
BRANCH   8   9
ATOM      9  C   UNL     1      -5.125  37.713  25.082  1.00  0.00     0.000 C 
BRANCH   9  10
ATOM     10  C   UNL     1      -4.533  37.186  26.402  1.00  0.00     0.000 C 
BRANCH  10  11
ATOM     11  C   UNL     1      -3.118  37.721  26.678  1.00  0.00     0.000 C 
BRANCH  11  12
ATOM     12  C   UNL     1      -2.075  36.602  26.815  1.00  0.00     0.000 C 
BRANCH  12  13
ATOM     13  C   UNL     1      -1.761  36.263  28.284  1.00  0.00     0.006 C 
BRANCH  13  14
ATOM     14  C   UNL     1      -0.833  35.048  28.415  1.00  0.00     0.053 C 
BRANCH  14  15
ATOM     15  C   UNL     1      -1.249  34.144  29.537  1.00  0.00     0.041 C 
ATOM     16  O   UNL     1      -0.626  33.068  29.747  1.00  0.00    -0.550 OA
ATOM     17  O   UNL     1      -2.302  34.505  30.368  1.00  0.00    -0.550 OA
ENDBRANCH  14  15
ENDBRANCH  13  14
ENDBRANCH  12  13
ENDBRANCH  11  12
ENDBRANCH  10  11
ENDBRANCH   9  10
ENDBRANCH   8   9
ENDBRANCH   7   8
ENDBRANCH   6   7
ENDBRANCH   5   6
ENDBRANCH   4   5
ENDBRANCH   3   4
ENDBRANCH   2   3
ENDBRANCH   1   2
BRANCH   1  18
ATOM     18  C   UNL     1      -0.914  37.020  17.945  1.00  0.00     0.000 C 
BRANCH  18  19
ATOM     19  C   UNL     1      -1.772  38.211  17.464  1.00  0.00     0.000 C 
BRANCH  19  20
ATOM     20  C   UNL     1      -3.135  37.836  16.852  1.00  0.00     0.000 C 
BRANCH  20  21
ATOM     21  C   UNL     1      -3.087  37.702  15.320  1.00  0.00     0.000 C 
BRANCH  21  22
ATOM     22  C   UNL     1      -1.923  36.819  14.837  1.00  0.00     0.000 C 
BRANCH  22  23
ATOM     23  C   UNL     1      -2.077  35.347  15.256  1.00  0.00     0.000 C 
BRANCH  23  24
ATOM     24  C   UNL     1      -2.436  35.194  16.745  1.00  0.00    -0.000 C 
BRANCH  24  25
ATOM     25  C   UNL     1      -3.639  34.266  16.973  1.00  0.00    -0.000 C 
BRANCH  25  26
ATOM     26  C   UNL     1      -4.924  35.078  17.198  1.00  0.00    -0.000 C 
BRANCH  26  27
ATOM     27  C   UNL     1      -4.857  35.960  18.456  1.00  0.00    -0.000 C 
BRANCH  27  28
ATOM     28  C   UNL     1      -5.082  35.158  19.750  1.00  0.00    -0.000 C 
BRANCH  28  29
ATOM     29  C   UNL     1      -4.683  35.942  21.013  1.00  0.00    -0.000 C 
BRANCH  29  30
ATOM     30  C   UNL     1      -5.118  35.298  22.343  1.00  0.00    -0.000 C 
BRANCH  30  31
ATOM     31  C   UNL     1      -3.962  34.635  23.120  1.00  0.00    -0.003 C 
ATOM     32  C   UNL     1      -3.739  33.179  22.705  1.00  0.00     0.004 C 
ENDBRANCH  30  31
ENDBRANCH  29  30
ENDBRANCH  28  29
ENDBRANCH  27  28
ENDBRANCH  26  27
ENDBRANCH  25  26
ENDBRANCH  24  25
ENDBRANCH  23  24
ENDBRANCH  22  23
ENDBRANCH  21  22
ENDBRANCH  20  21
ENDBRANCH  19  20
ENDBRANCH  18  19
ENDBRANCH   1  18
TORSDOF 28
ENDMDL
MODEL 6
REMARK VINA RESULT:    13.073      2.191      4.029
REMARK INTER + INTRA:          35.821
REMARK INTER:                  36.704
REMARK INTRA:                  -0.883
REMARK UNBOUND:                 1.349
REMARK SMILES CCCCCCCCCCCCCCCCCCCCCCCCCCCCCC(=O)[O-]
REMARK SMILES IDX 16 1 17 2 18 3 19 4 20 5 21 6 22 7 23 8 24 9 25 10 26 11
REMARK SMILES IDX 27 12 28 13 29 14 30 15 31 16 32 17 15 18 14 19 13 20 12 21
REMARK SMILES IDX 11 22 10 23 9 24 8 25 7 26 6 27 5 28 4 29 3 30 2 31 1 32
REMARK H PARENT
REMARK Flexibility Score: inf
ROOT
ATOM      1  C   UNL     1      -4.408  36.898  20.403  1.00  0.00     0.000 C 
ENDROOT
BRANCH   1   2
ATOM      2  C   UNL     1      -5.005  38.251  19.967  1.00  0.00     0.000 C 
BRANCH   2   3
ATOM      3  C   UNL     1      -4.428  39.464  20.728  1.00  0.00     0.000 C 
BRANCH   3   4
ATOM      4  C   UNL     1      -4.928  39.542  22.181  1.00  0.00     0.000 C 
BRANCH   4   5
ATOM      5  C   UNL     1      -4.571  40.879  22.853  1.00  0.00     0.000 C 
BRANCH   5   6
ATOM      6  C   UNL     1      -4.316  40.731  24.363  1.00  0.00     0.000 C 
BRANCH   6   7
ATOM      7  C   UNL     1      -5.121  39.574  24.979  1.00  0.00     0.000 C 
BRANCH   7   8
ATOM      8  C   UNL     1      -4.413  38.216  24.827  1.00  0.00     0.000 C 
BRANCH   8   9
ATOM      9  C   UNL     1      -4.476  37.376  26.120  1.00  0.00     0.000 C 
BRANCH   9  10
ATOM     10  C   UNL     1      -3.270  36.440  26.317  1.00  0.00     0.000 C 
BRANCH  10  11
ATOM     11  C   UNL     1      -1.990  37.192  26.718  1.00  0.00     0.000 C 
BRANCH  11  12
ATOM     12  C   UNL     1      -1.488  36.809  28.118  1.00  0.00     0.000 C 
BRANCH  12  13
ATOM     13  C   UNL     1      -1.693  35.315  28.431  1.00  0.00     0.006 C 
BRANCH  13  14
ATOM     14  C   UNL     1      -0.807  34.838  29.591  1.00  0.00     0.053 C 
BRANCH  14  15
ATOM     15  C   UNL     1      -1.314  33.563  30.194  1.00  0.00     0.041 C 
ATOM     16  O   UNL     1      -2.352  33.570  30.910  1.00  0.00    -0.550 OA
ATOM     17  O   UNL     1      -0.661  32.363  29.939  1.00  0.00    -0.550 OA
ENDBRANCH  14  15
ENDBRANCH  13  14
ENDBRANCH  12  13
ENDBRANCH  11  12
ENDBRANCH  10  11
ENDBRANCH   9  10
ENDBRANCH   8   9
ENDBRANCH   7   8
ENDBRANCH   6   7
ENDBRANCH   5   6
ENDBRANCH   4   5
ENDBRANCH   3   4
ENDBRANCH   2   3
ENDBRANCH   1   2
BRANCH   1  18
ATOM     18  C   UNL     1      -5.119  36.224  21.593  1.00  0.00     0.000 C 
BRANCH  18  19
ATOM     19  C   UNL     1      -4.276  35.183  22.360  1.00  0.00     0.000 C 
BRANCH  19  20
ATOM     20  C   UNL     1      -3.428  34.244  21.481  1.00  0.00     0.000 C 
BRANCH  20  21
ATOM     21  C   UNL     1      -1.923  34.336  21.787  1.00  0.00     0.000 C 
BRANCH  21  22
ATOM     22  C   UNL     1      -1.385  35.774  21.697  1.00  0.00     0.000 C 
BRANCH  22  23
ATOM     23  C   UNL     1      -1.440  36.344  20.270  1.00  0.00     0.000 C 
BRANCH  23  24
ATOM     24  C   UNL     1      -0.532  37.573  20.091  1.00  0.00    -0.000 C 
BRANCH  24  25
ATOM     25  C   UNL     1      -0.799  38.324  18.778  1.00  0.00    -0.000 C 
BRANCH  25  26
ATOM     26  C   UNL     1      -2.031  37.751  18.059  1.00  0.00    -0.000 C 
BRANCH  26  27
ATOM     27  C   UNL     1      -1.800  37.557  16.551  1.00  0.00    -0.000 C 
BRANCH  27  28
ATOM     28  C   UNL     1      -2.175  36.143  16.074  1.00  0.00    -0.000 C 
BRANCH  28  29
ATOM     29  C   UNL     1      -3.662  35.814  16.300  1.00  0.00    -0.000 C 
BRANCH  29  30
ATOM     30  C   UNL     1      -4.126  35.873  17.768  1.00  0.00    -0.000 C 
BRANCH  30  31
ATOM     31  C   UNL     1      -5.125  34.761  18.149  1.00  0.00    -0.003 C 
ATOM     32  C   UNL     1      -4.526  33.362  17.995  1.00  0.00     0.004 C 
ENDBRANCH  30  31
ENDBRANCH  29  30
ENDBRANCH  28  29
ENDBRANCH  27  28
ENDBRANCH  26  27
ENDBRANCH  25  26
ENDBRANCH  24  25
ENDBRANCH  23  24
ENDBRANCH  22  23
ENDBRANCH  21  22
ENDBRANCH  20  21
ENDBRANCH  19  20
ENDBRANCH  18  19
ENDBRANCH   1  18
TORSDOF 28
ENDMDL
