MODEL 1
REMARK VINA RESULT:    -4.731      0.000      0.000
REMARK INTER + INTRA:          -9.929
REMARK INTER:                  -8.049
REMARK INTRA:                  -1.879
REMARK UNBOUND:                -1.879
REMARK SMILES CCCCCCCCCCCCCC(=O)[O-]
REMARK SMILES IDX 8 1 9 2 10 3 11 4 12 5 13 6 14 7 15 8 16 9 7 10 6 11 5 12
REMARK SMILES IDX 4 13 3 14 2 15 1 16
REMARK H PARENT
REMARK Flexibility Score: inf
ROOT
ATOM      1  C   UNL     1     120.891 176.570 128.867  1.00  0.00     0.000 C 
ENDROOT
BRANCH   1   2
ATOM      2  C   UNL     1     119.523 177.165 128.479  1.00  0.00     0.000 C 
BRANCH   2   3
ATOM      3  C   UNL     1     119.459 177.790 127.071  1.00  0.00     0.000 C 
BRANCH   3   4
ATOM      4  C   UNL     1     119.540 179.328 127.035  1.00  0.00     0.000 C 
BRANCH   4   5
ATOM      5  C   UNL     1     119.121 179.917 125.677  1.00  0.00     0.006 C 
BRANCH   5   6
ATOM      6  C   UNL     1     120.314 180.088 124.728  1.00  0.00     0.053 C 
BRANCH   6   7
ATOM      7  C   UNL     1     120.140 179.302 123.465  1.00  0.00     0.041 C 
ATOM      8  O   UNL     1     121.146 178.927 122.808  1.00  0.00    -0.550 OA
ATOM      9  O   UNL     1     118.864 179.007 122.997  1.00  0.00    -0.550 OA
ENDBRANCH   6   7
ENDBRANCH   5   6
ENDBRANCH   4   5
ENDBRANCH   3   4
ENDBRANCH   2   3
ENDBRANCH   1   2
BRANCH   1  10
ATOM     10  C   UNL     1     121.618 177.300 130.015  1.00  0.00     0.000 C 
BRANCH  10  11
ATOM     11  C   UNL     1     122.009 178.759 129.717  1.00  0.00    -0.000 C 
BRANCH  11  12
ATOM     12  C   UNL     1     123.531 178.960 129.620  1.00  0.00    -0.000 C 
BRANCH  12  13
ATOM     13  C   UNL     1     124.080 178.640 128.219  1.00  0.00    -0.000 C 
BRANCH  13  14
ATOM     14  C   UNL     1     123.221 179.251 127.096  1.00  0.00    -0.000 C 
BRANCH  14  15
ATOM     15  C   UNL     1     123.360 178.489 125.769  1.00  0.00    -0.003 C 
ATOM     16  C   UNL     1     122.892 177.037 125.867  1.00  0.00     0.004 C 
ENDBRANCH  14  15
ENDBRANCH  13  14
ENDBRANCH  12  13
ENDBRANCH  11  12
ENDBRANCH  10  11
ENDBRANCH   1  10
TORSDOF 12
ENDMDL
MODEL 2
REMARK VINA RESULT:    -4.677      1.538      3.509
REMARK INTER + INTRA:          -9.837
REMARK INTER:                  -8.672
REMARK INTRA:                  -1.165
REMARK UNBOUND:                -1.879
REMARK SMILES CCCCCCCCCCCCCC(=O)[O-]
REMARK SMILES IDX 8 1 9 2 10 3 11 4 12 5 13 6 14 7 15 8 16 9 7 10 6 11 5 12
REMARK SMILES IDX 4 13 3 14 2 15 1 16
REMARK H PARENT
REMARK Flexibility Score: inf
ROOT
ATOM      1  C   UNL     1     123.408 178.395 127.501  1.00  0.00     0.000 C 
ENDROOT
BRANCH   1   2
ATOM      2  C   UNL     1     122.640 179.434 126.661  1.00  0.00     0.000 C 
BRANCH   2   3
ATOM      3  C   UNL     1     121.292 178.947 126.093  1.00  0.00     0.000 C 
BRANCH   3   4
ATOM      4  C   UNL     1     120.343 180.063 125.619  1.00  0.00     0.000 C 
BRANCH   4   5
ATOM      5  C   UNL     1     119.018 180.092 126.400  1.00  0.00     0.006 C 
BRANCH   5   6
ATOM      6  C   UNL     1     117.798 180.125 125.470  1.00  0.00     0.053 C 
BRANCH   6   7
ATOM      7  C   UNL     1     117.657 178.854 124.689  1.00  0.00     0.041 C 
ATOM      8  O   UNL     1     117.527 178.890 123.437  1.00  0.00    -0.550 OA
ATOM      9  O   UNL     1     117.642 177.630 125.347  1.00  0.00    -0.550 OA
ENDBRANCH   6   7
ENDBRANCH   5   6
ENDBRANCH   4   5
ENDBRANCH   3   4
ENDBRANCH   2   3
ENDBRANCH   1   2
BRANCH   1  10
ATOM     10  C   UNL     1     123.635 178.787 128.975  1.00  0.00     0.000 C 
BRANCH  10  11
ATOM     11  C   UNL     1     122.375 178.767 129.859  1.00  0.00    -0.000 C 
BRANCH  11  12
ATOM     12  C   UNL     1     122.244 177.474 130.682  1.00  0.00    -0.000 C 
BRANCH  12  13
ATOM     13  C   UNL     1     121.352 176.426 129.995  1.00  0.00    -0.000 C 
BRANCH  13  14
ATOM     14  C   UNL     1     119.996 176.251 130.703  1.00  0.00    -0.000 C 
BRANCH  14  15
ATOM     15  C   UNL     1     118.807 176.380 129.736  1.00  0.00    -0.003 C 
ATOM     16  C   UNL     1     119.241 176.671 128.299  1.00  0.00     0.004 C 
ENDBRANCH  14  15
ENDBRANCH  13  14
ENDBRANCH  12  13
ENDBRANCH  11  12
ENDBRANCH  10  11
ENDBRANCH   1  10
TORSDOF 12
ENDMDL
MODEL 3
REMARK VINA RESULT:    -4.575      1.590      3.556
REMARK INTER + INTRA:          -9.665
REMARK INTER:                  -7.949
REMARK INTRA:                  -1.716
REMARK UNBOUND:                -1.879
REMARK SMILES CCCCCCCCCCCCCC(=O)[O-]
REMARK SMILES IDX 8 1 9 2 10 3 11 4 12 5 13 6 14 7 15 8 16 9 7 10 6 11 5 12
REMARK SMILES IDX 4 13 3 14 2 15 1 16
REMARK H PARENT
REMARK Flexibility Score: inf
ROOT
ATOM      1  C   UNL     1     122.715 178.743 130.342  1.00  0.00     0.000 C 
ENDROOT
BRANCH   1   2
ATOM      2  C   UNL     1     122.266 178.983 128.887  1.00  0.00     0.000 C 
BRANCH   2   3
ATOM      3  C   UNL     1     123.348 178.725 127.819  1.00  0.00     0.000 C 
BRANCH   3   4
ATOM      4  C   UNL     1     122.878 178.893 126.362  1.00  0.00     0.000 C 
BRANCH   4   5
ATOM      5  C   UNL     1     121.598 179.737 126.240  1.00  0.00     0.006 C 
BRANCH   5   6
ATOM      6  C   UNL     1     120.744 179.323 125.035  1.00  0.00     0.053 C 
BRANCH   6   7
ATOM      7  C   UNL     1     119.281 179.520 125.294  1.00  0.00     0.041 C 
ATOM      8  O   UNL     1     118.440 179.282 124.388  1.00  0.00    -0.550 OA
ATOM      9  O   UNL     1     118.849 179.995 126.527  1.00  0.00    -0.550 OA
ENDBRANCH   6   7
ENDBRANCH   5   6
ENDBRANCH   4   5
ENDBRANCH   3   4
ENDBRANCH   2   3
ENDBRANCH   1   2
BRANCH   1  10
ATOM     10  C   UNL     1     121.870 177.719 131.125  1.00  0.00     0.000 C 
BRANCH  10  11
ATOM     11  C   UNL     1     121.367 176.520 130.301  1.00  0.00    -0.000 C 
BRANCH  11  12
ATOM     12  C   UNL     1     119.992 176.010 130.767  1.00  0.00    -0.000 C 
BRANCH  12  13
ATOM     13  C   UNL     1     118.950 176.008 129.636  1.00  0.00    -0.000 C 
BRANCH  13  14
ATOM     14  C   UNL     1     119.253 177.058 128.552  1.00  0.00    -0.000 C 
BRANCH  14  15
ATOM     15  C   UNL     1     119.263 176.458 127.137  1.00  0.00    -0.003 C 
ATOM     16  C   UNL     1     120.615 175.852 126.760  1.00  0.00     0.004 C 
ENDBRANCH  14  15
ENDBRANCH  13  14
ENDBRANCH  12  13
ENDBRANCH  11  12
ENDBRANCH  10  11
ENDBRANCH   1  10
TORSDOF 12
ENDMDL
MODEL 4
REMARK VINA RESULT:    -4.533      1.869      3.996
REMARK INTER + INTRA:          -9.592
REMARK INTER:                  -7.831
REMARK INTRA:                  -1.761
REMARK UNBOUND:                -1.879
REMARK SMILES CCCCCCCCCCCCCC(=O)[O-]
REMARK SMILES IDX 8 1 9 2 10 3 11 4 12 5 13 6 14 7 15 8 16 9 7 10 6 11 5 12
REMARK SMILES IDX 4 13 3 14 2 15 1 16
REMARK H PARENT
REMARK Flexibility Score: inf
ROOT
ATOM      1  C   UNL     1     119.311 177.167 126.605  1.00  0.00     0.000 C 
ENDROOT
BRANCH   1   2
ATOM      2  C   UNL     1     119.056 178.639 126.985  1.00  0.00     0.000 C 
BRANCH   2   3
ATOM      3  C   UNL     1     120.278 179.569 126.850  1.00  0.00     0.000 C 
BRANCH   3   4
ATOM      4  C   UNL     1     121.448 179.249 127.799  1.00  0.00     0.000 C 
BRANCH   4   5
ATOM      5  C   UNL     1     122.787 179.083 127.060  1.00  0.00     0.006 C 
BRANCH   5   6
ATOM      6  C   UNL     1     122.944 177.682 126.455  1.00  0.00     0.053 C 
BRANCH   6   7
ATOM      7  C   UNL     1     123.102 177.731 124.965  1.00  0.00     0.041 C 
ATOM      8  O   UNL     1     122.096 177.895 124.227  1.00  0.00    -0.550 OA
ATOM      9  O   UNL     1     124.358 177.568 124.392  1.00  0.00    -0.550 OA
ENDBRANCH   6   7
ENDBRANCH   5   6
ENDBRANCH   4   5
ENDBRANCH   3   4
ENDBRANCH   2   3
ENDBRANCH   1   2
BRANCH   1  10
ATOM     10  C   UNL     1     119.125 176.155 127.754  1.00  0.00     0.000 C 
BRANCH  10  11
ATOM     11  C   UNL     1     119.015 176.775 129.159  1.00  0.00    -0.000 C 
BRANCH  11  12
ATOM     12  C   UNL     1     119.081 175.724 130.281  1.00  0.00    -0.000 C 
BRANCH  12  13
ATOM     13  C   UNL     1     120.364 175.841 131.122  1.00  0.00    -0.000 C 
BRANCH  13  14
ATOM     14  C   UNL     1     121.309 176.942 130.607  1.00  0.00    -0.000 C 
BRANCH  14  15
ATOM     15  C   UNL     1     122.584 176.370 129.968  1.00  0.00    -0.003 C 
ATOM     16  C   UNL     1     123.837 177.171 130.325  1.00  0.00     0.004 C 
ENDBRANCH  14  15
ENDBRANCH  13  14
ENDBRANCH  12  13
ENDBRANCH  11  12
ENDBRANCH  10  11
ENDBRANCH   1  10
TORSDOF 12
ENDMDL
MODEL 5
REMARK VINA RESULT:    -4.526      1.724      3.910
REMARK INTER + INTRA:          -9.580
REMARK INTER:                  -7.611
REMARK INTRA:                  -1.969
REMARK UNBOUND:                -1.879
REMARK SMILES CCCCCCCCCCCCCC(=O)[O-]
REMARK SMILES IDX 8 1 9 2 10 3 11 4 12 5 13 6 14 7 15 8 16 9 7 10 6 11 5 12
REMARK SMILES IDX 4 13 3 14 2 15 1 16
REMARK H PARENT
REMARK Flexibility Score: inf
ROOT
ATOM      1  C   UNL     1     123.677 178.074 126.167  1.00  0.00     0.000 C 
ENDROOT
BRANCH   1   2
ATOM      2  C   UNL     1     123.036 179.383 126.669  1.00  0.00     0.000 C 
BRANCH   2   3
ATOM      3  C   UNL     1     121.566 179.592 126.254  1.00  0.00     0.000 C 
BRANCH   3   4
ATOM      4  C   UNL     1     120.533 179.351 127.370  1.00  0.00     0.000 C 
BRANCH   4   5
ATOM      5  C   UNL     1     119.197 178.803 126.839  1.00  0.00     0.006 C 
BRANCH   5   6
ATOM      6  C   UNL     1     119.241 178.534 125.329  1.00  0.00     0.053 C 
BRANCH   6   7
ATOM      7  C   UNL     1     117.972 178.951 124.651  1.00  0.00     0.041 C 
ATOM      8  O   UNL     1     116.997 179.366 125.331  1.00  0.00    -0.550 OA
ATOM      9  O   UNL     1     117.855 178.854 123.270  1.00  0.00    -0.550 OA
ENDBRANCH   6   7
ENDBRANCH   5   6
ENDBRANCH   4   5
ENDBRANCH   3   4
ENDBRANCH   2   3
ENDBRANCH   1   2
BRANCH   1  10
ATOM     10  C   UNL     1     122.783 177.224 125.242  1.00  0.00     0.000 C 
BRANCH  10  11
ATOM     11  C   UNL     1     123.043 175.707 125.296  1.00  0.00    -0.000 C 
BRANCH  11  12
ATOM     12  C   UNL     1     121.836 174.914 125.825  1.00  0.00    -0.000 C 
BRANCH  12  13
ATOM     13  C   UNL     1     121.170 175.590 127.035  1.00  0.00    -0.000 C 
BRANCH  13  14
ATOM     14  C   UNL     1     121.956 175.368 128.340  1.00  0.00    -0.000 C 
BRANCH  14  15
ATOM     15  C   UNL     1     121.992 176.624 129.226  1.00  0.00    -0.003 C 
ATOM     16  C   UNL     1     123.306 176.769 129.994  1.00  0.00     0.004 C 
ENDBRANCH  14  15
ENDBRANCH  13  14
ENDBRANCH  12  13
ENDBRANCH  11  12
ENDBRANCH  10  11
ENDBRANCH   1  10
TORSDOF 12
ENDMDL
MODEL 6
REMARK VINA RESULT:    -4.517      1.828      3.863
REMARK INTER + INTRA:          -9.565
REMARK INTER:                  -7.841
REMARK INTRA:                  -1.724
REMARK UNBOUND:                -1.879
REMARK SMILES CCCCCCCCCCCCCC(=O)[O-]
REMARK SMILES IDX 8 1 9 2 10 3 11 4 12 5 13 6 14 7 15 8 16 9 7 10 6 11 5 12
REMARK SMILES IDX 4 13 3 14 2 15 1 16
REMARK H PARENT
REMARK Flexibility Score: inf
ROOT
ATOM      1  C   UNL     1     122.601 176.755 130.084  1.00  0.00     0.000 C 
ENDROOT
BRANCH   1   2
ATOM      2  C   UNL     1     123.481 178.019 130.136  1.00  0.00     0.000 C 
BRANCH   2   3
ATOM      3  C   UNL     1     123.448 178.890 128.864  1.00  0.00     0.000 C 
BRANCH   3   4
ATOM      4  C   UNL     1     122.071 178.998 128.183  1.00  0.00     0.000 C 
BRANCH   4   5
ATOM      5  C   UNL     1     122.169 179.364 126.692  1.00  0.00     0.006 C 
BRANCH   5   6
ATOM      6  C   UNL     1     122.706 178.202 125.846  1.00  0.00     0.053 C 
BRANCH   6   7
ATOM      7  C   UNL     1     122.006 178.104 124.524  1.00  0.00     0.041 C 
ATOM      8  O   UNL     1     120.867 178.617 124.372  1.00  0.00    -0.550 OA
ATOM      9  O   UNL     1     122.601 177.423 123.469  1.00  0.00    -0.550 OA
ENDBRANCH   6   7
ENDBRANCH   5   6
ENDBRANCH   4   5
ENDBRANCH   3   4
ENDBRANCH   2   3
ENDBRANCH   1   2
BRANCH   1  10
ATOM     10  C   UNL     1     121.408 176.750 131.061  1.00  0.00     0.000 C 
BRANCH  10  11
ATOM     11  C   UNL     1     120.438 175.565 130.903  1.00  0.00    -0.000 C 
BRANCH  11  12
ATOM     12  C   UNL     1     118.975 176.010 130.736  1.00  0.00    -0.000 C 
BRANCH  12  13
ATOM     13  C   UNL     1     118.483 175.884 129.285  1.00  0.00    -0.000 C 
BRANCH  13  14
ATOM     14  C   UNL     1     119.017 177.011 128.381  1.00  0.00    -0.000 C 
BRANCH  14  15
ATOM     15  C   UNL     1     119.502 176.492 127.019  1.00  0.00    -0.003 C 
ATOM     16  C   UNL     1     120.592 175.428 127.144  1.00  0.00     0.004 C 
ENDBRANCH  14  15
ENDBRANCH  13  14
ENDBRANCH  12  13
ENDBRANCH  11  12
ENDBRANCH  10  11
ENDBRANCH   1  10
TORSDOF 12
ENDMDL
MODEL 7
REMARK VINA RESULT:    -4.511      1.570      3.337
REMARK INTER + INTRA:          -9.555
REMARK INTER:                  -7.875
REMARK INTRA:                  -1.680
REMARK UNBOUND:                -1.879
REMARK SMILES CCCCCCCCCCCCCC(=O)[O-]
REMARK SMILES IDX 8 1 9 2 10 3 11 4 12 5 13 6 14 7 15 8 16 9 7 10 6 11 5 12
REMARK SMILES IDX 4 13 3 14 2 15 1 16
REMARK H PARENT
REMARK Flexibility Score: inf
ROOT
ATOM      1  C   UNL     1     124.022 178.252 126.297  1.00  0.00     0.000 C 
ENDROOT
BRANCH   1   2
ATOM      2  C   UNL     1     123.188 177.746 125.104  1.00  0.00     0.000 C 
BRANCH   2   3
ATOM      3  C   UNL     1     121.663 177.907 125.259  1.00  0.00     0.000 C 
BRANCH   3   4
ATOM      4  C   UNL     1     121.030 179.000 124.376  1.00  0.00     0.000 C 
BRANCH   4   5
ATOM      5  C   UNL     1     120.322 180.092 125.195  1.00  0.00     0.006 C 
BRANCH   5   6
ATOM      6  C   UNL     1     119.363 179.504 126.238  1.00  0.00     0.053 C 
BRANCH   6   7
ATOM      7  C   UNL     1     118.155 178.887 125.600  1.00  0.00     0.041 C 
ATOM      8  O   UNL     1     117.920 177.659 125.745  1.00  0.00    -0.550 OA
ATOM      9  O   UNL     1     117.305 179.663 124.821  1.00  0.00    -0.550 OA
ENDBRANCH   6   7
ENDBRANCH   5   6
ENDBRANCH   4   5
ENDBRANCH   3   4
ENDBRANCH   2   3
ENDBRANCH   1   2
BRANCH   1  10
ATOM     10  C   UNL     1     123.332 179.319 127.170  1.00  0.00     0.000 C 
BRANCH  10  11
ATOM     11  C   UNL     1     123.479 179.116 128.689  1.00  0.00    -0.000 C 
BRANCH  11  12
ATOM     12  C   UNL     1     122.124 179.000 129.409  1.00  0.00    -0.000 C 
BRANCH  12  13
ATOM     13  C   UNL     1     122.117 177.893 130.476  1.00  0.00    -0.000 C 
BRANCH  13  14
ATOM     14  C   UNL     1     121.139 176.753 130.137  1.00  0.00    -0.000 C 
BRANCH  14  15
ATOM     15  C   UNL     1     121.006 176.523 128.623  1.00  0.00    -0.003 C 
ATOM     16  C   UNL     1     121.995 175.484 128.093  1.00  0.00     0.004 C 
ENDBRANCH  14  15
ENDBRANCH  13  14
ENDBRANCH  12  13
ENDBRANCH  11  12
ENDBRANCH  10  11
ENDBRANCH   1  10
TORSDOF 12
ENDMDL
MODEL 8
REMARK VINA RESULT:    -4.503      2.977      5.725
REMARK INTER + INTRA:          -9.541
REMARK INTER:                  -7.808
REMARK INTRA:                  -1.733
REMARK UNBOUND:                -1.879
REMARK SMILES CCCCCCCCCCCCCC(=O)[O-]
REMARK SMILES IDX 8 1 9 2 10 3 11 4 12 5 13 6 14 7 15 8 16 9 7 10 6 11 5 12
REMARK SMILES IDX 4 13 3 14 2 15 1 16
REMARK H PARENT
REMARK Flexibility Score: inf
ROOT
ATOM      1  C   UNL     1     123.359 177.855 125.116  1.00  0.00     0.000 C 
ENDROOT
BRANCH   1   2
ATOM      2  C   UNL     1     123.263 177.898 126.653  1.00  0.00     0.000 C 
BRANCH   2   3
ATOM      3  C   UNL     1     123.433 179.297 127.280  1.00  0.00     0.000 C 
BRANCH   3   4
ATOM      4  C   UNL     1     123.805 179.301 128.774  1.00  0.00     0.000 C 
BRANCH   4   5
ATOM      5  C   UNL     1     122.630 178.901 129.683  1.00  0.00     0.006 C 
BRANCH   5   6
ATOM      6  C   UNL     1     122.961 177.682 130.553  1.00  0.00     0.053 C 
BRANCH   6   7
ATOM      7  C   UNL     1     122.080 176.512 130.235  1.00  0.00     0.041 C 
ATOM      8  O   UNL     1     122.382 175.728 129.298  1.00  0.00    -0.550 OA
ATOM      9  O   UNL     1     120.910 176.305 130.955  1.00  0.00    -0.550 OA
ENDBRANCH   6   7
ENDBRANCH   5   6
ENDBRANCH   4   5
ENDBRANCH   3   4
ENDBRANCH   2   3
ENDBRANCH   1   2
BRANCH   1  10
ATOM     10  C   UNL     1     122.036 177.547 124.387  1.00  0.00     0.000 C 
BRANCH  10  11
ATOM     11  C   UNL     1     121.413 178.736 123.633  1.00  0.00    -0.000 C 
BRANCH  11  12
ATOM     12  C   UNL     1     120.045 179.152 124.200  1.00  0.00    -0.000 C 
BRANCH  12  13
ATOM     13  C   UNL     1     120.165 179.893 125.543  1.00  0.00    -0.000 C 
BRANCH  13  14
ATOM     14  C   UNL     1     119.183 179.358 126.601  1.00  0.00    -0.000 C 
BRANCH  14  15
ATOM     15  C   UNL     1     119.800 178.250 127.469  1.00  0.00    -0.003 C 
ATOM     16  C   UNL     1     119.125 176.893 127.266  1.00  0.00     0.004 C 
ENDBRANCH  14  15
ENDBRANCH  13  14
ENDBRANCH  12  13
ENDBRANCH  11  12
ENDBRANCH  10  11
ENDBRANCH   1  10
TORSDOF 12
ENDMDL
MODEL 9
REMARK VINA RESULT:    -4.442      1.701      3.221
REMARK INTER + INTRA:          -9.438
REMARK INTER:                  -7.800
REMARK INTRA:                  -1.637
REMARK UNBOUND:                -1.879
REMARK SMILES CCCCCCCCCCCCCC(=O)[O-]
REMARK SMILES IDX 8 1 9 2 10 3 11 4 12 5 13 6 14 7 15 8 16 9 7 10 6 11 5 12
REMARK SMILES IDX 4 13 3 14 2 15 1 16
REMARK H PARENT
REMARK Flexibility Score: inf
ROOT
ATOM      1  C   UNL     1     118.866 176.644 127.747  1.00  0.00     0.000 C 
ENDROOT
BRANCH   1   2
ATOM      2  C   UNL     1     120.251 176.310 127.158  1.00  0.00     0.000 C 
BRANCH   2   3
ATOM      3  C   UNL     1     121.090 177.531 126.729  1.00  0.00     0.000 C 
BRANCH   3   4
ATOM      4  C   UNL     1     120.810 178.824 127.518  1.00  0.00     0.000 C 
BRANCH   4   5
ATOM      5  C   UNL     1     119.934 179.820 126.739  1.00  0.00     0.006 C 
BRANCH   5   6
ATOM      6  C   UNL     1     119.927 179.530 125.232  1.00  0.00     0.053 C 
BRANCH   6   7
ATOM      7  C   UNL     1     118.537 179.331 124.709  1.00  0.00     0.041 C 
ATOM      8  O   UNL     1     117.547 179.455 125.476  1.00  0.00    -0.550 OA
ATOM      9  O   UNL     1     118.337 178.979 123.379  1.00  0.00    -0.550 OA
ENDBRANCH   6   7
ENDBRANCH   5   6
ENDBRANCH   4   5
ENDBRANCH   3   4
ENDBRANCH   2   3
ENDBRANCH   1   2
BRANCH   1  10
ATOM     10  C   UNL     1     118.713 176.362 129.255  1.00  0.00     0.000 C 
BRANCH  10  11
ATOM     11  C   UNL     1     119.703 175.332 129.831  1.00  0.00    -0.000 C 
BRANCH  11  12
ATOM     12  C   UNL     1     120.381 175.816 131.124  1.00  0.00    -0.000 C 
BRANCH  12  13
ATOM     13  C   UNL     1     121.384 176.954 130.874  1.00  0.00    -0.000 C 
BRANCH  13  14
ATOM     14  C   UNL     1     122.583 176.506 130.018  1.00  0.00    -0.000 C 
BRANCH  14  15
ATOM     15  C   UNL     1     123.753 177.501 130.077  1.00  0.00    -0.003 C 
ATOM     16  C   UNL     1     123.291 178.950 130.235  1.00  0.00     0.004 C 
ENDBRANCH  14  15
ENDBRANCH  13  14
ENDBRANCH  12  13
ENDBRANCH  11  12
ENDBRANCH  10  11
ENDBRANCH   1  10
TORSDOF 12
ENDMDL
