MODEL 1
REMARK VINA RESULT:    -4.119      0.000      0.000
REMARK INTER + INTRA:          -9.287
REMARK INTER:                  -7.971
REMARK INTRA:                  -1.316
REMARK UNBOUND:                -1.316
REMARK SMILES CCCCCCCCCCCCCCCCCC(=O)[O-]
REMARK SMILES IDX 10 1 11 2 12 3 13 4 14 5 15 6 16 7 17 8 18 9 19 10 20 11
REMARK SMILES IDX 9 12 8 13 7 14 6 15 5 16 4 17 3 18 2 19 1 20
REMARK H PARENT
REMARK Flexibility Score: inf
ROOT
ATOM      1  C   UNL     1     -25.158 -15.479   5.010  1.00  0.00     0.000 C 
ENDROOT
BRANCH   1   2
ATOM      2  C   UNL     1     -26.656 -15.771   4.814  1.00  0.00     0.000 C 
BRANCH   2   3
ATOM      3  C   UNL     1     -27.317 -15.024   3.638  1.00  0.00     0.000 C 
BRANCH   3   4
ATOM      4  C   UNL     1     -28.487 -15.768   2.963  1.00  0.00     0.000 C 
BRANCH   4   5
ATOM      5  C   UNL     1     -29.596 -14.859   2.400  1.00  0.00     0.000 C 
BRANCH   5   6
ATOM      6  C   UNL     1     -29.449 -13.396   2.842  1.00  0.00     0.000 C 
BRANCH   6   7
ATOM      7  C   UNL     1     -29.182 -12.484   1.638  1.00  0.00     0.006 C 
BRANCH   7   8
ATOM      8  C   UNL     1     -29.852 -13.031   0.375  1.00  0.00     0.053 C 
BRANCH   8   9
ATOM      9  C   UNL     1     -30.499 -11.924  -0.397  1.00  0.00     0.041 C 
ATOM     10  O   UNL     1     -29.890 -11.380  -1.355  1.00  0.00    -0.550 OA
ATOM     11  O   UNL     1     -31.795 -11.528  -0.089  1.00  0.00    -0.550 OA
ENDBRANCH   8   9
ENDBRANCH   7   8
ENDBRANCH   6   7
ENDBRANCH   5   6
ENDBRANCH   4   5
ENDBRANCH   3   4
ENDBRANCH   2   3
ENDBRANCH   1   2
BRANCH   1  12
ATOM     12  C   UNL     1     -24.462 -15.040   3.711  1.00  0.00     0.000 C 
BRANCH  12  13
ATOM     13  C   UNL     1     -23.734 -13.704   3.902  1.00  0.00    -0.000 C 
BRANCH  13  14
ATOM     14  C   UNL     1     -24.678 -12.642   4.484  1.00  0.00    -0.000 C 
BRANCH  14  15
ATOM     15  C   UNL     1     -23.941 -11.595   5.337  1.00  0.00    -0.000 C 
BRANCH  15  16
ATOM     16  C   UNL     1     -23.622 -10.311   4.551  1.00  0.00    -0.000 C 
BRANCH  16  17
ATOM     17  C   UNL     1     -22.112 -10.108   4.342  1.00  0.00    -0.000 C 
BRANCH  17  18
ATOM     18  C   UNL     1     -21.266 -11.159   5.083  1.00  0.00    -0.000 C 
BRANCH  18  19
ATOM     19  C   UNL     1     -20.429 -12.022   4.125  1.00  0.00    -0.003 C 
ATOM     20  C   UNL     1     -19.217 -11.280   3.564  1.00  0.00     0.004 C 
ENDBRANCH  18  19
ENDBRANCH  17  18
ENDBRANCH  16  17
ENDBRANCH  15  16
ENDBRANCH  14  15
ENDBRANCH  13  14
ENDBRANCH  12  13
ENDBRANCH   1  12
TORSDOF 16
ENDMDL
MODEL 2
REMARK VINA RESULT:    -4.041      1.617      2.111
REMARK INTER + INTRA:          -9.137
REMARK INTER:                  -6.803
REMARK INTRA:                  -2.334
REMARK UNBOUND:                -1.316
REMARK SMILES CCCCCCCCCCCCCCCCCC(=O)[O-]
REMARK SMILES IDX 10 1 11 2 12 3 13 4 14 5 15 6 16 7 17 8 18 9 19 10 20 11
REMARK SMILES IDX 9 12 8 13 7 14 6 15 5 16 4 17 3 18 2 19 1 20
REMARK H PARENT
REMARK Flexibility Score: inf
ROOT
ATOM      1  C   UNL     1     -23.685 -14.974   3.516  1.00  0.00     0.000 C 
ENDROOT
BRANCH   1   2
ATOM      2  C   UNL     1     -25.067 -15.321   2.933  1.00  0.00     0.000 C 
BRANCH   2   3
ATOM      3  C   UNL     1     -26.013 -16.062   3.900  1.00  0.00     0.000 C 
BRANCH   3   4
ATOM      4  C   UNL     1     -27.427 -15.460   4.023  1.00  0.00     0.000 C 
BRANCH   4   5
ATOM      5  C   UNL     1     -27.605 -14.450   5.173  1.00  0.00     0.000 C 
BRANCH   5   6
ATOM      6  C   UNL     1     -27.972 -13.044   4.679  1.00  0.00     0.000 C 
BRANCH   6   7
ATOM      7  C   UNL     1     -27.806 -12.936   3.158  1.00  0.00     0.006 C 
BRANCH   7   8
ATOM      8  C   UNL     1     -28.993 -12.202   2.526  1.00  0.00     0.053 C 
BRANCH   8   9
ATOM      9  C   UNL     1     -30.028 -13.179   2.066  1.00  0.00     0.041 C 
ATOM     10  O   UNL     1     -29.732 -14.066   1.223  1.00  0.00    -0.550 OA
ATOM     11  O   UNL     1     -31.308 -13.142   2.607  1.00  0.00    -0.550 OA
ENDBRANCH   8   9
ENDBRANCH   7   8
ENDBRANCH   6   7
ENDBRANCH   5   6
ENDBRANCH   4   5
ENDBRANCH   3   4
ENDBRANCH   2   3
ENDBRANCH   1   2
BRANCH   1  12
ATOM     12  C   UNL     1     -23.601 -13.527   4.027  1.00  0.00     0.000 C 
BRANCH  12  13
ATOM     13  C   UNL     1     -24.127 -13.419   5.463  1.00  0.00    -0.000 C 
BRANCH  13  14
ATOM     14  C   UNL     1     -24.433 -11.959   5.828  1.00  0.00    -0.000 C 
BRANCH  14  15
ATOM     15  C   UNL     1     -24.776 -11.099   4.600  1.00  0.00    -0.000 C 
BRANCH  15  16
ATOM     16  C   UNL     1     -23.852  -9.877   4.458  1.00  0.00    -0.000 C 
BRANCH  16  17
ATOM     17  C   UNL     1     -22.498 -10.076   5.160  1.00  0.00    -0.000 C 
BRANCH  17  18
ATOM     18  C   UNL     1     -21.314 -10.042   4.178  1.00  0.00    -0.000 C 
BRANCH  18  19
ATOM     19  C   UNL     1     -20.666 -11.423   3.991  1.00  0.00    -0.003 C 
ATOM     20  C   UNL     1     -19.157 -11.344   3.764  1.00  0.00     0.004 C 
ENDBRANCH  18  19
ENDBRANCH  17  18
ENDBRANCH  16  17
ENDBRANCH  15  16
ENDBRANCH  14  15
ENDBRANCH  13  14
ENDBRANCH  12  13
ENDBRANCH   1  12
TORSDOF 16
ENDMDL
MODEL 3
REMARK VINA RESULT:    -3.835      2.895      3.486
REMARK INTER + INTRA:          -8.738
REMARK INTER:                  -6.947
REMARK INTRA:                  -1.791
REMARK UNBOUND:                -1.316
REMARK SMILES CCCCCCCCCCCCCCCCCC(=O)[O-]
REMARK SMILES IDX 10 1 11 2 12 3 13 4 14 5 15 6 16 7 17 8 18 9 19 10 20 11
REMARK SMILES IDX 9 12 8 13 7 14 6 15 5 16 4 17 3 18 2 19 1 20
REMARK H PARENT
REMARK Flexibility Score: inf
ROOT
ATOM      1  C   UNL     1     -24.704 -14.319   3.296  1.00  0.00     0.000 C 
ENDROOT
BRANCH   1   2
ATOM      2  C   UNL     1     -25.375 -15.512   4.000  1.00  0.00     0.000 C 
BRANCH   2   3
ATOM      3  C   UNL     1     -26.873 -15.324   4.314  1.00  0.00     0.000 C 
BRANCH   3   4
ATOM      4  C   UNL     1     -27.521 -14.070   3.694  1.00  0.00     0.000 C 
BRANCH   4   5
ATOM      5  C   UNL     1     -29.058 -14.025   3.775  1.00  0.00     0.000 C 
BRANCH   5   6
ATOM      6  C   UNL     1     -29.707 -15.398   3.550  1.00  0.00     0.000 C 
BRANCH   6   7
ATOM      7  C   UNL     1     -29.787 -15.728   2.054  1.00  0.00     0.006 C 
BRANCH   7   8
ATOM      8  C   UNL     1     -29.947 -17.235   1.833  1.00  0.00     0.053 C 
BRANCH   8   9
ATOM      9  C   UNL     1     -28.782 -17.976   2.410  1.00  0.00     0.041 C 
ATOM     10  O   UNL     1     -27.621 -17.778   1.963  1.00  0.00    -0.550 OA
ATOM     11  O   UNL     1     -28.972 -18.848   3.475  1.00  0.00    -0.550 OA
ENDBRANCH   8   9
ENDBRANCH   7   8
ENDBRANCH   6   7
ENDBRANCH   5   6
ENDBRANCH   4   5
ENDBRANCH   3   4
ENDBRANCH   2   3
ENDBRANCH   1   2
BRANCH   1  12
ATOM     12  C   UNL     1     -23.521 -13.746   4.092  1.00  0.00     0.000 C 
BRANCH  12  13
ATOM     13  C   UNL     1     -24.010 -12.942   5.302  1.00  0.00    -0.000 C 
BRANCH  13  14
ATOM     14  C   UNL     1     -24.865 -11.746   4.858  1.00  0.00    -0.000 C 
BRANCH  14  15
ATOM     15  C   UNL     1     -24.039 -10.462   4.671  1.00  0.00    -0.000 C 
BRANCH  15  16
ATOM     16  C   UNL     1     -23.322 -10.027   5.961  1.00  0.00    -0.000 C 
BRANCH  16  17
ATOM     17  C   UNL     1     -21.795 -10.192   5.871  1.00  0.00    -0.000 C 
BRANCH  17  18
ATOM     18  C   UNL     1     -21.301 -10.334   4.421  1.00  0.00    -0.000 C 
BRANCH  18  19
ATOM     19  C   UNL     1     -20.480 -11.615   4.203  1.00  0.00    -0.003 C 
ATOM     20  C   UNL     1     -19.178 -11.363   3.443  1.00  0.00     0.004 C 
ENDBRANCH  18  19
ENDBRANCH  17  18
ENDBRANCH  16  17
ENDBRANCH  15  16
ENDBRANCH  14  15
ENDBRANCH  13  14
ENDBRANCH  12  13
ENDBRANCH   1  12
TORSDOF 16
ENDMDL
MODEL 4
REMARK VINA RESULT:    -3.816      1.410      2.082
REMARK INTER + INTRA:          -8.700
REMARK INTER:                  -6.399
REMARK INTRA:                  -2.301
REMARK UNBOUND:                -1.316
REMARK SMILES CCCCCCCCCCCCCCCCCC(=O)[O-]
REMARK SMILES IDX 10 1 11 2 12 3 13 4 14 5 15 6 16 7 17 8 18 9 19 10 20 11
REMARK SMILES IDX 9 12 8 13 7 14 6 15 5 16 4 17 3 18 2 19 1 20
REMARK H PARENT
REMARK Flexibility Score: inf
ROOT
ATOM      1  C   UNL     1     -26.378 -16.250   3.376  1.00  0.00     0.000 C 
ENDROOT
BRANCH   1   2
ATOM      2  C   UNL     1     -27.394 -16.610   4.474  1.00  0.00     0.000 C 
BRANCH   2   3
ATOM      3  C   UNL     1     -28.392 -15.489   4.830  1.00  0.00     0.000 C 
BRANCH   3   4
ATOM      4  C   UNL     1     -27.762 -14.215   5.427  1.00  0.00     0.000 C 
BRANCH   4   5
ATOM      5  C   UNL     1     -28.155 -12.904   4.722  1.00  0.00     0.000 C 
BRANCH   5   6
ATOM      6  C   UNL     1     -27.463 -12.727   3.363  1.00  0.00     0.000 C 
BRANCH   6   7
ATOM      7  C   UNL     1     -28.443 -12.188   2.314  1.00  0.00     0.006 C 
BRANCH   7   8
ATOM      8  C   UNL     1     -29.701 -13.059   2.238  1.00  0.00     0.053 C 
BRANCH   8   9
ATOM      9  C   UNL     1     -30.853 -12.269   1.704  1.00  0.00     0.041 C 
ATOM     10  O   UNL     1     -32.023 -12.728   1.774  1.00  0.00    -0.550 OA
ATOM     11  O   UNL     1     -30.641 -11.002   1.172  1.00  0.00    -0.550 OA
ENDBRANCH   8   9
ENDBRANCH   7   8
ENDBRANCH   6   7
ENDBRANCH   5   6
ENDBRANCH   4   5
ENDBRANCH   3   4
ENDBRANCH   2   3
ENDBRANCH   1   2
BRANCH   1  12
ATOM     12  C   UNL     1     -25.014 -15.825   3.942  1.00  0.00     0.000 C 
BRANCH  12  13
ATOM     13  C   UNL     1     -24.258 -14.937   2.947  1.00  0.00    -0.000 C 
BRANCH  13  14
ATOM     14  C   UNL     1     -23.692 -13.690   3.642  1.00  0.00    -0.000 C 
BRANCH  14  15
ATOM     15  C   UNL     1     -24.162 -13.558   5.101  1.00  0.00    -0.000 C 
BRANCH  15  16
ATOM     16  C   UNL     1     -24.419 -12.098   5.510  1.00  0.00    -0.000 C 
BRANCH  16  17
ATOM     17  C   UNL     1     -23.601 -11.099   4.674  1.00  0.00    -0.000 C 
BRANCH  17  18
ATOM     18  C   UNL     1     -22.245 -10.760   5.318  1.00  0.00    -0.000 C 
BRANCH  18  19
ATOM     19  C   UNL     1     -21.116 -10.640   4.282  1.00  0.00    -0.003 C 
ATOM     20  C   UNL     1     -20.444 -11.979   3.979  1.00  0.00     0.004 C 
ENDBRANCH  18  19
ENDBRANCH  17  18
ENDBRANCH  16  17
ENDBRANCH  15  16
ENDBRANCH  14  15
ENDBRANCH  13  14
ENDBRANCH  12  13
ENDBRANCH   1  12
TORSDOF 16
ENDMDL
MODEL 5
REMARK VINA RESULT:    -3.798      3.782      7.601
REMARK INTER + INTRA:          -8.666
REMARK INTER:                  -7.066
REMARK INTRA:                  -1.600
REMARK UNBOUND:                -1.316
REMARK SMILES CCCCCCCCCCCCCCCCCC(=O)[O-]
REMARK SMILES IDX 10 1 11 2 12 3 13 4 14 5 15 6 16 7 17 8 18 9 19 10 20 11
REMARK SMILES IDX 9 12 8 13 7 14 6 15 5 16 4 17 3 18 2 19 1 20
REMARK H PARENT
REMARK Flexibility Score: inf
ROOT
ATOM      1  C   UNL     1     -25.157 -15.999   3.069  1.00  0.00     0.000 C 
ENDROOT
BRANCH   1   2
ATOM      2  C   UNL     1     -24.466 -14.777   3.697  1.00  0.00     0.000 C 
BRANCH   2   3
ATOM      3  C   UNL     1     -24.796 -14.534   5.184  1.00  0.00     0.000 C 
BRANCH   3   4
ATOM      4  C   UNL     1     -25.077 -13.067   5.563  1.00  0.00     0.000 C 
BRANCH   4   5
ATOM      5  C   UNL     1     -24.676 -12.032   4.494  1.00  0.00     0.000 C 
BRANCH   5   6
ATOM      6  C   UNL     1     -24.454 -10.629   5.076  1.00  0.00     0.000 C 
BRANCH   6   7
ATOM      7  C   UNL     1     -23.030 -10.136   4.791  1.00  0.00     0.006 C 
BRANCH   7   8
ATOM      8  C   UNL     1     -22.007 -11.254   5.014  1.00  0.00     0.053 C 
BRANCH   8   9
ATOM      9  C   UNL     1     -20.811 -11.052   4.139  1.00  0.00     0.041 C 
ATOM     10  O   UNL     1     -20.424  -9.888   3.853  1.00  0.00    -0.550 OA
ATOM     11  O   UNL     1     -20.094 -12.150   3.678  1.00  0.00    -0.550 OA
ENDBRANCH   8   9
ENDBRANCH   7   8
ENDBRANCH   6   7
ENDBRANCH   5   6
ENDBRANCH   4   5
ENDBRANCH   3   4
ENDBRANCH   2   3
ENDBRANCH   1   2
BRANCH   1  12
ATOM     12  C   UNL     1     -26.351 -16.500   3.897  1.00  0.00     0.000 C 
BRANCH  12  13
ATOM     13  C   UNL     1     -27.680 -16.106   3.241  1.00  0.00    -0.000 C 
BRANCH  13  14
ATOM     14  C   UNL     1     -28.314 -14.907   3.961  1.00  0.00    -0.000 C 
BRANCH  14  15
ATOM     15  C   UNL     1     -27.972 -13.564   3.293  1.00  0.00    -0.000 C 
BRANCH  15  16
ATOM     16  C   UNL     1     -29.167 -12.594   3.272  1.00  0.00    -0.000 C 
BRANCH  16  17
ATOM     17  C   UNL     1     -29.336 -11.896   1.912  1.00  0.00    -0.000 C 
BRANCH  17  18
ATOM     18  C   UNL     1     -29.841 -12.852   0.817  1.00  0.00    -0.000 C 
BRANCH  18  19
ATOM     19  C   UNL     1     -30.435 -12.104  -0.388  1.00  0.00    -0.003 C 
ATOM     20  C   UNL     1     -29.497 -11.030  -0.940  1.00  0.00     0.004 C 
ENDBRANCH  18  19
ENDBRANCH  17  18
ENDBRANCH  16  17
ENDBRANCH  15  16
ENDBRANCH  14  15
ENDBRANCH  13  14
ENDBRANCH  12  13
ENDBRANCH   1  12
TORSDOF 16
ENDMDL
MODEL 6
REMARK VINA RESULT:    -3.782      2.595      4.607
REMARK INTER + INTRA:          -8.635
REMARK INTER:                  -6.195
REMARK INTRA:                  -2.440
REMARK UNBOUND:                -1.316
REMARK SMILES CCCCCCCCCCCCCCCCCC(=O)[O-]
REMARK SMILES IDX 10 1 11 2 12 3 13 4 14 5 15 6 16 7 17 8 18 9 19 10 20 11
REMARK SMILES IDX 9 12 8 13 7 14 6 15 5 16 4 17 3 18 2 19 1 20
REMARK H PARENT
REMARK Flexibility Score: inf
ROOT
ATOM      1  C   UNL     1     -31.082 -16.759   3.043  1.00  0.00     0.000 C 
ENDROOT
BRANCH   1   2
ATOM      2  C   UNL     1     -32.488 -16.136   3.002  1.00  0.00     0.000 C 
BRANCH   2   3
ATOM      3  C   UNL     1     -32.648 -14.833   3.812  1.00  0.00     0.000 C 
BRANCH   3   4
ATOM      4  C   UNL     1     -33.145 -13.617   3.006  1.00  0.00     0.000 C 
BRANCH   4   5
ATOM      5  C   UNL     1     -32.062 -12.899   2.179  1.00  0.00     0.000 C 
BRANCH   5   6
ATOM      6  C   UNL     1     -30.818 -12.545   3.007  1.00  0.00     0.000 C 
BRANCH   6   7
ATOM      7  C   UNL     1     -29.690 -12.026   2.106  1.00  0.00     0.006 C 
BRANCH   7   8
ATOM      8  C   UNL     1     -29.909 -12.449   0.651  1.00  0.00     0.053 C 
BRANCH   8   9
ATOM      9  C   UNL     1     -29.832 -11.263  -0.257  1.00  0.00     0.041 C 
ATOM     10  O   UNL     1     -30.120 -10.115   0.174  1.00  0.00    -0.550 OA
ATOM     11  O   UNL     1     -29.393 -11.417  -1.567  1.00  0.00    -0.550 OA
ENDBRANCH   8   9
ENDBRANCH   7   8
ENDBRANCH   6   7
ENDBRANCH   5   6
ENDBRANCH   4   5
ENDBRANCH   3   4
ENDBRANCH   2   3
ENDBRANCH   1   2
BRANCH   1  12
ATOM     12  C   UNL     1     -30.157 -16.215   1.943  1.00  0.00     0.000 C 
BRANCH  12  13
ATOM     13  C   UNL     1     -28.842 -15.695   2.537  1.00  0.00    -0.000 C 
BRANCH  13  14
ATOM     14  C   UNL     1     -28.829 -15.854   4.065  1.00  0.00    -0.000 C 
BRANCH  14  15
ATOM     15  C   UNL     1     -27.961 -14.795   4.765  1.00  0.00    -0.000 C 
BRANCH  15  16
ATOM     16  C   UNL     1     -27.211 -13.893   3.769  1.00  0.00    -0.000 C 
BRANCH  16  17
ATOM     17  C   UNL     1     -25.686 -13.934   3.968  1.00  0.00    -0.000 C 
BRANCH  17  18
ATOM     18  C   UNL     1     -25.124 -15.365   3.923  1.00  0.00    -0.000 C 
BRANCH  18  19
ATOM     19  C   UNL     1     -24.146 -15.577   2.756  1.00  0.00    -0.003 C 
ATOM     20  C   UNL     1     -22.975 -14.595   2.778  1.00  0.00     0.004 C 
ENDBRANCH  18  19
ENDBRANCH  17  18
ENDBRANCH  16  17
ENDBRANCH  15  16
ENDBRANCH  14  15
ENDBRANCH  13  14
ENDBRANCH  12  13
ENDBRANCH   1  12
TORSDOF 16
ENDMDL
MODEL 7
REMARK VINA RESULT:    -3.765      3.719      7.518
REMARK INTER + INTRA:          -8.602
REMARK INTER:                  -6.547
REMARK INTRA:                  -2.055
REMARK UNBOUND:                -1.316
REMARK SMILES CCCCCCCCCCCCCCCCCC(=O)[O-]
REMARK SMILES IDX 10 1 11 2 12 3 13 4 14 5 15 6 16 7 17 8 18 9 19 10 20 11
REMARK SMILES IDX 9 12 8 13 7 14 6 15 5 16 4 17 3 18 2 19 1 20
REMARK H PARENT
REMARK Flexibility Score: inf
ROOT
ATOM      1  C   UNL     1     -25.994 -16.078   3.347  1.00  0.00     0.000 C 
ENDROOT
BRANCH   1   2
ATOM      2  C   UNL     1     -25.593 -14.669   3.817  1.00  0.00     0.000 C 
BRANCH   2   3
ATOM      3  C   UNL     1     -24.396 -14.623   4.789  1.00  0.00     0.000 C 
BRANCH   3   4
ATOM      4  C   UNL     1     -24.225 -13.297   5.556  1.00  0.00     0.000 C 
BRANCH   4   5
ATOM      5  C   UNL     1     -24.458 -12.027   4.718  1.00  0.00     0.000 C 
BRANCH   5   6
ATOM      6  C   UNL     1     -23.711 -10.804   5.268  1.00  0.00     0.000 C 
BRANCH   6   7
ATOM      7  C   UNL     1     -22.627 -10.336   4.289  1.00  0.00     0.006 C 
BRANCH   7   8
ATOM      8  C   UNL     1     -21.227 -10.595   4.853  1.00  0.00     0.053 C 
BRANCH   8   9
ATOM      9  C   UNL     1     -20.535 -11.664   4.068  1.00  0.00     0.041 C 
ATOM     10  O   UNL     1     -21.157 -12.706   3.731  1.00  0.00    -0.550 OA
ATOM     11  O   UNL     1     -19.216 -11.487   3.666  1.00  0.00    -0.550 OA
ENDBRANCH   8   9
ENDBRANCH   7   8
ENDBRANCH   6   7
ENDBRANCH   5   6
ENDBRANCH   4   5
ENDBRANCH   3   4
ENDBRANCH   2   3
ENDBRANCH   1   2
BRANCH   1  12
ATOM     12  C   UNL     1     -27.202 -16.640   4.113  1.00  0.00     0.000 C 
BRANCH  12  13
ATOM     13  C   UNL     1     -28.433 -15.744   3.933  1.00  0.00    -0.000 C 
BRANCH  13  14
ATOM     14  C   UNL     1     -29.285 -16.212   2.743  1.00  0.00    -0.000 C 
BRANCH  14  15
ATOM     15  C   UNL     1     -29.673 -15.061   1.801  1.00  0.00    -0.000 C 
BRANCH  15  16
ATOM     16  C   UNL     1     -30.094 -13.791   2.561  1.00  0.00    -0.000 C 
BRANCH  16  17
ATOM     17  C   UNL     1     -29.307 -12.548   2.113  1.00  0.00    -0.000 C 
BRANCH  17  18
ATOM     18  C   UNL     1     -28.003 -12.357   2.907  1.00  0.00    -0.000 C 
BRANCH  18  19
ATOM     19  C   UNL     1     -28.212 -11.545   4.196  1.00  0.00    -0.003 C 
ATOM     20  C   UNL     1     -28.043 -12.385   5.461  1.00  0.00     0.004 C 
ENDBRANCH  18  19
ENDBRANCH  17  18
ENDBRANCH  16  17
ENDBRANCH  15  16
ENDBRANCH  14  15
ENDBRANCH  13  14
ENDBRANCH  12  13
ENDBRANCH   1  12
TORSDOF 16
ENDMDL
MODEL 8
REMARK VINA RESULT:    -3.759      3.951      7.485
REMARK INTER + INTRA:          -8.590
REMARK INTER:                  -6.490
REMARK INTRA:                  -2.100
REMARK UNBOUND:                -1.316
REMARK SMILES CCCCCCCCCCCCCCCCCC(=O)[O-]
REMARK SMILES IDX 10 1 11 2 12 3 13 4 14 5 15 6 16 7 17 8 18 9 19 10 20 11
REMARK SMILES IDX 9 12 8 13 7 14 6 15 5 16 4 17 3 18 2 19 1 20
REMARK H PARENT
REMARK Flexibility Score: inf
ROOT
ATOM      1  C   UNL     1     -24.648 -14.845   5.754  1.00  0.00     0.000 C 
ENDROOT
BRANCH   1   2
ATOM      2  C   UNL     1     -25.253 -13.660   6.527  1.00  0.00     0.000 C 
BRANCH   2   3
ATOM      3  C   UNL     1     -24.258 -12.533   6.874  1.00  0.00     0.000 C 
BRANCH   3   4
ATOM      4  C   UNL     1     -24.657 -11.131   6.372  1.00  0.00     0.000 C 
BRANCH   4   5
ATOM      5  C   UNL     1     -24.503 -10.916   4.855  1.00  0.00     0.000 C 
BRANCH   5   6
ATOM      6  C   UNL     1     -23.362  -9.951   4.502  1.00  0.00     0.000 C 
BRANCH   6   7
ATOM      7  C   UNL     1     -22.037 -10.421   5.115  1.00  0.00     0.006 C 
BRANCH   7   8
ATOM      8  C   UNL     1     -20.861 -10.112   4.184  1.00  0.00     0.053 C 
BRANCH   8   9
ATOM      9  C   UNL     1     -20.144 -11.370   3.810  1.00  0.00     0.041 C 
ATOM     10  O   UNL     1     -18.912 -11.345   3.554  1.00  0.00    -0.550 OA
ATOM     11  O   UNL     1     -20.828 -12.581   3.793  1.00  0.00    -0.550 OA
ENDBRANCH   8   9
ENDBRANCH   7   8
ENDBRANCH   6   7
ENDBRANCH   5   6
ENDBRANCH   4   5
ENDBRANCH   3   4
ENDBRANCH   2   3
ENDBRANCH   1   2
BRANCH   1  12
ATOM     12  C   UNL     1     -24.182 -14.460   4.342  1.00  0.00     0.000 C 
BRANCH  12  13
ATOM     13  C   UNL     1     -25.272 -14.754   3.304  1.00  0.00    -0.000 C 
BRANCH  13  14
ATOM     14  C   UNL     1     -25.693 -16.230   3.352  1.00  0.00    -0.000 C 
BRANCH  14  15
ATOM     15  C   UNL     1     -27.219 -16.414   3.311  1.00  0.00    -0.000 C 
BRANCH  15  16
ATOM     16  C   UNL     1     -27.947 -15.549   4.355  1.00  0.00    -0.000 C 
BRANCH  16  17
ATOM     17  C   UNL     1     -28.749 -14.403   3.715  1.00  0.00    -0.000 C 
BRANCH  17  18
ATOM     18  C   UNL     1     -28.610 -13.081   4.490  1.00  0.00    -0.000 C 
BRANCH  18  19
ATOM     19  C   UNL     1     -27.805 -12.026   3.714  1.00  0.00    -0.003 C 
ATOM     20  C   UNL     1     -28.112 -10.598   4.161  1.00  0.00     0.004 C 
ENDBRANCH  18  19
ENDBRANCH  17  18
ENDBRANCH  16  17
ENDBRANCH  15  16
ENDBRANCH  14  15
ENDBRANCH  13  14
ENDBRANCH  12  13
ENDBRANCH   1  12
TORSDOF 16
ENDMDL
MODEL 9
REMARK VINA RESULT:    -3.709     14.652     16.956
REMARK INTER + INTRA:          -8.493
REMARK INTER:                  -5.332
REMARK INTRA:                  -3.161
REMARK UNBOUND:                -1.316
REMARK SMILES CCCCCCCCCCCCCCCCCC(=O)[O-]
REMARK SMILES IDX 10 1 11 2 12 3 13 4 14 5 15 6 16 7 17 8 18 9 19 10 20 11
REMARK SMILES IDX 9 12 8 13 7 14 6 15 5 16 4 17 3 18 2 19 1 20
REMARK H PARENT
REMARK Flexibility Score: inf
ROOT
ATOM      1  C   UNL     1     -20.626 -29.666  -0.174  1.00  0.00     0.000 C 
ENDROOT
BRANCH   1   2
ATOM      2  C   UNL     1     -19.186 -29.662  -0.718  1.00  0.00     0.000 C 
BRANCH   2   3
ATOM      3  C   UNL     1     -18.356 -28.414  -0.354  1.00  0.00     0.000 C 
BRANCH   3   4
ATOM      4  C   UNL     1     -17.893 -27.562  -1.552  1.00  0.00     0.000 C 
BRANCH   4   5
ATOM      5  C   UNL     1     -19.009 -26.760  -2.248  1.00  0.00     0.000 C 
BRANCH   5   6
ATOM      6  C   UNL     1     -18.537 -26.084  -3.544  1.00  0.00     0.000 C 
BRANCH   6   7
ATOM      7  C   UNL     1     -19.587 -25.091  -4.058  1.00  0.00     0.006 C 
BRANCH   7   8
ATOM      8  C   UNL     1     -19.911 -24.035  -2.997  1.00  0.00     0.053 C 
BRANCH   8   9
ATOM      9  C   UNL     1     -21.214 -23.368  -3.302  1.00  0.00     0.041 C 
ATOM     10  O   UNL     1     -21.553 -23.155  -4.496  1.00  0.00    -0.550 OA
ATOM     11  O   UNL     1     -22.078 -23.025  -2.269  1.00  0.00    -0.550 OA
ENDBRANCH   8   9
ENDBRANCH   7   8
ENDBRANCH   6   7
ENDBRANCH   5   6
ENDBRANCH   4   5
ENDBRANCH   3   4
ENDBRANCH   2   3
ENDBRANCH   1   2
BRANCH   1  12
ATOM     12  C   UNL     1     -20.967 -28.395   0.618  1.00  0.00     0.000 C 
BRANCH  12  13
ATOM     13  C   UNL     1     -22.275 -27.770   0.118  1.00  0.00    -0.000 C 
BRANCH  13  14
ATOM     14  C   UNL     1     -21.998 -26.523  -0.735  1.00  0.00    -0.000 C 
BRANCH  14  15
ATOM     15  C   UNL     1     -22.712 -26.564  -2.097  1.00  0.00    -0.000 C 
BRANCH  15  16
ATOM     16  C   UNL     1     -22.909 -27.999  -2.618  1.00  0.00    -0.000 C 
BRANCH  16  17
ATOM     17  C   UNL     1     -22.003 -28.319  -3.819  1.00  0.00    -0.000 C 
BRANCH  17  18
ATOM     18  C   UNL     1     -21.378 -29.722  -3.729  1.00  0.00    -0.000 C 
BRANCH  18  19
ATOM     19  C   UNL     1     -19.940 -29.761  -4.273  1.00  0.00    -0.003 C 
ATOM     20  C   UNL     1     -19.769 -28.949  -5.556  1.00  0.00     0.004 C 
ENDBRANCH  18  19
ENDBRANCH  17  18
ENDBRANCH  16  17
ENDBRANCH  15  16
ENDBRANCH  14  15
ENDBRANCH  13  14
ENDBRANCH  12  13
ENDBRANCH   1  12
TORSDOF 16
ENDMDL
