MODEL 1
REMARK VINA RESULT:    -4.150      0.000      0.000
REMARK INTER + INTRA:         -16.117
REMARK INTER:                 -10.944
REMARK INTRA:                  -5.173
REMARK UNBOUND:                -5.173
REMARK SMILES CCCCCCCCCCCCCCCCCCCCCCCCCCCCCC(=O)[O-]
REMARK SMILES IDX 16 1 17 2 18 3 19 4 20 5 21 6 22 7 23 8 24 9 25 10 26 11
REMARK SMILES IDX 27 12 28 13 29 14 30 15 31 16 32 17 15 18 14 19 13 20 12 21
REMARK SMILES IDX 11 22 10 23 9 24 8 25 7 26 6 27 5 28 4 29 3 30 2 31 1 32
REMARK H PARENT
REMARK Flexibility Score: inf
ROOT
ATOM      1  C   UNL     1      42.249  21.491 222.615  1.00  0.00     0.000 C 
ENDROOT
BRANCH   1   2
ATOM      2  C   UNL     1      40.985  22.326 222.889  1.00  0.00     0.000 C 
BRANCH   2   3
ATOM      3  C   UNL     1      41.284  23.658 223.593  1.00  0.00     0.000 C 
BRANCH   3   4
ATOM      4  C   UNL     1      41.903  23.417 224.978  1.00  0.00     0.000 C 
BRANCH   4   5
ATOM      5  C   UNL     1      42.406  24.712 225.636  1.00  0.00     0.000 C 
BRANCH   5   6
ATOM      6  C   UNL     1      41.509  25.175 226.794  1.00  0.00     0.000 C 
BRANCH   6   7
ATOM      7  C   UNL     1      40.674  24.008 227.338  1.00  0.00     0.000 C 
BRANCH   7   8
ATOM      8  C   UNL     1      39.197  24.406 227.478  1.00  0.00     0.000 C 
BRANCH   8   9
ATOM      9  C   UNL     1      38.461  24.442 226.129  1.00  0.00     0.000 C 
BRANCH   9  10
ATOM     10  C   UNL     1      37.942  25.844 225.772  1.00  0.00     0.000 C 
BRANCH  10  11
ATOM     11  C   UNL     1      38.116  26.132 224.276  1.00  0.00     0.000 C 
BRANCH  11  12
ATOM     12  C   UNL     1      38.068  24.835 223.458  1.00  0.00     0.000 C 
BRANCH  12  13
ATOM     13  C   UNL     1      36.711  24.671 222.762  1.00  0.00     0.006 C 
BRANCH  13  14
ATOM     14  C   UNL     1      36.681  23.396 221.910  1.00  0.00     0.053 C 
BRANCH  14  15
ATOM     15  C   UNL     1      36.897  23.704 220.460  1.00  0.00     0.041 C 
ATOM     16  O   UNL     1      36.255  24.639 219.911  1.00  0.00    -0.550 OA
ATOM     17  O   UNL     1      37.856  23.011 219.729  1.00  0.00    -0.550 OA
ENDBRANCH  14  15
ENDBRANCH  13  14
ENDBRANCH  12  13
ENDBRANCH  11  12
ENDBRANCH  10  11
ENDBRANCH   9  10
ENDBRANCH   8   9
ENDBRANCH   7   8
ENDBRANCH   6   7
ENDBRANCH   5   6
ENDBRANCH   4   5
ENDBRANCH   3   4
ENDBRANCH   2   3
ENDBRANCH   1   2
BRANCH   1  18
ATOM     18  C   UNL     1      42.057  19.965 222.696  1.00  0.00     0.000 C 
BRANCH  18  19
ATOM     19  C   UNL     1      42.814  19.326 223.874  1.00  0.00     0.000 C 
BRANCH  19  20
ATOM     20  C   UNL     1      42.183  19.654 225.240  1.00  0.00     0.000 C 
BRANCH  20  21
ATOM     21  C   UNL     1      40.647  19.535 225.304  1.00  0.00     0.000 C 
BRANCH  21  22
ATOM     22  C   UNL     1      40.109  18.124 225.598  1.00  0.00     0.000 C 
BRANCH  22  23
ATOM     23  C   UNL     1      40.870  17.422 226.738  1.00  0.00     0.000 C 
BRANCH  23  24
ATOM     24  C   UNL     1      40.108  17.466 228.072  1.00  0.00    -0.000 C 
BRANCH  24  25
ATOM     25  C   UNL     1      40.300  18.797 228.820  1.00  0.00    -0.000 C 
BRANCH  25  26
ATOM     26  C   UNL     1      38.965  19.485 229.149  1.00  0.00    -0.000 C 
BRANCH  26  27
ATOM     27  C   UNL     1      38.873  20.909 228.580  1.00  0.00    -0.000 C 
BRANCH  27  28
ATOM     28  C   UNL     1      37.579  21.091 227.774  1.00  0.00    -0.000 C 
BRANCH  28  29
ATOM     29  C   UNL     1      37.772  20.840 226.267  1.00  0.00    -0.000 C 
BRANCH  29  30
ATOM     30  C   UNL     1      36.752  19.876 225.634  1.00  0.00    -0.000 C 
BRANCH  30  31
ATOM     31  C   UNL     1      36.013  19.022 226.673  1.00  0.00    -0.003 C 
ATOM     32  C   UNL     1      36.682  17.661 226.842  1.00  0.00     0.004 C 
ENDBRANCH  30  31
ENDBRANCH  29  30
ENDBRANCH  28  29
ENDBRANCH  27  28
ENDBRANCH  26  27
ENDBRANCH  25  26
ENDBRANCH  24  25
ENDBRANCH  23  24
ENDBRANCH  22  23
ENDBRANCH  21  22
ENDBRANCH  20  21
ENDBRANCH  19  20
ENDBRANCH  18  19
ENDBRANCH   1  18
TORSDOF 28
ENDMDL
MODEL 2
REMARK VINA RESULT:    -3.931      3.053      6.630
REMARK INTER + INTRA:         -15.537
REMARK INTER:                  -9.707
REMARK INTRA:                  -5.830
REMARK UNBOUND:                -5.173
REMARK SMILES CCCCCCCCCCCCCCCCCCCCCCCCCCCCCC(=O)[O-]
REMARK SMILES IDX 16 1 17 2 18 3 19 4 20 5 21 6 22 7 23 8 24 9 25 10 26 11
REMARK SMILES IDX 27 12 28 13 29 14 30 15 31 16 32 17 15 18 14 19 13 20 12 21
REMARK SMILES IDX 11 22 10 23 9 24 8 25 7 26 6 27 5 28 4 29 3 30 2 31 1 32
REMARK H PARENT
REMARK Flexibility Score: inf
ROOT
ATOM      1  C   UNL     1      42.390  19.690 224.651  1.00  0.00     0.000 C 
ENDROOT
BRANCH   1   2
ATOM      2  C   UNL     1      42.081  19.920 223.161  1.00  0.00     0.000 C 
BRANCH   2   3
ATOM      3  C   UNL     1      42.161  21.398 222.750  1.00  0.00     0.000 C 
BRANCH   3   4
ATOM      4  C   UNL     1      40.873  22.142 223.132  1.00  0.00     0.000 C 
BRANCH   4   5
ATOM      5  C   UNL     1      41.125  23.612 223.505  1.00  0.00     0.000 C 
BRANCH   5   6
ATOM      6  C   UNL     1      41.933  23.763 224.803  1.00  0.00     0.000 C 
BRANCH   6   7
ATOM      7  C   UNL     1      41.345  22.887 225.917  1.00  0.00     0.000 C 
BRANCH   7   8
ATOM      8  C   UNL     1      42.273  22.857 227.141  1.00  0.00     0.000 C 
BRANCH   8   9
ATOM      9  C   UNL     1      42.257  21.501 227.865  1.00  0.00     0.000 C 
BRANCH   9  10
ATOM     10  C   UNL     1      41.167  21.416 228.945  1.00  0.00     0.000 C 
BRANCH  10  11
ATOM     11  C   UNL     1      40.722  19.965 229.168  1.00  0.00     0.000 C 
BRANCH  11  12
ATOM     12  C   UNL     1      39.301  19.909 229.744  1.00  0.00     0.000 C 
BRANCH  12  13
ATOM     13  C   UNL     1      38.592  18.610 229.342  1.00  0.00     0.006 C 
BRANCH  13  14
ATOM     14  C   UNL     1      39.602  17.556 228.874  1.00  0.00     0.053 C 
BRANCH  14  15
ATOM     15  C   UNL     1      38.945  16.516 228.018  1.00  0.00     0.041 C 
ATOM     16  O   UNL     1      37.702  16.560 227.813  1.00  0.00    -0.550 OA
ATOM     17  O   UNL     1      39.708  15.539 227.387  1.00  0.00    -0.550 OA
ENDBRANCH  14  15
ENDBRANCH  13  14
ENDBRANCH  12  13
ENDBRANCH  11  12
ENDBRANCH  10  11
ENDBRANCH   9  10
ENDBRANCH   8   9
ENDBRANCH   7   8
ENDBRANCH   6   7
ENDBRANCH   5   6
ENDBRANCH   4   5
ENDBRANCH   3   4
ENDBRANCH   2   3
ENDBRANCH   1   2
BRANCH   1  18
ATOM     18  C   UNL     1      41.735  18.443 225.273  1.00  0.00     0.000 C 
BRANCH  18  19
ATOM     19  C   UNL     1      40.199  18.530 225.316  1.00  0.00     0.000 C 
BRANCH  19  20
ATOM     20  C   UNL     1      39.689  19.918 225.746  1.00  0.00     0.000 C 
BRANCH  20  21
ATOM     21  C   UNL     1      38.176  20.006 226.032  1.00  0.00     0.000 C 
BRANCH  21  22
ATOM     22  C   UNL     1      37.684  21.370 226.549  1.00  0.00     0.000 C 
BRANCH  22  23
ATOM     23  C   UNL     1      37.787  22.481 225.489  1.00  0.00     0.000 C 
BRANCH  23  24
ATOM     24  C   UNL     1      37.087  22.108 224.172  1.00  0.00    -0.000 C 
BRANCH  24  25
ATOM     25  C   UNL     1      36.679  23.342 223.348  1.00  0.00    -0.000 C 
BRANCH  25  26
ATOM     26  C   UNL     1      36.331  24.551 224.231  1.00  0.00    -0.000 C 
BRANCH  26  27
ATOM     27  C   UNL     1      36.988  25.852 223.745  1.00  0.00    -0.000 C 
BRANCH  27  28
ATOM     28  C   UNL     1      38.464  25.907 224.167  1.00  0.00    -0.000 C 
BRANCH  28  29
ATOM     29  C   UNL     1      38.649  25.922 225.695  1.00  0.00    -0.000 C 
BRANCH  29  30
ATOM     30  C   UNL     1      39.784  26.831 226.203  1.00  0.00    -0.000 C 
BRANCH  30  31
ATOM     31  C   UNL     1      40.556  26.221 227.380  1.00  0.00    -0.003 C 
ATOM     32  C   UNL     1      41.396  27.277 228.092  1.00  0.00     0.004 C 
ENDBRANCH  30  31
ENDBRANCH  29  30
ENDBRANCH  28  29
ENDBRANCH  27  28
ENDBRANCH  26  27
ENDBRANCH  25  26
ENDBRANCH  24  25
ENDBRANCH  23  24
ENDBRANCH  22  23
ENDBRANCH  21  22
ENDBRANCH  20  21
ENDBRANCH  19  20
ENDBRANCH  18  19
ENDBRANCH   1  18
TORSDOF 28
ENDMDL
MODEL 3
REMARK VINA RESULT:    -3.896      2.645      5.802
REMARK INTER + INTRA:         -15.446
REMARK INTER:                  -9.207
REMARK INTRA:                  -6.239
REMARK UNBOUND:                -5.173
REMARK SMILES CCCCCCCCCCCCCCCCCCCCCCCCCCCCCC(=O)[O-]
REMARK SMILES IDX 16 1 17 2 18 3 19 4 20 5 21 6 22 7 23 8 24 9 25 10 26 11
REMARK SMILES IDX 27 12 28 13 29 14 30 15 31 16 32 17 15 18 14 19 13 20 12 21
REMARK SMILES IDX 11 22 10 23 9 24 8 25 7 26 6 27 5 28 4 29 3 30 2 31 1 32
REMARK H PARENT
REMARK Flexibility Score: inf
ROOT
ATOM      1  C   UNL     1      41.896  23.633 224.854  1.00  0.00     0.000 C 
ENDROOT
BRANCH   1   2
ATOM      2  C   UNL     1      41.244  23.565 223.461  1.00  0.00     0.000 C 
BRANCH   2   3
ATOM      3  C   UNL     1      41.045  22.127 222.958  1.00  0.00     0.000 C 
BRANCH   3   4
ATOM      4  C   UNL     1      42.395  21.412 222.800  1.00  0.00     0.000 C 
BRANCH   4   5
ATOM      5  C   UNL     1      42.298  19.899 223.051  1.00  0.00     0.000 C 
BRANCH   5   6
ATOM      6  C   UNL     1      42.650  19.515 224.496  1.00  0.00     0.000 C 
BRANCH   6   7
ATOM      7  C   UNL     1      41.457  18.845 225.190  1.00  0.00     0.000 C 
BRANCH   7   8
ATOM      8  C   UNL     1      41.135  19.537 226.524  1.00  0.00     0.000 C 
BRANCH   8   9
ATOM      9  C   UNL     1      42.007  20.777 226.775  1.00  0.00     0.000 C 
BRANCH   9  10
ATOM     10  C   UNL     1      41.567  21.571 228.015  1.00  0.00     0.000 C 
BRANCH  10  11
ATOM     11  C   UNL     1      40.062  21.861 227.980  1.00  0.00     0.000 C 
BRANCH  11  12
ATOM     12  C   UNL     1      39.646  22.749 229.160  1.00  0.00     0.000 C 
BRANCH  12  13
ATOM     13  C   UNL     1      38.120  22.807 229.297  1.00  0.00     0.006 C 
BRANCH  13  14
ATOM     14  C   UNL     1      37.489  23.550 228.114  1.00  0.00     0.053 C 
BRANCH  14  15
ATOM     15  C   UNL     1      36.857  24.835 228.552  1.00  0.00     0.041 C 
ATOM     16  O   UNL     1      37.389  25.521 229.465  1.00  0.00    -0.550 OA
ATOM     17  O   UNL     1      35.722  25.316 227.908  1.00  0.00    -0.550 OA
ENDBRANCH  14  15
ENDBRANCH  13  14
ENDBRANCH  12  13
ENDBRANCH  11  12
ENDBRANCH  10  11
ENDBRANCH   9  10
ENDBRANCH   8   9
ENDBRANCH   7   8
ENDBRANCH   6   7
ENDBRANCH   5   6
ENDBRANCH   4   5
ENDBRANCH   3   4
ENDBRANCH   2   3
ENDBRANCH   1   2
BRANCH   1  18
ATOM     18  C   UNL     1      41.519  24.867 225.695  1.00  0.00     0.000 C 
BRANCH  18  19
ATOM     19  C   UNL     1      40.021  24.922 226.044  1.00  0.00     0.000 C 
BRANCH  19  20
ATOM     20  C   UNL     1      39.335  26.204 225.538  1.00  0.00     0.000 C 
BRANCH  20  21
ATOM     21  C   UNL     1      37.902  26.018 224.999  1.00  0.00     0.000 C 
BRANCH  21  22
ATOM     22  C   UNL     1      37.744  24.943 223.910  1.00  0.00     0.000 C 
BRANCH  22  23
ATOM     23  C   UNL     1      36.841  23.776 224.352  1.00  0.00     0.000 C 
BRANCH  23  24
ATOM     24  C   UNL     1      37.426  22.403 223.982  1.00  0.00    -0.000 C 
BRANCH  24  25
ATOM     25  C   UNL     1      38.189  21.751 225.148  1.00  0.00    -0.000 C 
BRANCH  25  26
ATOM     26  C   UNL     1      37.750  20.300 225.401  1.00  0.00    -0.000 C 
BRANCH  26  27
ATOM     27  C   UNL     1      36.891  20.149 226.666  1.00  0.00    -0.000 C 
BRANCH  27  28
ATOM     28  C   UNL     1      36.652  18.667 226.987  1.00  0.00    -0.000 C 
BRANCH  28  29
ATOM     29  C   UNL     1      37.943  17.829 226.950  1.00  0.00    -0.000 C 
BRANCH  29  30
ATOM     30  C   UNL     1      38.233  17.026 228.231  1.00  0.00    -0.000 C 
BRANCH  30  31
ATOM     31  C   UNL     1      39.385  17.615 229.056  1.00  0.00    -0.003 C 
ATOM     32  C   UNL     1      38.915  18.806 229.886  1.00  0.00     0.004 C 
ENDBRANCH  30  31
ENDBRANCH  29  30
ENDBRANCH  28  29
ENDBRANCH  27  28
ENDBRANCH  26  27
ENDBRANCH  25  26
ENDBRANCH  24  25
ENDBRANCH  23  24
ENDBRANCH  22  23
ENDBRANCH  21  22
ENDBRANCH  20  21
ENDBRANCH  19  20
ENDBRANCH  18  19
ENDBRANCH   1  18
TORSDOF 28
ENDMDL
MODEL 4
REMARK VINA RESULT:    -3.838      2.202      5.671
REMARK INTER + INTRA:         -15.292
REMARK INTER:                  -8.137
REMARK INTRA:                  -7.155
REMARK UNBOUND:                -5.173
REMARK SMILES CCCCCCCCCCCCCCCCCCCCCCCCCCCCCC(=O)[O-]
REMARK SMILES IDX 16 1 17 2 18 3 19 4 20 5 21 6 22 7 23 8 24 9 25 10 26 11
REMARK SMILES IDX 27 12 28 13 29 14 30 15 31 16 32 17 15 18 14 19 13 20 12 21
REMARK SMILES IDX 11 22 10 23 9 24 8 25 7 26 6 27 5 28 4 29 3 30 2 31 1 32
REMARK H PARENT
REMARK Flexibility Score: inf
ROOT
ATOM      1  C   UNL     1      37.844  21.160 225.548  1.00  0.00     0.000 C 
ENDROOT
BRANCH   1   2
ATOM      2  C   UNL     1      37.069  19.858 225.821  1.00  0.00     0.000 C 
BRANCH   2   3
ATOM      3  C   UNL     1      37.226  19.354 227.263  1.00  0.00     0.000 C 
BRANCH   3   4
ATOM      4  C   UNL     1      37.866  17.958 227.286  1.00  0.00     0.000 C 
BRANCH   4   5
ATOM      5  C   UNL     1      39.044  17.829 226.308  1.00  0.00     0.000 C 
BRANCH   5   6
ATOM      6  C   UNL     1      40.404  18.049 226.987  1.00  0.00     0.000 C 
BRANCH   6   7
ATOM      7  C   UNL     1      41.007  19.398 226.579  1.00  0.00     0.000 C 
BRANCH   7   8
ATOM      8  C   UNL     1      41.020  19.557 225.050  1.00  0.00     0.000 C 
BRANCH   8   9
ATOM      9  C   UNL     1      41.809  20.792 224.587  1.00  0.00     0.000 C 
BRANCH   9  10
ATOM     10  C   UNL     1      40.982  21.722 223.686  1.00  0.00     0.000 C 
BRANCH  10  11
ATOM     11  C   UNL     1      41.499  23.164 223.759  1.00  0.00     0.000 C 
BRANCH  11  12
ATOM     12  C   UNL     1      40.506  24.136 223.110  1.00  0.00     0.000 C 
BRANCH  12  13
ATOM     13  C   UNL     1      39.058  23.712 223.384  1.00  0.00     0.006 C 
BRANCH  13  14
ATOM     14  C   UNL     1      38.170  24.932 223.654  1.00  0.00     0.053 C 
BRANCH  14  15
ATOM     15  C   UNL     1      36.839  24.525 224.209  1.00  0.00     0.041 C 
ATOM     16  O   UNL     1      36.100  23.736 223.562  1.00  0.00    -0.550 OA
ATOM     17  O   UNL     1      36.441  24.956 225.471  1.00  0.00    -0.550 OA
ENDBRANCH  14  15
ENDBRANCH  13  14
ENDBRANCH  12  13
ENDBRANCH  11  12
ENDBRANCH  10  11
ENDBRANCH   9  10
ENDBRANCH   8   9
ENDBRANCH   7   8
ENDBRANCH   6   7
ENDBRANCH   5   6
ENDBRANCH   4   5
ENDBRANCH   3   4
ENDBRANCH   2   3
ENDBRANCH   1   2
BRANCH   1  18
ATOM     18  C   UNL     1      37.969  22.113 226.751  1.00  0.00     0.000 C 
BRANCH  18  19
ATOM     19  C   UNL     1      39.389  22.682 226.921  1.00  0.00     0.000 C 
BRANCH  19  20
ATOM     20  C   UNL     1      39.398  24.108 227.504  1.00  0.00     0.000 C 
BRANCH  20  21
ATOM     21  C   UNL     1      40.147  25.161 226.664  1.00  0.00     0.000 C 
BRANCH  21  22
ATOM     22  C   UNL     1      41.490  25.635 227.249  1.00  0.00     0.000 C 
BRANCH  22  23
ATOM     23  C   UNL     1      42.698  24.911 226.628  1.00  0.00     0.000 C 
BRANCH  23  24
ATOM     24  C   UNL     1      43.446  24.031 227.643  1.00  0.00    -0.000 C 
BRANCH  24  25
ATOM     25  C   UNL     1      43.062  22.544 227.533  1.00  0.00    -0.000 C 
BRANCH  25  26
ATOM     26  C   UNL     1      42.412  22.008 228.819  1.00  0.00    -0.000 C 
BRANCH  26  27
ATOM     27  C   UNL     1      43.006  22.631 230.091  1.00  0.00    -0.000 C 
BRANCH  27  28
ATOM     28  C   UNL     1      41.969  22.652 231.223  1.00  0.00    -0.000 C 
BRANCH  28  29
ATOM     29  C   UNL     1      40.570  23.081 230.744  1.00  0.00    -0.000 C 
BRANCH  29  30
ATOM     30  C   UNL     1      39.400  22.320 231.395  1.00  0.00    -0.000 C 
BRANCH  30  31
ATOM     31  C   UNL     1      38.617  21.459 230.394  1.00  0.00    -0.003 C 
ATOM     32  C   UNL     1      39.444  20.261 229.936  1.00  0.00     0.004 C 
ENDBRANCH  30  31
ENDBRANCH  29  30
ENDBRANCH  28  29
ENDBRANCH  27  28
ENDBRANCH  26  27
ENDBRANCH  25  26
ENDBRANCH  24  25
ENDBRANCH  23  24
ENDBRANCH  22  23
ENDBRANCH  21  22
ENDBRANCH  20  21
ENDBRANCH  19  20
ENDBRANCH  18  19
ENDBRANCH   1  18
TORSDOF 28
ENDMDL
MODEL 5
REMARK VINA RESULT:    -3.824      1.810      3.998
REMARK INTER + INTRA:         -15.257
REMARK INTER:                  -9.155
REMARK INTRA:                  -6.103
REMARK UNBOUND:                -5.173
REMARK SMILES CCCCCCCCCCCCCCCCCCCCCCCCCCCCCC(=O)[O-]
REMARK SMILES IDX 16 1 17 2 18 3 19 4 20 5 21 6 22 7 23 8 24 9 25 10 26 11
REMARK SMILES IDX 27 12 28 13 29 14 30 15 31 16 32 17 15 18 14 19 13 20 12 21
REMARK SMILES IDX 11 22 10 23 9 24 8 25 7 26 6 27 5 28 4 29 3 30 2 31 1 32
REMARK H PARENT
REMARK Flexibility Score: inf
ROOT
ATOM      1  C   UNL     1      37.976  21.506 225.982  1.00  0.00     0.000 C 
ENDROOT
BRANCH   1   2
ATOM      2  C   UNL     1      39.212  20.860 225.329  1.00  0.00     0.000 C 
BRANCH   2   3
ATOM      3  C   UNL     1      39.824  19.736 226.178  1.00  0.00     0.000 C 
BRANCH   3   4
ATOM      4  C   UNL     1      41.319  19.989 226.423  1.00  0.00     0.000 C 
BRANCH   4   5
ATOM      5  C   UNL     1      41.754  21.408 226.021  1.00  0.00     0.000 C 
BRANCH   5   6
ATOM      6  C   UNL     1      42.473  22.151 227.157  1.00  0.00     0.000 C 
BRANCH   6   7
ATOM      7  C   UNL     1      42.183  23.656 227.095  1.00  0.00     0.000 C 
BRANCH   7   8
ATOM      8  C   UNL     1      41.790  24.083 225.672  1.00  0.00     0.000 C 
BRANCH   8   9
ATOM      9  C   UNL     1      40.786  25.246 225.657  1.00  0.00     0.000 C 
BRANCH   9  10
ATOM     10  C   UNL     1      39.764  25.135 224.515  1.00  0.00     0.000 C 
BRANCH  10  11
ATOM     11  C   UNL     1      40.154  24.024 223.532  1.00  0.00     0.000 C 
BRANCH  11  12
ATOM     12  C   UNL     1      38.928  23.517 222.762  1.00  0.00     0.000 C 
BRANCH  12  13
ATOM     13  C   UNL     1      37.667  24.297 223.156  1.00  0.00     0.006 C 
BRANCH  13  14
ATOM     14  C   UNL     1      36.409  23.445 222.956  1.00  0.00     0.053 C 
BRANCH  14  15
ATOM     15  C   UNL     1      35.627  23.898 221.761  1.00  0.00     0.041 C 
ATOM     16  O   UNL     1      34.368  23.836 221.770  1.00  0.00    -0.550 OA
ATOM     17  O   UNL     1      36.277  24.455 220.665  1.00  0.00    -0.550 OA
ENDBRANCH  14  15
ENDBRANCH  13  14
ENDBRANCH  12  13
ENDBRANCH  11  12
ENDBRANCH  10  11
ENDBRANCH   9  10
ENDBRANCH   8   9
ENDBRANCH   7   8
ENDBRANCH   6   7
ENDBRANCH   5   6
ENDBRANCH   4   5
ENDBRANCH   3   4
ENDBRANCH   2   3
ENDBRANCH   1   2
BRANCH   1  18
ATOM     18  C   UNL     1      38.211  22.896 226.601  1.00  0.00     0.000 C 
BRANCH  18  19
ATOM     19  C   UNL     1      37.870  22.952 228.100  1.00  0.00     0.000 C 
BRANCH  19  20
ATOM     20  C   UNL     1      39.104  23.198 228.987  1.00  0.00     0.000 C 
BRANCH  20  21
ATOM     21  C   UNL     1      39.652  21.956 229.716  1.00  0.00     0.000 C 
BRANCH  21  22
ATOM     22  C   UNL     1      38.796  20.684 229.583  1.00  0.00     0.000 C 
BRANCH  22  23
ATOM     23  C   UNL     1      38.860  19.789 230.834  1.00  0.00     0.000 C 
BRANCH  23  24
ATOM     24  C   UNL     1      40.188  19.930 231.594  1.00  0.00    -0.000 C 
BRANCH  24  25
ATOM     25  C   UNL     1      41.152  18.760 231.325  1.00  0.00    -0.000 C 
BRANCH  25  26
ATOM     26  C   UNL     1      41.548  18.652 229.843  1.00  0.00    -0.000 C 
BRANCH  26  27
ATOM     27  C   UNL     1      41.433  17.221 229.299  1.00  0.00    -0.000 C 
BRANCH  27  28
ATOM     28  C   UNL     1      40.173  16.531 229.843  1.00  0.00    -0.000 C 
BRANCH  28  29
ATOM     29  C   UNL     1      39.440  15.697 228.778  1.00  0.00    -0.000 C 
BRANCH  29  30
ATOM     30  C   UNL     1      38.769  16.517 227.660  1.00  0.00    -0.000 C 
BRANCH  30  31
ATOM     31  C   UNL     1      37.674  17.456 228.184  1.00  0.00    -0.003 C 
ATOM     32  C   UNL     1      36.742  17.895 227.059  1.00  0.00     0.004 C 
ENDBRANCH  30  31
ENDBRANCH  29  30
ENDBRANCH  28  29
ENDBRANCH  27  28
ENDBRANCH  26  27
ENDBRANCH  25  26
ENDBRANCH  24  25
ENDBRANCH  23  24
ENDBRANCH  22  23
ENDBRANCH  21  22
ENDBRANCH  20  21
ENDBRANCH  19  20
ENDBRANCH  18  19
ENDBRANCH   1  18
TORSDOF 28
ENDMDL
MODEL 6
REMARK VINA RESULT:    -3.824      3.431      6.773
REMARK INTER + INTRA:         -15.256
REMARK INTER:                  -9.027
REMARK INTRA:                  -6.229
REMARK UNBOUND:                -5.173
REMARK SMILES CCCCCCCCCCCCCCCCCCCCCCCCCCCCCC(=O)[O-]
REMARK SMILES IDX 16 1 17 2 18 3 19 4 20 5 21 6 22 7 23 8 24 9 25 10 26 11
REMARK SMILES IDX 27 12 28 13 29 14 30 15 31 16 32 17 15 18 14 19 13 20 12 21
REMARK SMILES IDX 11 22 10 23 9 24 8 25 7 26 6 27 5 28 4 29 3 30 2 31 1 32
REMARK H PARENT
REMARK Flexibility Score: inf
ROOT
ATOM      1  C   UNL     1      40.317  24.022 222.937  1.00  0.00     0.000 C 
ENDROOT
BRANCH   1   2
ATOM      2  C   UNL     1      39.887  24.652 224.274  1.00  0.00     0.000 C 
BRANCH   2   3
ATOM      3  C   UNL     1      38.579  25.450 224.172  1.00  0.00     0.000 C 
BRANCH   3   4
ATOM      4  C   UNL     1      37.398  24.634 224.718  1.00  0.00     0.000 C 
BRANCH   4   5
ATOM      5  C   UNL     1      36.650  23.864 223.619  1.00  0.00     0.000 C 
BRANCH   5   6
ATOM      6  C   UNL     1      36.839  22.343 223.727  1.00  0.00     0.000 C 
BRANCH   6   7
ATOM      7  C   UNL     1      37.621  21.980 224.996  1.00  0.00     0.000 C 
BRANCH   7   8
ATOM      8  C   UNL     1      37.271  20.562 225.472  1.00  0.00     0.000 C 
BRANCH   8   9
ATOM      9  C   UNL     1      37.489  20.371 226.982  1.00  0.00     0.000 C 
BRANCH   9  10
ATOM     10  C   UNL     1      37.778  18.910 227.361  1.00  0.00     0.000 C 
BRANCH  10  11
ATOM     11  C   UNL     1      38.532  18.188 226.238  1.00  0.00     0.000 C 
BRANCH  11  12
ATOM     12  C   UNL     1      39.584  17.230 226.811  1.00  0.00     0.000 C 
BRANCH  12  13
ATOM     13  C   UNL     1      38.986  16.346 227.912  1.00  0.00     0.006 C 
BRANCH  13  14
ATOM     14  C   UNL     1      40.016  16.063 229.011  1.00  0.00     0.053 C 
BRANCH  14  15
ATOM     15  C   UNL     1      40.419  17.321 229.717  1.00  0.00     0.041 C 
ATOM     16  O   UNL     1      41.619  17.704 229.690  1.00  0.00    -0.550 OA
ATOM     17  O   UNL     1      39.463  18.113 230.345  1.00  0.00    -0.550 OA
ENDBRANCH  14  15
ENDBRANCH  13  14
ENDBRANCH  12  13
ENDBRANCH  11  12
ENDBRANCH  10  11
ENDBRANCH   9  10
ENDBRANCH   8   9
ENDBRANCH   7   8
ENDBRANCH   6   7
ENDBRANCH   5   6
ENDBRANCH   4   5
ENDBRANCH   3   4
ENDBRANCH   2   3
ENDBRANCH   1   2
BRANCH   1  18
ATOM     18  C   UNL     1      40.897  22.600 223.038  1.00  0.00     0.000 C 
BRANCH  18  19
ATOM     19  C   UNL     1      41.428  22.266 224.443  1.00  0.00     0.000 C 
BRANCH  19  20
ATOM     20  C   UNL     1      41.063  20.841 224.899  1.00  0.00     0.000 C 
BRANCH  20  21
ATOM     21  C   UNL     1      41.904  20.284 226.065  1.00  0.00     0.000 C 
BRANCH  21  22
ATOM     22  C   UNL     1      41.271  20.429 227.460  1.00  0.00     0.000 C 
BRANCH  22  23
ATOM     23  C   UNL     1      42.100  21.323 228.400  1.00  0.00     0.000 C 
BRANCH  23  24
ATOM     24  C   UNL     1      41.270  21.888 229.564  1.00  0.00    -0.000 C 
BRANCH  24  25
ATOM     25  C   UNL     1      39.757  21.689 229.364  1.00  0.00    -0.000 C 
BRANCH  25  26
ATOM     26  C   UNL     1      39.013  23.015 229.136  1.00  0.00    -0.000 C 
BRANCH  26  27
ATOM     27  C   UNL     1      39.359  23.666 227.788  1.00  0.00    -0.000 C 
BRANCH  27  28
ATOM     28  C   UNL     1      39.514  25.186 227.942  1.00  0.00    -0.000 C 
BRANCH  28  29
ATOM     29  C   UNL     1      40.945  25.673 227.650  1.00  0.00    -0.000 C 
BRANCH  29  30
ATOM     30  C   UNL     1      41.918  24.580 227.173  1.00  0.00    -0.000 C 
BRANCH  30  31
ATOM     31  C   UNL     1      43.177  25.151 226.506  1.00  0.00    -0.003 C 
ATOM     32  C   UNL     1      42.972  26.608 226.101  1.00  0.00     0.004 C 
ENDBRANCH  30  31
ENDBRANCH  29  30
ENDBRANCH  28  29
ENDBRANCH  27  28
ENDBRANCH  26  27
ENDBRANCH  25  26
ENDBRANCH  24  25
ENDBRANCH  23  24
ENDBRANCH  22  23
ENDBRANCH  21  22
ENDBRANCH  20  21
ENDBRANCH  19  20
ENDBRANCH  18  19
ENDBRANCH   1  18
TORSDOF 28
ENDMDL
MODEL 7
REMARK VINA RESULT:    -3.817      2.110      4.825
REMARK INTER + INTRA:         -15.237
REMARK INTER:                  -9.629
REMARK INTRA:                  -5.607
REMARK UNBOUND:                -5.173
REMARK SMILES CCCCCCCCCCCCCCCCCCCCCCCCCCCCCC(=O)[O-]
REMARK SMILES IDX 16 1 17 2 18 3 19 4 20 5 21 6 22 7 23 8 24 9 25 10 26 11
REMARK SMILES IDX 27 12 28 13 29 14 30 15 31 16 32 17 15 18 14 19 13 20 12 21
REMARK SMILES IDX 11 22 10 23 9 24 8 25 7 26 6 27 5 28 4 29 3 30 2 31 1 32
REMARK H PARENT
REMARK Flexibility Score: inf
ROOT
ATOM      1  C   UNL     1      37.961  19.178 226.987  1.00  0.00     0.000 C 
ENDROOT
BRANCH   1   2
ATOM      2  C   UNL     1      39.325  19.718 226.519  1.00  0.00     0.000 C 
BRANCH   2   3
ATOM      3  C   UNL     1      39.950  18.881 225.393  1.00  0.00     0.000 C 
BRANCH   3   4
ATOM      4  C   UNL     1      41.469  18.753 225.586  1.00  0.00     0.000 C 
BRANCH   4   5
ATOM      5  C   UNL     1      42.249  19.903 224.931  1.00  0.00     0.000 C 
BRANCH   5   6
ATOM      6  C   UNL     1      42.206  19.849 223.396  1.00  0.00     0.000 C 
BRANCH   6   7
ATOM      7  C   UNL     1      42.485  21.231 222.793  1.00  0.00     0.000 C 
BRANCH   7   8
ATOM      8  C   UNL     1      41.198  22.066 222.707  1.00  0.00     0.000 C 
BRANCH   8   9
ATOM      9  C   UNL     1      41.306  23.403 223.457  1.00  0.00     0.000 C 
BRANCH   9  10
ATOM     10  C   UNL     1      40.169  23.610 224.470  1.00  0.00     0.000 C 
BRANCH  10  11
ATOM     11  C   UNL     1      39.244  22.387 224.519  1.00  0.00     0.000 C 
BRANCH  11  12
ATOM     12  C   UNL     1      37.813  22.765 224.117  1.00  0.00     0.000 C 
BRANCH  12  13
ATOM     13  C   UNL     1      37.807  23.678 222.885  1.00  0.00     0.006 C 
BRANCH  13  14
ATOM     14  C   UNL     1      36.693  24.726 222.982  1.00  0.00     0.053 C 
BRANCH  14  15
ATOM     15  C   UNL     1      36.853  25.581 224.201  1.00  0.00     0.041 C 
ATOM     16  O   UNL     1      35.964  25.580 225.094  1.00  0.00    -0.550 OA
ATOM     17  O   UNL     1      38.013  26.325 224.392  1.00  0.00    -0.550 OA
ENDBRANCH  14  15
ENDBRANCH  13  14
ENDBRANCH  12  13
ENDBRANCH  11  12
ENDBRANCH  10  11
ENDBRANCH   9  10
ENDBRANCH   8   9
ENDBRANCH   7   8
ENDBRANCH   6   7
ENDBRANCH   5   6
ENDBRANCH   4   5
ENDBRANCH   3   4
ENDBRANCH   2   3
ENDBRANCH   1   2
BRANCH   1  18
ATOM     18  C   UNL     1      37.724  17.680 226.726  1.00  0.00     0.000 C 
BRANCH  18  19
ATOM     19  C   UNL     1      37.159  16.938 227.951  1.00  0.00     0.000 C 
BRANCH  19  20
ATOM     20  C   UNL     1      37.314  15.410 227.851  1.00  0.00     0.000 C 
BRANCH  20  21
ATOM     21  C   UNL     1      38.601  14.833 228.473  1.00  0.00     0.000 C 
BRANCH  21  22
ATOM     22  C   UNL     1      39.776  14.645 227.497  1.00  0.00     0.000 C 
BRANCH  22  23
ATOM     23  C   UNL     1      40.777  15.815 227.538  1.00  0.00     0.000 C 
BRANCH  23  24
ATOM     24  C   UNL     1      41.126  16.244 228.972  1.00  0.00    -0.000 C 
BRANCH  24  25
ATOM     25  C   UNL     1      40.807  17.726 229.241  1.00  0.00    -0.000 C 
BRANCH  25  26
ATOM     26  C   UNL     1      39.838  17.915 230.420  1.00  0.00    -0.000 C 
BRANCH  26  27
ATOM     27  C   UNL     1      39.084  19.252 230.361  1.00  0.00    -0.000 C 
BRANCH  27  28
ATOM     28  C   UNL     1      40.067  20.428 230.268  1.00  0.00    -0.000 C 
BRANCH  28  29
ATOM     29  C   UNL     1      39.424  21.701 229.690  1.00  0.00    -0.000 C 
BRANCH  29  30
ATOM     30  C   UNL     1      40.276  22.439 228.640  1.00  0.00    -0.000 C 
BRANCH  30  31
ATOM     31  C   UNL     1      41.666  21.815 228.454  1.00  0.00    -0.003 C 
ATOM     32  C   UNL     1      42.431  22.504 227.328  1.00  0.00     0.004 C 
ENDBRANCH  30  31
ENDBRANCH  29  30
ENDBRANCH  28  29
ENDBRANCH  27  28
ENDBRANCH  26  27
ENDBRANCH  25  26
ENDBRANCH  24  25
ENDBRANCH  23  24
ENDBRANCH  22  23
ENDBRANCH  21  22
ENDBRANCH  20  21
ENDBRANCH  19  20
ENDBRANCH  18  19
ENDBRANCH   1  18
TORSDOF 28
ENDMDL
MODEL 8
REMARK VINA RESULT:    -3.774      1.787      3.659
REMARK INTER + INTRA:         -15.123
REMARK INTER:                  -9.955
REMARK INTRA:                  -5.169
REMARK UNBOUND:                -5.173
REMARK SMILES CCCCCCCCCCCCCCCCCCCCCCCCCCCCCC(=O)[O-]
REMARK SMILES IDX 16 1 17 2 18 3 19 4 20 5 21 6 22 7 23 8 24 9 25 10 26 11
REMARK SMILES IDX 27 12 28 13 29 14 30 15 31 16 32 17 15 18 14 19 13 20 12 21
REMARK SMILES IDX 11 22 10 23 9 24 8 25 7 26 6 27 5 28 4 29 3 30 2 31 1 32
REMARK H PARENT
REMARK Flexibility Score: inf
ROOT
ATOM      1  C   UNL     1      40.125  21.853 224.258  1.00  0.00     0.000 C 
ENDROOT
BRANCH   1   2
ATOM      2  C   UNL     1      39.278  20.979 225.201  1.00  0.00     0.000 C 
BRANCH   2   3
ATOM      3  C   UNL     1      38.064  21.720 225.781  1.00  0.00     0.000 C 
BRANCH   3   4
ATOM      4  C   UNL     1      38.401  22.332 227.149  1.00  0.00     0.000 C 
BRANCH   4   5
ATOM      5  C   UNL     1      37.605  23.615 227.437  1.00  0.00     0.000 C 
BRANCH   5   6
ATOM      6  C   UNL     1      38.509  24.806 227.787  1.00  0.00     0.000 C 
BRANCH   6   7
ATOM      7  C   UNL     1      39.891  24.652 227.139  1.00  0.00     0.000 C 
BRANCH   7   8
ATOM      8  C   UNL     1      40.084  25.670 226.004  1.00  0.00     0.000 C 
BRANCH   8   9
ATOM      9  C   UNL     1      39.324  25.285 224.725  1.00  0.00     0.000 C 
BRANCH   9  10
ATOM     10  C   UNL     1      38.160  26.239 224.415  1.00  0.00     0.000 C 
BRANCH  10  11
ATOM     11  C   UNL     1      37.210  25.630 223.376  1.00  0.00     0.000 C 
BRANCH  11  12
ATOM     12  C   UNL     1      36.414  24.465 223.977  1.00  0.00     0.000 C 
BRANCH  12  13
ATOM     13  C   UNL     1      36.002  23.460 222.895  1.00  0.00     0.006 C 
BRANCH  13  14
ATOM     14  C   UNL     1      36.778  23.703 221.595  1.00  0.00     0.053 C 
BRANCH  14  15
ATOM     15  C   UNL     1      35.877  24.200 220.507  1.00  0.00     0.041 C 
ATOM     16  O   UNL     1      36.366  24.745 219.482  1.00  0.00    -0.550 OA
ATOM     17  O   UNL     1      34.502  24.000 220.585  1.00  0.00    -0.550 OA
ENDBRANCH  14  15
ENDBRANCH  13  14
ENDBRANCH  12  13
ENDBRANCH  11  12
ENDBRANCH  10  11
ENDBRANCH   9  10
ENDBRANCH   8   9
ENDBRANCH   7   8
ENDBRANCH   6   7
ENDBRANCH   5   6
ENDBRANCH   4   5
ENDBRANCH   3   4
ENDBRANCH   2   3
ENDBRANCH   1   2
BRANCH   1  18
ATOM     18  C   UNL     1      41.525  22.220 224.785  1.00  0.00     0.000 C 
BRANCH  18  19
ATOM     19  C   UNL     1      42.000  21.298 225.921  1.00  0.00     0.000 C 
BRANCH  19  20
ATOM     20  C   UNL     1      42.428  22.072 227.182  1.00  0.00     0.000 C 
BRANCH  20  21
ATOM     21  C   UNL     1      41.846  21.547 228.509  1.00  0.00     0.000 C 
BRANCH  21  22
ATOM     22  C   UNL     1      41.052  20.233 228.405  1.00  0.00     0.000 C 
BRANCH  22  23
ATOM     23  C   UNL     1      40.675  19.655 229.781  1.00  0.00     0.000 C 
BRANCH  23  24
ATOM     24  C   UNL     1      39.619  18.542 229.686  1.00  0.00    -0.000 C 
BRANCH  24  25
ATOM     25  C   UNL     1      38.439  18.921 228.773  1.00  0.00    -0.000 C 
BRANCH  25  26
ATOM     26  C   UNL     1      38.117  17.827 227.743  1.00  0.00    -0.000 C 
BRANCH  26  27
ATOM     27  C   UNL     1      39.244  17.622 226.719  1.00  0.00    -0.000 C 
BRANCH  27  28
ATOM     28  C   UNL     1      40.092  16.394 227.082  1.00  0.00    -0.000 C 
BRANCH  28  29
ATOM     29  C   UNL     1      39.244  15.196 227.543  1.00  0.00    -0.000 C 
BRANCH  29  30
ATOM     30  C   UNL     1      39.940  14.254 228.543  1.00  0.00    -0.000 C 
BRANCH  30  31
ATOM     31  C   UNL     1      40.522  14.996 229.755  1.00  0.00    -0.003 C 
ATOM     32  C   UNL     1      42.048  15.002 229.714  1.00  0.00     0.004 C 
ENDBRANCH  30  31
ENDBRANCH  29  30
ENDBRANCH  28  29
ENDBRANCH  27  28
ENDBRANCH  26  27
ENDBRANCH  25  26
ENDBRANCH  24  25
ENDBRANCH  23  24
ENDBRANCH  22  23
ENDBRANCH  21  22
ENDBRANCH  20  21
ENDBRANCH  19  20
ENDBRANCH  18  19
ENDBRANCH   1  18
TORSDOF 28
ENDMDL
MODEL 9
REMARK VINA RESULT:    -3.758      3.314      7.503
REMARK INTER + INTRA:         -15.082
REMARK INTER:                  -9.279
REMARK INTRA:                  -5.803
REMARK UNBOUND:                -5.173
REMARK SMILES CCCCCCCCCCCCCCCCCCCCCCCCCCCCCC(=O)[O-]
REMARK SMILES IDX 16 1 17 2 18 3 19 4 20 5 21 6 22 7 23 8 24 9 25 10 26 11
REMARK SMILES IDX 27 12 28 13 29 14 30 15 31 16 32 17 15 18 14 19 13 20 12 21
REMARK SMILES IDX 11 22 10 23 9 24 8 25 7 26 6 27 5 28 4 29 3 30 2 31 1 32
REMARK H PARENT
REMARK Flexibility Score: inf
ROOT
ATOM      1  C   UNL     1      41.704  21.505 225.181  1.00  0.00     0.000 C 
ENDROOT
BRANCH   1   2
ATOM      2  C   UNL     1      41.564  20.065 225.710  1.00  0.00     0.000 C 
BRANCH   2   3
ATOM      3  C   UNL     1      40.543  19.230 224.922  1.00  0.00     0.000 C 
BRANCH   3   4
ATOM      4  C   UNL     1      39.886  18.177 225.826  1.00  0.00     0.000 C 
BRANCH   4   5
ATOM      5  C   UNL     1      38.370  18.385 225.975  1.00  0.00     0.000 C 
BRANCH   5   6
ATOM      6  C   UNL     1      37.937  19.824 225.658  1.00  0.00     0.000 C 
BRANCH   6   7
ATOM      7  C   UNL     1      37.515  20.561 226.936  1.00  0.00     0.000 C 
BRANCH   7   8
ATOM      8  C   UNL     1      38.475  21.719 227.247  1.00  0.00     0.000 C 
BRANCH   8   9
ATOM      9  C   UNL     1      39.072  21.633 228.661  1.00  0.00     0.000 C 
BRANCH   9  10
ATOM     10  C   UNL     1      39.839  20.323 228.903  1.00  0.00     0.000 C 
BRANCH  10  11
ATOM     11  C   UNL     1      39.596  19.796 230.322  1.00  0.00     0.000 C 
BRANCH  11  12
ATOM     12  C   UNL     1      40.004  18.321 230.437  1.00  0.00     0.000 C 
BRANCH  12  13
ATOM     13  C   UNL     1      39.293  17.467 229.381  1.00  0.00     0.006 C 
BRANCH  13  14
ATOM     14  C   UNL     1      40.044  16.152 229.142  1.00  0.00     0.053 C 
BRANCH  14  15
ATOM     15  C   UNL     1      39.377  15.329 228.081  1.00  0.00     0.041 C 
ATOM     16  O   UNL     1      40.071  14.757 227.198  1.00  0.00    -0.550 OA
ATOM     17  O   UNL     1      38.001  15.133 228.105  1.00  0.00    -0.550 OA
ENDBRANCH  14  15
ENDBRANCH  13  14
ENDBRANCH  12  13
ENDBRANCH  11  12
ENDBRANCH  10  11
ENDBRANCH   9  10
ENDBRANCH   8   9
ENDBRANCH   7   8
ENDBRANCH   6   7
ENDBRANCH   5   6
ENDBRANCH   4   5
ENDBRANCH   3   4
ENDBRANCH   2   3
ENDBRANCH   1   2
BRANCH   1  18
ATOM     18  C   UNL     1      41.241  21.718 223.728  1.00  0.00     0.000 C 
BRANCH  18  19
ATOM     19  C   UNL     1      41.172  23.203 223.332  1.00  0.00     0.000 C 
BRANCH  19  20
ATOM     20  C   UNL     1      39.747  23.661 222.967  1.00  0.00     0.000 C 
BRANCH  20  21
ATOM     21  C   UNL     1      38.608  22.914 223.689  1.00  0.00     0.000 C 
BRANCH  21  22
ATOM     22  C   UNL     1      37.185  23.350 223.299  1.00  0.00     0.000 C 
BRANCH  22  23
ATOM     23  C   UNL     1      36.948  24.858 223.501  1.00  0.00     0.000 C 
BRANCH  23  24
ATOM     24  C   UNL     1      36.387  25.187 224.894  1.00  0.00    -0.000 C 
BRANCH  24  25
ATOM     25  C   UNL     1      37.492  25.512 225.915  1.00  0.00    -0.000 C 
BRANCH  25  26
ATOM     26  C   UNL     1      38.647  26.316 225.297  1.00  0.00    -0.000 C 
BRANCH  26  27
ATOM     27  C   UNL     1      40.024  25.877 225.819  1.00  0.00    -0.000 C 
BRANCH  27  28
ATOM     28  C   UNL     1      39.876  24.970 227.049  1.00  0.00    -0.000 C 
BRANCH  28  29
ATOM     29  C   UNL     1      41.111  24.999 227.967  1.00  0.00    -0.000 C 
BRANCH  29  30
ATOM     30  C   UNL     1      41.993  23.738 227.909  1.00  0.00    -0.000 C 
BRANCH  30  31
ATOM     31  C   UNL     1      43.447  24.043 227.523  1.00  0.00    -0.003 C 
ATOM     32  C   UNL     1      43.520  25.189 226.518  1.00  0.00     0.004 C 
ENDBRANCH  30  31
ENDBRANCH  29  30
ENDBRANCH  28  29
ENDBRANCH  27  28
ENDBRANCH  26  27
ENDBRANCH  25  26
ENDBRANCH  24  25
ENDBRANCH  23  24
ENDBRANCH  22  23
ENDBRANCH  21  22
ENDBRANCH  20  21
ENDBRANCH  19  20
ENDBRANCH  18  19
ENDBRANCH   1  18
TORSDOF 28
ENDMDL
