MODEL 1
REMARK VINA RESULT:    -5.080      0.000      0.000
REMARK INTER + INTRA:          -5.080
REMARK INTER:                  -5.080
REMARK INTRA:                   0.000
REMARK UNBOUND:                 0.000
REMARK SMILES CC1(C)O[C@]2(C)CC[C@H]1CC2
REMARK SMILES IDX 1 1 2 2 9 3 10 4 11 5 5 6 4 7 7 8 8 9 6 10 3 11
REMARK H PARENT
REMARK Flexibility Score: inf
ROOT
ATOM      1  C   UNL     1      72.909   0.859   0.119  1.00  0.00     0.042 C 
ATOM      2  C   UNL     1      71.535   1.033  -0.564  1.00  0.00     0.066 C 
ATOM      3  C   UNL     1      71.435   2.443  -1.263  1.00  0.00     0.021 C 
ATOM      4  C   UNL     1      72.502   2.511  -2.383  1.00  0.00     0.009 C 
ATOM      5  C   UNL     1      72.363   1.268  -3.293  1.00  0.00     0.035 C 
ATOM      6  C   UNL     1      71.145   0.414  -2.838  1.00  0.00     0.066 C 
ATOM      7  O   UNL     1      71.364  -0.040  -1.502  1.00  0.00    -0.369 OA
ATOM      8  C   UNL     1      69.866   1.299  -2.874  1.00  0.00     0.035 C 
ATOM      9  C   UNL     1      70.063   2.542  -1.972  1.00  0.00     0.009 C 
ATOM     10  C   UNL     1      70.977  -0.804  -3.752  1.00  0.00     0.042 C 
ATOM     11  C   UNL     1      70.456   0.889   0.531  1.00  0.00     0.042 C 
ENDROOT
TORSDOF 0
ENDMDL
MODEL 2
REMARK VINA RESULT:    -4.690      1.018      3.343
REMARK INTER + INTRA:          -4.690
REMARK INTER:                  -4.690
REMARK INTRA:                   0.000
REMARK UNBOUND:                 0.000
REMARK SMILES CC1(C)O[C@]2(C)CC[C@H]1CC2
REMARK SMILES IDX 1 1 2 2 9 3 10 4 11 5 5 6 4 7 7 8 8 9 6 10 3 11
REMARK H PARENT
REMARK Flexibility Score: inf
ROOT
ATOM      1  C   UNL     1      69.464   1.216  -3.882  1.00  0.00     0.042 C 
ATOM      2  C   UNL     1      70.804   1.077  -3.128  1.00  0.00     0.066 C 
ATOM      3  C   UNL     1      71.524   2.475  -3.008  1.00  0.00     0.021 C 
ATOM      4  C   UNL     1      70.630   3.414  -2.162  1.00  0.00     0.009 C 
ATOM      5  C   UNL     1      70.256   2.704  -0.839  1.00  0.00     0.035 C 
ATOM      6  C   UNL     1      70.973   1.326  -0.758  1.00  0.00     0.066 C 
ATOM      7  O   UNL     1      70.533   0.504  -1.840  1.00  0.00    -0.369 OA
ATOM      8  C   UNL     1      72.509   1.548  -0.878  1.00  0.00     0.035 C 
ATOM      9  C   UNL     1      72.830   2.285  -2.201  1.00  0.00     0.009 C 
ATOM     10  C   UNL     1      70.637   0.626   0.563  1.00  0.00     0.042 C 
ATOM     11  C   UNL     1      71.677   0.080  -3.922  1.00  0.00     0.042 C 
ENDROOT
TORSDOF 0
ENDMDL
MODEL 3
REMARK VINA RESULT:    -4.643     12.857     14.386
REMARK INTER + INTRA:          -4.643
REMARK INTER:                  -4.643
REMARK INTRA:                   0.000
REMARK UNBOUND:                 0.000
REMARK SMILES CC1(C)O[C@]2(C)CC[C@H]1CC2
REMARK SMILES IDX 1 1 2 2 9 3 10 4 11 5 5 6 4 7 7 8 8 9 6 10 3 11
REMARK H PARENT
REMARK Flexibility Score: inf
ROOT
ATOM      1  C   UNL     1      84.395   0.961 -10.087  1.00  0.00     0.042 C 
ATOM      2  C   UNL     1      83.626   0.382  -8.879  1.00  0.00     0.066 C 
ATOM      3  C   UNL     1      82.446  -0.546  -9.362  1.00  0.00     0.021 C 
ATOM      4  C   UNL     1      83.051  -1.750 -10.125  1.00  0.00     0.009 C 
ATOM      5  C   UNL     1      84.145  -2.408  -9.250  1.00  0.00     0.035 C 
ATOM      6  C   UNL     1      84.209  -1.701  -7.865  1.00  0.00     0.066 C 
ATOM      7  O   UNL     1      84.560  -0.330  -8.055  1.00  0.00    -0.369 OA
ATOM      8  C   UNL     1      82.808  -1.781  -7.193  1.00  0.00     0.035 C 
ATOM      9  C   UNL     1      81.745  -1.137  -8.116  1.00  0.00     0.009 C 
ATOM     10  C   UNL     1      85.266  -2.364  -6.976  1.00  0.00     0.042 C 
ATOM     11  C   UNL     1      83.081   1.577  -8.066  1.00  0.00     0.042 C 
ENDROOT
TORSDOF 0
ENDMDL
MODEL 4
REMARK VINA RESULT:    -4.259      1.095      2.423
REMARK INTER + INTRA:          -4.259
REMARK INTER:                  -4.259
REMARK INTRA:                   0.000
REMARK UNBOUND:                 0.000
REMARK SMILES CC1(C)O[C@]2(C)CC[C@H]1CC2
REMARK SMILES IDX 1 1 2 2 9 3 10 4 11 5 5 6 4 7 7 8 8 9 6 10 3 11
REMARK H PARENT
REMARK Flexibility Score: inf
ROOT
ATOM      1  C   UNL     1      72.430   3.668  -2.750  1.00  0.00     0.042 C 
ATOM      2  C   UNL     1      72.250   2.333  -1.995  1.00  0.00     0.066 C 
ATOM      3  C   UNL     1      70.976   2.385  -1.066  1.00  0.00     0.021 C 
ATOM      4  C   UNL     1      69.725   2.564  -1.961  1.00  0.00     0.009 C 
ATOM      5  C   UNL     1      69.737   1.487  -3.072  1.00  0.00     0.035 C 
ATOM      6  C   UNL     1      70.947   0.531  -2.868  1.00  0.00     0.066 C 
ATOM      7  O   UNL     1      72.159   1.281  -2.966  1.00  0.00    -0.369 OA
ATOM      8  C   UNL     1      70.854  -0.105  -1.451  1.00  0.00     0.035 C 
ATOM      9  C   UNL     1      70.816   1.009  -0.377  1.00  0.00     0.009 C 
ATOM     10  C   UNL     1      70.953  -0.560  -3.943  1.00  0.00     0.042 C 
ATOM     11  C   UNL     1      73.527   2.104  -1.157  1.00  0.00     0.042 C 
ENDROOT
TORSDOF 0
ENDMDL
MODEL 5
REMARK VINA RESULT:    -4.214     14.765     16.069
REMARK INTER + INTRA:          -4.214
REMARK INTER:                  -4.214
REMARK INTRA:                   0.000
REMARK UNBOUND:                 0.000
REMARK SMILES CC1(C)O[C@]2(C)CC[C@H]1CC2
REMARK SMILES IDX 1 1 2 2 9 3 10 4 11 5 5 6 4 7 7 8 8 9 6 10 3 11
REMARK H PARENT
REMARK Flexibility Score: inf
ROOT
ATOM      1  C   UNL     1      85.068   2.460   8.974  1.00  0.00     0.042 C 
ATOM      2  C   UNL     1      83.666   2.838   8.448  1.00  0.00     0.066 C 
ATOM      3  C   UNL     1      82.772   3.417   9.611  1.00  0.00     0.021 C 
ATOM      4  C   UNL     1      83.424   4.724  10.125  1.00  0.00     0.009 C 
ATOM      5  C   UNL     1      83.702   5.660   8.924  1.00  0.00     0.035 C 
ATOM      6  C   UNL     1      83.153   5.018   7.617  1.00  0.00     0.066 C 
ATOM      7  O   UNL     1      83.831   3.783   7.381  1.00  0.00    -0.369 OA
ATOM      8  C   UNL     1      81.632   4.741   7.791  1.00  0.00     0.035 C 
ATOM      9  C   UNL     1      81.402   3.826   9.018  1.00  0.00     0.009 C 
ATOM     10  C   UNL     1      83.393   5.949   6.424  1.00  0.00     0.042 C 
ATOM     11  C   UNL     1      83.035   1.556   7.861  1.00  0.00     0.042 C 
ENDROOT
TORSDOF 0
ENDMDL
MODEL 6
REMARK VINA RESULT:    -4.161      1.366      3.115
REMARK INTER + INTRA:          -4.161
REMARK INTER:                  -4.161
REMARK INTRA:                   0.000
REMARK UNBOUND:                 0.000
REMARK SMILES CC1(C)O[C@]2(C)CC[C@H]1CC2
REMARK SMILES IDX 1 1 2 2 9 3 10 4 11 5 5 6 4 7 7 8 8 9 6 10 3 11
REMARK H PARENT
REMARK Flexibility Score: inf
ROOT
ATOM      1  C   UNL     1      71.348  -0.554  -3.356  1.00  0.00     0.042 C 
ATOM      2  C   UNL     1      70.647   0.806  -3.144  1.00  0.00     0.066 C 
ATOM      3  C   UNL     1      70.185   0.967  -1.645  1.00  0.00     0.021 C 
ATOM      4  C   UNL     1      71.442   0.966  -0.742  1.00  0.00     0.009 C 
ATOM      5  C   UNL     1      72.453   2.008  -1.278  1.00  0.00     0.035 C 
ATOM      6  C   UNL     1      71.835   2.771  -2.485  1.00  0.00     0.066 C 
ATOM      7  O   UNL     1      71.560   1.843  -3.535  1.00  0.00    -0.369 OA
ATOM      8  C   UNL     1      70.505   3.439  -2.032  1.00  0.00     0.035 C 
ATOM      9  C   UNL     1      69.539   2.363  -1.479  1.00  0.00     0.009 C 
ATOM     10  C   UNL     1      72.813   3.829  -3.005  1.00  0.00     0.042 C 
ATOM     11  C   UNL     1      69.433   0.851  -4.097  1.00  0.00     0.042 C 
ENDROOT
TORSDOF 0
ENDMDL
MODEL 7
REMARK VINA RESULT:    -4.093      1.388      2.804
REMARK INTER + INTRA:          -4.093
REMARK INTER:                  -4.093
REMARK INTRA:                   0.000
REMARK UNBOUND:                 0.000
REMARK SMILES CC1(C)O[C@]2(C)CC[C@H]1CC2
REMARK SMILES IDX 1 1 2 2 9 3 10 4 11 5 5 6 4 7 7 8 8 9 6 10 3 11
REMARK H PARENT
REMARK Flexibility Score: inf
ROOT
ATOM      1  C   UNL     1      71.744   2.058   1.231  1.00  0.00     0.042 C 
ATOM      2  C   UNL     1      72.112   1.490  -0.157  1.00  0.00     0.066 C 
ATOM      3  C   UNL     1      70.915   0.651  -0.751  1.00  0.00     0.021 C 
ATOM      4  C   UNL     1      69.709   1.600  -0.960  1.00  0.00     0.009 C 
ATOM      5  C   UNL     1      70.168   2.834  -1.772  1.00  0.00     0.035 C 
ATOM      6  C   UNL     1      71.659   2.670  -2.185  1.00  0.00     0.066 C 
ATOM      7  O   UNL     1      72.466   2.591  -1.009  1.00  0.00    -0.369 OA
ATOM      8  C   UNL     1      71.815   1.354  -3.000  1.00  0.00     0.035 C 
ATOM      9  C   UNL     1      71.318   0.153  -2.159  1.00  0.00     0.009 C 
ATOM     10  C   UNL     1      72.118   3.871  -3.018  1.00  0.00     0.042 C 
ATOM     11  C   UNL     1      73.362   0.603   0.025  1.00  0.00     0.042 C 
ENDROOT
TORSDOF 0
ENDMDL
MODEL 8
REMARK VINA RESULT:    -3.760     12.868     14.350
REMARK INTER + INTRA:          -3.760
REMARK INTER:                  -3.760
REMARK INTRA:                   0.000
REMARK UNBOUND:                 0.000
REMARK SMILES CC1(C)O[C@]2(C)CC[C@H]1CC2
REMARK SMILES IDX 1 1 2 2 9 3 10 4 11 5 5 6 4 7 7 8 8 9 6 10 3 11
REMARK H PARENT
REMARK Flexibility Score: inf
ROOT
ATOM      1  C   UNL     1      85.018  -3.262  -8.247  1.00  0.00     0.042 C 
ATOM      2  C   UNL     1      83.733  -2.581  -8.766  1.00  0.00     0.066 C 
ATOM      3  C   UNL     1      82.828  -2.109  -7.564  1.00  0.00     0.021 C 
ATOM      4  C   UNL     1      83.605  -1.040  -6.757  1.00  0.00     0.009 C 
ATOM      5  C   UNL     1      84.113   0.056  -7.723  1.00  0.00     0.035 C 
ATOM      6  C   UNL     1      83.599  -0.229  -9.163  1.00  0.00     0.066 C 
ATOM      7  O   UNL     1      84.119  -1.484  -9.607  1.00  0.00    -0.369 OA
ATOM      8  C   UNL     1      82.045  -0.301  -9.139  1.00  0.00     0.035 C 
ATOM      9  C   UNL     1      81.585  -1.390  -8.140  1.00  0.00     0.009 C 
ATOM     10  C   UNL     1      84.068   0.867 -10.125  1.00  0.00     0.042 C 
ATOM     11  C   UNL     1      82.986  -3.614  -9.638  1.00  0.00     0.042 C 
ENDROOT
TORSDOF 0
ENDMDL
