MODEL 1
REMARK VINA RESULT:    -4.620      0.000      0.000
REMARK INTER + INTRA:         -17.031
REMARK INTER:                 -11.643
REMARK INTRA:                  -5.388
REMARK UNBOUND:                -5.388
REMARK SMILES CCCCCCCCCCCCCCCCCCCCCCCCCCCC(=O)[O-]
REMARK SMILES IDX 15 1 16 2 17 3 18 4 19 5 20 6 21 7 22 8 23 9 24 10 25 11
REMARK SMILES IDX 26 12 27 13 28 14 29 15 30 16 14 17 13 18 12 19 11 20 10 21
REMARK SMILES IDX 9 22 8 23 7 24 6 25 5 26 4 27 3 28 2 29 1 30
REMARK H PARENT
REMARK Flexibility Score: inf
ROOT
ATOM      1  C   UNL     1       6.884 -19.880  24.140  1.00  0.00     0.000 C 
ENDROOT
BRANCH   1   2
ATOM      2  C   UNL     1       7.197 -21.140  23.313  1.00  0.00     0.000 C 
BRANCH   2   3
ATOM      3  C   UNL     1       6.788 -20.995  21.838  1.00  0.00     0.000 C 
BRANCH   3   4
ATOM      4  C   UNL     1       7.362 -22.122  20.962  1.00  0.00     0.000 C 
BRANCH   4   5
ATOM      5  C   UNL     1       8.407 -22.978  21.697  1.00  0.00     0.000 C 
BRANCH   5   6
ATOM      6  C   UNL     1       9.823 -22.811  21.116  1.00  0.00     0.000 C 
BRANCH   6   7
ATOM      7  C   UNL     1      10.922 -22.882  22.191  1.00  0.00     0.000 C 
BRANCH   7   8
ATOM      8  C   UNL     1      11.400 -21.521  22.742  1.00  0.00     0.000 C 
BRANCH   8   9
ATOM      9  C   UNL     1      12.759 -21.541  23.467  1.00  0.00     0.000 C 
BRANCH   9  10
ATOM     10  C   UNL     1      13.196 -20.148  23.955  1.00  0.00     0.000 C 
BRANCH  10  11
ATOM     11  C   UNL     1      12.125 -19.072  23.719  1.00  0.00     0.000 C 
BRANCH  11  12
ATOM     12  C   UNL     1      12.332 -17.818  24.587  1.00  0.00     0.006 C 
BRANCH  12  13
ATOM     13  C   UNL     1      11.036 -17.015  24.755  1.00  0.00     0.053 C 
BRANCH  13  14
ATOM     14  C   UNL     1      11.020 -15.798  23.879  1.00  0.00     0.041 C 
ATOM     15  O   UNL     1      10.034 -15.014  23.906  1.00  0.00    -0.550 OA
ATOM     16  O   UNL     1      12.100 -15.517  23.053  1.00  0.00    -0.550 OA
ENDBRANCH  13  14
ENDBRANCH  12  13
ENDBRANCH  11  12
ENDBRANCH  10  11
ENDBRANCH   9  10
ENDBRANCH   8   9
ENDBRANCH   7   8
ENDBRANCH   6   7
ENDBRANCH   5   6
ENDBRANCH   4   5
ENDBRANCH   3   4
ENDBRANCH   2   3
ENDBRANCH   1   2
BRANCH   1  17
ATOM     17  C   UNL     1       8.006 -18.832  24.064  1.00  0.00     0.000 C 
BRANCH  17  18
ATOM     18  C   UNL     1       7.475 -17.428  23.728  1.00  0.00     0.000 C 
BRANCH  18  19
ATOM     19  C   UNL     1       7.519 -17.113  22.222  1.00  0.00     0.000 C 
BRANCH  19  20
ATOM     20  C   UNL     1       8.865 -17.466  21.554  1.00  0.00     0.000 C 
BRANCH  20  21
ATOM     21  C   UNL     1       8.673 -18.192  20.210  1.00  0.00     0.000 C 
BRANCH  21  22
ATOM     22  C   UNL     1       9.683 -19.333  20.008  1.00  0.00    -0.000 C 
BRANCH  22  23
ATOM     23  C   UNL     1       9.467 -20.087  18.683  1.00  0.00    -0.000 C 
BRANCH  23  24
ATOM     24  C   UNL     1      10.797 -20.543  18.046  1.00  0.00    -0.000 C 
BRANCH  24  25
ATOM     25  C   UNL     1      12.050 -20.036  18.789  1.00  0.00    -0.000 C 
BRANCH  25  26
ATOM     26  C   UNL     1      12.915 -21.135  19.430  1.00  0.00    -0.000 C 
BRANCH  26  27
ATOM     27  C   UNL     1      14.106 -20.623  20.265  1.00  0.00    -0.000 C 
BRANCH  27  28
ATOM     28  C   UNL     1      14.458 -19.143  20.004  1.00  0.00    -0.000 C 
BRANCH  28  29
ATOM     29  C   UNL     1      14.933 -18.421  21.274  1.00  0.00    -0.003 C 
ATOM     30  C   UNL     1      16.138 -19.127  21.889  1.00  0.00     0.004 C 
ENDBRANCH  28  29
ENDBRANCH  27  28
ENDBRANCH  26  27
ENDBRANCH  25  26
ENDBRANCH  24  25
ENDBRANCH  23  24
ENDBRANCH  22  23
ENDBRANCH  21  22
ENDBRANCH  20  21
ENDBRANCH  19  20
ENDBRANCH  18  19
ENDBRANCH  17  18
ENDBRANCH   1  17
TORSDOF 26
ENDMDL
MODEL 2
REMARK VINA RESULT:    -4.570      2.255      6.422
REMARK INTER + INTRA:         -16.903
REMARK INTER:                 -11.131
REMARK INTRA:                  -5.772
REMARK UNBOUND:                -5.388
REMARK SMILES CCCCCCCCCCCCCCCCCCCCCCCCCCCC(=O)[O-]
REMARK SMILES IDX 15 1 16 2 17 3 18 4 19 5 20 6 21 7 22 8 23 9 24 10 25 11
REMARK SMILES IDX 26 12 27 13 28 14 29 15 30 16 14 17 13 18 12 19 11 20 10 21
REMARK SMILES IDX 9 22 8 23 7 24 6 25 5 26 4 27 3 28 2 29 1 30
REMARK H PARENT
REMARK Flexibility Score: inf
ROOT
ATOM      1  C   UNL     1      10.995 -16.452  24.313  1.00  0.00     0.000 C 
ENDROOT
BRANCH   1   2
ATOM      2  C   UNL     1       9.997 -15.532  23.587  1.00  0.00     0.000 C 
BRANCH   2   3
ATOM      3  C   UNL     1       8.585 -15.599  24.191  1.00  0.00     0.000 C 
BRANCH   3   4
ATOM      4  C   UNL     1       7.491 -15.317  23.145  1.00  0.00     0.000 C 
BRANCH   4   5
ATOM      5  C   UNL     1       7.496 -16.329  21.987  1.00  0.00     0.000 C 
BRANCH   5   6
ATOM      6  C   UNL     1       7.262 -15.662  20.619  1.00  0.00     0.000 C 
BRANCH   6   7
ATOM      7  C   UNL     1       7.633 -16.576  19.438  1.00  0.00     0.000 C 
BRANCH   7   8
ATOM      8  C   UNL     1       7.123 -18.030  19.537  1.00  0.00     0.000 C 
BRANCH   8   9
ATOM      9  C   UNL     1       7.782 -19.031  18.569  1.00  0.00     0.000 C 
BRANCH   9  10
ATOM     10  C   UNL     1       9.078 -18.490  17.942  1.00  0.00     0.000 C 
BRANCH  10  11
ATOM     11  C   UNL     1      10.155 -19.573  17.772  1.00  0.00     0.000 C 
BRANCH  11  12
ATOM     12  C   UNL     1      11.523 -19.000  17.363  1.00  0.00     0.006 C 
BRANCH  12  13
ATOM     13  C   UNL     1      12.237 -18.321  18.540  1.00  0.00     0.053 C 
BRANCH  13  14
ATOM     14  C   UNL     1      13.247 -19.229  19.176  1.00  0.00     0.041 C 
ATOM     15  O   UNL     1      14.065 -18.772  20.017  1.00  0.00    -0.550 OA
ATOM     16  O   UNL     1      13.267 -20.581  18.860  1.00  0.00    -0.550 OA
ENDBRANCH  13  14
ENDBRANCH  12  13
ENDBRANCH  11  12
ENDBRANCH  10  11
ENDBRANCH   9  10
ENDBRANCH   8   9
ENDBRANCH   7   8
ENDBRANCH   6   7
ENDBRANCH   5   6
ENDBRANCH   4   5
ENDBRANCH   3   4
ENDBRANCH   2   3
ENDBRANCH   1   2
BRANCH   1  17
ATOM     17  C   UNL     1      11.361 -17.694  23.485  1.00  0.00     0.000 C 
BRANCH  17  18
ATOM     18  C   UNL     1      10.953 -17.556  22.008  1.00  0.00     0.000 C 
BRANCH  18  19
ATOM     19  C   UNL     1      10.169 -18.771  21.484  1.00  0.00     0.000 C 
BRANCH  19  20
ATOM     20  C   UNL     1      10.744 -20.127  21.948  1.00  0.00     0.000 C 
BRANCH  20  21
ATOM     21  C   UNL     1      10.402 -21.268  20.973  1.00  0.00     0.000 C 
BRANCH  21  22
ATOM     22  C   UNL     1      10.229 -22.619  21.685  1.00  0.00    -0.000 C 
BRANCH  22  23
ATOM     23  C   UNL     1       8.755 -23.055  21.778  1.00  0.00    -0.000 C 
BRANCH  23  24
ATOM     24  C   UNL     1       7.879 -22.384  20.698  1.00  0.00    -0.000 C 
BRANCH  24  25
ATOM     25  C   UNL     1       6.860 -21.373  21.261  1.00  0.00    -0.000 C 
BRANCH  25  26
ATOM     26  C   UNL     1       6.988 -21.093  22.769  1.00  0.00    -0.000 C 
BRANCH  26  27
ATOM     27  C   UNL     1       7.035 -19.600  23.152  1.00  0.00    -0.000 C 
BRANCH  27  28
ATOM     28  C   UNL     1       7.965 -19.293  24.347  1.00  0.00    -0.000 C 
BRANCH  28  29
ATOM     29  C   UNL     1       7.188 -18.834  25.590  1.00  0.00    -0.003 C 
ATOM     30  C   UNL     1       6.813 -20.022  26.473  1.00  0.00     0.004 C 
ENDBRANCH  28  29
ENDBRANCH  27  28
ENDBRANCH  26  27
ENDBRANCH  25  26
ENDBRANCH  24  25
ENDBRANCH  23  24
ENDBRANCH  22  23
ENDBRANCH  21  22
ENDBRANCH  20  21
ENDBRANCH  19  20
ENDBRANCH  18  19
ENDBRANCH  17  18
ENDBRANCH   1  17
TORSDOF 26
ENDMDL
MODEL 3
REMARK VINA RESULT:    -4.538      1.864      3.672
REMARK INTER + INTRA:         -16.824
REMARK INTER:                 -11.009
REMARK INTRA:                  -5.816
REMARK UNBOUND:                -5.388
REMARK SMILES CCCCCCCCCCCCCCCCCCCCCCCCCCCC(=O)[O-]
REMARK SMILES IDX 15 1 16 2 17 3 18 4 19 5 20 6 21 7 22 8 23 9 24 10 25 11
REMARK SMILES IDX 26 12 27 13 28 14 29 15 30 16 14 17 13 18 12 19 11 20 10 21
REMARK SMILES IDX 9 22 8 23 7 24 6 25 5 26 4 27 3 28 2 29 1 30
REMARK H PARENT
REMARK Flexibility Score: inf
ROOT
ATOM      1  C   UNL     1      10.406 -19.935  23.328  1.00  0.00     0.000 C 
ENDROOT
BRANCH   1   2
ATOM      2  C   UNL     1      11.332 -21.028  22.763  1.00  0.00     0.000 C 
BRANCH   2   3
ATOM      3  C   UNL     1      10.852 -21.565  21.405  1.00  0.00     0.000 C 
BRANCH   3   4
ATOM      4  C   UNL     1      10.293 -22.995  21.510  1.00  0.00     0.000 C 
BRANCH   4   5
ATOM      5  C   UNL     1       8.758 -23.045  21.451  1.00  0.00     0.000 C 
BRANCH   5   6
ATOM      6  C   UNL     1       8.165 -21.938  20.560  1.00  0.00     0.000 C 
BRANCH   6   7
ATOM      7  C   UNL     1       7.052 -21.139  21.262  1.00  0.00     0.000 C 
BRANCH   7   8
ATOM      8  C   UNL     1       7.011 -21.266  22.799  1.00  0.00     0.000 C 
BRANCH   8   9
ATOM      9  C   UNL     1       6.482 -20.030  23.552  1.00  0.00     0.000 C 
BRANCH   9  10
ATOM     10  C   UNL     1       7.039 -19.918  24.982  1.00  0.00     0.000 C 
BRANCH  10  11
ATOM     11  C   UNL     1       6.920 -18.498  25.558  1.00  0.00     0.000 C 
BRANCH  11  12
ATOM     12  C   UNL     1       8.285 -17.823  25.778  1.00  0.00     0.006 C 
BRANCH  12  13
ATOM     13  C   UNL     1       8.397 -16.493  25.020  1.00  0.00     0.053 C 
BRANCH  13  14
ATOM     14  C   UNL     1       9.826 -16.090  24.814  1.00  0.00     0.041 C 
ATOM     15  O   UNL     1      10.105 -15.102  24.084  1.00  0.00    -0.550 OA
ATOM     16  O   UNL     1      10.847 -16.787  25.448  1.00  0.00    -0.550 OA
ENDBRANCH  13  14
ENDBRANCH  12  13
ENDBRANCH  11  12
ENDBRANCH  10  11
ENDBRANCH   9  10
ENDBRANCH   8   9
ENDBRANCH   7   8
ENDBRANCH   6   7
ENDBRANCH   5   6
ENDBRANCH   4   5
ENDBRANCH   3   4
ENDBRANCH   2   3
ENDBRANCH   1   2
BRANCH   1  17
ATOM     17  C   UNL     1      10.434 -18.648  22.488  1.00  0.00     0.000 C 
BRANCH  17  18
ATOM     18  C   UNL     1       9.073 -18.341  21.840  1.00  0.00     0.000 C 
BRANCH  18  19
ATOM     19  C   UNL     1       8.988 -16.915  21.267  1.00  0.00     0.000 C 
BRANCH  19  20
ATOM     20  C   UNL     1       7.629 -16.226  21.516  1.00  0.00     0.000 C 
BRANCH  20  21
ATOM     21  C   UNL     1       6.820 -16.048  20.219  1.00  0.00     0.000 C 
BRANCH  21  22
ATOM     22  C   UNL     1       7.098 -17.160  19.194  1.00  0.00    -0.000 C 
BRANCH  22  23
ATOM     23  C   UNL     1       7.963 -16.676  18.016  1.00  0.00    -0.000 C 
BRANCH  23  24
ATOM     24  C   UNL     1       8.727 -17.834  17.338  1.00  0.00    -0.000 C 
BRANCH  24  25
ATOM     25  C   UNL     1       8.867 -19.091  18.221  1.00  0.00    -0.000 C 
BRANCH  25  26
ATOM     26  C   UNL     1      10.199 -19.847  18.068  1.00  0.00    -0.000 C 
BRANCH  26  27
ATOM     27  C   UNL     1      11.455 -18.953  18.033  1.00  0.00    -0.000 C 
BRANCH  27  28
ATOM     28  C   UNL     1      12.118 -18.758  19.413  1.00  0.00    -0.000 C 
BRANCH  28  29
ATOM     29  C   UNL     1      12.583 -17.311  19.641  1.00  0.00    -0.003 C 
ATOM     30  C   UNL     1      11.706 -16.326  18.874  1.00  0.00     0.004 C 
ENDBRANCH  28  29
ENDBRANCH  27  28
ENDBRANCH  26  27
ENDBRANCH  25  26
ENDBRANCH  24  25
ENDBRANCH  23  24
ENDBRANCH  22  23
ENDBRANCH  21  22
ENDBRANCH  20  21
ENDBRANCH  19  20
ENDBRANCH  18  19
ENDBRANCH  17  18
ENDBRANCH   1  17
TORSDOF 26
ENDMDL
MODEL 4
REMARK VINA RESULT:    -4.523      2.319      4.432
REMARK INTER + INTRA:         -16.786
REMARK INTER:                 -11.089
REMARK INTRA:                  -5.697
REMARK UNBOUND:                -5.388
REMARK SMILES CCCCCCCCCCCCCCCCCCCCCCCCCCCC(=O)[O-]
REMARK SMILES IDX 15 1 16 2 17 3 18 4 19 5 20 6 21 7 22 8 23 9 24 10 25 11
REMARK SMILES IDX 26 12 27 13 28 14 29 15 30 16 14 17 13 18 12 19 11 20 10 21
REMARK SMILES IDX 9 22 8 23 7 24 6 25 5 26 4 27 3 28 2 29 1 30
REMARK H PARENT
REMARK Flexibility Score: inf
ROOT
ATOM      1  C   UNL     1       7.493 -18.429  20.248  1.00  0.00     0.000 C 
ENDROOT
BRANCH   1   2
ATOM      2  C   UNL     1       7.582 -19.815  20.910  1.00  0.00     0.000 C 
BRANCH   2   3
ATOM      3  C   UNL     1       8.143 -19.751  22.341  1.00  0.00     0.000 C 
BRANCH   3   4
ATOM      4  C   UNL     1       7.315 -20.593  23.328  1.00  0.00     0.000 C 
BRANCH   4   5
ATOM      5  C   UNL     1       6.753 -19.765  24.495  1.00  0.00     0.000 C 
BRANCH   5   6
ATOM      6  C   UNL     1       7.271 -18.316  24.496  1.00  0.00     0.000 C 
BRANCH   6   7
ATOM      7  C   UNL     1       7.955 -17.926  25.819  1.00  0.00     0.000 C 
BRANCH   7   8
ATOM      8  C   UNL     1       8.660 -16.553  25.822  1.00  0.00     0.000 C 
BRANCH   8   9
ATOM      9  C   UNL     1       8.659 -15.805  24.475  1.00  0.00     0.000 C 
BRANCH   9  10
ATOM     10  C   UNL     1      10.077 -15.524  23.947  1.00  0.00     0.000 C 
BRANCH  10  11
ATOM     11  C   UNL     1      11.094 -16.595  24.372  1.00  0.00     0.000 C 
BRANCH  11  12
ATOM     12  C   UNL     1      11.201 -17.754  23.367  1.00  0.00     0.006 C 
BRANCH  12  13
ATOM     13  C   UNL     1      11.159 -19.122  24.060  1.00  0.00     0.053 C 
BRANCH  13  14
ATOM     14  C   UNL     1      12.535 -19.633  24.365  1.00  0.00     0.041 C 
ATOM     15  O   UNL     1      13.020 -20.582  23.692  1.00  0.00    -0.550 OA
ATOM     16  O   UNL     1      13.291 -19.047  25.372  1.00  0.00    -0.550 OA
ENDBRANCH  13  14
ENDBRANCH  12  13
ENDBRANCH  11  12
ENDBRANCH  10  11
ENDBRANCH   9  10
ENDBRANCH   8   9
ENDBRANCH   7   8
ENDBRANCH   6   7
ENDBRANCH   5   6
ENDBRANCH   4   5
ENDBRANCH   3   4
ENDBRANCH   2   3
ENDBRANCH   1   2
BRANCH   1  17
ATOM     17  C   UNL     1       8.180 -17.334  21.079  1.00  0.00     0.000 C 
BRANCH  17  18
ATOM     18  C   UNL     1       7.441 -15.986  21.001  1.00  0.00     0.000 C 
BRANCH  18  19
ATOM     19  C   UNL     1       6.584 -15.843  19.731  1.00  0.00     0.000 C 
BRANCH  19  20
ATOM     20  C   UNL     1       7.095 -14.761  18.756  1.00  0.00     0.000 C 
BRANCH  20  21
ATOM     21  C   UNL     1       7.618 -15.365  17.441  1.00  0.00     0.000 C 
BRANCH  21  22
ATOM     22  C   UNL     1       9.001 -16.018  17.600  1.00  0.00    -0.000 C 
BRANCH  22  23
ATOM     23  C   UNL     1       9.010 -17.497  17.172  1.00  0.00    -0.000 C 
BRANCH  23  24
ATOM     24  C   UNL     1      10.404 -18.142  17.332  1.00  0.00    -0.000 C 
BRANCH  24  25
ATOM     25  C   UNL     1      10.444 -19.294  18.356  1.00  0.00    -0.000 C 
BRANCH  25  26
ATOM     26  C   UNL     1      11.173 -18.969  19.672  1.00  0.00    -0.000 C 
BRANCH  26  27
ATOM     27  C   UNL     1      11.589 -20.196  20.507  1.00  0.00    -0.000 C 
BRANCH  27  28
ATOM     28  C   UNL     1      10.807 -21.481  20.158  1.00  0.00    -0.000 C 
BRANCH  28  29
ATOM     29  C   UNL     1      10.633 -22.408  21.370  1.00  0.00    -0.003 C 
ATOM     30  C   UNL     1       9.287 -23.126  21.323  1.00  0.00     0.004 C 
ENDBRANCH  28  29
ENDBRANCH  27  28
ENDBRANCH  26  27
ENDBRANCH  25  26
ENDBRANCH  24  25
ENDBRANCH  23  24
ENDBRANCH  22  23
ENDBRANCH  21  22
ENDBRANCH  20  21
ENDBRANCH  19  20
ENDBRANCH  18  19
ENDBRANCH  17  18
ENDBRANCH   1  17
TORSDOF 26
ENDMDL
MODEL 5
REMARK VINA RESULT:    -4.515      2.193      4.267
REMARK INTER + INTRA:         -16.766
REMARK INTER:                 -11.288
REMARK INTRA:                  -5.478
REMARK UNBOUND:                -5.388
REMARK SMILES CCCCCCCCCCCCCCCCCCCCCCCCCCCC(=O)[O-]
REMARK SMILES IDX 15 1 16 2 17 3 18 4 19 5 20 6 21 7 22 8 23 9 24 10 25 11
REMARK SMILES IDX 26 12 27 13 28 14 29 15 30 16 14 17 13 18 12 19 11 20 10 21
REMARK SMILES IDX 9 22 8 23 7 24 6 25 5 26 4 27 3 28 2 29 1 30
REMARK H PARENT
REMARK Flexibility Score: inf
ROOT
ATOM      1  C   UNL     1      10.841 -16.752  22.622  1.00  0.00     0.000 C 
ENDROOT
BRANCH   1   2
ATOM      2  C   UNL     1      11.351 -18.188  22.841  1.00  0.00     0.000 C 
BRANCH   2   3
ATOM      3  C   UNL     1      10.448 -18.996  23.787  1.00  0.00     0.000 C 
BRANCH   3   4
ATOM      4  C   UNL     1       9.220 -19.577  23.063  1.00  0.00     0.000 C 
BRANCH   4   5
ATOM      5  C   UNL     1       8.023 -19.803  24.001  1.00  0.00     0.000 C 
BRANCH   5   6
ATOM      6  C   UNL     1       7.047 -20.867  23.468  1.00  0.00     0.000 C 
BRANCH   6   7
ATOM      7  C   UNL     1       7.393 -21.335  22.042  1.00  0.00     0.000 C 
BRANCH   7   8
ATOM      8  C   UNL     1       8.000 -22.750  21.938  1.00  0.00     0.000 C 
BRANCH   8   9
ATOM      9  C   UNL     1       9.244 -22.872  21.037  1.00  0.00     0.000 C 
BRANCH   9  10
ATOM     10  C   UNL     1      10.563 -22.739  21.818  1.00  0.00     0.000 C 
BRANCH  10  11
ATOM     11  C   UNL     1      11.640 -21.965  21.041  1.00  0.00     0.000 C 
BRANCH  11  12
ATOM     12  C   UNL     1      12.753 -21.412  21.948  1.00  0.00     0.006 C 
BRANCH  12  13
ATOM     13  C   UNL     1      12.750 -22.074  23.332  1.00  0.00     0.053 C 
BRANCH  13  14
ATOM     14  C   UNL     1      13.723 -21.417  24.264  1.00  0.00     0.041 C 
ATOM     15  O   UNL     1      13.315 -20.588  25.120  1.00  0.00    -0.550 OA
ATOM     16  O   UNL     1      15.073 -21.738  24.205  1.00  0.00    -0.550 OA
ENDBRANCH  13  14
ENDBRANCH  12  13
ENDBRANCH  11  12
ENDBRANCH  10  11
ENDBRANCH   9  10
ENDBRANCH   8   9
ENDBRANCH   7   8
ENDBRANCH   6   7
ENDBRANCH   5   6
ENDBRANCH   4   5
ENDBRANCH   3   4
ENDBRANCH   2   3
ENDBRANCH   1   2
BRANCH   1  17
ATOM     17  C   UNL     1      10.748 -15.954  23.933  1.00  0.00     0.000 C 
BRANCH  17  18
ATOM     18  C   UNL     1       9.425 -15.178  24.055  1.00  0.00     0.000 C 
BRANCH  18  19
ATOM     19  C   UNL     1       8.185 -16.086  23.975  1.00  0.00     0.000 C 
BRANCH  19  20
ATOM     20  C   UNL     1       7.245 -15.752  22.797  1.00  0.00     0.000 C 
BRANCH  20  21
ATOM     21  C   UNL     1       7.368 -16.769  21.649  1.00  0.00     0.000 C 
BRANCH  21  22
ATOM     22  C   UNL     1       7.469 -16.094  20.271  1.00  0.00    -0.000 C 
BRANCH  22  23
ATOM     23  C   UNL     1       7.859 -17.080  19.156  1.00  0.00    -0.000 C 
BRANCH  23  24
ATOM     24  C   UNL     1       7.567 -18.546  19.544  1.00  0.00    -0.000 C 
BRANCH  24  25
ATOM     25  C   UNL     1       8.732 -19.513  19.249  1.00  0.00    -0.000 C 
BRANCH  25  26
ATOM     26  C   UNL     1      10.131 -18.964  19.579  1.00  0.00    -0.000 C 
BRANCH  26  27
ATOM     27  C   UNL     1      11.157 -19.063  18.432  1.00  0.00    -0.000 C 
BRANCH  27  28
ATOM     28  C   UNL     1      12.614 -18.808  18.875  1.00  0.00    -0.000 C 
BRANCH  28  29
ATOM     29  C   UNL     1      13.534 -20.001  18.576  1.00  0.00    -0.003 C 
ATOM     30  C   UNL     1      14.779 -19.556  17.812  1.00  0.00     0.004 C 
ENDBRANCH  28  29
ENDBRANCH  27  28
ENDBRANCH  26  27
ENDBRANCH  25  26
ENDBRANCH  24  25
ENDBRANCH  23  24
ENDBRANCH  22  23
ENDBRANCH  21  22
ENDBRANCH  20  21
ENDBRANCH  19  20
ENDBRANCH  18  19
ENDBRANCH  17  18
ENDBRANCH   1  17
TORSDOF 26
ENDMDL
MODEL 6
REMARK VINA RESULT:    -4.506      2.582      5.904
REMARK INTER + INTRA:         -16.743
REMARK INTER:                 -11.171
REMARK INTRA:                  -5.572
REMARK UNBOUND:                -5.388
REMARK SMILES CCCCCCCCCCCCCCCCCCCCCCCCCCCC(=O)[O-]
REMARK SMILES IDX 15 1 16 2 17 3 18 4 19 5 20 6 21 7 22 8 23 9 24 10 25 11
REMARK SMILES IDX 26 12 27 13 28 14 29 15 30 16 14 17 13 18 12 19 11 20 10 21
REMARK SMILES IDX 9 22 8 23 7 24 6 25 5 26 4 27 3 28 2 29 1 30
REMARK H PARENT
REMARK Flexibility Score: inf
ROOT
ATOM      1  C   UNL     1       9.567 -22.968  21.163  1.00  0.00     0.000 C 
ENDROOT
BRANCH   1   2
ATOM      2  C   UNL     1      10.719 -22.609  22.118  1.00  0.00     0.000 C 
BRANCH   2   3
ATOM      3  C   UNL     1      11.191 -21.155  21.952  1.00  0.00     0.000 C 
BRANCH   3   4
ATOM      4  C   UNL     1      11.039 -20.343  23.251  1.00  0.00     0.000 C 
BRANCH   4   5
ATOM      5  C   UNL     1      10.594 -18.892  23.002  1.00  0.00     0.000 C 
BRANCH   5   6
ATOM      6  C   UNL     1      11.330 -17.885  23.904  1.00  0.00     0.000 C 
BRANCH   6   7
ATOM      7  C   UNL     1      11.734 -16.600  23.159  1.00  0.00     0.000 C 
BRANCH   7   8
ATOM      8  C   UNL     1      13.249 -16.420  22.921  1.00  0.00     0.000 C 
BRANCH   8   9
ATOM      9  C   UNL     1      13.746 -16.790  21.510  1.00  0.00     0.000 C 
BRANCH   9  10
ATOM     10  C   UNL     1      13.853 -18.309  21.294  1.00  0.00     0.000 C 
BRANCH  10  11
ATOM     11  C   UNL     1      15.067 -18.928  22.006  1.00  0.00     0.000 C 
BRANCH  11  12
ATOM     12  C   UNL     1      14.682 -19.724  23.265  1.00  0.00     0.006 C 
BRANCH  12  13
ATOM     13  C   UNL     1      14.942 -21.227  23.096  1.00  0.00     0.053 C 
BRANCH  13  14
ATOM     14  C   UNL     1      16.084 -21.692  23.950  1.00  0.00     0.041 C 
ATOM     15  O   UNL     1      17.080 -20.943  24.135  1.00  0.00    -0.550 OA
ATOM     16  O   UNL     1      16.037 -22.939  24.560  1.00  0.00    -0.550 OA
ENDBRANCH  13  14
ENDBRANCH  12  13
ENDBRANCH  11  12
ENDBRANCH  10  11
ENDBRANCH   9  10
ENDBRANCH   8   9
ENDBRANCH   7   8
ENDBRANCH   6   7
ENDBRANCH   5   6
ENDBRANCH   4   5
ENDBRANCH   3   4
ENDBRANCH   2   3
ENDBRANCH   1   2
BRANCH   1  17
ATOM     17  C   UNL     1       8.186 -22.689  21.776  1.00  0.00     0.000 C 
BRANCH  17  18
ATOM     18  C   UNL     1       7.523 -21.433  21.182  1.00  0.00     0.000 C 
BRANCH  18  19
ATOM     19  C   UNL     1       7.321 -20.314  22.218  1.00  0.00     0.000 C 
BRANCH  19  20
ATOM     20  C   UNL     1       7.127 -20.830  23.660  1.00  0.00     0.000 C 
BRANCH  20  21
ATOM     21  C   UNL     1       7.165 -19.692  24.695  1.00  0.00     0.000 C 
BRANCH  21  22
ATOM     22  C   UNL     1       6.904 -18.314  24.066  1.00  0.00    -0.000 C 
BRANCH  22  23
ATOM     23  C   UNL     1       7.744 -17.198  24.713  1.00  0.00    -0.000 C 
BRANCH  23  24
ATOM     24  C   UNL     1       8.064 -16.058  23.723  1.00  0.00    -0.000 C 
BRANCH  24  25
ATOM     25  C   UNL     1       6.865 -15.635  22.849  1.00  0.00    -0.000 C 
BRANCH  25  26
ATOM     26  C   UNL     1       7.130 -15.644  21.334  1.00  0.00    -0.000 C 
BRANCH  26  27
ATOM     27  C   UNL     1       7.523 -17.015  20.750  1.00  0.00    -0.000 C 
BRANCH  27  28
ATOM     28  C   UNL     1       8.979 -17.080  20.239  1.00  0.00    -0.000 C 
BRANCH  28  29
ATOM     29  C   UNL     1       9.296 -18.410  19.539  1.00  0.00    -0.003 C 
ATOM     30  C   UNL     1      10.797 -18.568  19.313  1.00  0.00     0.004 C 
ENDBRANCH  28  29
ENDBRANCH  27  28
ENDBRANCH  26  27
ENDBRANCH  25  26
ENDBRANCH  24  25
ENDBRANCH  23  24
ENDBRANCH  22  23
ENDBRANCH  21  22
ENDBRANCH  20  21
ENDBRANCH  19  20
ENDBRANCH  18  19
ENDBRANCH  17  18
ENDBRANCH   1  17
TORSDOF 26
ENDMDL
MODEL 7
REMARK VINA RESULT:    -4.490      1.419      4.986
REMARK INTER + INTRA:         -16.703
REMARK INTER:                 -11.092
REMARK INTRA:                  -5.611
REMARK UNBOUND:                -5.388
REMARK SMILES CCCCCCCCCCCCCCCCCCCCCCCCCCCC(=O)[O-]
REMARK SMILES IDX 15 1 16 2 17 3 18 4 19 5 20 6 21 7 22 8 23 9 24 10 25 11
REMARK SMILES IDX 26 12 27 13 28 14 29 15 30 16 14 17 13 18 12 19 11 20 10 21
REMARK SMILES IDX 9 22 8 23 7 24 6 25 5 26 4 27 3 28 2 29 1 30
REMARK H PARENT
REMARK Flexibility Score: inf
ROOT
ATOM      1  C   UNL     1       6.826 -20.612  23.626  1.00  0.00     0.000 C 
ENDROOT
BRANCH   1   2
ATOM      2  C   UNL     1       7.766 -19.482  24.084  1.00  0.00     0.000 C 
BRANCH   2   3
ATOM      3  C   UNL     1       7.088 -18.102  24.054  1.00  0.00     0.000 C 
BRANCH   3   4
ATOM      4  C   UNL     1       8.054 -16.972  24.454  1.00  0.00     0.000 C 
BRANCH   4   5
ATOM      5  C   UNL     1       7.909 -15.720  23.573  1.00  0.00     0.000 C 
BRANCH   5   6
ATOM      6  C   UNL     1       6.662 -15.774  22.672  1.00  0.00     0.000 C 
BRANCH   6   7
ATOM      7  C   UNL     1       6.965 -15.399  21.210  1.00  0.00     0.000 C 
BRANCH   7   8
ATOM      8  C   UNL     1       7.313 -16.581  20.280  1.00  0.00     0.000 C 
BRANCH   8   9
ATOM      9  C   UNL     1       8.799 -16.984  20.249  1.00  0.00     0.000 C 
BRANCH   9  10
ATOM     10  C   UNL     1       9.044 -18.406  20.784  1.00  0.00     0.000 C 
BRANCH  10  11
ATOM     11  C   UNL     1      10.370 -18.534  21.550  1.00  0.00     0.000 C 
BRANCH  11  12
ATOM     12  C   UNL     1      11.198 -17.238  21.537  1.00  0.00     0.006 C 
BRANCH  12  13
ATOM     13  C   UNL     1      11.409 -16.676  22.949  1.00  0.00     0.053 C 
BRANCH  13  14
ATOM     14  C   UNL     1      12.677 -17.187  23.566  1.00  0.00     0.041 C 
ATOM     15  O   UNL     1      13.759 -17.133  22.923  1.00  0.00    -0.550 OA
ATOM     16  O   UNL     1      12.668 -17.699  24.857  1.00  0.00    -0.550 OA
ENDBRANCH  13  14
ENDBRANCH  12  13
ENDBRANCH  11  12
ENDBRANCH  10  11
ENDBRANCH   9  10
ENDBRANCH   8   9
ENDBRANCH   7   8
ENDBRANCH   6   7
ENDBRANCH   5   6
ENDBRANCH   4   5
ENDBRANCH   3   4
ENDBRANCH   2   3
ENDBRANCH   1   2
BRANCH   1  17
ATOM     17  C   UNL     1       7.096 -21.053  22.179  1.00  0.00     0.000 C 
BRANCH  17  18
ATOM     18  C   UNL     1       7.822 -22.408  22.104  1.00  0.00     0.000 C 
BRANCH  18  19
ATOM     19  C   UNL     1       8.844 -22.480  20.957  1.00  0.00     0.000 C 
BRANCH  19  20
ATOM     20  C   UNL     1      10.269 -22.855  21.418  1.00  0.00     0.000 C 
BRANCH  20  21
ATOM     21  C   UNL     1      10.789 -21.914  22.520  1.00  0.00     0.000 C 
BRANCH  21  22
ATOM     22  C   UNL     1      12.290 -22.103  22.796  1.00  0.00    -0.000 C 
BRANCH  22  23
ATOM     23  C   UNL     1      13.072 -20.778  22.746  1.00  0.00    -0.000 C 
BRANCH  23  24
ATOM     24  C   UNL     1      14.372 -20.899  21.921  1.00  0.00    -0.000 C 
BRANCH  24  25
ATOM     25  C   UNL     1      14.520 -19.820  20.828  1.00  0.00    -0.000 C 
BRANCH  25  26
ATOM     26  C   UNL     1      14.126 -20.273  19.411  1.00  0.00    -0.000 C 
BRANCH  26  27
ATOM     27  C   UNL     1      12.732 -19.809  18.944  1.00  0.00    -0.000 C 
BRANCH  27  28
ATOM     28  C   UNL     1      11.719 -20.962  18.766  1.00  0.00    -0.000 C 
BRANCH  28  29
ATOM     29  C   UNL     1      10.442 -20.513  18.041  1.00  0.00    -0.003 C 
ATOM     30  C   UNL     1      10.630 -19.144  17.392  1.00  0.00     0.004 C 
ENDBRANCH  28  29
ENDBRANCH  27  28
ENDBRANCH  26  27
ENDBRANCH  25  26
ENDBRANCH  24  25
ENDBRANCH  23  24
ENDBRANCH  22  23
ENDBRANCH  21  22
ENDBRANCH  20  21
ENDBRANCH  19  20
ENDBRANCH  18  19
ENDBRANCH  17  18
ENDBRANCH   1  17
TORSDOF 26
ENDMDL
MODEL 8
REMARK VINA RESULT:    -4.465      1.656      5.685
REMARK INTER + INTRA:         -16.639
REMARK INTER:                 -10.633
REMARK INTRA:                  -6.006
REMARK UNBOUND:                -5.388
REMARK SMILES CCCCCCCCCCCCCCCCCCCCCCCCCCCC(=O)[O-]
REMARK SMILES IDX 15 1 16 2 17 3 18 4 19 5 20 6 21 7 22 8 23 9 24 10 25 11
REMARK SMILES IDX 26 12 27 13 28 14 29 15 30 16 14 17 13 18 12 19 11 20 10 21
REMARK SMILES IDX 9 22 8 23 7 24 6 25 5 26 4 27 3 28 2 29 1 30
REMARK H PARENT
REMARK Flexibility Score: inf
ROOT
ATOM      1  C   UNL     1      10.042 -20.423  18.557  1.00  0.00     0.000 C 
ENDROOT
BRANCH   1   2
ATOM      2  C   UNL     1      10.566 -18.976  18.593  1.00  0.00     0.000 C 
BRANCH   2   3
ATOM      3  C   UNL     1      12.101 -18.905  18.649  1.00  0.00     0.000 C 
BRANCH   3   4
ATOM      4  C   UNL     1      12.748 -20.300  18.596  1.00  0.00     0.000 C 
BRANCH   4   5
ATOM      5  C   UNL     1      13.821 -20.504  19.679  1.00  0.00     0.000 C 
BRANCH   5   6
ATOM      6  C   UNL     1      13.230 -20.517  21.100  1.00  0.00     0.000 C 
BRANCH   6   7
ATOM      7  C   UNL     1      12.292 -21.712  21.347  1.00  0.00     0.000 C 
BRANCH   7   8
ATOM      8  C   UNL     1      11.065 -21.419  22.236  1.00  0.00     0.000 C 
BRANCH   8   9
ATOM      9  C   UNL     1      10.566 -19.962  22.218  1.00  0.00     0.000 C 
BRANCH   9  10
ATOM     10  C   UNL     1      10.373 -19.380  23.629  1.00  0.00     0.000 C 
BRANCH  10  11
ATOM     11  C   UNL     1      11.620 -18.646  24.147  1.00  0.00     0.000 C 
BRANCH  11  12
ATOM     12  C   UNL     1      11.940 -17.370  23.350  1.00  0.00     0.006 C 
BRANCH  12  13
ATOM     13  C   UNL     1      13.441 -17.235  23.061  1.00  0.00     0.053 C 
BRANCH  13  14
ATOM     14  C   UNL     1      13.699 -16.812  21.645  1.00  0.00     0.041 C 
ATOM     15  O   UNL     1      14.823 -17.024  21.117  1.00  0.00    -0.550 OA
ATOM     16  O   UNL     1      12.692 -16.209  20.902  1.00  0.00    -0.550 OA
ENDBRANCH  13  14
ENDBRANCH  12  13
ENDBRANCH  11  12
ENDBRANCH  10  11
ENDBRANCH   9  10
ENDBRANCH   8   9
ENDBRANCH   7   8
ENDBRANCH   6   7
ENDBRANCH   5   6
ENDBRANCH   4   5
ENDBRANCH   3   4
ENDBRANCH   2   3
ENDBRANCH   1   2
BRANCH   1  17
ATOM     17  C   UNL     1       8.682 -20.575  19.257  1.00  0.00     0.000 C 
BRANCH  17  18
ATOM     18  C   UNL     1       8.279 -22.048  19.442  1.00  0.00     0.000 C 
BRANCH  18  19
ATOM     19  C   UNL     1       7.696 -22.342  20.835  1.00  0.00     0.000 C 
BRANCH  19  20
ATOM     20  C   UNL     1       7.112 -21.097  21.538  1.00  0.00     0.000 C 
BRANCH  20  21
ATOM     21  C   UNL     1       7.141 -21.229  23.072  1.00  0.00     0.000 C 
BRANCH  21  22
ATOM     22  C   UNL     1       6.375 -20.098  23.775  1.00  0.00    -0.000 C 
BRANCH  22  23
ATOM     23  C   UNL     1       6.949 -19.770  25.166  1.00  0.00    -0.000 C 
BRANCH  23  24
ATOM     24  C   UNL     1       7.130 -18.252  25.380  1.00  0.00    -0.000 C 
BRANCH  24  25
ATOM     25  C   UNL     1       6.972 -17.417  24.093  1.00  0.00    -0.000 C 
BRANCH  25  26
ATOM     26  C   UNL     1       8.173 -16.518  23.749  1.00  0.00    -0.000 C 
BRANCH  26  27
ATOM     27  C   UNL     1       8.474 -16.380  22.243  1.00  0.00    -0.000 C 
BRANCH  27  28
ATOM     28  C   UNL     1       7.883 -17.520  21.384  1.00  0.00    -0.000 C 
BRANCH  28  29
ATOM     29  C   UNL     1       7.557 -17.065  19.953  1.00  0.00    -0.003 C 
ATOM     30  C   UNL     1       6.642 -15.843  19.961  1.00  0.00     0.004 C 
ENDBRANCH  28  29
ENDBRANCH  27  28
ENDBRANCH  26  27
ENDBRANCH  25  26
ENDBRANCH  24  25
ENDBRANCH  23  24
ENDBRANCH  22  23
ENDBRANCH  21  22
ENDBRANCH  20  21
ENDBRANCH  19  20
ENDBRANCH  18  19
ENDBRANCH  17  18
ENDBRANCH   1  17
TORSDOF 26
ENDMDL
MODEL 9
REMARK VINA RESULT:    -4.461      1.764      5.456
REMARK INTER + INTRA:         -16.628
REMARK INTER:                 -10.838
REMARK INTRA:                  -5.790
REMARK UNBOUND:                -5.388
REMARK SMILES CCCCCCCCCCCCCCCCCCCCCCCCCCCC(=O)[O-]
REMARK SMILES IDX 15 1 16 2 17 3 18 4 19 5 20 6 21 7 22 8 23 9 24 10 25 11
REMARK SMILES IDX 26 12 27 13 28 14 29 15 30 16 14 17 13 18 12 19 11 20 10 21
REMARK SMILES IDX 9 22 8 23 7 24 6 25 5 26 4 27 3 28 2 29 1 30
REMARK H PARENT
REMARK Flexibility Score: inf
ROOT
ATOM      1  C   UNL     1       9.513 -18.500  19.213  1.00  0.00     0.000 C 
ENDROOT
BRANCH   1   2
ATOM      2  C   UNL     1       9.230 -19.827  18.487  1.00  0.00     0.000 C 
BRANCH   2   3
ATOM      3  C   UNL     1      10.435 -20.322  17.671  1.00  0.00     0.000 C 
BRANCH   3   4
ATOM      4  C   UNL     1      11.599 -20.775  18.571  1.00  0.00     0.000 C 
BRANCH   4   5
ATOM      5  C   UNL     1      12.874 -19.939  18.366  1.00  0.00     0.000 C 
BRANCH   5   6
ATOM      6  C   UNL     1      13.723 -19.833  19.646  1.00  0.00     0.000 C 
BRANCH   6   7
ATOM      7  C   UNL     1      13.776 -18.401  20.210  1.00  0.00     0.000 C 
BRANCH   7   8
ATOM      8  C   UNL     1      12.924 -17.358  19.456  1.00  0.00     0.000 C 
BRANCH   8   9
ATOM      9  C   UNL     1      12.293 -16.260  20.332  1.00  0.00     0.000 C 
BRANCH   9  10
ATOM     10  C   UNL     1      13.337 -15.462  21.133  1.00  0.00     0.000 C 
BRANCH  10  11
ATOM     11  C   UNL     1      12.923 -15.242  22.597  1.00  0.00     0.000 C 
BRANCH  11  12
ATOM     12  C   UNL     1      12.129 -16.424  23.181  1.00  0.00     0.006 C 
BRANCH  12  13
ATOM     13  C   UNL     1      13.051 -17.524  23.723  1.00  0.00     0.053 C 
BRANCH  13  14
ATOM     14  C   UNL     1      12.593 -18.022  25.061  1.00  0.00     0.041 C 
ATOM     15  O   UNL     1      11.554 -17.546  25.590  1.00  0.00    -0.550 OA
ATOM     16  O   UNL     1      13.298 -19.027  25.711  1.00  0.00    -0.550 OA
ENDBRANCH  13  14
ENDBRANCH  12  13
ENDBRANCH  11  12
ENDBRANCH  10  11
ENDBRANCH   9  10
ENDBRANCH   8   9
ENDBRANCH   7   8
ENDBRANCH   6   7
ENDBRANCH   5   6
ENDBRANCH   4   5
ENDBRANCH   3   4
ENDBRANCH   2   3
ENDBRANCH   1   2
BRANCH   1  17
ATOM     17  C   UNL     1       8.634 -18.311  20.460  1.00  0.00     0.000 C 
BRANCH  17  18
ATOM     18  C   UNL     1       9.444 -18.390  21.766  1.00  0.00     0.000 C 
BRANCH  18  19
ATOM     19  C   UNL     1      10.575 -19.432  21.711  1.00  0.00     0.000 C 
BRANCH  19  20
ATOM     20  C   UNL     1      10.549 -20.439  22.881  1.00  0.00     0.000 C 
BRANCH  20  21
ATOM     21  C   UNL     1      11.008 -21.843  22.449  1.00  0.00     0.000 C 
BRANCH  21  22
ATOM     22  C   UNL     1      10.219 -22.375  21.242  1.00  0.00    -0.000 C 
BRANCH  22  23
ATOM     23  C   UNL     1       8.878 -23.015  21.646  1.00  0.00    -0.000 C 
BRANCH  23  24
ATOM     24  C   UNL     1       7.700 -22.486  20.799  1.00  0.00    -0.000 C 
BRANCH  24  25
ATOM     25  C   UNL     1       6.994 -21.259  21.410  1.00  0.00    -0.000 C 
BRANCH  25  26
ATOM     26  C   UNL     1       6.950 -21.233  22.948  1.00  0.00    -0.000 C 
BRANCH  26  27
ATOM     27  C   UNL     1       6.643 -19.855  23.567  1.00  0.00    -0.000 C 
BRANCH  27  28
ATOM     28  C   UNL     1       7.441 -19.560  24.857  1.00  0.00    -0.000 C 
BRANCH  28  29
ATOM     29  C   UNL     1       6.974 -18.273  25.553  1.00  0.00    -0.003 C 
ATOM     30  C   UNL     1       8.033 -17.178  25.450  1.00  0.00     0.004 C 
ENDBRANCH  28  29
ENDBRANCH  27  28
ENDBRANCH  26  27
ENDBRANCH  25  26
ENDBRANCH  24  25
ENDBRANCH  23  24
ENDBRANCH  22  23
ENDBRANCH  21  22
ENDBRANCH  20  21
ENDBRANCH  19  20
ENDBRANCH  18  19
ENDBRANCH  17  18
ENDBRANCH   1  17
TORSDOF 26
ENDMDL
