MODEL 1
REMARK VINA RESULT:    -4.318      0.000      0.000
REMARK INTER + INTRA:         -12.864
REMARK INTER:                  -9.368
REMARK INTRA:                  -3.497
REMARK UNBOUND:                -3.497
REMARK SMILES CCCCCCCCCCCCCCCCCCCCCC(=O)[O-]
REMARK SMILES IDX 12 1 11 2 10 3 9 4 8 5 7 6 6 7 5 8 4 9 3 10 2 11 1 12 13 13
REMARK SMILES IDX 14 14 15 15 16 16 17 17 18 18 19 19 20 20 21 21 22 22 23 23
REMARK SMILES IDX 24 24
REMARK H PARENT
REMARK Flexibility Score: inf
ROOT
ATOM      1  C   UNL     1      16.345 120.636 293.822  1.00  0.00     0.000 C 
ENDROOT
BRANCH   1   2
ATOM      2  C   UNL     1      16.552 121.864 294.729  1.00  0.00     0.000 C 
BRANCH   2   3
ATOM      3  C   UNL     1      17.617 121.624 295.814  1.00  0.00     0.000 C 
BRANCH   3   4
ATOM      4  C   UNL     1      19.050 121.709 295.262  1.00  0.00    -0.000 C 
BRANCH   4   5
ATOM      5  C   UNL     1      19.857 120.421 295.508  1.00  0.00    -0.000 C 
BRANCH   5   6
ATOM      6  C   UNL     1      20.851 120.122 294.373  1.00  0.00    -0.000 C 
BRANCH   6   7
ATOM      7  C   UNL     1      22.203 119.605 294.897  1.00  0.00    -0.000 C 
BRANCH   7   8
ATOM      8  C   UNL     1      22.265 118.070 294.963  1.00  0.00    -0.000 C 
BRANCH   8   9
ATOM      9  C   UNL     1      22.339 117.543 296.407  1.00  0.00    -0.000 C 
BRANCH   9  10
ATOM     10  C   UNL     1      21.038 116.852 296.858  1.00  0.00    -0.000 C 
BRANCH  10  11
ATOM     11  C   UNL     1      20.249 117.601 297.948  1.00  0.00    -0.003 C 
ATOM     12  C   UNL     1      21.139 118.138 299.070  1.00  0.00     0.004 C 
ENDBRANCH  10  11
ENDBRANCH   9  10
ENDBRANCH   8   9
ENDBRANCH   7   8
ENDBRANCH   6   7
ENDBRANCH   5   6
ENDBRANCH   4   5
ENDBRANCH   3   4
ENDBRANCH   2   3
ENDBRANCH   1   2
BRANCH   1  13
ATOM     13  C   UNL     1      14.875 120.194 293.682  1.00  0.00     0.000 C 
BRANCH  13  14
ATOM     14  C   UNL     1      14.263 119.743 295.019  1.00  0.00     0.000 C 
BRANCH  14  15
ATOM     15  C   UNL     1      14.644 118.300 295.393  1.00  0.00     0.000 C 
BRANCH  15  16
ATOM     16  C   UNL     1      15.529 118.200 296.654  1.00  0.00     0.000 C 
BRANCH  16  17
ATOM     17  C   UNL     1      17.012 117.976 296.305  1.00  0.00     0.000 C 
BRANCH  17  18
ATOM     18  C   UNL     1      17.211 116.906 295.221  1.00  0.00     0.000 C 
BRANCH  18  19
ATOM     19  C   UNL     1      18.102 117.392 294.068  1.00  0.00     0.000 C 
BRANCH  19  20
ATOM     20  C   UNL     1      17.380 117.254 292.719  1.00  0.00     0.006 C 
BRANCH  20  21
ATOM     21  C   UNL     1      17.451 115.825 292.166  1.00  0.00     0.053 C 
BRANCH  21  22
ATOM     22  C   UNL     1      18.169 115.771 290.853  1.00  0.00     0.041 C 
ATOM     23  O   UNL     1      17.517 115.696 289.777  1.00  0.00    -0.550 OA
ATOM     24  O   UNL     1      19.556 115.848 290.813  1.00  0.00    -0.550 OA
ENDBRANCH  21  22
ENDBRANCH  20  21
ENDBRANCH  19  20
ENDBRANCH  18  19
ENDBRANCH  17  18
ENDBRANCH  16  17
ENDBRANCH  15  16
ENDBRANCH  14  15
ENDBRANCH  13  14
ENDBRANCH   1  13
TORSDOF 20
ENDMDL
MODEL 2
REMARK VINA RESULT:    -4.297      3.362      5.941
REMARK INTER + INTRA:         -12.818
REMARK INTER:                 -11.144
REMARK INTRA:                  -1.673
REMARK UNBOUND:                -3.497
REMARK SMILES CCCCCCCCCCCCCCCCCCCCCC(=O)[O-]
REMARK SMILES IDX 12 1 11 2 10 3 9 4 8 5 7 6 6 7 5 8 4 9 3 10 2 11 1 12 13 13
REMARK SMILES IDX 14 14 15 15 16 16 17 17 18 18 19 19 20 20 21 21 22 22 23 23
REMARK SMILES IDX 24 24
REMARK H PARENT
REMARK Flexibility Score: inf
ROOT
ATOM      1  C   UNL     1      22.473 117.984 295.262  1.00  0.00     0.000 C 
ENDROOT
BRANCH   1   2
ATOM      2  C   UNL     1      23.612 118.879 295.785  1.00  0.00     0.000 C 
BRANCH   2   3
ATOM      3  C   UNL     1      23.689 120.230 295.050  1.00  0.00     0.000 C 
BRANCH   3   4
ATOM      4  C   UNL     1      25.110 120.554 294.562  1.00  0.00    -0.000 C 
BRANCH   4   5
ATOM      5  C   UNL     1      25.831 119.326 293.977  1.00  0.00    -0.000 C 
BRANCH   5   6
ATOM      6  C   UNL     1      25.669 119.218 292.451  1.00  0.00    -0.000 C 
BRANCH   6   7
ATOM      7  C   UNL     1      24.915 117.945 292.028  1.00  0.00    -0.000 C 
BRANCH   7   8
ATOM      8  C   UNL     1      25.251 117.507 290.593  1.00  0.00    -0.000 C 
BRANCH   8   9
ATOM      9  C   UNL     1      24.616 118.421 289.531  1.00  0.00    -0.000 C 
BRANCH   9  10
ATOM     10  C   UNL     1      23.386 117.787 288.855  1.00  0.00    -0.000 C 
BRANCH  10  11
ATOM     11  C   UNL     1      23.074 118.318 287.444  1.00  0.00    -0.003 C 
ATOM     12  C   UNL     1      22.845 119.829 287.409  1.00  0.00     0.004 C 
ENDBRANCH  10  11
ENDBRANCH   9  10
ENDBRANCH   8   9
ENDBRANCH   7   8
ENDBRANCH   6   7
ENDBRANCH   5   6
ENDBRANCH   4   5
ENDBRANCH   3   4
ENDBRANCH   2   3
ENDBRANCH   1   2
BRANCH   1  13
ATOM     13  C   UNL     1      21.081 118.643 295.300  1.00  0.00     0.000 C 
BRANCH  13  14
ATOM     14  C   UNL     1      20.455 118.622 296.705  1.00  0.00     0.000 C 
BRANCH  14  15
ATOM     15  C   UNL     1      20.625 117.266 297.413  1.00  0.00     0.000 C 
BRANCH  15  16
ATOM     16  C   UNL     1      19.543 116.231 297.036  1.00  0.00     0.000 C 
BRANCH  16  17
ATOM     17  C   UNL     1      18.256 116.900 296.521  1.00  0.00     0.000 C 
BRANCH  17  18
ATOM     18  C   UNL     1      17.596 116.113 295.378  1.00  0.00     0.000 C 
BRANCH  18  19
ATOM     19  C   UNL     1      17.018 117.028 294.288  1.00  0.00     0.000 C 
BRANCH  19  20
ATOM     20  C   UNL     1      17.966 117.112 293.082  1.00  0.00     0.006 C 
BRANCH  20  21
ATOM     21  C   UNL     1      17.280 116.698 291.774  1.00  0.00     0.053 C 
BRANCH  21  22
ATOM     22  C   UNL     1      17.985 115.553 291.113  1.00  0.00     0.041 C 
ATOM     23  O   UNL     1      19.208 115.645 290.824  1.00  0.00    -0.550 OA
ATOM     24  O   UNL     1      17.304 114.370 290.856  1.00  0.00    -0.550 OA
ENDBRANCH  21  22
ENDBRANCH  20  21
ENDBRANCH  19  20
ENDBRANCH  18  19
ENDBRANCH  17  18
ENDBRANCH  16  17
ENDBRANCH  15  16
ENDBRANCH  14  15
ENDBRANCH  13  14
ENDBRANCH   1  13
TORSDOF 20
ENDMDL
MODEL 3
REMARK VINA RESULT:    -4.288      2.570      6.402
REMARK INTER + INTRA:         -12.798
REMARK INTER:                  -9.970
REMARK INTRA:                  -2.829
REMARK UNBOUND:                -3.497
REMARK SMILES CCCCCCCCCCCCCCCCCCCCCC(=O)[O-]
REMARK SMILES IDX 12 1 11 2 10 3 9 4 8 5 7 6 6 7 5 8 4 9 3 10 2 11 1 12 13 13
REMARK SMILES IDX 14 14 15 15 16 16 17 17 18 18 19 19 20 20 21 21 22 22 23 23
REMARK SMILES IDX 24 24
REMARK H PARENT
REMARK Flexibility Score: inf
ROOT
ATOM      1  C   UNL     1      20.735 118.750 299.574  1.00  0.00     0.000 C 
ENDROOT
BRANCH   1   2
ATOM      2  C   UNL     1      21.091 118.452 298.106  1.00  0.00     0.000 C 
BRANCH   2   3
ATOM      3  C   UNL     1      21.387 116.961 297.860  1.00  0.00     0.000 C 
BRANCH   3   4
ATOM      4  C   UNL     1      20.200 116.223 297.219  1.00  0.00    -0.000 C 
BRANCH   4   5
ATOM      5  C   UNL     1      19.388 117.121 296.268  1.00  0.00    -0.000 C 
BRANCH   5   6
ATOM      6  C   UNL     1      17.870 116.946 296.443  1.00  0.00    -0.000 C 
BRANCH   6   7
ATOM      7  C   UNL     1      17.146 116.726 295.103  1.00  0.00    -0.000 C 
BRANCH   7   8
ATOM      8  C   UNL     1      17.465 117.820 294.071  1.00  0.00    -0.000 C 
BRANCH   8   9
ATOM      9  C   UNL     1      18.247 117.281 292.861  1.00  0.00    -0.000 C 
BRANCH   9  10
ATOM     10  C   UNL     1      17.444 116.258 292.037  1.00  0.00    -0.000 C 
BRANCH  10  11
ATOM     11  C   UNL     1      18.260 115.485 290.984  1.00  0.00    -0.003 C 
ATOM     12  C   UNL     1      17.387 114.680 290.022  1.00  0.00     0.004 C 
ENDBRANCH  10  11
ENDBRANCH   9  10
ENDBRANCH   8   9
ENDBRANCH   7   8
ENDBRANCH   6   7
ENDBRANCH   5   6
ENDBRANCH   4   5
ENDBRANCH   3   4
ENDBRANCH   2   3
ENDBRANCH   1   2
BRANCH   1  13
ATOM     13  C   UNL     1      20.167 120.162 299.815  1.00  0.00     0.000 C 
BRANCH  13  14
ATOM     14  C   UNL     1      20.103 121.000 298.527  1.00  0.00     0.000 C 
BRANCH  14  15
ATOM     15  C   UNL     1      18.671 121.150 297.984  1.00  0.00     0.000 C 
BRANCH  15  16
ATOM     16  C   UNL     1      18.464 120.505 296.596  1.00  0.00     0.000 C 
BRANCH  16  17
ATOM     17  C   UNL     1      19.203 121.273 295.485  1.00  0.00     0.000 C 
BRANCH  17  18
ATOM     18  C   UNL     1      20.179 120.384 294.699  1.00  0.00     0.000 C 
BRANCH  18  19
ATOM     19  C   UNL     1      21.641 120.599 295.117  1.00  0.00     0.000 C 
BRANCH  19  20
ATOM     20  C   UNL     1      22.463 119.315 294.922  1.00  0.00     0.006 C 
BRANCH  20  21
ATOM     21  C   UNL     1      23.956 119.607 294.725  1.00  0.00     0.053 C 
BRANCH  21  22
ATOM     22  C   UNL     1      24.436 119.170 293.375  1.00  0.00     0.041 C 
ATOM     23  O   UNL     1      23.737 118.387 292.678  1.00  0.00    -0.550 OA
ATOM     24  O   UNL     1      25.632 119.662 292.867  1.00  0.00    -0.550 OA
ENDBRANCH  21  22
ENDBRANCH  20  21
ENDBRANCH  19  20
ENDBRANCH  18  19
ENDBRANCH  17  18
ENDBRANCH  16  17
ENDBRANCH  15  16
ENDBRANCH  14  15
ENDBRANCH  13  14
ENDBRANCH   1  13
TORSDOF 20
ENDMDL
MODEL 4
REMARK VINA RESULT:    -4.232      2.877      7.247
REMARK INTER + INTRA:         -12.677
REMARK INTER:                 -10.963
REMARK INTRA:                  -1.714
REMARK UNBOUND:                -3.497
REMARK SMILES CCCCCCCCCCCCCCCCCCCCCC(=O)[O-]
REMARK SMILES IDX 12 1 11 2 10 3 9 4 8 5 7 6 6 7 5 8 4 9 3 10 2 11 1 12 13 13
REMARK SMILES IDX 14 14 15 15 16 16 17 17 18 18 19 19 20 20 21 21 22 22 23 23
REMARK SMILES IDX 24 24
REMARK H PARENT
REMARK Flexibility Score: inf
ROOT
ATOM      1  C   UNL     1      22.552 117.531 297.704  1.00  0.00     0.000 C 
ENDROOT
BRANCH   1   2
ATOM      2  C   UNL     1      21.344 117.096 296.854  1.00  0.00     0.000 C 
BRANCH   2   3
ATOM      3  C   UNL     1      20.984 118.126 295.768  1.00  0.00     0.000 C 
BRANCH   3   4
ATOM      4  C   UNL     1      19.719 118.929 296.115  1.00  0.00    -0.000 C 
BRANCH   4   5
ATOM      5  C   UNL     1      18.618 118.056 296.745  1.00  0.00    -0.000 C 
BRANCH   5   6
ATOM      6  C   UNL     1      17.205 118.489 296.317  1.00  0.00    -0.000 C 
BRANCH   6   7
ATOM      7  C   UNL     1      16.625 117.590 295.210  1.00  0.00    -0.000 C 
BRANCH   7   8
ATOM      8  C   UNL     1      16.970 118.093 293.799  1.00  0.00    -0.000 C 
BRANCH   8   9
ATOM      9  C   UNL     1      17.986 117.187 293.081  1.00  0.00    -0.000 C 
BRANCH   9  10
ATOM     10  C   UNL     1      17.320 116.189 292.117  1.00  0.00    -0.000 C 
BRANCH  10  11
ATOM     11  C   UNL     1      18.170 115.800 290.893  1.00  0.00    -0.003 C 
ATOM     12  C   UNL     1      17.592 114.620 290.112  1.00  0.00     0.004 C 
ENDBRANCH  10  11
ENDBRANCH   9  10
ENDBRANCH   8   9
ENDBRANCH   7   8
ENDBRANCH   6   7
ENDBRANCH   5   6
ENDBRANCH   4   5
ENDBRANCH   3   4
ENDBRANCH   2   3
ENDBRANCH   1   2
BRANCH   1  13
ATOM     13  C   UNL     1      22.263 118.702 298.663  1.00  0.00     0.000 C 
BRANCH  13  14
ATOM     14  C   UNL     1      23.341 119.797 298.600  1.00  0.00     0.000 C 
BRANCH  14  15
ATOM     15  C   UNL     1      24.546 119.399 297.729  1.00  0.00     0.000 C 
BRANCH  15  16
ATOM     16  C   UNL     1      24.574 120.100 296.354  1.00  0.00     0.000 C 
BRANCH  16  17
ATOM     17  C   UNL     1      25.164 119.197 295.255  1.00  0.00     0.000 C 
BRANCH  17  18
ATOM     18  C   UNL     1      25.054 119.818 293.855  1.00  0.00     0.000 C 
BRANCH  18  19
ATOM     19  C   UNL     1      24.539 118.822 292.806  1.00  0.00     0.000 C 
BRANCH  19  20
ATOM     20  C   UNL     1      25.483 118.761 291.595  1.00  0.00     0.006 C 
BRANCH  20  21
ATOM     21  C   UNL     1      24.726 118.542 290.279  1.00  0.00     0.053 C 
BRANCH  21  22
ATOM     22  C   UNL     1      24.321 117.111 290.100  1.00  0.00     0.041 C 
ATOM     23  O   UNL     1      23.244 116.826 289.513  1.00  0.00    -0.550 OA
ATOM     24  O   UNL     1      25.154 116.091 290.544  1.00  0.00    -0.550 OA
ENDBRANCH  21  22
ENDBRANCH  20  21
ENDBRANCH  19  20
ENDBRANCH  18  19
ENDBRANCH  17  18
ENDBRANCH  16  17
ENDBRANCH  15  16
ENDBRANCH  14  15
ENDBRANCH  13  14
ENDBRANCH   1  13
TORSDOF 20
ENDMDL
MODEL 5
REMARK VINA RESULT:    -4.149      3.517      6.122
REMARK INTER + INTRA:         -12.497
REMARK INTER:                  -9.490
REMARK INTRA:                  -3.007
REMARK UNBOUND:                -3.497
REMARK SMILES CCCCCCCCCCCCCCCCCCCCCC(=O)[O-]
REMARK SMILES IDX 12 1 11 2 10 3 9 4 8 5 7 6 6 7 5 8 4 9 3 10 2 11 1 12 13 13
REMARK SMILES IDX 14 14 15 15 16 16 17 17 18 18 19 19 20 20 21 21 22 22 23 23
REMARK SMILES IDX 24 24
REMARK H PARENT
REMARK Flexibility Score: inf
ROOT
ATOM      1  C   UNL     1      17.754 121.334 295.888  1.00  0.00     0.000 C 
ENDROOT
BRANCH   1   2
ATOM      2  C   UNL     1      19.033 120.640 295.386  1.00  0.00     0.000 C 
BRANCH   2   3
ATOM      3  C   UNL     1      20.161 120.649 296.433  1.00  0.00     0.000 C 
BRANCH   3   4
ATOM      4  C   UNL     1      20.863 119.286 296.554  1.00  0.00    -0.000 C 
BRANCH   4   5
ATOM      5  C   UNL     1      19.954 118.203 297.164  1.00  0.00    -0.000 C 
BRANCH   5   6
ATOM      6  C   UNL     1      19.407 117.227 296.108  1.00  0.00    -0.000 C 
BRANCH   6   7
ATOM      7  C   UNL     1      17.919 116.900 296.325  1.00  0.00    -0.000 C 
BRANCH   7   8
ATOM      8  C   UNL     1      17.129 116.838 295.008  1.00  0.00    -0.000 C 
BRANCH   8   9
ATOM      9  C   UNL     1      17.981 117.226 293.788  1.00  0.00    -0.000 C 
BRANCH   9  10
ATOM     10  C   UNL     1      17.386 116.724 292.459  1.00  0.00    -0.000 C 
BRANCH  10  11
ATOM     11  C   UNL     1      18.404 116.097 291.487  1.00  0.00    -0.003 C 
ATOM     12  C   UNL     1      17.808 114.974 290.639  1.00  0.00     0.004 C 
ENDBRANCH  10  11
ENDBRANCH   9  10
ENDBRANCH   8   9
ENDBRANCH   7   8
ENDBRANCH   6   7
ENDBRANCH   5   6
ENDBRANCH   4   5
ENDBRANCH   3   4
ENDBRANCH   2   3
ENDBRANCH   1   2
BRANCH   1  13
ATOM     13  C   UNL     1      16.660 120.367 296.383  1.00  0.00     0.000 C 
BRANCH  13  14
ATOM     14  C   UNL     1      15.314 120.582 295.670  1.00  0.00     0.000 C 
BRANCH  14  15
ATOM     15  C   UNL     1      15.110 119.627 294.481  1.00  0.00     0.000 C 
BRANCH  15  16
ATOM     16  C   UNL     1      15.546 120.223 293.125  1.00  0.00     0.000 C 
BRANCH  16  17
ATOM     17  C   UNL     1      15.030 121.661 292.933  1.00  0.00     0.000 C 
BRANCH  17  18
ATOM     18  C   UNL     1      16.059 122.573 292.247  1.00  0.00     0.000 C 
BRANCH  18  19
ATOM     19  C   UNL     1      16.835 123.443 293.246  1.00  0.00     0.000 C 
BRANCH  19  20
ATOM     20  C   UNL     1      18.342 123.414 292.945  1.00  0.00     0.006 C 
BRANCH  20  21
ATOM     21  C   UNL     1      19.082 124.603 293.573  1.00  0.00     0.053 C 
BRANCH  21  22
ATOM     22  C   UNL     1      19.361 125.678 292.569  1.00  0.00     0.041 C 
ATOM     23  O   UNL     1      18.512 125.950 291.678  1.00  0.00    -0.550 OA
ATOM     24  O   UNL     1      20.540 126.411 292.642  1.00  0.00    -0.550 OA
ENDBRANCH  21  22
ENDBRANCH  20  21
ENDBRANCH  19  20
ENDBRANCH  18  19
ENDBRANCH  17  18
ENDBRANCH  16  17
ENDBRANCH  15  16
ENDBRANCH  14  15
ENDBRANCH  13  14
ENDBRANCH   1  13
TORSDOF 20
ENDMDL
MODEL 6
REMARK VINA RESULT:    -4.146      2.854      6.326
REMARK INTER + INTRA:         -12.490
REMARK INTER:                  -9.224
REMARK INTRA:                  -3.265
REMARK UNBOUND:                -3.497
REMARK SMILES CCCCCCCCCCCCCCCCCCCCCC(=O)[O-]
REMARK SMILES IDX 12 1 11 2 10 3 9 4 8 5 7 6 6 7 5 8 4 9 3 10 2 11 1 12 13 13
REMARK SMILES IDX 14 14 15 15 16 16 17 17 18 18 19 19 20 20 21 21 22 22 23 23
REMARK SMILES IDX 24 24
REMARK H PARENT
REMARK Flexibility Score: inf
ROOT
ATOM      1  C   UNL     1      18.230 121.800 294.236  1.00  0.00     0.000 C 
ENDROOT
BRANCH   1   2
ATOM      2  C   UNL     1      16.766 121.596 294.668  1.00  0.00     0.000 C 
BRANCH   2   3
ATOM      3  C   UNL     1      15.901 120.979 293.554  1.00  0.00     0.000 C 
BRANCH   3   4
ATOM      4  C   UNL     1      15.119 119.744 294.031  1.00  0.00    -0.000 C 
BRANCH   4   5
ATOM      5  C   UNL     1      15.279 119.489 295.541  1.00  0.00    -0.000 C 
BRANCH   5   6
ATOM      6  C   UNL     1      15.819 118.082 295.849  1.00  0.00    -0.000 C 
BRANCH   6   7
ATOM      7  C   UNL     1      17.344 118.070 296.054  1.00  0.00    -0.000 C 
BRANCH   7   8
ATOM      8  C   UNL     1      18.070 117.163 295.048  1.00  0.00    -0.000 C 
BRANCH   8   9
ATOM      9  C   UNL     1      18.070 117.742 293.623  1.00  0.00    -0.000 C 
BRANCH   9  10
ATOM     10  C   UNL     1      17.331 116.844 292.613  1.00  0.00    -0.000 C 
BRANCH  10  11
ATOM     11  C   UNL     1      18.239 116.114 291.606  1.00  0.00    -0.003 C 
ATOM     12  C   UNL     1      17.456 115.365 290.528  1.00  0.00     0.004 C 
ENDBRANCH  10  11
ENDBRANCH   9  10
ENDBRANCH   8   9
ENDBRANCH   7   8
ENDBRANCH   6   7
ENDBRANCH   5   6
ENDBRANCH   4   5
ENDBRANCH   3   4
ENDBRANCH   2   3
ENDBRANCH   1   2
BRANCH   1  13
ATOM     13  C   UNL     1      19.261 121.086 295.132  1.00  0.00     0.000 C 
BRANCH  13  14
ATOM     14  C   UNL     1      20.482 120.584 294.343  1.00  0.00     0.000 C 
BRANCH  14  15
ATOM     15  C   UNL     1      21.699 120.304 295.242  1.00  0.00     0.000 C 
BRANCH  15  16
ATOM     16  C   UNL     1      22.868 119.616 294.505  1.00  0.00     0.000 C 
BRANCH  16  17
ATOM     17  C   UNL     1      22.929 118.106 294.797  1.00  0.00     0.000 C 
BRANCH  17  18
ATOM     18  C   UNL     1      21.742 117.617 295.640  1.00  0.00     0.000 C 
BRANCH  18  19
ATOM     19  C   UNL     1      22.176 117.054 297.002  1.00  0.00     0.000 C 
BRANCH  19  20
ATOM     20  C   UNL     1      21.859 118.045 298.133  1.00  0.00     0.006 C 
BRANCH  20  21
ATOM     21  C   UNL     1      20.350 118.261 298.309  1.00  0.00     0.053 C 
BRANCH  21  22
ATOM     22  C   UNL     1      20.020 119.699 298.567  1.00  0.00     0.041 C 
ATOM     23  O   UNL     1      18.818 120.071 298.638  1.00  0.00    -0.550 OA
ATOM     24  O   UNL     1      21.039 120.621 298.773  1.00  0.00    -0.550 OA
ENDBRANCH  21  22
ENDBRANCH  20  21
ENDBRANCH  19  20
ENDBRANCH  18  19
ENDBRANCH  17  18
ENDBRANCH  16  17
ENDBRANCH  15  16
ENDBRANCH  14  15
ENDBRANCH  13  14
ENDBRANCH   1  13
TORSDOF 20
ENDMDL
MODEL 7
REMARK VINA RESULT:    -4.126      3.599      6.718
REMARK INTER + INTRA:         -12.448
REMARK INTER:                  -9.741
REMARK INTRA:                  -2.707
REMARK UNBOUND:                -3.497
REMARK SMILES CCCCCCCCCCCCCCCCCCCCCC(=O)[O-]
REMARK SMILES IDX 12 1 11 2 10 3 9 4 8 5 7 6 6 7 5 8 4 9 3 10 2 11 1 12 13 13
REMARK SMILES IDX 14 14 15 15 16 16 17 17 18 18 19 19 20 20 21 21 22 22 23 23
REMARK SMILES IDX 24 24
REMARK H PARENT
REMARK Flexibility Score: inf
ROOT
ATOM      1  C   UNL     1      18.865 120.232 298.659  1.00  0.00     0.000 C 
ENDROOT
BRANCH   1   2
ATOM      2  C   UNL     1      17.968 121.426 298.286  1.00  0.00     0.000 C 
BRANCH   2   3
ATOM      3  C   UNL     1      17.346 121.285 296.885  1.00  0.00     0.000 C 
BRANCH   3   4
ATOM      4  C   UNL     1      18.307 121.726 295.768  1.00  0.00    -0.000 C 
BRANCH   4   5
ATOM      5  C   UNL     1      18.369 120.716 294.607  1.00  0.00    -0.000 C 
BRANCH   5   6
ATOM      6  C   UNL     1      19.574 119.766 294.715  1.00  0.00    -0.000 C 
BRANCH   6   7
ATOM      7  C   UNL     1      19.244 118.342 294.234  1.00  0.00    -0.000 C 
BRANCH   7   8
ATOM      8  C   UNL     1      17.969 117.779 294.882  1.00  0.00    -0.000 C 
BRANCH   8   9
ATOM      9  C   UNL     1      17.205 116.823 293.950  1.00  0.00    -0.000 C 
BRANCH   9  10
ATOM     10  C   UNL     1      17.735 116.847 292.504  1.00  0.00    -0.000 C 
BRANCH  10  11
ATOM     11  C   UNL     1      17.440 115.578 291.682  1.00  0.00    -0.003 C 
ATOM     12  C   UNL     1      17.886 115.693 290.224  1.00  0.00     0.004 C 
ENDBRANCH  10  11
ENDBRANCH   9  10
ENDBRANCH   8   9
ENDBRANCH   7   8
ENDBRANCH   6   7
ENDBRANCH   5   6
ENDBRANCH   4   5
ENDBRANCH   3   4
ENDBRANCH   2   3
ENDBRANCH   1   2
BRANCH   1  13
ATOM     13  C   UNL     1      20.359 120.583 298.806  1.00  0.00     0.000 C 
BRANCH  13  14
ATOM     14  C   UNL     1      21.281 119.403 298.456  1.00  0.00     0.000 C 
BRANCH  14  15
ATOM     15  C   UNL     1      20.522 118.070 298.332  1.00  0.00     0.000 C 
BRANCH  15  16
ATOM     16  C   UNL     1      20.959 117.219 297.120  1.00  0.00     0.000 C 
BRANCH  16  17
ATOM     17  C   UNL     1      22.479 117.283 296.885  1.00  0.00     0.000 C 
BRANCH  17  18
ATOM     18  C   UNL     1      22.846 117.363 295.395  1.00  0.00     0.000 C 
BRANCH  18  19
ATOM     19  C   UNL     1      23.117 118.801 294.930  1.00  0.00     0.000 C 
BRANCH  19  20
ATOM     20  C   UNL     1      24.399 119.354 295.570  1.00  0.00     0.006 C 
BRANCH  20  21
ATOM     21  C   UNL     1      25.123 120.349 294.653  1.00  0.00     0.053 C 
BRANCH  21  22
ATOM     22  C   UNL     1      25.627 121.539 295.411  1.00  0.00     0.041 C 
ATOM     23  O   UNL     1      26.350 121.381 296.430  1.00  0.00    -0.550 OA
ATOM     24  O   UNL     1      25.336 122.822 294.966  1.00  0.00    -0.550 OA
ENDBRANCH  21  22
ENDBRANCH  20  21
ENDBRANCH  19  20
ENDBRANCH  18  19
ENDBRANCH  17  18
ENDBRANCH  16  17
ENDBRANCH  15  16
ENDBRANCH  14  15
ENDBRANCH  13  14
ENDBRANCH   1  13
TORSDOF 20
ENDMDL
MODEL 8
REMARK VINA RESULT:    -4.098      2.990      7.436
REMARK INTER + INTRA:         -12.387
REMARK INTER:                  -9.952
REMARK INTRA:                  -2.435
REMARK UNBOUND:                -3.497
REMARK SMILES CCCCCCCCCCCCCCCCCCCCCC(=O)[O-]
REMARK SMILES IDX 12 1 11 2 10 3 9 4 8 5 7 6 6 7 5 8 4 9 3 10 2 11 1 12 13 13
REMARK SMILES IDX 14 14 15 15 16 16 17 17 18 18 19 19 20 20 21 21 22 22 23 23
REMARK SMILES IDX 24 24
REMARK H PARENT
REMARK Flexibility Score: inf
ROOT
ATOM      1  C   UNL     1      20.617 118.097 298.333  1.00  0.00     0.000 C 
ENDROOT
BRANCH   1   2
ATOM      2  C   UNL     1      21.685 117.149 297.759  1.00  0.00     0.000 C 
BRANCH   2   3
ATOM      3  C   UNL     1      22.214 117.613 296.389  1.00  0.00     0.000 C 
BRANCH   3   4
ATOM      4  C   UNL     1      21.676 118.998 295.990  1.00  0.00    -0.000 C 
BRANCH   4   5
ATOM      5  C   UNL     1      20.890 118.969 294.667  1.00  0.00    -0.000 C 
BRANCH   5   6
ATOM      6  C   UNL     1      19.368 119.042 294.882  1.00  0.00    -0.000 C 
BRANCH   6   7
ATOM      7  C   UNL     1      18.747 117.661 295.159  1.00  0.00    -0.000 C 
BRANCH   7   8
ATOM      8  C   UNL     1      17.235 117.626 294.881  1.00  0.00    -0.000 C 
BRANCH   8   9
ATOM      9  C   UNL     1      16.912 117.594 293.377  1.00  0.00    -0.000 C 
BRANCH   9  10
ATOM     10  C   UNL     1      17.967 116.832 292.555  1.00  0.00    -0.000 C 
BRANCH  10  11
ATOM     11  C   UNL     1      17.412 115.689 291.685  1.00  0.00    -0.003 C 
ATOM     12  C   UNL     1      18.066 115.614 290.305  1.00  0.00     0.004 C 
ENDBRANCH  10  11
ENDBRANCH   9  10
ENDBRANCH   8   9
ENDBRANCH   7   8
ENDBRANCH   6   7
ENDBRANCH   5   6
ENDBRANCH   4   5
ENDBRANCH   3   4
ENDBRANCH   2   3
ENDBRANCH   1   2
BRANCH   1  13
ATOM     13  C   UNL     1      21.072 118.884 299.578  1.00  0.00     0.000 C 
BRANCH  13  14
ATOM     14  C   UNL     1      22.489 118.497 300.037  1.00  0.00     0.000 C 
BRANCH  14  15
ATOM     15  C   UNL     1      23.577 119.413 299.451  1.00  0.00     0.000 C 
BRANCH  15  16
ATOM     16  C   UNL     1      24.900 118.682 299.138  1.00  0.00     0.000 C 
BRANCH  16  17
ATOM     17  C   UNL     1      25.836 119.529 298.256  1.00  0.00     0.000 C 
BRANCH  17  18
ATOM     18  C   UNL     1      25.122 120.118 297.030  1.00  0.00     0.000 C 
BRANCH  18  19
ATOM     19  C   UNL     1      25.410 119.329 295.744  1.00  0.00     0.000 C 
BRANCH  19  20
ATOM     20  C   UNL     1      24.863 120.066 294.512  1.00  0.00     0.006 C 
BRANCH  20  21
ATOM     21  C   UNL     1      24.379 119.098 293.424  1.00  0.00     0.053 C 
BRANCH  21  22
ATOM     22  C   UNL     1      25.427 118.869 292.378  1.00  0.00     0.041 C 
ATOM     23  O   UNL     1      26.642 118.803 292.703  1.00  0.00    -0.550 OA
ATOM     24  O   UNL     1      25.058 118.683 291.051  1.00  0.00    -0.550 OA
ENDBRANCH  21  22
ENDBRANCH  20  21
ENDBRANCH  19  20
ENDBRANCH  18  19
ENDBRANCH  17  18
ENDBRANCH  16  17
ENDBRANCH  15  16
ENDBRANCH  14  15
ENDBRANCH  13  14
ENDBRANCH   1  13
TORSDOF 20
ENDMDL
MODEL 9
REMARK VINA RESULT:    -4.082      4.595      8.248
REMARK INTER + INTRA:         -12.351
REMARK INTER:                  -9.413
REMARK INTRA:                  -2.938
REMARK UNBOUND:                -3.497
REMARK SMILES CCCCCCCCCCCCCCCCCCCCCC(=O)[O-]
REMARK SMILES IDX 12 1 11 2 10 3 9 4 8 5 7 6 6 7 5 8 4 9 3 10 2 11 1 12 13 13
REMARK SMILES IDX 14 14 15 15 16 16 17 17 18 18 19 19 20 20 21 21 22 22 23 23
REMARK SMILES IDX 24 24
REMARK H PARENT
REMARK Flexibility Score: inf
ROOT
ATOM      1  C   UNL     1      23.621 119.485 297.619  1.00  0.00     0.000 C 
ENDROOT
BRANCH   1   2
ATOM      2  C   UNL     1      23.171 119.143 296.187  1.00  0.00     0.000 C 
BRANCH   2   3
ATOM      3  C   UNL     1      22.761 120.390 295.382  1.00  0.00     0.000 C 
BRANCH   3   4
ATOM      4  C   UNL     1      21.407 120.214 294.675  1.00  0.00    -0.000 C 
BRANCH   4   5
ATOM      5  C   UNL     1      20.921 118.754 294.681  1.00  0.00    -0.000 C 
BRANCH   5   6
ATOM      6  C   UNL     1      19.392 118.639 294.555  1.00  0.00    -0.000 C 
BRANCH   6   7
ATOM      7  C   UNL     1      18.813 117.515 295.433  1.00  0.00    -0.000 C 
BRANCH   7   8
ATOM      8  C   UNL     1      17.318 117.270 295.170  1.00  0.00    -0.000 C 
BRANCH   8   9
ATOM      9  C   UNL     1      16.946 117.425 293.685  1.00  0.00    -0.000 C 
BRANCH   9  10
ATOM     10  C   UNL     1      17.267 116.169 292.854  1.00  0.00    -0.000 C 
BRANCH  10  11
ATOM     11  C   UNL     1      18.314 116.375 291.743  1.00  0.00    -0.003 C 
ATOM     12  C   UNL     1      18.073 115.489 290.521  1.00  0.00     0.004 C 
ENDBRANCH  10  11
ENDBRANCH   9  10
ENDBRANCH   8   9
ENDBRANCH   7   8
ENDBRANCH   6   7
ENDBRANCH   5   6
ENDBRANCH   4   5
ENDBRANCH   3   4
ENDBRANCH   2   3
ENDBRANCH   1   2
BRANCH   1  13
ATOM     13  C   UNL     1      22.828 118.758 298.723  1.00  0.00     0.000 C 
BRANCH  13  14
ATOM     14  C   UNL     1      21.538 118.108 298.193  1.00  0.00     0.000 C 
BRANCH  14  15
ATOM     15  C   UNL     1      20.265 118.788 298.725  1.00  0.00     0.000 C 
BRANCH  15  16
ATOM     16  C   UNL     1      20.044 120.211 298.169  1.00  0.00     0.000 C 
BRANCH  16  17
ATOM     17  C   UNL     1      18.989 120.991 298.974  1.00  0.00     0.000 C 
BRANCH  17  18
ATOM     18  C   UNL     1      19.537 121.528 300.305  1.00  0.00     0.000 C 
BRANCH  18  19
ATOM     19  C   UNL     1      20.969 122.068 300.179  1.00  0.00     0.000 C 
BRANCH  19  20
ATOM     20  C   UNL     1      21.874 121.492 301.278  1.00  0.00     0.006 C 
BRANCH  20  21
ATOM     21  C   UNL     1      23.360 121.766 301.011  1.00  0.00     0.053 C 
BRANCH  21  22
ATOM     22  C   UNL     1      24.246 120.937 301.889  1.00  0.00     0.041 C 
ATOM     23  O   UNL     1      24.240 119.681 301.791  1.00  0.00    -0.550 OA
ATOM     24  O   UNL     1      25.111 121.553 302.785  1.00  0.00    -0.550 OA
ENDBRANCH  21  22
ENDBRANCH  20  21
ENDBRANCH  19  20
ENDBRANCH  18  19
ENDBRANCH  17  18
ENDBRANCH  16  17
ENDBRANCH  15  16
ENDBRANCH  14  15
ENDBRANCH  13  14
ENDBRANCH   1  13
TORSDOF 20
ENDMDL
