MODEL 1
REMARK VINA RESULT:    -4.384      0.000      0.000
REMARK INTER + INTRA:          -4.640
REMARK INTER:                  -4.640
REMARK INTRA:                   0.000
REMARK UNBOUND:                 0.000
REMARK SMILES O=c1ccc2cc(O)c(O)cc2o1
REMARK SMILES IDX 4 1 3 2 2 3 1 4 13 5 12 6 11 7 9 8 7 9 6 10 5 11 8 12 10 14
REMARK H PARENT 8 13 10 15
REMARK Flexibility Score: inf
ROOT
ATOM      1  C   UNL     1      59.324  -5.881 -45.906  1.00  0.00     0.019 A 
ATOM      2  C   UNL     1      60.054  -6.500 -44.891  1.00  0.00     0.094 A 
ATOM      3  C   UNL     1      61.448  -6.546 -44.989  1.00  0.00     0.336 A 
ATOM      4  O   UNL     1      62.125  -7.100 -44.084  1.00  0.00    -0.246 OA
ATOM      5  O   UNL     1      62.068  -6.008 -46.037  1.00  0.00    -0.423 OA
ATOM      6  C   UNL     1      61.410  -5.409 -47.027  1.00  0.00     0.142 A 
ATOM      7  C   UNL     1      62.114  -4.860 -48.103  1.00  0.00     0.098 A 
ATOM      8  C   UNL     1      61.426  -4.227 -49.149  1.00  0.00     0.161 A 
ATOM      9  C   UNL     1      60.026  -4.142 -49.117  1.00  0.00     0.158 A 
ATOM     10  C   UNL     1      59.314  -4.691 -48.040  1.00  0.00     0.062 A 
ATOM     11  C   UNL     1      60.001  -5.324 -46.995  1.00  0.00     0.022 A 
ENDROOT
BRANCH   9  12
ATOM     12  O   UNL     1      59.350  -3.512 -50.160  1.00  0.00    -0.504 OA
ATOM     13  H   UNL     1      59.156  -2.517 -50.142  1.00  0.00     0.293 HD
ENDBRANCH   9  12
BRANCH   8  14
ATOM     14  O   UNL     1      62.125  -3.679 -50.223  1.00  0.00    -0.504 OA
ATOM     15  H   UNL     1      62.608  -2.792 -50.143  1.00  0.00     0.293 HD
ENDBRANCH   8  14
TORSDOF 2
ENDMDL
MODEL 2
REMARK VINA RESULT:    -4.319      3.746      5.248
REMARK INTER + INTRA:          -4.571
REMARK INTER:                  -4.571
REMARK INTRA:                   0.000
REMARK UNBOUND:                 0.000
REMARK SMILES O=c1ccc2cc(O)c(O)cc2o1
REMARK SMILES IDX 4 1 3 2 2 3 1 4 13 5 12 6 11 7 9 8 7 9 6 10 5 11 8 12 10 14
REMARK H PARENT 8 13 10 15
REMARK Flexibility Score: inf
ROOT
ATOM      1  C   UNL     1      57.957  -1.016 -50.184  1.00  0.00     0.019 A 
ATOM      2  C   UNL     1      57.879  -0.049 -49.182  1.00  0.00     0.094 A 
ATOM      3  C   UNL     1      58.829  -0.057 -48.156  1.00  0.00     0.336 A 
ATOM      4  O   UNL     1      58.776   0.808 -47.243  1.00  0.00    -0.246 OA
ATOM      5  O   UNL     1      59.791  -0.976 -48.136  1.00  0.00    -0.423 OA
ATOM      6  C   UNL     1      59.901  -1.917 -49.071  1.00  0.00     0.142 A 
ATOM      7  C   UNL     1      60.933  -2.858 -48.998  1.00  0.00     0.098 A 
ATOM      8  C   UNL     1      61.054  -3.852 -49.981  1.00  0.00     0.161 A 
ATOM      9  C   UNL     1      60.137  -3.904 -51.042  1.00  0.00     0.158 A 
ATOM     10  C   UNL     1      59.099  -2.963 -51.120  1.00  0.00     0.062 A 
ATOM     11  C   UNL     1      58.978  -1.970 -50.138  1.00  0.00     0.022 A 
ENDROOT
BRANCH   9  12
ATOM     12  O   UNL     1      60.264  -4.895 -52.014  1.00  0.00    -0.504 OA
ATOM     13  H   UNL     1      60.712  -4.710 -52.905  1.00  0.00     0.293 HD
ENDBRANCH   9  12
BRANCH   8  14
ATOM     14  O   UNL     1      62.081  -4.790 -49.912  1.00  0.00    -0.504 OA
ATOM     15  H   UNL     1      62.166  -5.535 -50.594  1.00  0.00     0.293 HD
ENDBRANCH   8  14
TORSDOF 2
ENDMDL
MODEL 3
REMARK VINA RESULT:    -4.291      3.799      5.986
REMARK INTER + INTRA:          -4.542
REMARK INTER:                  -4.542
REMARK INTRA:                   0.000
REMARK UNBOUND:                 0.000
REMARK SMILES O=c1ccc2cc(O)c(O)cc2o1
REMARK SMILES IDX 4 1 3 2 2 3 1 4 13 5 12 6 11 7 9 8 7 9 6 10 5 11 8 12 10 14
REMARK H PARENT 8 13 10 15
REMARK Flexibility Score: inf
ROOT
ATOM      1  C   UNL     1      59.832  -0.616 -48.567  1.00  0.00     0.019 A 
ATOM      2  C   UNL     1      58.803   0.292 -48.815  1.00  0.00     0.094 A 
ATOM      3  C   UNL     1      57.895   0.026 -49.845  1.00  0.00     0.336 A 
ATOM      4  O   UNL     1      56.960   0.833 -50.084  1.00  0.00    -0.246 OA
ATOM      5  O   UNL     1      58.015  -1.078 -50.579  1.00  0.00    -0.423 OA
ATOM      6  C   UNL     1      58.983  -1.970 -50.377  1.00  0.00     0.142 A 
ATOM      7  C   UNL     1      59.059  -3.112 -51.180  1.00  0.00     0.098 A 
ATOM      8  C   UNL     1      60.076  -4.056 -50.972  1.00  0.00     0.161 A 
ATOM      9  C   UNL     1      61.021  -3.855 -49.955  1.00  0.00     0.158 A 
ATOM     10  C   UNL     1      60.950  -2.710 -49.147  1.00  0.00     0.062 A 
ATOM     11  C   UNL     1      59.934  -1.768 -49.354  1.00  0.00     0.022 A 
ENDROOT
BRANCH   9  12
ATOM     12  O   UNL     1      62.029  -4.797 -49.755  1.00  0.00    -0.504 OA
ATOM     13  H   UNL     1      61.991  -5.460 -48.988  1.00  0.00     0.293 HD
ENDBRANCH   9  12
BRANCH   8  14
ATOM     14  O   UNL     1      60.154  -5.195 -51.770  1.00  0.00    -0.504 OA
ATOM     15  H   UNL     1      59.598  -5.292 -52.612  1.00  0.00     0.293 HD
ENDBRANCH   8  14
TORSDOF 2
ENDMDL
MODEL 4
REMARK VINA RESULT:    -4.232     16.678     18.037
REMARK INTER + INTRA:          -4.479
REMARK INTER:                  -4.479
REMARK INTRA:                   0.000
REMARK UNBOUND:                 0.000
REMARK SMILES O=c1ccc2cc(O)c(O)cc2o1
REMARK SMILES IDX 4 1 3 2 2 3 1 4 13 5 12 6 11 7 9 8 7 9 6 10 5 11 8 12 10 14
REMARK H PARENT 8 13 10 15
REMARK Flexibility Score: inf
ROOT
ATOM      1  C   UNL     1      45.977   1.877 -42.003  1.00  0.00     0.019 A 
ATOM      2  C   UNL     1      47.283   2.338 -41.837  1.00  0.00     0.094 A 
ATOM      3  C   UNL     1      47.807   3.243 -42.767  1.00  0.00     0.336 A 
ATOM      4  O   UNL     1      48.983   3.671 -42.634  1.00  0.00    -0.246 OA
ATOM      5  O   UNL     1      47.069   3.654 -43.795  1.00  0.00    -0.423 OA
ATOM      6  C   UNL     1      45.820   3.237 -43.992  1.00  0.00     0.142 A 
ATOM      7  C   UNL     1      45.092   3.704 -45.091  1.00  0.00     0.098 A 
ATOM      8  C   UNL     1      43.775   3.269 -45.303  1.00  0.00     0.161 A 
ATOM      9  C   UNL     1      43.184   2.363 -44.409  1.00  0.00     0.158 A 
ATOM     10  C   UNL     1      43.909   1.891 -43.305  1.00  0.00     0.062 A 
ATOM     11  C   UNL     1      45.225   2.325 -43.093  1.00  0.00     0.022 A 
ENDROOT
BRANCH   9  12
ATOM     12  O   UNL     1      41.875   1.936 -44.627  1.00  0.00    -0.504 OA
ATOM     13  H   UNL     1      41.102   2.591 -44.665  1.00  0.00     0.293 HD
ENDBRANCH   9  12
BRANCH   8  14
ATOM     14  O   UNL     1      43.047   3.732 -46.396  1.00  0.00    -0.504 OA
ATOM     15  H   UNL     1      43.115   3.289 -47.305  1.00  0.00     0.293 HD
ENDBRANCH   8  14
TORSDOF 2
ENDMDL
MODEL 5
REMARK VINA RESULT:    -4.217     14.808     15.505
REMARK INTER + INTRA:          -4.463
REMARK INTER:                  -4.463
REMARK INTRA:                   0.000
REMARK UNBOUND:                 0.000
REMARK SMILES O=c1ccc2cc(O)c(O)cc2o1
REMARK SMILES IDX 4 1 3 2 2 3 1 4 13 5 12 6 11 7 9 8 7 9 6 10 5 11 8 12 10 14
REMARK H PARENT 8 13 10 15
REMARK Flexibility Score: inf
ROOT
ATOM      1  C   UNL     1      54.013   7.731 -48.067  1.00  0.00     0.019 A 
ATOM      2  C   UNL     1      52.829   7.328 -48.683  1.00  0.00     0.094 A 
ATOM      3  C   UNL     1      51.734   6.979 -47.886  1.00  0.00     0.336 A 
ATOM      4  O   UNL     1      50.656   6.613 -48.423  1.00  0.00    -0.246 OA
ATOM      5  O   UNL     1      51.824   7.029 -46.559  1.00  0.00    -0.423 OA
ATOM      6  C   UNL     1      52.935   7.406 -45.931  1.00  0.00     0.142 A 
ATOM      7  C   UNL     1      52.971   7.439 -44.533  1.00  0.00     0.098 A 
ATOM      8  C   UNL     1      54.140   7.836 -43.865  1.00  0.00     0.161 A 
ATOM      9  C   UNL     1      55.277   8.202 -44.601  1.00  0.00     0.158 A 
ATOM     10  C   UNL     1      55.247   8.170 -46.003  1.00  0.00     0.062 A 
ATOM     11  C   UNL     1      54.080   7.774 -46.671  1.00  0.00     0.022 A 
ENDROOT
BRANCH   9  12
ATOM     12  O   UNL     1      56.434   8.595 -43.930  1.00  0.00    -0.504 OA
ATOM     13  H   UNL     1      56.989   7.934 -43.398  1.00  0.00     0.293 HD
ENDBRANCH   9  12
BRANCH   8  14
ATOM     14  O   UNL     1      54.179   7.870 -42.474  1.00  0.00    -0.504 OA
ATOM     15  H   UNL     1      55.041   8.047 -41.971  1.00  0.00     0.293 HD
ENDBRANCH   8  14
TORSDOF 2
ENDMDL
MODEL 6
REMARK VINA RESULT:    -4.154      1.729      2.311
REMARK INTER + INTRA:          -4.397
REMARK INTER:                  -4.397
REMARK INTRA:                   0.000
REMARK UNBOUND:                 0.000
REMARK SMILES O=c1ccc2cc(O)c(O)cc2o1
REMARK SMILES IDX 4 1 3 2 2 3 1 4 13 5 12 6 11 7 9 8 7 9 6 10 5 11 8 12 10 14
REMARK H PARENT 8 13 10 15
REMARK Flexibility Score: inf
ROOT
ATOM      1  C   UNL     1      61.555  -6.104 -46.369  1.00  0.00     0.019 A 
ATOM      2  C   UNL     1      61.007  -6.172 -45.088  1.00  0.00     0.094 A 
ATOM      3  C   UNL     1      60.238  -5.102 -44.621  1.00  0.00     0.336 A 
ATOM      4  O   UNL     1      59.735  -5.144 -43.468  1.00  0.00    -0.246 OA
ATOM      5  O   UNL     1      60.034  -4.034 -45.389  1.00  0.00    -0.423 OA
ATOM      6  C   UNL     1      60.540  -3.928 -46.616  1.00  0.00     0.142 A 
ATOM      7  C   UNL     1      60.292  -2.781 -47.377  1.00  0.00     0.098 A 
ATOM      8  C   UNL     1      60.822  -2.664 -48.671  1.00  0.00     0.161 A 
ATOM      9  C   UNL     1      61.602  -3.700 -49.205  1.00  0.00     0.158 A 
ATOM     10  C   UNL     1      61.854  -4.853 -48.446  1.00  0.00     0.062 A 
ATOM     11  C   UNL     1      61.325  -4.971 -47.153  1.00  0.00     0.022 A 
ENDROOT
BRANCH   9  12
ATOM     12  O   UNL     1      62.125  -3.576 -50.491  1.00  0.00    -0.504 OA
ATOM     13  H   UNL     1      62.595  -2.730 -50.793  1.00  0.00     0.293 HD
ENDBRANCH   9  12
BRANCH   8  14
ATOM     14  O   UNL     1      60.577  -1.523 -49.432  1.00  0.00    -0.504 OA
ATOM     15  H   UNL     1      61.072  -0.656 -49.262  1.00  0.00     0.293 HD
ENDBRANCH   8  14
TORSDOF 2
ENDMDL
MODEL 7
REMARK VINA RESULT:    -4.081      2.902      3.496
REMARK INTER + INTRA:          -4.319
REMARK INTER:                  -4.319
REMARK INTRA:                   0.000
REMARK UNBOUND:                 0.000
REMARK SMILES O=c1ccc2cc(O)c(O)cc2o1
REMARK SMILES IDX 4 1 3 2 2 3 1 4 13 5 12 6 11 7 9 8 7 9 6 10 5 11 8 12 10 14
REMARK H PARENT 8 13 10 15
REMARK Flexibility Score: inf
ROOT
ATOM      1  C   UNL     1      62.125  -3.960 -47.348  1.00  0.00     0.019 A 
ATOM      2  C   UNL     1      61.928  -3.416 -46.079  1.00  0.00     0.094 A 
ATOM      3  C   UNL     1      60.804  -2.615 -45.851  1.00  0.00     0.336 A 
ATOM      4  O   UNL     1      60.608  -2.115 -44.712  1.00  0.00    -0.246 OA
ATOM      5  O   UNL     1      59.938  -2.375 -46.832  1.00  0.00    -0.423 OA
ATOM      6  C   UNL     1      60.089  -2.873 -48.058  1.00  0.00     0.142 A 
ATOM      7  C   UNL     1      59.146  -2.587 -49.050  1.00  0.00     0.098 A 
ATOM      8  C   UNL     1      59.300  -3.109 -50.343  1.00  0.00     0.161 A 
ATOM      9  C   UNL     1      60.403  -3.923 -50.644  1.00  0.00     0.158 A 
ATOM     10  C   UNL     1      61.352  -4.213 -49.652  1.00  0.00     0.062 A 
ATOM     11  C   UNL     1      61.199  -3.692 -48.360  1.00  0.00     0.022 A 
ENDROOT
BRANCH   9  12
ATOM     12  O   UNL     1      60.549  -4.438 -51.930  1.00  0.00    -0.504 OA
ATOM     13  H   UNL     1      59.894  -4.210 -52.670  1.00  0.00     0.293 HD
ENDBRANCH   9  12
BRANCH   8  14
ATOM     14  O   UNL     1      58.363  -2.826 -51.333  1.00  0.00    -0.504 OA
ATOM     15  H   UNL     1      58.453  -3.199 -52.272  1.00  0.00     0.293 HD
ENDBRANCH   8  14
TORSDOF 2
ENDMDL
MODEL 8
REMARK VINA RESULT:    -3.999     14.698     15.334
REMARK INTER + INTRA:          -4.233
REMARK INTER:                  -4.233
REMARK INTRA:                   0.000
REMARK UNBOUND:                 0.000
REMARK SMILES O=c1ccc2cc(O)c(O)cc2o1
REMARK SMILES IDX 4 1 3 2 2 3 1 4 13 5 12 6 11 7 9 8 7 9 6 10 5 11 8 12 10 14
REMARK H PARENT 8 13 10 15
REMARK Flexibility Score: inf
ROOT
ATOM      1  C   UNL     1      51.968   7.079 -46.759  1.00  0.00     0.019 A 
ATOM      2  C   UNL     1      52.058   7.076 -48.150  1.00  0.00     0.094 A 
ATOM      3  C   UNL     1      53.262   7.454 -48.753  1.00  0.00     0.336 A 
ATOM      4  O   UNL     1      53.364   7.457 -50.008  1.00  0.00    -0.246 OA
ATOM      5  O   UNL     1      54.305   7.812 -48.008  1.00  0.00    -0.423 OA
ATOM      6  C   UNL     1      54.261   7.830 -46.678  1.00  0.00     0.142 A 
ATOM      7  C   UNL     1      55.389   8.215 -45.946  1.00  0.00     0.098 A 
ATOM      8  C   UNL     1      55.349   8.236 -44.543  1.00  0.00     0.161 A 
ATOM      9  C   UNL     1      54.174   7.868 -43.871  1.00  0.00     0.158 A 
ATOM     10  C   UNL     1      53.039   7.481 -44.600  1.00  0.00     0.062 A 
ATOM     11  C   UNL     1      53.079   7.460 -46.000  1.00  0.00     0.022 A 
ENDROOT
BRANCH   9  12
ATOM     12  O   UNL     1      54.142   7.891 -42.477  1.00  0.00    -0.504 OA
ATOM     13  H   UNL     1      53.484   7.326 -41.952  1.00  0.00     0.293 HD
ENDBRANCH   9  12
BRANCH   8  14
ATOM     14  O   UNL     1      56.471   8.619 -43.812  1.00  0.00    -0.504 OA
ATOM     15  H   UNL     1      56.943   9.498 -43.987  1.00  0.00     0.293 HD
ENDBRANCH   8  14
TORSDOF 2
ENDMDL
