MODEL 1
REMARK VINA RESULT:    -7.094      0.000      0.000
REMARK INTER + INTRA:         -12.234
REMARK INTER:                 -10.411
REMARK INTRA:                  -1.823
REMARK UNBOUND:                -1.823
REMARK SMILES O=c1c(O[C@H]2O[C@@H](CO)[C@@H](O)[C@@H](O)[C@@H]2O)c(-c2ccc(O)c(O)c2)oc2cc(O)cc(O)c12
REMARK SMILES IDX 4 1 3 2 16 3 25 4 2 5 26 6 1 7 33 8 27 9 31 10 28 11 30 12
REMARK SMILES IDX 17 13 18 14 19 15 20 16 24 17 22 18 21 19 23 21 32 23 29 25
REMARK SMILES IDX 5 27 14 28 6 29 12 30 7 31 10 32 15 33 13 35 8 37 9 38 11 40
REMARK H PARENT 21 20 23 22 32 24 29 26 15 34 13 36 9 39 11 41
REMARK Flexibility Score: inf
ROOT
ATOM      1  O   UNL     1     -37.756   5.519  81.861  1.00  0.00    -0.454 OA
ENDROOT
BRANCH   1   2
ATOM      2  C   UNL     1     -38.543   4.925  80.841  1.00  0.00     0.214 A 
ATOM      3  C   UNL     1     -38.035   4.928  79.526  1.00  0.00     0.180 A 
ATOM      4  O   UNL     1     -38.758   4.452  78.521  1.00  0.00    -0.452 OA
ATOM      5  C   UNL     1     -39.815   4.333  81.051  1.00  0.00     0.239 A 
ATOM      6  C   UNL     1     -39.971   3.945  78.671  1.00  0.00     0.146 A 
ATOM      7  O   UNL     1     -40.235   4.137  82.217  1.00  0.00    -0.285 OA
ATOM      8  C   UNL     1     -40.585   3.899  79.946  1.00  0.00     0.111 A 
ATOM      9  C   UNL     1     -40.622   3.423  77.549  1.00  0.00     0.094 A 
ATOM     10  C   UNL     1     -41.909   3.379  80.044  1.00  0.00     0.134 A 
ATOM     11  C   UNL     1     -41.878   2.830  77.671  1.00  0.00     0.123 A 
ATOM     12  C   UNL     1     -42.515   2.813  78.915  1.00  0.00     0.093 A 
BRANCH   3  13
ATOM     13  C   UNL     1     -36.682   5.423  79.217  1.00  0.00     0.025 A 
ATOM     14  C   UNL     1     -36.484   6.742  78.772  1.00  0.00     0.016 A 
ATOM     15  C   UNL     1     -35.195   7.203  78.494  1.00  0.00     0.051 A 
ATOM     16  C   UNL     1     -34.088   6.358  78.670  1.00  0.00     0.157 A 
ATOM     17  C   UNL     1     -35.571   4.590  79.420  1.00  0.00     0.062 A 
ATOM     18  C   UNL     1     -34.279   5.046  79.138  1.00  0.00     0.158 A 
BRANCH  16  19
ATOM     19  O   UNL     1     -32.804   6.814  78.373  1.00  0.00    -0.504 OA
ATOM     20  H   UNL     1     -32.157   6.254  77.832  1.00  0.00     0.293 HD
ENDBRANCH  16  19
BRANCH  18  21
ATOM     21  O   UNL     1     -33.200   4.184  79.326  1.00  0.00    -0.504 OA
ATOM     22  H   UNL     1     -33.325   3.195  79.505  1.00  0.00     0.293 HD
ENDBRANCH  18  21
ENDBRANCH   3  13
BRANCH  10  23
ATOM     23  O   UNL     1     -42.678   3.431  81.214  1.00  0.00    -0.507 OA
ATOM     24  H   UNL     1     -42.688   4.216  81.852  1.00  0.00     0.293 HD
ENDBRANCH  10  23
BRANCH  11  25
ATOM     25  O   UNL     1     -42.488   2.267  76.551  1.00  0.00    -0.508 OA
ATOM     26  H   UNL     1     -43.474   2.033  76.547  1.00  0.00     0.293 HD
ENDBRANCH  11  25
ENDBRANCH   1   2
BRANCH   1  27
ATOM     27  C   UNL     1     -36.968   4.852  82.857  1.00  0.00     0.339 C 
ATOM     28  C   UNL     1     -37.538   5.027  84.287  1.00  0.00     0.214 C 
ATOM     29  O   UNL     1     -35.598   5.212  82.739  1.00  0.00    -0.332 OA
ATOM     30  C   UNL     1     -37.273   6.431  84.846  1.00  0.00     0.180 C 
ATOM     31  C   UNL     1     -35.250   6.496  83.245  1.00  0.00     0.179 C 
ATOM     32  C   UNL     1     -35.785   6.776  84.676  1.00  0.00     0.177 C 
BRANCH  28  33
ATOM     33  O   UNL     1     -36.963   4.058  85.125  1.00  0.00    -0.384 OA
ATOM     34  H   UNL     1     -37.273   4.254  86.046  1.00  0.00     0.211 HD
ENDBRANCH  28  33
BRANCH  30  35
ATOM     35  O   UNL     1     -38.098   7.371  84.208  1.00  0.00    -0.387 OA
ATOM     36  H   UNL     1     -37.566   7.772  83.470  1.00  0.00     0.211 HD
ENDBRANCH  30  35
BRANCH  31  37
ATOM     37  C   UNL     1     -35.411   7.614  82.187  1.00  0.00     0.191 C 
BRANCH  37  38
ATOM     38  O   UNL     1     -36.656   8.247  82.252  1.00  0.00    -0.394 OA
ATOM     39  H   UNL     1     -36.937   8.261  83.201  1.00  0.00     0.210 HD
ENDBRANCH  37  38
ENDBRANCH  31  37
BRANCH  32  40
ATOM     40  O   UNL     1     -35.477   8.076  85.125  1.00  0.00    -0.387 OA
ATOM     41  H   UNL     1     -35.949   8.234  85.978  1.00  0.00     0.211 HD
ENDBRANCH  32  40
ENDBRANCH   1  27
TORSDOF 12
ENDMDL
MODEL 2
REMARK VINA RESULT:    -6.932      0.905      2.276
REMARK INTER + INTRA:         -11.997
REMARK INTER:                 -10.184
REMARK INTRA:                  -1.813
REMARK UNBOUND:                -1.823
REMARK SMILES O=c1c(O[C@H]2O[C@@H](CO)[C@@H](O)[C@@H](O)[C@@H]2O)c(-c2ccc(O)c(O)c2)oc2cc(O)cc(O)c12
REMARK SMILES IDX 4 1 3 2 16 3 25 4 2 5 26 6 1 7 33 8 27 9 31 10 28 11 30 12
REMARK SMILES IDX 17 13 18 14 19 15 20 16 24 17 22 18 21 19 23 21 32 23 29 25
REMARK SMILES IDX 5 27 14 28 6 29 12 30 7 31 10 32 15 33 13 35 8 37 9 38 11 40
REMARK H PARENT 21 20 23 22 32 24 29 26 15 34 13 36 9 39 11 41
REMARK Flexibility Score: inf
ROOT
ATOM      1  O   UNL     1     -37.592   5.351  81.969  1.00  0.00    -0.454 OA
ENDROOT
BRANCH   1   2
ATOM      2  C   UNL     1     -38.405   4.812  80.939  1.00  0.00     0.214 A 
ATOM      3  C   UNL     1     -37.918   4.860  79.617  1.00  0.00     0.180 A 
ATOM      4  O   UNL     1     -38.665   4.439  78.606  1.00  0.00    -0.452 OA
ATOM      5  C   UNL     1     -39.684   4.234  81.145  1.00  0.00     0.239 A 
ATOM      6  C   UNL     1     -39.884   3.946  78.754  1.00  0.00     0.146 A 
ATOM      7  O   UNL     1     -40.089   3.998  82.309  1.00  0.00    -0.285 OA
ATOM      8  C   UNL     1     -40.479   3.859  80.036  1.00  0.00     0.111 A 
ATOM      9  C   UNL     1     -40.561   3.481  77.623  1.00  0.00     0.094 A 
ATOM     10  C   UNL     1     -41.810   3.357  80.135  1.00  0.00     0.134 A 
ATOM     11  C   UNL     1     -41.825   2.905  77.741  1.00  0.00     0.123 A 
ATOM     12  C   UNL     1     -42.443   2.848  78.993  1.00  0.00     0.093 A 
BRANCH   3  13
ATOM     13  C   UNL     1     -36.561   5.346  79.306  1.00  0.00     0.025 A 
ATOM     14  C   UNL     1     -35.447   4.501  79.446  1.00  0.00     0.016 A 
ATOM     15  C   UNL     1     -34.168   4.969  79.137  1.00  0.00     0.051 A 
ATOM     16  C   UNL     1     -33.988   6.281  78.672  1.00  0.00     0.157 A 
ATOM     17  C   UNL     1     -36.383   6.647  78.813  1.00  0.00     0.062 A 
ATOM     18  C   UNL     1     -35.103   7.122  78.507  1.00  0.00     0.158 A 
BRANCH  16  19
ATOM     19  O   UNL     1     -32.708   6.753  78.382  1.00  0.00    -0.504 OA
ATOM     20  H   UNL     1     -31.909   6.496  78.949  1.00  0.00     0.293 HD
ENDBRANCH  16  19
BRANCH  18  21
ATOM     21  O   UNL     1     -34.957   8.429  78.044  1.00  0.00    -0.504 OA
ATOM     22  H   UNL     1     -35.516   9.193  78.404  1.00  0.00     0.293 HD
ENDBRANCH  18  21
ENDBRANCH   3  13
BRANCH  10  23
ATOM     23  O   UNL     1     -42.559   3.374  81.317  1.00  0.00    -0.507 OA
ATOM     24  H   UNL     1     -43.153   2.616  81.626  1.00  0.00     0.293 HD
ENDBRANCH  10  23
BRANCH  11  25
ATOM     25  O   UNL     1     -42.462   2.399  76.609  1.00  0.00    -0.508 OA
ATOM     26  H   UNL     1     -41.942   2.143  75.778  1.00  0.00     0.293 HD
ENDBRANCH  11  25
ENDBRANCH   1   2
BRANCH   1  27
ATOM     27  C   UNL     1     -37.768   6.593  82.662  1.00  0.00     0.339 C 
ATOM     28  C   UNL     1     -36.686   7.640  82.300  1.00  0.00     0.214 C 
ATOM     29  O   UNL     1     -37.906   6.374  84.061  1.00  0.00    -0.332 OA
ATOM     30  C   UNL     1     -35.336   7.327  82.959  1.00  0.00     0.180 C 
ATOM     31  C   UNL     1     -36.703   6.089  84.764  1.00  0.00     0.179 C 
ATOM     32  C   UNL     1     -35.546   7.080  84.461  1.00  0.00     0.177 C 
BRANCH  28  33
ATOM     33  O   UNL     1     -37.133   8.911  82.698  1.00  0.00    -0.384 OA
ATOM     34  H   UNL     1     -36.497   9.237  83.386  1.00  0.00     0.211 HD
ENDBRANCH  28  33
BRANCH  30  35
ATOM     35  O   UNL     1     -34.735   6.224  82.333  1.00  0.00    -0.387 OA
ATOM     36  H   UNL     1     -35.141   5.407  82.729  1.00  0.00     0.211 HD
ENDBRANCH  30  35
BRANCH  31  37
ATOM     37  C   UNL     1     -36.369   4.578  84.780  1.00  0.00     0.191 C 
BRANCH  37  38
ATOM     38  O   UNL     1     -35.105   4.297  84.252  1.00  0.00    -0.394 OA
ATOM     39  H   UNL     1     -34.445   4.848  84.742  1.00  0.00     0.210 HD
ENDBRANCH  37  38
ENDBRANCH  31  37
BRANCH  32  40
ATOM     40  O   UNL     1     -34.351   6.737  85.125  1.00  0.00    -0.387 OA
ATOM     41  H   UNL     1     -34.580   6.246  85.951  1.00  0.00     0.211 HD
ENDBRANCH  32  40
ENDBRANCH   1  27
TORSDOF 12
ENDMDL
MODEL 3
REMARK VINA RESULT:    -6.753      2.006      7.522
REMARK INTER + INTRA:         -11.735
REMARK INTER:                 -10.081
REMARK INTRA:                  -1.654
REMARK UNBOUND:                -1.823
REMARK SMILES O=c1c(O[C@H]2O[C@@H](CO)[C@@H](O)[C@@H](O)[C@@H]2O)c(-c2ccc(O)c(O)c2)oc2cc(O)cc(O)c12
REMARK SMILES IDX 4 1 3 2 16 3 25 4 2 5 26 6 1 7 33 8 27 9 31 10 28 11 30 12
REMARK SMILES IDX 17 13 18 14 19 15 20 16 24 17 22 18 21 19 23 21 32 23 29 25
REMARK SMILES IDX 5 27 14 28 6 29 12 30 7 31 10 32 15 33 13 35 8 37 9 38 11 40
REMARK H PARENT 21 20 23 22 32 24 29 26 15 34 13 36 9 39 11 41
REMARK Flexibility Score: inf
ROOT
ATOM      1  O   UNL     1     -37.800   4.820  79.598  1.00  0.00    -0.454 OA
ENDROOT
BRANCH   1   2
ATOM      2  C   UNL     1     -36.638   5.480  80.074  1.00  0.00     0.214 A 
ATOM      3  C   UNL     1     -36.491   5.642  81.466  1.00  0.00     0.180 A 
ATOM      4  O   UNL     1     -35.462   6.314  81.964  1.00  0.00    -0.452 OA
ATOM      5  C   UNL     1     -35.611   5.997  79.242  1.00  0.00     0.239 A 
ATOM      6  C   UNL     1     -34.516   6.859  81.216  1.00  0.00     0.146 A 
ATOM      7  O   UNL     1     -35.594   5.725  78.017  1.00  0.00    -0.285 OA
ATOM      8  C   UNL     1     -34.566   6.767  79.804  1.00  0.00     0.111 A 
ATOM      9  C   UNL     1     -33.447   7.500  81.850  1.00  0.00     0.094 A 
ATOM     10  C   UNL     1     -33.541   7.407  79.045  1.00  0.00     0.134 A 
ATOM     11  C   UNL     1     -32.402   8.040  81.102  1.00  0.00     0.123 A 
ATOM     12  C   UNL     1     -32.455   7.994  79.707  1.00  0.00     0.093 A 
BRANCH   3  13
ATOM     13  C   UNL     1     -37.445   5.052  82.422  1.00  0.00     0.025 A 
ATOM     14  C   UNL     1     -38.542   5.794  82.892  1.00  0.00     0.016 A 
ATOM     15  C   UNL     1     -39.447   5.220  83.788  1.00  0.00     0.051 A 
ATOM     16  C   UNL     1     -39.274   3.894  84.215  1.00  0.00     0.157 A 
ATOM     17  C   UNL     1     -37.291   3.717  82.827  1.00  0.00     0.062 A 
ATOM     18  C   UNL     1     -38.192   3.139  83.728  1.00  0.00     0.158 A 
BRANCH  16  19
ATOM     19  O   UNL     1     -40.167   3.328  85.124  1.00  0.00    -0.504 OA
ATOM     20  H   UNL     1     -40.919   3.870  85.534  1.00  0.00     0.293 HD
ENDBRANCH  16  19
BRANCH  18  21
ATOM     21  O   UNL     1     -37.995   1.819  84.130  1.00  0.00    -0.504 OA
ATOM     22  H   UNL     1     -37.311   1.218  83.688  1.00  0.00     0.293 HD
ENDBRANCH  18  21
ENDBRANCH   3  13
BRANCH  10  23
ATOM     23  O   UNL     1     -33.570   7.525  77.650  1.00  0.00    -0.507 OA
ATOM     24  H   UNL     1     -33.761   6.758  77.019  1.00  0.00     0.293 HD
ENDBRANCH  10  23
BRANCH  11  25
ATOM     25  O   UNL     1     -31.319   8.628  81.754  1.00  0.00    -0.508 OA
ATOM     26  H   UNL     1     -30.515   8.083  82.043  1.00  0.00     0.293 HD
ENDBRANCH  11  25
ENDBRANCH   1   2
BRANCH   1  27
ATOM     27  C   UNL     1     -38.903   5.397  78.887  1.00  0.00     0.339 C 
ATOM     28  C   UNL     1     -40.164   5.564  79.771  1.00  0.00     0.214 C 
ATOM     29  O   UNL     1     -39.144   4.694  77.674  1.00  0.00    -0.332 OA
ATOM     30  C   UNL     1     -40.873   4.227  80.024  1.00  0.00     0.180 C 
ATOM     31  C   UNL     1     -39.811   3.444  77.806  1.00  0.00     0.179 C 
ATOM     32  C   UNL     1     -41.089   3.503  78.686  1.00  0.00     0.177 C 
BRANCH  28  33
ATOM     33  O   UNL     1     -41.042   6.463  79.142  1.00  0.00    -0.384 OA
ATOM     34  H   UNL     1     -41.957   6.226  79.440  1.00  0.00     0.211 HD
ENDBRANCH  28  33
BRANCH  30  35
ATOM     35  O   UNL     1     -40.127   3.445  80.921  1.00  0.00    -0.387 OA
ATOM     36  H   UNL     1     -39.629   2.776  80.380  1.00  0.00     0.211 HD
ENDBRANCH  30  35
BRANCH  31  37
ATOM     37  C   UNL     1     -38.831   2.270  78.040  1.00  0.00     0.191 C 
BRANCH  37  38
ATOM     38  O   UNL     1     -38.396   2.182  79.366  1.00  0.00    -0.394 OA
ATOM     39  H   UNL     1     -37.965   3.041  79.599  1.00  0.00     0.210 HD
ENDBRANCH  37  38
ENDBRANCH  31  37
BRANCH  32  40
ATOM     40  O   UNL     1     -41.693   2.240  78.848  1.00  0.00    -0.387 OA
ATOM     41  H   UNL     1     -42.222   2.038  78.038  1.00  0.00     0.211 HD
ENDBRANCH  32  40
ENDBRANCH   1  27
TORSDOF 12
ENDMDL
MODEL 4
REMARK VINA RESULT:    -6.662      2.035      6.168
REMARK INTER + INTRA:         -11.601
REMARK INTER:                  -9.992
REMARK INTRA:                  -1.609
REMARK UNBOUND:                -1.823
REMARK SMILES O=c1c(O[C@H]2O[C@@H](CO)[C@@H](O)[C@@H](O)[C@@H]2O)c(-c2ccc(O)c(O)c2)oc2cc(O)cc(O)c12
REMARK SMILES IDX 4 1 3 2 16 3 25 4 2 5 26 6 1 7 33 8 27 9 31 10 28 11 30 12
REMARK SMILES IDX 17 13 18 14 19 15 20 16 24 17 22 18 21 19 23 21 32 23 29 25
REMARK SMILES IDX 5 27 14 28 6 29 12 30 7 31 10 32 15 33 13 35 8 37 9 38 11 40
REMARK H PARENT 21 20 23 22 32 24 29 26 15 34 13 36 9 39 11 41
REMARK Flexibility Score: inf
ROOT
ATOM      1  O   UNL     1     -37.260   5.328  81.849  1.00  0.00    -0.454 OA
ENDROOT
BRANCH   1   2
ATOM      2  C   UNL     1     -36.647   6.122  80.846  1.00  0.00     0.214 A 
ATOM      3  C   UNL     1     -36.967   5.852  79.500  1.00  0.00     0.180 A 
ATOM      4  O   UNL     1     -36.370   6.513  78.518  1.00  0.00    -0.452 OA
ATOM      5  C   UNL     1     -35.726   7.170  81.103  1.00  0.00     0.239 A 
ATOM      6  C   UNL     1     -35.464   7.457  78.718  1.00  0.00     0.146 A 
ATOM      7  O   UNL     1     -35.543   7.576  82.276  1.00  0.00    -0.285 OA
ATOM      8  C   UNL     1     -35.059   7.805  80.029  1.00  0.00     0.111 A 
ATOM      9  C   UNL     1     -34.939   8.127  77.609  1.00  0.00     0.094 A 
ATOM     10  C   UNL     1     -34.050   8.801  80.186  1.00  0.00     0.134 A 
ATOM     11  C   UNL     1     -34.023   9.164  77.777  1.00  0.00     0.123 A 
ATOM     12  C   UNL     1     -33.581   9.493  79.061  1.00  0.00     0.093 A 
BRANCH   3  13
ATOM     13  C   UNL     1     -37.989   4.856  79.129  1.00  0.00     0.025 A 
ATOM     14  C   UNL     1     -39.349   5.206  79.084  1.00  0.00     0.016 A 
ATOM     15  C   UNL     1     -40.306   4.257  78.720  1.00  0.00     0.051 A 
ATOM     16  C   UNL     1     -39.916   2.951  78.383  1.00  0.00     0.157 A 
ATOM     17  C   UNL     1     -37.598   3.559  78.765  1.00  0.00     0.062 A 
ATOM     18  C   UNL     1     -38.554   2.604  78.403  1.00  0.00     0.158 A 
BRANCH  16  19
ATOM     19  O   UNL     1     -40.875   1.999  78.038  1.00  0.00    -0.504 OA
ATOM     20  H   UNL     1     -41.002   1.155  78.584  1.00  0.00     0.293 HD
ENDBRANCH  16  19
BRANCH  18  21
ATOM     21  O   UNL     1     -38.133   1.316  78.071  1.00  0.00    -0.504 OA
ATOM     22  H   UNL     1     -37.466   0.805  78.636  1.00  0.00     0.293 HD
ENDBRANCH  18  21
ENDBRANCH   3  13
BRANCH  10  23
ATOM     23  O   UNL     1     -33.453   9.113  81.414  1.00  0.00    -0.507 OA
ATOM     24  H   UNL     1     -32.863   8.479  81.936  1.00  0.00     0.293 HD
ENDBRANCH  10  23
BRANCH  11  25
ATOM     25  O   UNL     1     -33.550   9.856  76.663  1.00  0.00    -0.508 OA
ATOM     26  H   UNL     1     -32.690   9.588  76.199  1.00  0.00     0.293 HD
ENDBRANCH  11  25
ENDBRANCH   1   2
BRANCH   1  27
ATOM     27  C   UNL     1     -38.263   5.730  82.791  1.00  0.00     0.339 C 
ATOM     28  C   UNL     1     -37.735   5.774  84.247  1.00  0.00     0.214 C 
ATOM     29  O   UNL     1     -39.442   4.952  82.634  1.00  0.00    -0.332 OA
ATOM     30  C   UNL     1     -37.569   4.370  84.843  1.00  0.00     0.180 C 
ATOM     31  C   UNL     1     -39.390   3.634  83.170  1.00  0.00     0.179 C 
ATOM     32  C   UNL     1     -38.862   3.568  84.628  1.00  0.00     0.177 C 
BRANCH  28  33
ATOM     33  O   UNL     1     -38.626   6.527  85.029  1.00  0.00    -0.384 OA
ATOM     34  H   UNL     1     -38.502   7.477  84.772  1.00  0.00     0.211 HD
ENDBRANCH  28  33
BRANCH  30  35
ATOM     35  O   UNL     1     -36.460   3.728  84.269  1.00  0.00    -0.387 OA
ATOM     36  H   UNL     1     -36.695   2.766  84.177  1.00  0.00     0.211 HD
ENDBRANCH  30  35
BRANCH  31  37
ATOM     37  C   UNL     1     -38.835   2.604  82.157  1.00  0.00     0.191 C 
BRANCH  37  38
ATOM     38  O   UNL     1     -39.049   1.281  82.556  1.00  0.00    -0.394 OA
ATOM     39  H   UNL     1     -39.474   1.302  83.449  1.00  0.00     0.210 HD
ENDBRANCH  37  38
ENDBRANCH  31  37
BRANCH  32  40
ATOM     40  O   UNL     1     -38.764   2.247  85.109  1.00  0.00    -0.387 OA
ATOM     41  H   UNL     1     -39.002   1.627  84.377  1.00  0.00     0.211 HD
ENDBRANCH  32  40
ENDBRANCH   1  27
TORSDOF 12
ENDMDL
MODEL 5
REMARK VINA RESULT:    -6.300      2.795      5.045
REMARK INTER + INTRA:         -11.070
REMARK INTER:                  -9.484
REMARK INTRA:                  -1.585
REMARK UNBOUND:                -1.823
REMARK SMILES O=c1c(O[C@H]2O[C@@H](CO)[C@@H](O)[C@@H](O)[C@@H]2O)c(-c2ccc(O)c(O)c2)oc2cc(O)cc(O)c12
REMARK SMILES IDX 4 1 3 2 16 3 25 4 2 5 26 6 1 7 33 8 27 9 31 10 28 11 30 12
REMARK SMILES IDX 17 13 18 14 19 15 20 16 24 17 22 18 21 19 23 21 32 23 29 25
REMARK SMILES IDX 5 27 14 28 6 29 12 30 7 31 10 32 15 33 13 35 8 37 9 38 11 40
REMARK H PARENT 21 20 23 22 32 24 29 26 15 34 13 36 9 39 11 41
REMARK Flexibility Score: inf
ROOT
ATOM      1  O   UNL     1     -38.248   6.226  79.679  1.00  0.00    -0.454 OA
ENDROOT
BRANCH   1   2
ATOM      2  C   UNL     1     -38.250   5.204  80.663  1.00  0.00     0.214 A 
ATOM      3  C   UNL     1     -37.006   4.717  81.114  1.00  0.00     0.180 A 
ATOM      4  O   UNL     1     -36.947   3.712  81.978  1.00  0.00    -0.452 OA
ATOM      5  C   UNL     1     -39.420   4.630  81.222  1.00  0.00     0.239 A 
ATOM      6  C   UNL     1     -38.017   3.115  82.477  1.00  0.00     0.146 A 
ATOM      7  O   UNL     1     -40.543   5.143  80.999  1.00  0.00    -0.285 OA
ATOM      8  C   UNL     1     -39.318   3.515  82.088  1.00  0.00     0.111 A 
ATOM      9  C   UNL     1     -37.837   2.101  83.423  1.00  0.00     0.094 A 
ATOM     10  C   UNL     1     -40.435   2.810  82.626  1.00  0.00     0.134 A 
ATOM     11  C   UNL     1     -38.938   1.482  84.014  1.00  0.00     0.123 A 
ATOM     12  C   UNL     1     -40.228   1.836  83.612  1.00  0.00     0.093 A 
BRANCH   3  13
ATOM     13  C   UNL     1     -35.733   5.314  80.675  1.00  0.00     0.025 A 
ATOM     14  C   UNL     1     -35.099   4.874  79.500  1.00  0.00     0.016 A 
ATOM     15  C   UNL     1     -33.898   5.457  79.089  1.00  0.00     0.051 A 
ATOM     16  C   UNL     1     -33.323   6.495  79.838  1.00  0.00     0.157 A 
ATOM     17  C   UNL     1     -35.171   6.372  81.407  1.00  0.00     0.062 A 
ATOM     18  C   UNL     1     -33.966   6.956  81.001  1.00  0.00     0.158 A 
BRANCH  16  19
ATOM     19  O   UNL     1     -32.114   7.063  79.437  1.00  0.00    -0.504 OA
ATOM     20  H   UNL     1     -31.324   6.489  79.170  1.00  0.00     0.293 HD
ENDBRANCH  16  19
BRANCH  18  21
ATOM     21  O   UNL     1     -33.421   7.987  81.765  1.00  0.00    -0.504 OA
ATOM     22  H   UNL     1     -33.436   8.952  81.457  1.00  0.00     0.293 HD
ENDBRANCH  18  21
ENDBRANCH   3  13
BRANCH  10  23
ATOM     23  O   UNL     1     -41.753   3.004  82.196  1.00  0.00    -0.507 OA
ATOM     24  H   UNL     1     -42.112   2.690  81.304  1.00  0.00     0.293 HD
ENDBRANCH  10  23
BRANCH  11  25
ATOM     25  O   UNL     1     -38.740   0.510  84.994  1.00  0.00    -0.508 OA
ATOM     26  H   UNL     1     -39.137   0.605  85.921  1.00  0.00     0.293 HD
ENDBRANCH  11  25
ENDBRANCH   1   2
BRANCH   1  27
ATOM     27  C   UNL     1     -38.184   7.642  79.890  1.00  0.00     0.339 C 
ATOM     28  C   UNL     1     -39.506   8.226  80.449  1.00  0.00     0.214 C 
ATOM     29  O   UNL     1     -37.714   8.305  78.723  1.00  0.00    -0.332 OA
ATOM     30  C   UNL     1     -40.597   8.316  79.373  1.00  0.00     0.180 C 
ATOM     31  C   UNL     1     -38.662   8.450  77.671  1.00  0.00     0.179 C 
ATOM     32  C   UNL     1     -40.031   9.021  78.130  1.00  0.00     0.177 C 
BRANCH  28  33
ATOM     33  O   UNL     1     -39.250   9.499  80.982  1.00  0.00    -0.384 OA
ATOM     34  H   UNL     1     -38.284   9.528  81.207  1.00  0.00     0.211 HD
ENDBRANCH  28  33
BRANCH  30  35
ATOM     35  O   UNL     1     -41.081   7.035  79.065  1.00  0.00    -0.387 OA
ATOM     36  H   UNL     1     -40.290   6.445  78.945  1.00  0.00     0.211 HD
ENDBRANCH  30  35
BRANCH  31  37
ATOM     37  C   UNL     1     -38.674   7.235  76.714  1.00  0.00     0.191 C 
BRANCH  37  38
ATOM     38  O   UNL     1     -39.127   7.559  75.431  1.00  0.00    -0.394 OA
ATOM     39  H   UNL     1     -39.461   6.728  75.011  1.00  0.00     0.210 HD
ENDBRANCH  37  38
ENDBRANCH  31  37
BRANCH  32  40
ATOM     40  O   UNL     1     -40.966   9.095  77.079  1.00  0.00    -0.387 OA
ATOM     41  H   UNL     1     -41.382   8.207  76.963  1.00  0.00     0.211 HD
ENDBRANCH  32  40
ENDBRANCH   1  27
TORSDOF 12
ENDMDL
MODEL 6
REMARK VINA RESULT:    -6.282      2.770      5.323
REMARK INTER + INTRA:         -11.043
REMARK INTER:                  -9.778
REMARK INTRA:                  -1.265
REMARK UNBOUND:                -1.823
REMARK SMILES O=c1c(O[C@H]2O[C@@H](CO)[C@@H](O)[C@@H](O)[C@@H]2O)c(-c2ccc(O)c(O)c2)oc2cc(O)cc(O)c12
REMARK SMILES IDX 4 1 3 2 16 3 25 4 2 5 26 6 1 7 33 8 27 9 31 10 28 11 30 12
REMARK SMILES IDX 17 13 18 14 19 15 20 16 24 17 22 18 21 19 23 21 32 23 29 25
REMARK SMILES IDX 5 27 14 28 6 29 12 30 7 31 10 32 15 33 13 35 8 37 9 38 11 40
REMARK H PARENT 21 20 23 22 32 24 29 26 15 34 13 36 9 39 11 41
REMARK Flexibility Score: inf
ROOT
ATOM      1  O   UNL     1     -36.933   6.159  79.538  1.00  0.00    -0.454 OA
ENDROOT
BRANCH   1   2
ATOM      2  C   UNL     1     -37.931   5.419  80.224  1.00  0.00     0.214 A 
ATOM      3  C   UNL     1     -39.280   5.762  80.001  1.00  0.00     0.180 A 
ATOM      4  O   UNL     1     -40.251   5.154  80.669  1.00  0.00    -0.452 OA
ATOM      5  C   UNL     1     -37.665   4.358  81.127  1.00  0.00     0.239 A 
ATOM      6  C   UNL     1     -40.037   4.200  81.561  1.00  0.00     0.146 A 
ATOM      7  O   UNL     1     -36.505   3.889  81.226  1.00  0.00    -0.285 OA
ATOM      8  C   UNL     1     -38.720   3.780  81.872  1.00  0.00     0.111 A 
ATOM      9  C   UNL     1     -41.140   3.590  82.166  1.00  0.00     0.094 A 
ATOM     10  C   UNL     1     -38.545   2.777  82.870  1.00  0.00     0.134 A 
ATOM     11  C   UNL     1     -40.962   2.544  83.071  1.00  0.00     0.123 A 
ATOM     12  C   UNL     1     -39.669   2.145  83.420  1.00  0.00     0.093 A 
BRANCH   3  13
ATOM     13  C   UNL     1     -39.669   6.777  79.006  1.00  0.00     0.025 A 
ATOM     14  C   UNL     1     -40.513   7.844  79.360  1.00  0.00     0.016 A 
ATOM     15  C   UNL     1     -40.865   8.806  78.411  1.00  0.00     0.051 A 
ATOM     16  C   UNL     1     -40.368   8.722  77.100  1.00  0.00     0.157 A 
ATOM     17  C   UNL     1     -39.151   6.711  77.704  1.00  0.00     0.062 A 
ATOM     18  C   UNL     1     -39.504   7.670  76.748  1.00  0.00     0.158 A 
BRANCH  16  19
ATOM     19  O   UNL     1     -40.736   9.672  76.149  1.00  0.00    -0.504 OA
ATOM     20  H   UNL     1     -41.176   9.403  75.277  1.00  0.00     0.293 HD
ENDBRANCH  16  19
BRANCH  18  21
ATOM     21  O   UNL     1     -38.992   7.560  75.456  1.00  0.00    -0.504 OA
ATOM     22  H   UNL     1     -38.615   6.691  75.098  1.00  0.00     0.293 HD
ENDBRANCH  18  21
ENDBRANCH   3  13
BRANCH  10  23
ATOM     23  O   UNL     1     -37.296   2.398  83.377  1.00  0.00    -0.507 OA
ATOM     24  H   UNL     1     -36.462   2.967  83.315  1.00  0.00     0.293 HD
ENDBRANCH  10  23
BRANCH  11  25
ATOM     25  O   UNL     1     -42.074   1.913  83.625  1.00  0.00    -0.508 OA
ATOM     26  H   UNL     1     -41.981   1.083  84.199  1.00  0.00     0.293 HD
ENDBRANCH  11  25
ENDBRANCH   1   2
BRANCH   1  27
ATOM     27  C   UNL     1     -36.248   7.332  79.995  1.00  0.00     0.339 C 
ATOM     28  C   UNL     1     -35.833   8.273  78.835  1.00  0.00     0.214 C 
ATOM     29  O   UNL     1     -35.175   6.985  80.860  1.00  0.00    -0.332 OA
ATOM     30  C   UNL     1     -34.629   7.729  78.054  1.00  0.00     0.180 C 
ATOM     31  C   UNL     1     -34.005   6.482  80.224  1.00  0.00     0.179 C 
ATOM     32  C   UNL     1     -33.511   7.351  79.037  1.00  0.00     0.177 C 
BRANCH  28  33
ATOM     33  O   UNL     1     -35.532   9.538  79.364  1.00  0.00    -0.384 OA
ATOM     34  H   UNL     1     -34.888   9.394  80.105  1.00  0.00     0.211 HD
ENDBRANCH  28  33
BRANCH  30  35
ATOM     35  O   UNL     1     -35.018   6.633  77.266  1.00  0.00    -0.387 OA
ATOM     36  H   UNL     1     -35.443   7.000  76.445  1.00  0.00     0.211 HD
ENDBRANCH  30  35
BRANCH  31  37
ATOM     37  C   UNL     1     -34.053   4.949  80.022  1.00  0.00     0.191 C 
BRANCH  37  38
ATOM     38  O   UNL     1     -34.665   4.579  78.820  1.00  0.00    -0.394 OA
ATOM     39  H   UNL     1     -35.287   5.305  78.564  1.00  0.00     0.210 HD
ENDBRANCH  37  38
ENDBRANCH  31  37
BRANCH  32  40
ATOM     40  O   UNL     1     -32.388   6.796  78.390  1.00  0.00    -0.387 OA
ATOM     41  H   UNL     1     -31.850   6.306  79.058  1.00  0.00     0.211 HD
ENDBRANCH  32  40
ENDBRANCH   1  27
TORSDOF 12
ENDMDL
MODEL 7
REMARK VINA RESULT:    -6.159      2.265      6.811
REMARK INTER + INTRA:         -10.863
REMARK INTER:                  -8.982
REMARK INTRA:                  -1.881
REMARK UNBOUND:                -1.823
REMARK SMILES O=c1c(O[C@H]2O[C@@H](CO)[C@@H](O)[C@@H](O)[C@@H]2O)c(-c2ccc(O)c(O)c2)oc2cc(O)cc(O)c12
REMARK SMILES IDX 4 1 3 2 16 3 25 4 2 5 26 6 1 7 33 8 27 9 31 10 28 11 30 12
REMARK SMILES IDX 17 13 18 14 19 15 20 16 24 17 22 18 21 19 23 21 32 23 29 25
REMARK SMILES IDX 5 27 14 28 6 29 12 30 7 31 10 32 15 33 13 35 8 37 9 38 11 40
REMARK H PARENT 21 20 23 22 32 24 29 26 15 34 13 36 9 39 11 41
REMARK Flexibility Score: inf
ROOT
ATOM      1  O   UNL     1     -38.174   5.281  81.209  1.00  0.00    -0.454 OA
ENDROOT
BRANCH   1   2
ATOM      2  C   UNL     1     -36.946   5.948  81.451  1.00  0.00     0.214 A 
ATOM      3  C   UNL     1     -36.420   6.759  80.426  1.00  0.00     0.180 A 
ATOM      4  O   UNL     1     -35.241   7.349  80.568  1.00  0.00    -0.452 OA
ATOM      5  C   UNL     1     -36.203   5.850  82.655  1.00  0.00     0.239 A 
ATOM      6  C   UNL     1     -34.493   7.234  81.654  1.00  0.00     0.146 A 
ATOM      7  O   UNL     1     -36.704   5.296  83.663  1.00  0.00    -0.285 OA
ATOM      8  C   UNL     1     -34.918   6.436  82.744  1.00  0.00     0.111 A 
ATOM      9  C   UNL     1     -33.290   7.943  81.717  1.00  0.00     0.094 A 
ATOM     10  C   UNL     1     -34.055   6.315  83.874  1.00  0.00     0.134 A 
ATOM     11  C   UNL     1     -32.499   7.893  82.864  1.00  0.00     0.123 A 
ATOM     12  C   UNL     1     -32.882   7.079  83.933  1.00  0.00     0.093 A 
BRANCH   3  13
ATOM     13  C   UNL     1     -37.162   7.012  79.177  1.00  0.00     0.025 A 
ATOM     14  C   UNL     1     -36.834   6.325  77.996  1.00  0.00     0.016 A 
ATOM     15  C   UNL     1     -37.553   6.565  76.822  1.00  0.00     0.051 A 
ATOM     16  C   UNL     1     -38.615   7.482  76.817  1.00  0.00     0.157 A 
ATOM     17  C   UNL     1     -38.242   7.907  79.178  1.00  0.00     0.062 A 
ATOM     18  C   UNL     1     -38.962   8.153  78.003  1.00  0.00     0.158 A 
BRANCH  16  19
ATOM     19  O   UNL     1     -39.318   7.735  75.640  1.00  0.00    -0.504 OA
ATOM     20  H   UNL     1     -38.954   8.358  74.930  1.00  0.00     0.293 HD
ENDBRANCH  16  19
BRANCH  18  21
ATOM     21  O   UNL     1     -40.013   9.069  78.032  1.00  0.00    -0.504 OA
ATOM     22  H   UNL     1     -39.857  10.066  78.114  1.00  0.00     0.293 HD
ENDBRANCH  18  21
ENDBRANCH   3  13
BRANCH  10  23
ATOM     23  O   UNL     1     -34.288   5.432  84.935  1.00  0.00    -0.507 OA
ATOM     24  H   UNL     1     -33.882   5.530  85.856  1.00  0.00     0.293 HD
ENDBRANCH  10  23
BRANCH  11  25
ATOM     25  O   UNL     1     -31.329   8.649  82.929  1.00  0.00    -0.508 OA
ATOM     26  H   UNL     1     -31.011   9.057  83.800  1.00  0.00     0.293 HD
ENDBRANCH  11  25
ENDBRANCH   1   2
BRANCH   1  27
ATOM     27  C   UNL     1     -38.369   3.897  80.890  1.00  0.00     0.339 C 
ATOM     28  C   UNL     1     -39.120   3.690  79.551  1.00  0.00     0.214 C 
ATOM     29  O   UNL     1     -38.953   3.204  81.986  1.00  0.00    -0.332 OA
ATOM     30  C   UNL     1     -40.619   3.995  79.678  1.00  0.00     0.180 C 
ATOM     31  C   UNL     1     -40.347   3.412  82.177  1.00  0.00     0.179 C 
ATOM     32  C   UNL     1     -41.193   3.238  80.886  1.00  0.00     0.177 C 
BRANCH  28  33
ATOM     33  O   UNL     1     -38.932   2.366  79.125  1.00  0.00    -0.384 OA
ATOM     34  H   UNL     1     -39.688   2.148  78.521  1.00  0.00     0.211 HD
ENDBRANCH  28  33
BRANCH  30  35
ATOM     35  O   UNL     1     -40.825   5.379  79.789  1.00  0.00    -0.387 OA
ATOM     36  H   UNL     1     -41.768   5.555  79.526  1.00  0.00     0.211 HD
ENDBRANCH  30  35
BRANCH  31  37
ATOM     37  C   UNL     1     -40.646   4.638  83.072  1.00  0.00     0.191 C 
BRANCH  37  38
ATOM     38  O   UNL     1     -39.567   4.990  83.888  1.00  0.00    -0.394 OA
ATOM     39  H   UNL     1     -39.774   4.689  84.808  1.00  0.00     0.210 HD
ENDBRANCH  37  38
ENDBRANCH  31  37
BRANCH  32  40
ATOM     40  O   UNL     1     -42.560   3.510  81.094  1.00  0.00    -0.387 OA
ATOM     41  H   UNL     1     -42.951   3.827  80.244  1.00  0.00     0.211 HD
ENDBRANCH  32  40
ENDBRANCH   1  27
TORSDOF 12
ENDMDL
MODEL 8
REMARK VINA RESULT:    -6.130      2.147      6.502
REMARK INTER + INTRA:         -10.820
REMARK INTER:                  -9.604
REMARK INTRA:                  -1.217
REMARK UNBOUND:                -1.823
REMARK SMILES O=c1c(O[C@H]2O[C@@H](CO)[C@@H](O)[C@@H](O)[C@@H]2O)c(-c2ccc(O)c(O)c2)oc2cc(O)cc(O)c12
REMARK SMILES IDX 4 1 3 2 16 3 25 4 2 5 26 6 1 7 33 8 27 9 31 10 28 11 30 12
REMARK SMILES IDX 17 13 18 14 19 15 20 16 24 17 22 18 21 19 23 21 32 23 29 25
REMARK SMILES IDX 5 27 14 28 6 29 12 30 7 31 10 32 15 33 13 35 8 37 9 38 11 40
REMARK H PARENT 21 20 23 22 32 24 29 26 15 34 13 36 9 39 11 41
REMARK Flexibility Score: inf
ROOT
ATOM      1  O   UNL     1     -37.960   4.769  82.636  1.00  0.00    -0.454 OA
ENDROOT
BRANCH   1   2
ATOM      2  C   UNL     1     -36.851   5.465  82.090  1.00  0.00     0.214 A 
ATOM      3  C   UNL     1     -36.675   5.439  80.692  1.00  0.00     0.180 A 
ATOM      4  O   UNL     1     -35.617   6.011  80.133  1.00  0.00    -0.452 OA
ATOM      5  C   UNL     1     -35.898   6.183  82.858  1.00  0.00     0.239 A 
ATOM      6  C   UNL     1     -34.679   6.640  80.822  1.00  0.00     0.146 A 
ATOM      7  O   UNL     1     -36.101   6.395  84.077  1.00  0.00    -0.285 OA
ATOM      8  C   UNL     1     -34.747   6.720  82.234  1.00  0.00     0.111 A 
ATOM      9  C   UNL     1     -33.634   7.253  80.124  1.00  0.00     0.094 A 
ATOM     10  C   UNL     1     -33.688   7.375  82.929  1.00  0.00     0.134 A 
ATOM     11  C   UNL     1     -32.653   7.972  80.806  1.00  0.00     0.123 A 
ATOM     12  C   UNL     1     -32.683   8.027  82.202  1.00  0.00     0.093 A 
BRANCH   3  13
ATOM     13  C   UNL     1     -37.663   4.811  79.797  1.00  0.00     0.025 A 
ATOM     14  C   UNL     1     -38.784   5.529  79.347  1.00  0.00     0.016 A 
ATOM     15  C   UNL     1     -39.707   4.925  78.489  1.00  0.00     0.051 A 
ATOM     16  C   UNL     1     -39.514   3.604  78.059  1.00  0.00     0.157 A 
ATOM     17  C   UNL     1     -37.456   3.499  79.342  1.00  0.00     0.062 A 
ATOM     18  C   UNL     1     -38.380   2.890  78.486  1.00  0.00     0.158 A 
BRANCH  16  19
ATOM     19  O   UNL     1     -40.446   2.997  77.218  1.00  0.00    -0.504 OA
ATOM     20  H   UNL     1     -40.997   3.537  76.562  1.00  0.00     0.293 HD
ENDBRANCH  16  19
BRANCH  18  21
ATOM     21  O   UNL     1     -38.158   1.576  78.074  1.00  0.00    -0.504 OA
ATOM     22  H   UNL     1     -37.882   1.348  77.127  1.00  0.00     0.293 HD
ENDBRANCH  18  21
ENDBRANCH   3  13
BRANCH  10  23
ATOM     23  O   UNL     1     -33.561   7.377  84.324  1.00  0.00    -0.507 OA
ATOM     24  H   UNL     1     -34.043   6.735  84.939  1.00  0.00     0.293 HD
ENDBRANCH  10  23
BRANCH  11  25
ATOM     25  O   UNL     1     -31.649   8.621  80.090  1.00  0.00    -0.508 OA
ATOM     26  H   UNL     1     -31.730   8.784  79.093  1.00  0.00     0.293 HD
ENDBRANCH  11  25
ENDBRANCH   1   2
BRANCH   1  27
ATOM     27  C   UNL     1     -37.997   3.988  83.838  1.00  0.00     0.339 C 
ATOM     28  C   UNL     1     -37.668   2.494  83.593  1.00  0.00     0.214 C 
ATOM     29  O   UNL     1     -39.217   4.198  84.538  1.00  0.00    -0.332 OA
ATOM     30  C   UNL     1     -38.834   1.748  82.932  1.00  0.00     0.180 C 
ATOM     31  C   UNL     1     -40.356   3.532  84.006  1.00  0.00     0.179 C 
ATOM     32  C   UNL     1     -40.127   2.025  83.714  1.00  0.00     0.177 C 
BRANCH  28  33
ATOM     33  O   UNL     1     -37.346   1.894  84.821  1.00  0.00    -0.384 OA
ATOM     34  H   UNL     1     -36.678   2.480  85.261  1.00  0.00     0.211 HD
ENDBRANCH  28  33
BRANCH  30  35
ATOM     35  O   UNL     1     -38.952   2.129  81.586  1.00  0.00    -0.387 OA
ATOM     36  H   UNL     1     -38.320   1.565  81.066  1.00  0.00     0.211 HD
ENDBRANCH  30  35
BRANCH  31  37
ATOM     37  C   UNL     1     -41.083   4.371  82.927  1.00  0.00     0.191 C 
BRANCH  37  38
ATOM     38  O   UNL     1     -40.788   3.952  81.626  1.00  0.00    -0.394 OA
ATOM     39  H   UNL     1     -39.921   3.476  81.652  1.00  0.00     0.210 HD
ENDBRANCH  37  38
ENDBRANCH  31  37
BRANCH  32  40
ATOM     40  O   UNL     1     -41.253   1.408  83.133  1.00  0.00    -0.387 OA
ATOM     41  H   UNL     1     -41.815   2.106  82.717  1.00  0.00     0.211 HD
ENDBRANCH  32  40
ENDBRANCH   1  27
TORSDOF 12
ENDMDL
MODEL 9
REMARK VINA RESULT:    -6.022      2.334      5.533
REMARK INTER + INTRA:         -10.661
REMARK INTER:                  -9.299
REMARK INTRA:                  -1.362
REMARK UNBOUND:                -1.823
REMARK SMILES O=c1c(O[C@H]2O[C@@H](CO)[C@@H](O)[C@@H](O)[C@@H]2O)c(-c2ccc(O)c(O)c2)oc2cc(O)cc(O)c12
REMARK SMILES IDX 4 1 3 2 16 3 25 4 2 5 26 6 1 7 33 8 27 9 31 10 28 11 30 12
REMARK SMILES IDX 17 13 18 14 19 15 20 16 24 17 22 18 21 19 23 21 32 23 29 25
REMARK SMILES IDX 5 27 14 28 6 29 12 30 7 31 10 32 15 33 13 35 8 37 9 38 11 40
REMARK H PARENT 21 20 23 22 32 24 29 26 15 34 13 36 9 39 11 41
REMARK Flexibility Score: inf
ROOT
ATOM      1  O   UNL     1     -37.798   4.607  81.457  1.00  0.00    -0.454 OA
ENDROOT
BRANCH   1   2
ATOM      2  C   UNL     1     -37.316   5.596  80.562  1.00  0.00     0.214 A 
ATOM      3  C   UNL     1     -36.024   6.114  80.780  1.00  0.00     0.180 A 
ATOM      4  O   UNL     1     -35.550   7.091  80.019  1.00  0.00    -0.452 OA
ATOM      5  C   UNL     1     -38.050   6.107  79.460  1.00  0.00     0.239 A 
ATOM      6  C   UNL     1     -36.227   7.632  79.020  1.00  0.00     0.146 A 
ATOM      7  O   UNL     1     -39.123   5.560  79.108  1.00  0.00    -0.285 OA
ATOM      8  C   UNL     1     -37.540   7.196  78.715  1.00  0.00     0.111 A 
ATOM      9  C   UNL     1     -35.609   8.621  78.249  1.00  0.00     0.094 A 
ATOM     10  C   UNL     1     -38.240   7.841  77.652  1.00  0.00     0.134 A 
ATOM     11  C   UNL     1     -36.266   9.179  77.154  1.00  0.00     0.123 A 
ATOM     12  C   UNL     1     -37.576   8.790  76.863  1.00  0.00     0.093 A 
BRANCH   3  13
ATOM     13  C   UNL     1     -35.140   5.579  81.831  1.00  0.00     0.025 A 
ATOM     14  C   UNL     1     -34.727   4.235  81.807  1.00  0.00     0.016 A 
ATOM     15  C   UNL     1     -33.880   3.743  82.802  1.00  0.00     0.051 A 
ATOM     16  C   UNL     1     -33.423   4.589  83.825  1.00  0.00     0.157 A 
ATOM     17  C   UNL     1     -34.659   6.430  82.838  1.00  0.00     0.062 A 
ATOM     18  C   UNL     1     -33.813   5.940  83.839  1.00  0.00     0.158 A 
BRANCH  16  19
ATOM     19  O   UNL     1     -32.593   4.091  84.828  1.00  0.00    -0.504 OA
ATOM     20  H   UNL     1     -31.679   3.709  84.617  1.00  0.00     0.293 HD
ENDBRANCH  16  19
BRANCH  18  21
ATOM     21  O   UNL     1     -33.375   6.806  84.840  1.00  0.00    -0.504 OA
ATOM     22  H   UNL     1     -33.757   6.783  85.777  1.00  0.00     0.293 HD
ENDBRANCH  18  21
ENDBRANCH   3  13
BRANCH  10  23
ATOM     23  O   UNL     1     -39.591   7.613  77.364  1.00  0.00    -0.507 OA
ATOM     24  H   UNL     1     -40.033   7.852  76.486  1.00  0.00     0.293 HD
ENDBRANCH  10  23
BRANCH  11  25
ATOM     25  O   UNL     1     -35.614  10.125  76.365  1.00  0.00    -0.508 OA
ATOM     26  H   UNL     1     -36.040  11.018  76.148  1.00  0.00     0.293 HD
ENDBRANCH  11  25
ENDBRANCH   1   2
BRANCH   1  27
ATOM     27  C   UNL     1     -38.276   4.798  82.795  1.00  0.00     0.339 C 
ATOM     28  C   UNL     1     -38.043   3.561  83.697  1.00  0.00     0.214 C 
ATOM     29  O   UNL     1     -39.623   5.255  82.788  1.00  0.00    -0.332 OA
ATOM     30  C   UNL     1     -39.025   2.423  83.382  1.00  0.00     0.180 C 
ATOM     31  C   UNL     1     -40.610   4.266  82.518  1.00  0.00     0.179 C 
ATOM     32  C   UNL     1     -40.458   2.976  83.368  1.00  0.00     0.177 C 
BRANCH  28  33
ATOM     33  O   UNL     1     -38.172   3.949  85.041  1.00  0.00    -0.384 OA
ATOM     34  H   UNL     1     -37.373   4.494  85.260  1.00  0.00     0.211 HD
ENDBRANCH  28  33
BRANCH  30  35
ATOM     35  O   UNL     1     -38.691   1.820  82.159  1.00  0.00    -0.387 OA
ATOM     36  H   UNL     1     -37.885   2.289  81.813  1.00  0.00     0.211 HD
ENDBRANCH  30  35
BRANCH  31  37
ATOM     37  C   UNL     1     -40.886   4.102  81.005  1.00  0.00     0.191 C 
BRANCH  37  38
ATOM     38  O   UNL     1     -40.225   3.002  80.449  1.00  0.00    -0.394 OA
ATOM     39  H   UNL     1     -39.840   2.475  81.193  1.00  0.00     0.210 HD
ENDBRANCH  37  38
ENDBRANCH  31  37
BRANCH  32  40
ATOM     40  O   UNL     1     -41.412   1.993  83.035  1.00  0.00    -0.387 OA
ATOM     41  H   UNL     1     -41.956   1.798  83.837  1.00  0.00     0.211 HD
ENDBRANCH  32  40
ENDBRANCH   1  27
TORSDOF 12
ENDMDL
