MODEL 1
REMARK VINA RESULT:    -3.832      0.000      0.000
REMARK INTER + INTRA:          -4.879
REMARK INTER:                  -4.616
REMARK INTRA:                  -0.263
REMARK UNBOUND:                -0.263
REMARK SMILES O=c1c(O)c(-c2ccc(O)cc2O)oc2cc(O)cc(O)c12
REMARK SMILES IDX 5 1 3 2 2 3 1 4 22 5 20 6 19 7 17 8 16 9 15 10 14 11 6 12
REMARK SMILES IDX 8 13 7 14 9 15 11 16 12 17 10 18 13 20 4 22 21 24 18 26
REMARK H PARENT 10 19 13 21 4 23 21 25 18 27
REMARK Flexibility Score: inf
ROOT
ATOM      1  C   UNL     1      -2.002  -4.949  -2.597  1.00  0.00     0.184 A 
ATOM      2  C   UNL     1      -0.985  -4.894  -3.563  1.00  0.00     0.208 A 
ATOM      3  C   UNL     1      -0.778  -6.005  -4.397  1.00  0.00     0.238 A 
ATOM      4  O   UNL     1       0.177  -5.976  -5.215  1.00  0.00    -0.285 OA
ATOM      5  C   UNL     1      -1.618  -7.139  -4.280  1.00  0.00     0.111 A 
ATOM      6  C   UNL     1      -1.528  -8.304  -5.102  1.00  0.00     0.134 A 
ATOM      7  C   UNL     1      -2.339  -9.411  -4.821  1.00  0.00     0.093 A 
ATOM      8  C   UNL     1      -3.279  -9.373  -3.792  1.00  0.00     0.123 A 
ATOM      9  C   UNL     1      -3.415  -8.220  -3.019  1.00  0.00     0.094 A 
ATOM     10  C   UNL     1      -2.595  -7.113  -3.250  1.00  0.00     0.146 A 
ATOM     11  O   UNL     1      -2.744  -6.043  -2.479  1.00  0.00    -0.451 OA
ENDROOT
BRANCH   1  12
ATOM     12  C   UNL     1      -2.258  -3.815  -1.683  1.00  0.00     0.063 A 
ATOM     13  C   UNL     1      -2.720  -1.446  -1.378  1.00  0.00     0.047 A 
ATOM     14  C   UNL     1      -2.528  -2.544  -2.219  1.00  0.00     0.020 A 
ATOM     15  C   UNL     1      -2.637  -1.601   0.010  1.00  0.00     0.119 A 
ATOM     16  C   UNL     1      -2.366  -2.859   0.552  1.00  0.00     0.093 A 
ATOM     17  C   UNL     1      -2.181  -3.971  -0.279  1.00  0.00     0.130 A 
BRANCH  15  18
ATOM     18  O   UNL     1      -2.821  -0.511   0.858  1.00  0.00    -0.508 OA
ATOM     19  H   UNL     1      -3.658   0.058   0.816  1.00  0.00     0.293 HD
ENDBRANCH  15  18
BRANCH  17  20
ATOM     20  O   UNL     1      -1.946  -5.211   0.318  1.00  0.00    -0.507 OA
ATOM     21  H   UNL     1      -2.649  -5.935   0.382  1.00  0.00     0.293 HD
ENDBRANCH  17  20
ENDBRANCH   1  12
BRANCH   2  22
ATOM     22  O   UNL     1      -0.205  -3.742  -3.691  1.00  0.00    -0.502 OA
ATOM     23  H   UNL     1       0.521  -3.653  -4.392  1.00  0.00     0.293 HD
ENDBRANCH   2  22
BRANCH   6  24
ATOM     24  O   UNL     1      -0.685  -8.416  -6.211  1.00  0.00    -0.507 OA
ATOM     25  H   UNL     1      -0.293  -7.638  -6.718  1.00  0.00     0.293 HD
ENDBRANCH   6  24
BRANCH   8  26
ATOM     26  O   UNL     1      -4.081 -10.487  -3.553  1.00  0.00    -0.508 OA
ATOM     27  H   UNL     1      -3.955 -11.065  -2.730  1.00  0.00     0.293 HD
ENDBRANCH   8  26
TORSDOF 6
ENDMDL
MODEL 2
REMARK VINA RESULT:    -3.798      7.248     10.029
REMARK INTER + INTRA:          -4.838
REMARK INTER:                  -4.439
REMARK INTRA:                  -0.399
REMARK UNBOUND:                -0.263
REMARK SMILES O=c1c(O)c(-c2ccc(O)cc2O)oc2cc(O)cc(O)c12
REMARK SMILES IDX 5 1 3 2 2 3 1 4 22 5 20 6 19 7 17 8 16 9 15 10 14 11 6 12
REMARK SMILES IDX 8 13 7 14 9 15 11 16 12 17 10 18 13 20 4 22 21 24 18 26
REMARK H PARENT 10 19 13 21 4 23 21 25 18 27
REMARK Flexibility Score: inf
ROOT
ATOM      1  C   UNL     1       5.293  -3.747  -0.884  1.00  0.00     0.184 A 
ATOM      2  C   UNL     1       5.388  -3.281  -2.205  1.00  0.00     0.208 A 
ATOM      3  C   UNL     1       5.282  -1.902  -2.450  1.00  0.00     0.238 A 
ATOM      4  O   UNL     1       5.302  -1.498  -3.641  1.00  0.00    -0.285 OA
ATOM      5  C   UNL     1       5.123  -1.005  -1.366  1.00  0.00     0.111 A 
ATOM      6  C   UNL     1       5.049   0.415  -1.492  1.00  0.00     0.134 A 
ATOM      7  C   UNL     1       4.777   1.196  -0.362  1.00  0.00     0.093 A 
ATOM      8  C   UNL     1       4.643   0.615   0.899  1.00  0.00     0.123 A 
ATOM      9  C   UNL     1       4.769  -0.766   1.044  1.00  0.00     0.094 A 
ATOM     10  C   UNL     1       5.002  -1.575  -0.071  1.00  0.00     0.146 A 
ATOM     11  O   UNL     1       5.097  -2.887   0.108  1.00  0.00    -0.451 OA
ENDROOT
BRANCH   1  12
ATOM     12  C   UNL     1       5.384  -5.188  -0.567  1.00  0.00     0.063 A 
ATOM     13  C   UNL     1       6.764  -7.137  -0.100  1.00  0.00     0.047 A 
ATOM     14  C   UNL     1       6.646  -5.768  -0.348  1.00  0.00     0.020 A 
ATOM     15  C   UNL     1       5.624  -7.947  -0.075  1.00  0.00     0.119 A 
ATOM     16  C   UNL     1       4.366  -7.381  -0.293  1.00  0.00     0.093 A 
ATOM     17  C   UNL     1       4.232  -6.009  -0.533  1.00  0.00     0.130 A 
BRANCH  15  18
ATOM     18  O   UNL     1       5.731  -9.316   0.166  1.00  0.00    -0.508 OA
ATOM     19  H   UNL     1       5.121  -9.787   0.824  1.00  0.00     0.293 HD
ENDBRANCH  15  18
BRANCH  17  20
ATOM     20  O   UNL     1       2.947  -5.491  -0.712  1.00  0.00    -0.507 OA
ATOM     21  H   UNL     1       2.558  -4.765  -0.125  1.00  0.00     0.293 HD
ENDBRANCH  17  20
ENDBRANCH   1  12
BRANCH   2  22
ATOM     22  O   UNL     1       5.597  -4.185  -3.250  1.00  0.00    -0.502 OA
ATOM     23  H   UNL     1       6.494  -4.285  -3.710  1.00  0.00     0.293 HD
ENDBRANCH   2  22
BRANCH   6  24
ATOM     24  O   UNL     1       5.256   1.106  -2.690  1.00  0.00    -0.507 OA
ATOM     25  H   UNL     1       6.031   1.725  -2.872  1.00  0.00     0.293 HD
ENDBRANCH   6  24
BRANCH   8  26
ATOM     26  O   UNL     1       4.390   1.425   2.004  1.00  0.00    -0.508 OA
ATOM     27  H   UNL     1       4.261   1.034   2.931  1.00  0.00     0.293 HD
ENDBRANCH   8  26
TORSDOF 6
ENDMDL
MODEL 3
REMARK VINA RESULT:    -3.730      1.340      7.104
REMARK INTER + INTRA:          -4.756
REMARK INTER:                  -4.670
REMARK INTRA:                  -0.086
REMARK UNBOUND:                -0.263
REMARK SMILES O=c1c(O)c(-c2ccc(O)cc2O)oc2cc(O)cc(O)c12
REMARK SMILES IDX 5 1 3 2 2 3 1 4 22 5 20 6 19 7 17 8 16 9 15 10 14 11 6 12
REMARK SMILES IDX 8 13 7 14 9 15 11 16 12 17 10 18 13 20 4 22 21 24 18 26
REMARK H PARENT 10 19 13 21 4 23 21 25 18 27
REMARK Flexibility Score: inf
ROOT
ATOM      1  C   UNL     1      -2.231  -5.039  -2.195  1.00  0.00     0.184 A 
ATOM      2  C   UNL     1      -2.400  -5.298  -0.826  1.00  0.00     0.208 A 
ATOM      3  C   UNL     1      -2.535  -4.216   0.060  1.00  0.00     0.238 A 
ATOM      4  O   UNL     1      -2.619  -4.453   1.292  1.00  0.00    -0.285 OA
ATOM      5  C   UNL     1      -2.540  -2.892  -0.442  1.00  0.00     0.111 A 
ATOM      6  C   UNL     1      -2.714  -1.722   0.357  1.00  0.00     0.134 A 
ATOM      7  C   UNL     1      -2.588  -0.458  -0.233  1.00  0.00     0.093 A 
ATOM      8  C   UNL     1      -2.360  -0.321  -1.602  1.00  0.00     0.123 A 
ATOM      9  C   UNL     1      -2.244  -1.457  -2.403  1.00  0.00     0.094 A 
ATOM     10  C   UNL     1      -2.328  -2.732  -1.837  1.00  0.00     0.146 A 
ATOM     11  O   UNL     1      -2.193  -3.787  -2.632  1.00  0.00    -0.451 OA
ENDROOT
BRANCH   1  12
ATOM     12  C   UNL     1      -2.071  -6.137  -3.172  1.00  0.00     0.063 A 
ATOM     13  C   UNL     1      -2.747  -8.335  -3.969  1.00  0.00     0.047 A 
ATOM     14  C   UNL     1      -2.913  -7.261  -3.093  1.00  0.00     0.020 A 
ATOM     15  C   UNL     1      -1.733  -8.305  -4.933  1.00  0.00     0.119 A 
ATOM     16  C   UNL     1      -0.890  -7.195  -5.018  1.00  0.00     0.093 A 
ATOM     17  C   UNL     1      -1.051  -6.107  -4.152  1.00  0.00     0.130 A 
BRANCH  15  18
ATOM     18  O   UNL     1      -1.555  -9.374  -5.809  1.00  0.00    -0.508 OA
ATOM     19  H   UNL     1      -0.981 -10.172  -5.563  1.00  0.00     0.293 HD
ENDBRANCH  15  18
BRANCH  17  20
ATOM     20  O   UNL     1      -0.201  -5.009  -4.304  1.00  0.00    -0.507 OA
ATOM     21  H   UNL     1      -0.140  -4.261  -3.628  1.00  0.00     0.293 HD
ENDBRANCH  17  20
ENDBRANCH   1  12
BRANCH   2  22
ATOM     22  O   UNL     1      -2.443  -6.616  -0.364  1.00  0.00    -0.502 OA
ATOM     23  H   UNL     1      -1.610  -7.118  -0.078  1.00  0.00     0.293 HD
ENDBRANCH   2  22
BRANCH   6  24
ATOM     24  O   UNL     1      -3.033  -1.744   1.718  1.00  0.00    -0.507 OA
ATOM     25  H   UNL     1      -2.602  -2.347   2.401  1.00  0.00     0.293 HD
ENDBRANCH   6  24
BRANCH   8  26
ATOM     26  O   UNL     1      -2.258   0.952  -2.157  1.00  0.00    -0.508 OA
ATOM     27  H   UNL     1      -2.293   1.787  -1.583  1.00  0.00     0.293 HD
ENDBRANCH   8  26
TORSDOF 6
ENDMDL
MODEL 4
REMARK VINA RESULT:    -3.654      1.517      3.346
REMARK INTER + INTRA:          -4.664
REMARK INTER:                  -4.314
REMARK INTRA:                  -0.350
REMARK UNBOUND:                -0.263
REMARK SMILES O=c1c(O)c(-c2ccc(O)cc2O)oc2cc(O)cc(O)c12
REMARK SMILES IDX 5 1 3 2 2 3 1 4 22 5 20 6 19 7 17 8 16 9 15 10 14 11 6 12
REMARK SMILES IDX 8 13 7 14 9 15 11 16 12 17 10 18 13 20 4 22 21 24 18 26
REMARK H PARENT 10 19 13 21 4 23 21 25 18 27
REMARK Flexibility Score: inf
ROOT
ATOM      1  C   UNL     1      -1.982  -5.693  -2.697  1.00  0.00     0.184 A 
ATOM      2  C   UNL     1      -2.811  -6.825  -2.684  1.00  0.00     0.208 A 
ATOM      3  C   UNL     1      -2.645  -7.802  -3.678  1.00  0.00     0.238 A 
ATOM      4  O   UNL     1      -3.436  -8.781  -3.700  1.00  0.00    -0.285 OA
ATOM      5  C   UNL     1      -1.624  -7.653  -4.648  1.00  0.00     0.111 A 
ATOM      6  C   UNL     1      -1.336  -8.601  -5.676  1.00  0.00     0.134 A 
ATOM      7  C   UNL     1      -0.376  -8.295  -6.648  1.00  0.00     0.093 A 
ATOM      8  C   UNL     1       0.351  -7.107  -6.594  1.00  0.00     0.123 A 
ATOM      9  C   UNL     1       0.118  -6.197  -5.562  1.00  0.00     0.094 A 
ATOM     10  C   UNL     1      -0.860  -6.457  -4.598  1.00  0.00     0.146 A 
ATOM     11  O   UNL     1      -1.063  -5.556  -3.644  1.00  0.00    -0.451 OA
ENDROOT
BRANCH   1  12
ATOM     12  C   UNL     1      -2.119  -4.625  -1.683  1.00  0.00     0.063 A 
ATOM     13  C   UNL     1      -2.015  -3.938   0.649  1.00  0.00     0.047 A 
ATOM     14  C   UNL     1      -1.841  -4.913  -0.335  1.00  0.00     0.020 A 
ATOM     15  C   UNL     1      -2.476  -2.664   0.302  1.00  0.00     0.119 A 
ATOM     16  C   UNL     1      -2.757  -2.368  -1.034  1.00  0.00     0.093 A 
ATOM     17  C   UNL     1      -2.578  -3.333  -2.032  1.00  0.00     0.130 A 
BRANCH  15  18
ATOM     18  O   UNL     1      -2.658  -1.685   1.277  1.00  0.00    -0.508 OA
ATOM     19  H   UNL     1      -2.465  -1.868   2.254  1.00  0.00     0.293 HD
ENDBRANCH  15  18
BRANCH  17  20
ATOM     20  O   UNL     1      -2.843  -2.973  -3.355  1.00  0.00    -0.507 OA
ATOM     21  H   UNL     1      -2.117  -2.839  -4.047  1.00  0.00     0.293 HD
ENDBRANCH  17  20
ENDBRANCH   1  12
BRANCH   2  22
ATOM     22  O   UNL     1      -3.778  -6.971  -1.684  1.00  0.00    -0.502 OA
ATOM     23  H   UNL     1      -4.053  -7.877  -1.325  1.00  0.00     0.293 HD
ENDBRANCH   2  22
BRANCH   6  24
ATOM     24  O   UNL     1      -1.940  -9.858  -5.772  1.00  0.00    -0.507 OA
ATOM     25  H   UNL     1      -2.480 -10.179  -6.561  1.00  0.00     0.293 HD
ENDBRANCH   6  24
BRANCH   8  26
ATOM     26  O   UNL     1       1.311  -6.843  -7.569  1.00  0.00    -0.508 OA
ATOM     27  H   UNL     1       1.079  -6.842  -8.556  1.00  0.00     0.293 HD
ENDBRANCH   8  26
TORSDOF 6
ENDMDL
MODEL 5
REMARK VINA RESULT:    -3.626      8.179     10.342
REMARK INTER + INTRA:          -4.631
REMARK INTER:                  -4.336
REMARK INTRA:                  -0.295
REMARK UNBOUND:                -0.263
REMARK SMILES O=c1c(O)c(-c2ccc(O)cc2O)oc2cc(O)cc(O)c12
REMARK SMILES IDX 5 1 3 2 2 3 1 4 22 5 20 6 19 7 17 8 16 9 15 10 14 11 6 12
REMARK SMILES IDX 8 13 7 14 9 15 11 16 12 17 10 18 13 20 4 22 21 24 18 26
REMARK H PARENT 10 19 13 21 4 23 21 25 18 27
REMARK Flexibility Score: inf
ROOT
ATOM      1  C   UNL     1       4.995  -7.351   1.587  1.00  0.00     0.184 A 
ATOM      2  C   UNL     1       5.580  -6.261   2.250  1.00  0.00     0.208 A 
ATOM      3  C   UNL     1       5.457  -6.168   3.646  1.00  0.00     0.238 A 
ATOM      4  O   UNL     1       5.926  -5.155   4.227  1.00  0.00    -0.285 OA
ATOM      5  C   UNL     1       4.786  -7.188   4.363  1.00  0.00     0.111 A 
ATOM      6  C   UNL     1       4.640  -7.221   5.783  1.00  0.00     0.134 A 
ATOM      7  C   UNL     1       3.859  -8.221   6.374  1.00  0.00     0.093 A 
ATOM      8  C   UNL     1       3.273  -9.227   5.605  1.00  0.00     0.123 A 
ATOM      9  C   UNL     1       3.456  -9.237   4.223  1.00  0.00     0.094 A 
ATOM     10  C   UNL     1       4.199  -8.232   3.599  1.00  0.00     0.146 A 
ATOM     11  O   UNL     1       4.332  -8.269   2.279  1.00  0.00    -0.451 OA
ENDROOT
BRANCH   1  12
ATOM     12  C   UNL     1       5.080  -7.495   0.118  1.00  0.00     0.063 A 
ATOM     13  C   UNL     1       6.027  -8.631  -1.814  1.00  0.00     0.047 A 
ATOM     14  C   UNL     1       5.886  -8.508  -0.431  1.00  0.00     0.020 A 
ATOM     15  C   UNL     1       5.371  -7.740  -2.670  1.00  0.00     0.119 A 
ATOM     16  C   UNL     1       4.569  -6.729  -2.135  1.00  0.00     0.093 A 
ATOM     17  C   UNL     1       4.412  -6.599  -0.750  1.00  0.00     0.130 A 
BRANCH  15  18
ATOM     18  O   UNL     1       5.508  -7.851  -4.052  1.00  0.00    -0.508 OA
ATOM     19  H   UNL     1       6.375  -8.159  -4.475  1.00  0.00     0.293 HD
ENDBRANCH  15  18
BRANCH  17  20
ATOM     20  O   UNL     1       3.572  -5.591  -0.271  1.00  0.00    -0.507 OA
ATOM     21  H   UNL     1       2.943  -5.068  -0.865  1.00  0.00     0.293 HD
ENDBRANCH  17  20
ENDBRANCH   1  12
BRANCH   2  22
ATOM     22  O   UNL     1       6.280  -5.295   1.522  1.00  0.00    -0.502 OA
ATOM     23  H   UNL     1       7.015  -4.733   1.935  1.00  0.00     0.293 HD
ENDBRANCH   2  22
BRANCH   6  24
ATOM     24  O   UNL     1       5.255  -6.316   6.654  1.00  0.00    -0.507 OA
ATOM     25  H   UNL     1       5.379  -6.462   7.644  1.00  0.00     0.293 HD
ENDBRANCH   6  24
BRANCH   8  26
ATOM     26  O   UNL     1       2.517 -10.216   6.230  1.00  0.00    -0.508 OA
ATOM     27  H   UNL     1       2.254 -10.147   7.206  1.00  0.00     0.293 HD
ENDBRANCH   8  26
TORSDOF 6
ENDMDL
MODEL 6
REMARK VINA RESULT:    -3.621      1.186      2.888
REMARK INTER + INTRA:          -4.624
REMARK INTER:                  -4.306
REMARK INTRA:                  -0.318
REMARK UNBOUND:                -0.263
REMARK SMILES O=c1c(O)c(-c2ccc(O)cc2O)oc2cc(O)cc(O)c12
REMARK SMILES IDX 5 1 3 2 2 3 1 4 22 5 20 6 19 7 17 8 16 9 15 10 14 11 6 12
REMARK SMILES IDX 8 13 7 14 9 15 11 16 12 17 10 18 13 20 4 22 21 24 18 26
REMARK H PARENT 10 19 13 21 4 23 21 25 18 27
REMARK Flexibility Score: inf
ROOT
ATOM      1  C   UNL     1      -2.836  -5.215  -1.952  1.00  0.00     0.184 A 
ATOM      2  C   UNL     1      -3.720  -6.267  -1.669  1.00  0.00     0.208 A 
ATOM      3  C   UNL     1      -3.655  -7.438  -2.441  1.00  0.00     0.238 A 
ATOM      4  O   UNL     1      -4.495  -8.350  -2.225  1.00  0.00    -0.285 OA
ATOM      5  C   UNL     1      -2.679  -7.556  -3.459  1.00  0.00     0.111 A 
ATOM      6  C   UNL     1      -2.492  -8.714  -4.274  1.00  0.00     0.134 A 
ATOM      7  C   UNL     1      -1.568  -8.676  -5.326  1.00  0.00     0.093 A 
ATOM      8  C   UNL     1      -0.779  -7.548  -5.552  1.00  0.00     0.123 A 
ATOM      9  C   UNL     1      -0.913  -6.432  -4.727  1.00  0.00     0.094 A 
ATOM     10  C   UNL     1      -1.852  -6.425  -3.692  1.00  0.00     0.146 A 
ATOM     11  O   UNL     1      -1.960  -5.335  -2.943  1.00  0.00    -0.451 OA
ENDROOT
BRANCH   1  12
ATOM     12  C   UNL     1      -2.866  -3.953  -1.182  1.00  0.00     0.063 A 
ATOM     13  C   UNL     1      -3.227  -1.547  -1.134  1.00  0.00     0.047 A 
ATOM     14  C   UNL     1      -3.243  -2.761  -1.824  1.00  0.00     0.020 A 
ATOM     15  C   UNL     1      -2.828  -1.506   0.206  1.00  0.00     0.119 A 
ATOM     16  C   UNL     1      -2.450  -2.685   0.853  1.00  0.00     0.093 A 
ATOM     17  C   UNL     1      -2.469  -3.910   0.176  1.00  0.00     0.130 A 
BRANCH  15  18
ATOM     18  O   UNL     1      -2.804  -0.300   0.903  1.00  0.00    -0.508 OA
ATOM     19  H   UNL     1      -3.443  -0.117   1.668  1.00  0.00     0.293 HD
ENDBRANCH  15  18
BRANCH  17  20
ATOM     20  O   UNL     1      -2.113  -5.062   0.881  1.00  0.00    -0.507 OA
ATOM     21  H   UNL     1      -2.272  -5.996   0.529  1.00  0.00     0.293 HD
ENDBRANCH  17  20
ENDBRANCH   1  12
BRANCH   2  22
ATOM     22  O   UNL     1      -4.640  -6.142  -0.624  1.00  0.00    -0.502 OA
ATOM     23  H   UNL     1      -4.440  -6.463   0.316  1.00  0.00     0.293 HD
ENDBRANCH   2  22
BRANCH   6  24
ATOM     24  O   UNL     1      -3.164  -9.924  -4.080  1.00  0.00    -0.507 OA
ATOM     25  H   UNL     1      -2.994 -10.562  -3.318  1.00  0.00     0.293 HD
ENDBRANCH   6  24
BRANCH   8  26
ATOM     26  O   UNL     1       0.142  -7.553  -6.597  1.00  0.00    -0.508 OA
ATOM     27  H   UNL     1       1.135  -7.671  -6.429  1.00  0.00     0.293 HD
ENDBRANCH   8  26
TORSDOF 6
ENDMDL
MODEL 7
REMARK VINA RESULT:    -3.596      1.666      6.608
REMARK INTER + INTRA:          -4.595
REMARK INTER:                  -4.234
REMARK INTRA:                  -0.361
REMARK UNBOUND:                -0.263
REMARK SMILES O=c1c(O)c(-c2ccc(O)cc2O)oc2cc(O)cc(O)c12
REMARK SMILES IDX 5 1 3 2 2 3 1 4 22 5 20 6 19 7 17 8 16 9 15 10 14 11 6 12
REMARK SMILES IDX 8 13 7 14 9 15 11 16 12 17 10 18 13 20 4 22 21 24 18 26
REMARK H PARENT 10 19 13 21 4 23 21 25 18 27
REMARK Flexibility Score: inf
ROOT
ATOM      1  C   UNL     1      -2.545  -5.645  -3.118  1.00  0.00     0.184 A 
ATOM      2  C   UNL     1      -3.036  -4.531  -3.815  1.00  0.00     0.208 A 
ATOM      3  C   UNL     1      -3.210  -3.319  -3.127  1.00  0.00     0.238 A 
ATOM      4  O   UNL     1      -3.713  -2.343  -3.741  1.00  0.00    -0.285 OA
ATOM      5  C   UNL     1      -2.849  -3.228  -1.761  1.00  0.00     0.111 A 
ATOM      6  C   UNL     1      -2.940  -2.039  -0.975  1.00  0.00     0.134 A 
ATOM      7  C   UNL     1      -2.662  -2.095   0.397  1.00  0.00     0.093 A 
ATOM      8  C   UNL     1      -2.234  -3.278   0.997  1.00  0.00     0.123 A 
ATOM      9  C   UNL     1      -2.088  -4.433   0.229  1.00  0.00     0.094 A 
ATOM     10  C   UNL     1      -2.393  -4.418  -1.135  1.00  0.00     0.146 A 
ATOM     11  O   UNL     1      -2.258  -5.543  -1.826  1.00  0.00    -0.451 OA
ENDROOT
BRANCH   1  12
ATOM     12  C   UNL     1      -2.354  -6.950  -3.786  1.00  0.00     0.063 A 
ATOM     13  C   UNL     1      -1.211  -8.283  -5.471  1.00  0.00     0.047 A 
ATOM     14  C   UNL     1      -1.375  -7.077  -4.786  1.00  0.00     0.020 A 
ATOM     15  C   UNL     1      -2.029  -9.377  -5.171  1.00  0.00     0.119 A 
ATOM     16  C   UNL     1      -3.007  -9.261  -4.180  1.00  0.00     0.093 A 
ATOM     17  C   UNL     1      -3.176  -8.060  -3.480  1.00  0.00     0.130 A 
BRANCH  15  18
ATOM     18  O   UNL     1      -1.879 -10.584  -5.851  1.00  0.00    -0.508 OA
ATOM     19  H   UNL     1      -1.451 -10.625  -6.768  1.00  0.00     0.293 HD
ENDBRANCH  15  18
BRANCH  17  20
ATOM     20  O   UNL     1      -4.146  -8.011  -2.476  1.00  0.00    -0.507 OA
ATOM     21  H   UNL     1      -5.133  -7.898  -2.668  1.00  0.00     0.293 HD
ENDBRANCH  17  20
ENDBRANCH   1  12
BRANCH   2  22
ATOM     22  O   UNL     1      -3.336  -4.635  -5.176  1.00  0.00    -0.502 OA
ATOM     23  H   UNL     1      -4.241  -4.945  -5.510  1.00  0.00     0.293 HD
ENDBRANCH   2  22
BRANCH   6  24
ATOM     24  O   UNL     1      -3.272  -0.783  -1.491  1.00  0.00    -0.507 OA
ATOM     25  H   UNL     1      -2.663  -0.214  -2.059  1.00  0.00     0.293 HD
ENDBRANCH   6  24
BRANCH   8  26
ATOM     26  O   UNL     1      -1.950  -3.292   2.361  1.00  0.00    -0.508 OA
ATOM     27  H   UNL     1      -1.090  -2.900   2.728  1.00  0.00     0.293 HD
ENDBRANCH   8  26
TORSDOF 6
ENDMDL
MODEL 8
REMARK VINA RESULT:    -3.584      6.816     10.231
REMARK INTER + INTRA:          -4.580
REMARK INTER:                  -4.295
REMARK INTRA:                  -0.285
REMARK UNBOUND:                -0.263
REMARK SMILES O=c1c(O)c(-c2ccc(O)cc2O)oc2cc(O)cc(O)c12
REMARK SMILES IDX 5 1 3 2 2 3 1 4 22 5 20 6 19 7 17 8 16 9 15 10 14 11 6 12
REMARK SMILES IDX 8 13 7 14 9 15 11 16 12 17 10 18 13 20 4 22 21 24 18 26
REMARK H PARENT 10 19 13 21 4 23 21 25 18 27
REMARK Flexibility Score: inf
ROOT
ATOM      1  C   UNL     1      -2.281  -5.828   4.865  1.00  0.00     0.184 A 
ATOM      2  C   UNL     1      -2.391  -4.975   3.755  1.00  0.00     0.208 A 
ATOM      3  C   UNL     1      -2.446  -3.588   3.965  1.00  0.00     0.238 A 
ATOM      4  O   UNL     1      -2.612  -2.834   2.972  1.00  0.00    -0.285 OA
ATOM      5  C   UNL     1      -2.349  -3.071   5.280  1.00  0.00     0.111 A 
ATOM      6  C   UNL     1      -2.349  -1.681   5.608  1.00  0.00     0.134 A 
ATOM      7  C   UNL     1      -2.362  -1.289   6.952  1.00  0.00     0.093 A 
ATOM      8  C   UNL     1      -2.308  -2.231   7.978  1.00  0.00     0.123 A 
ATOM      9  C   UNL     1      -2.251  -3.590   7.670  1.00  0.00     0.094 A 
ATOM     10  C   UNL     1      -2.275  -4.014   6.339  1.00  0.00     0.146 A 
ATOM     11  O   UNL     1      -2.238  -5.318   6.089  1.00  0.00    -0.451 OA
ENDROOT
BRANCH   1  12
ATOM     12  C   UNL     1      -2.231  -7.297   4.706  1.00  0.00     0.063 A 
ATOM     13  C   UNL     1      -0.951  -9.364   4.811  1.00  0.00     0.047 A 
ATOM     14  C   UNL     1      -1.041  -7.984   5.004  1.00  0.00     0.020 A 
ATOM     15  C   UNL     1      -2.046 -10.076   4.311  1.00  0.00     0.119 A 
ATOM     16  C   UNL     1      -3.232  -9.403   4.009  1.00  0.00     0.093 A 
ATOM     17  C   UNL     1      -3.339  -8.021   4.207  1.00  0.00     0.130 A 
BRANCH  15  18
ATOM     18  O   UNL     1      -1.966 -11.453   4.109  1.00  0.00    -0.508 OA
ATOM     19  H   UNL     1      -1.501 -11.843   3.298  1.00  0.00     0.293 HD
ENDBRANCH  15  18
BRANCH  17  20
ATOM     20  O   UNL     1      -4.560  -7.405   3.920  1.00  0.00    -0.507 OA
ATOM     21  H   UNL     1      -5.259  -7.818   3.317  1.00  0.00     0.293 HD
ENDBRANCH  17  20
ENDBRANCH   1  12
BRANCH   2  22
ATOM     22  O   UNL     1      -2.433  -5.511   2.465  1.00  0.00    -0.502 OA
ATOM     23  H   UNL     1      -3.181  -5.301   1.815  1.00  0.00     0.293 HD
ENDBRANCH   2  22
BRANCH   6  24
ATOM     24  O   UNL     1      -2.312  -0.654   4.660  1.00  0.00    -0.507 OA
ATOM     25  H   UNL     1      -2.631   0.289   4.819  1.00  0.00     0.293 HD
ENDBRANCH   6  24
BRANCH   8  26
ATOM     26  O   UNL     1      -2.304  -1.803   9.304  1.00  0.00    -0.508 OA
ATOM     27  H   UNL     1      -2.111  -0.839   9.550  1.00  0.00     0.293 HD
ENDBRANCH   8  26
TORSDOF 6
ENDMDL
MODEL 9
REMARK VINA RESULT:    -3.582      2.662      3.497
REMARK INTER + INTRA:          -4.577
REMARK INTER:                  -4.192
REMARK INTRA:                  -0.385
REMARK UNBOUND:                -0.263
REMARK SMILES O=c1c(O)c(-c2ccc(O)cc2O)oc2cc(O)cc(O)c12
REMARK SMILES IDX 5 1 3 2 2 3 1 4 22 5 20 6 19 7 17 8 16 9 15 10 14 11 6 12
REMARK SMILES IDX 8 13 7 14 9 15 11 16 12 17 10 18 13 20 4 22 21 24 18 26
REMARK H PARENT 10 19 13 21 4 23 21 25 18 27
REMARK Flexibility Score: inf
ROOT
ATOM      1  C   UNL     1      -3.540  -6.357  -0.582  1.00  0.00     0.184 A 
ATOM      2  C   UNL     1      -3.823  -6.512  -1.948  1.00  0.00     0.208 A 
ATOM      3  C   UNL     1      -3.773  -7.798  -2.512  1.00  0.00     0.238 A 
ATOM      4  O   UNL     1      -3.961  -7.921  -3.750  1.00  0.00    -0.285 OA
ATOM      5  C   UNL     1      -3.482  -8.915  -1.692  1.00  0.00     0.111 A 
ATOM      6  C   UNL     1      -3.448 -10.268  -2.147  1.00  0.00     0.134 A 
ATOM      7  C   UNL     1      -3.038 -11.281  -1.271  1.00  0.00     0.093 A 
ATOM      8  C   UNL     1      -2.724 -11.000   0.058  1.00  0.00     0.123 A 
ATOM      9  C   UNL     1      -2.807  -9.690   0.529  1.00  0.00     0.094 A 
ATOM     10  C   UNL     1      -3.177  -8.652  -0.331  1.00  0.00     0.146 A 
ATOM     11  O   UNL     1      -3.226  -7.416   0.153  1.00  0.00    -0.451 OA
ENDROOT
BRANCH   1  12
ATOM     12  C   UNL     1      -3.565  -5.027   0.064  1.00  0.00     0.063 A 
ATOM     13  C   UNL     1      -4.853  -3.179   0.984  1.00  0.00     0.047 A 
ATOM     14  C   UNL     1      -4.798  -4.457   0.422  1.00  0.00     0.020 A 
ATOM     15  C   UNL     1      -3.676  -2.451   1.188  1.00  0.00     0.119 A 
ATOM     16  C   UNL     1      -2.445  -3.008   0.832  1.00  0.00     0.093 A 
ATOM     17  C   UNL     1      -2.375  -4.291   0.277  1.00  0.00     0.130 A 
BRANCH  15  18
ATOM     18  O   UNL     1      -3.719  -1.173   1.742  1.00  0.00    -0.508 OA
ATOM     19  H   UNL     1      -3.171  -0.411   1.361  1.00  0.00     0.293 HD
ENDBRANCH  15  18
BRANCH  17  20
ATOM     20  O   UNL     1      -1.116  -4.812  -0.028  1.00  0.00    -0.507 OA
ATOM     21  H   UNL     1      -0.495  -5.201   0.669  1.00  0.00     0.293 HD
ENDBRANCH  17  20
ENDBRANCH   1  12
BRANCH   2  22
ATOM     22  O   UNL     1      -4.157  -5.398  -2.723  1.00  0.00    -0.502 OA
ATOM     23  H   UNL     1      -5.021  -5.342  -3.248  1.00  0.00     0.293 HD
ENDBRANCH   2  22
BRANCH   6  24
ATOM     24  O   UNL     1      -3.828 -10.672  -3.430  1.00  0.00    -0.507 OA
ATOM     25  H   UNL     1      -4.121 -11.604  -3.678  1.00  0.00     0.293 HD
ENDBRANCH   6  24
BRANCH   8  26
ATOM     26  O   UNL     1      -2.336 -12.035   0.906  1.00  0.00    -0.508 OA
ATOM     27  H   UNL     1      -1.377 -12.134   1.220  1.00  0.00     0.293 HD
ENDBRANCH   8  26
TORSDOF 6
ENDMDL
