MODEL 1
REMARK VINA RESULT:    -3.360      0.000      0.000
REMARK INTER + INTRA:          -7.366
REMARK INTER:                  -5.717
REMARK INTRA:                  -1.649
REMARK UNBOUND:                -1.649
REMARK SMILES CCCCCCCCCCCCCC(=O)[O-]
REMARK SMILES IDX 8 1 9 2 10 3 11 4 12 5 13 6 14 7 15 8 16 9 7 10 6 11 5 12
REMARK SMILES IDX 4 13 3 14 2 15 1 16
REMARK H PARENT
REMARK Flexibility Score: inf
ROOT
ATOM      1  C   UNL     1      30.019  46.670   8.512  1.00  0.00     0.000 C 
ENDROOT
BRANCH   1   2
ATOM      2  C   UNL     1      31.553  46.767   8.438  1.00  0.00     0.000 C 
BRANCH   2   3
ATOM      3  C   UNL     1      32.030  48.124   7.892  1.00  0.00     0.000 C 
BRANCH   3   4
ATOM      4  C   UNL     1      31.585  48.363   6.439  1.00  0.00     0.000 C 
BRANCH   4   5
ATOM      5  C   UNL     1      31.044  49.784   6.201  1.00  0.00     0.006 C 
BRANCH   5   6
ATOM      6  C   UNL     1      31.301  50.755   7.368  1.00  0.00     0.053 C 
BRANCH   6   7
ATOM      7  C   UNL     1      31.737  52.113   6.907  1.00  0.00     0.041 C 
ATOM      8  O   UNL     1      30.885  52.958   6.522  1.00  0.00    -0.550 OA
ATOM      9  O   UNL     1      33.081  52.459   6.935  1.00  0.00    -0.550 OA
ENDBRANCH   6   7
ENDBRANCH   5   6
ENDBRANCH   4   5
ENDBRANCH   3   4
ENDBRANCH   2   3
ENDBRANCH   1   2
BRANCH   1  10
ATOM     10  C   UNL     1      29.417  47.604   9.575  1.00  0.00     0.000 C 
BRANCH  10  11
ATOM     11  C   UNL     1      28.443  48.635   8.978  1.00  0.00    -0.000 C 
BRANCH  11  12
ATOM     12  C   UNL     1      27.717  48.107   7.729  1.00  0.00    -0.000 C 
BRANCH  12  13
ATOM     13  C   UNL     1      26.386  47.414   8.069  1.00  0.00    -0.000 C 
BRANCH  13  14
ATOM     14  C   UNL     1      26.465  45.884   7.931  1.00  0.00    -0.000 C 
BRANCH  14  15
ATOM     15  C   UNL     1      26.131  45.152   9.239  1.00  0.00    -0.003 C 
ATOM     16  C   UNL     1      25.570  46.117  10.280  1.00  0.00     0.004 C 
ENDBRANCH  14  15
ENDBRANCH  13  14
ENDBRANCH  12  13
ENDBRANCH  11  12
ENDBRANCH  10  11
ENDBRANCH   1  10
TORSDOF 12
ENDMDL
MODEL 2
REMARK VINA RESULT:    -3.343     17.280     18.774
REMARK INTER + INTRA:          -7.338
REMARK INTER:                  -6.536
REMARK INTRA:                  -0.802
REMARK UNBOUND:                -1.649
REMARK SMILES CCCCCCCCCCCCCC(=O)[O-]
REMARK SMILES IDX 8 1 9 2 10 3 11 4 12 5 13 6 14 7 15 8 16 9 7 10 6 11 5 12
REMARK SMILES IDX 4 13 3 14 2 15 1 16
REMARK H PARENT
REMARK Flexibility Score: inf
ROOT
ATOM      1  C   UNL     1      34.368  49.840  24.817  1.00  0.00     0.000 C 
ENDROOT
BRANCH   1   2
ATOM      2  C   UNL     1      33.344  48.768  25.231  1.00  0.00     0.000 C 
BRANCH   2   3
ATOM      3  C   UNL     1      34.004  47.412  25.534  1.00  0.00     0.000 C 
BRANCH   3   4
ATOM      4  C   UNL     1      35.540  47.496  25.550  1.00  0.00     0.000 C 
BRANCH   4   5
ATOM      5  C   UNL     1      36.207  46.225  26.105  1.00  0.00     0.006 C 
BRANCH   5   6
ATOM      6  C   UNL     1      35.609  44.915  25.559  1.00  0.00     0.053 C 
BRANCH   6   7
ATOM      7  C   UNL     1      36.658  43.904  25.203  1.00  0.00     0.041 C 
ATOM      8  O   UNL     1      36.327  42.783  24.733  1.00  0.00    -0.550 OA
ATOM      9  O   UNL     1      38.003  44.215  25.356  1.00  0.00    -0.550 OA
ENDBRANCH   6   7
ENDBRANCH   5   6
ENDBRANCH   4   5
ENDBRANCH   3   4
ENDBRANCH   2   3
ENDBRANCH   1   2
BRANCH   1  10
ATOM     10  C   UNL     1      34.373  51.050  25.766  1.00  0.00     0.000 C 
BRANCH  10  11
ATOM     11  C   UNL     1      32.964  51.621  26.008  1.00  0.00    -0.000 C 
BRANCH  11  12
ATOM     12  C   UNL     1      32.787  53.028  25.414  1.00  0.00    -0.000 C 
BRANCH  12  13
ATOM     13  C   UNL     1      31.331  53.319  25.010  1.00  0.00    -0.000 C 
BRANCH  13  14
ATOM     14  C   UNL     1      30.325  52.401  25.723  1.00  0.00    -0.000 C 
BRANCH  14  15
ATOM     15  C   UNL     1      29.629  51.425  24.763  1.00  0.00    -0.003 C 
ATOM     16  C   UNL     1      30.347  51.372  23.418  1.00  0.00     0.004 C 
ENDBRANCH  14  15
ENDBRANCH  13  14
ENDBRANCH  12  13
ENDBRANCH  11  12
ENDBRANCH  10  11
ENDBRANCH   1  10
TORSDOF 12
ENDMDL
MODEL 3
REMARK VINA RESULT:    -3.324      1.449      2.594
REMARK INTER + INTRA:          -7.306
REMARK INTER:                  -5.593
REMARK INTRA:                  -1.713
REMARK UNBOUND:                -1.649
REMARK SMILES CCCCCCCCCCCCCC(=O)[O-]
REMARK SMILES IDX 8 1 9 2 10 3 11 4 12 5 13 6 14 7 15 8 16 9 7 10 6 11 5 12
REMARK SMILES IDX 4 13 3 14 2 15 1 16
REMARK H PARENT
REMARK Flexibility Score: inf
ROOT
ATOM      1  C   UNL     1      28.005  47.885   7.429  1.00  0.00     0.000 C 
ENDROOT
BRANCH   1   2
ATOM      2  C   UNL     1      29.328  47.141   7.169  1.00  0.00     0.000 C 
BRANCH   2   3
ATOM      3  C   UNL     1      30.090  46.828   8.468  1.00  0.00     0.000 C 
BRANCH   3   4
ATOM      4  C   UNL     1      31.553  47.301   8.422  1.00  0.00     0.000 C 
BRANCH   4   5
ATOM      5  C   UNL     1      31.816  48.334   7.311  1.00  0.00     0.006 C 
BRANCH   5   6
ATOM      6  C   UNL     1      32.317  49.695   7.829  1.00  0.00     0.053 C 
BRANCH   6   7
ATOM      7  C   UNL     1      31.255  50.752   7.801  1.00  0.00     0.041 C 
ATOM      8  O   UNL     1      31.394  51.776   7.080  1.00  0.00    -0.550 OA
ATOM      9  O   UNL     1      30.093  50.590   8.545  1.00  0.00    -0.550 OA
ENDBRANCH   6   7
ENDBRANCH   5   6
ENDBRANCH   4   5
ENDBRANCH   3   4
ENDBRANCH   2   3
ENDBRANCH   1   2
BRANCH   1  10
ATOM     10  C   UNL     1      27.696  48.036   8.927  1.00  0.00     0.000 C 
BRANCH  10  11
ATOM     11  C   UNL     1      26.263  47.601   9.284  1.00  0.00    -0.000 C 
BRANCH  11  12
ATOM     12  C   UNL     1      26.202  46.165   9.833  1.00  0.00    -0.000 C 
BRANCH  12  13
ATOM     13  C   UNL     1      25.683  45.157   8.793  1.00  0.00    -0.000 C 
BRANCH  13  14
ATOM     14  C   UNL     1      26.574  43.909   8.684  1.00  0.00    -0.000 C 
BRANCH  14  15
ATOM     15  C   UNL     1      27.510  43.953   7.467  1.00  0.00    -0.003 C 
ATOM     16  C   UNL     1      26.803  44.548   6.252  1.00  0.00     0.004 C 
ENDBRANCH  14  15
ENDBRANCH  13  14
ENDBRANCH  12  13
ENDBRANCH  11  12
ENDBRANCH  10  11
ENDBRANCH   1  10
TORSDOF 12
ENDMDL
MODEL 4
REMARK VINA RESULT:    -3.289      3.417      5.504
REMARK INTER + INTRA:          -7.246
REMARK INTER:                  -5.353
REMARK INTRA:                  -1.893
REMARK UNBOUND:                -1.649
REMARK SMILES CCCCCCCCCCCCCC(=O)[O-]
REMARK SMILES IDX 8 1 9 2 10 3 11 4 12 5 13 6 14 7 15 8 16 9 7 10 6 11 5 12
REMARK SMILES IDX 4 13 3 14 2 15 1 16
REMARK H PARENT
REMARK Flexibility Score: inf
ROOT
ATOM      1  C   UNL     1      31.814  48.338   7.247  1.00  0.00     0.000 C 
ENDROOT
BRANCH   1   2
ATOM      2  C   UNL     1      31.654  47.229   8.303  1.00  0.00     0.000 C 
BRANCH   2   3
ATOM      3  C   UNL     1      30.716  46.103   7.834  1.00  0.00     0.000 C 
BRANCH   3   4
ATOM      4  C   UNL     1      29.881  46.506   6.607  1.00  0.00     0.000 C 
BRANCH   4   5
ATOM      5  C   UNL     1      28.374  46.259   6.797  1.00  0.00     0.006 C 
BRANCH   5   6
ATOM      6  C   UNL     1      28.018  45.545   8.115  1.00  0.00     0.053 C 
BRANCH   6   7
ATOM      7  C   UNL     1      26.683  45.961   8.657  1.00  0.00     0.041 C 
ATOM      8  O   UNL     1      26.102  46.981   8.201  1.00  0.00    -0.550 OA
ATOM      9  O   UNL     1      26.066  45.201   9.641  1.00  0.00    -0.550 OA
ENDBRANCH   6   7
ENDBRANCH   5   6
ENDBRANCH   4   5
ENDBRANCH   3   4
ENDBRANCH   2   3
ENDBRANCH   1   2
BRANCH   1  10
ATOM     10  C   UNL     1      32.410  49.629   7.831  1.00  0.00     0.000 C 
BRANCH  10  11
ATOM     11  C   UNL     1      32.011  50.882   7.029  1.00  0.00    -0.000 C 
BRANCH  11  12
ATOM     12  C   UNL     1      30.559  50.824   6.526  1.00  0.00    -0.000 C 
BRANCH  12  13
ATOM     13  C   UNL     1      29.668  51.899   7.171  1.00  0.00    -0.000 C 
BRANCH  13  14
ATOM     14  C   UNL     1      28.707  51.318   8.221  1.00  0.00    -0.000 C 
BRANCH  14  15
ATOM     15  C   UNL     1      28.452  49.816   8.025  1.00  0.00    -0.003 C 
ATOM     16  C   UNL     1      28.759  49.036   9.300  1.00  0.00     0.004 C 
ENDBRANCH  14  15
ENDBRANCH  13  14
ENDBRANCH  12  13
ENDBRANCH  11  12
ENDBRANCH  10  11
ENDBRANCH   1  10
TORSDOF 12
ENDMDL
MODEL 5
REMARK VINA RESULT:    -3.277     17.059     18.508
REMARK INTER + INTRA:          -7.225
REMARK INTER:                  -6.655
REMARK INTRA:                  -0.570
REMARK UNBOUND:                -1.649
REMARK SMILES CCCCCCCCCCCCCC(=O)[O-]
REMARK SMILES IDX 8 1 9 2 10 3 11 4 12 5 13 6 14 7 15 8 16 9 7 10 6 11 5 12
REMARK SMILES IDX 4 13 3 14 2 15 1 16
REMARK H PARENT
REMARK Flexibility Score: inf
ROOT
ATOM      1  C   UNL     1      34.098  48.266  25.956  1.00  0.00     0.000 C 
ENDROOT
BRANCH   1   2
ATOM      2  C   UNL     1      34.876  49.593  25.892  1.00  0.00     0.000 C 
BRANCH   2   3
ATOM      3  C   UNL     1      33.950  50.807  25.706  1.00  0.00     0.000 C 
BRANCH   3   4
ATOM      4  C   UNL     1      32.863  50.561  24.646  1.00  0.00     0.000 C 
BRANCH   4   5
ATOM      5  C   UNL     1      31.510  51.197  25.014  1.00  0.00     0.006 C 
BRANCH   5   6
ATOM      6  C   UNL     1      31.051  52.299  24.040  1.00  0.00     0.053 C 
BRANCH   6   7
ATOM      7  C   UNL     1      31.441  53.673  24.496  1.00  0.00     0.041 C 
ATOM      8  O   UNL     1      32.139  53.825  25.533  1.00  0.00    -0.550 OA
ATOM      9  O   UNL     1      31.062  54.784  23.754  1.00  0.00    -0.550 OA
ENDBRANCH   6   7
ENDBRANCH   5   6
ENDBRANCH   4   5
ENDBRANCH   3   4
ENDBRANCH   2   3
ENDBRANCH   1   2
BRANCH   1  10
ATOM     10  C   UNL     1      35.018  47.036  25.869  1.00  0.00     0.000 C 
BRANCH  10  11
ATOM     11  C   UNL     1      34.242  45.709  25.940  1.00  0.00    -0.000 C 
BRANCH  11  12
ATOM     12  C   UNL     1      35.098  44.502  25.519  1.00  0.00    -0.000 C 
BRANCH  12  13
ATOM     13  C   UNL     1      36.551  44.607  26.014  1.00  0.00    -0.000 C 
BRANCH  13  14
ATOM     14  C   UNL     1      37.538  43.850  25.111  1.00  0.00    -0.000 C 
BRANCH  14  15
ATOM     15  C   UNL     1      36.848  42.799  24.228  1.00  0.00    -0.003 C 
ATOM     16  C   UNL     1      37.839  41.733  23.769  1.00  0.00     0.004 C 
ENDBRANCH  14  15
ENDBRANCH  13  14
ENDBRANCH  12  13
ENDBRANCH  11  12
ENDBRANCH  10  11
ENDBRANCH   1  10
TORSDOF 12
ENDMDL
MODEL 6
REMARK VINA RESULT:    -3.270      3.822      6.304
REMARK INTER + INTRA:          -7.213
REMARK INTER:                  -5.473
REMARK INTRA:                  -1.740
REMARK UNBOUND:                -1.649
REMARK SMILES CCCCCCCCCCCCCC(=O)[O-]
REMARK SMILES IDX 8 1 9 2 10 3 11 4 12 5 13 6 14 7 15 8 16 9 7 10 6 11 5 12
REMARK SMILES IDX 4 13 3 14 2 15 1 16
REMARK H PARENT
REMARK Flexibility Score: inf
ROOT
ATOM      1  C   UNL     1      30.590  47.320   7.035  1.00  0.00     0.000 C 
ENDROOT
BRANCH   1   2
ATOM      2  C   UNL     1      30.647  46.984   8.536  1.00  0.00     0.000 C 
BRANCH   2   3
ATOM      3  C   UNL     1      29.407  47.485   9.297  1.00  0.00     0.000 C 
BRANCH   3   4
ATOM      4  C   UNL     1      28.096  47.171   8.556  1.00  0.00     0.000 C 
BRANCH   4   5
ATOM      5  C   UNL     1      26.876  47.889   9.161  1.00  0.00     0.006 C 
BRANCH   5   6
ATOM      6  C   UNL     1      25.556  47.109   9.020  1.00  0.00     0.053 C 
BRANCH   6   7
ATOM      7  C   UNL     1      25.561  45.820   9.786  1.00  0.00     0.041 C 
ATOM      8  O   UNL     1      25.130  45.783  10.969  1.00  0.00    -0.550 OA
ATOM      9  O   UNL     1      26.008  44.653   9.181  1.00  0.00    -0.550 OA
ENDBRANCH   6   7
ENDBRANCH   5   6
ENDBRANCH   4   5
ENDBRANCH   3   4
ENDBRANCH   2   3
ENDBRANCH   1   2
BRANCH   1  10
ATOM     10  C   UNL     1      31.719  48.267   6.597  1.00  0.00     0.000 C 
BRANCH  10  11
ATOM     11  C   UNL     1      32.202  49.182   7.737  1.00  0.00    -0.000 C 
BRANCH  11  12
ATOM     12  C   UNL     1      32.367  50.644   7.291  1.00  0.00    -0.000 C 
BRANCH  12  13
ATOM     13  C   UNL     1      31.021  51.377   7.159  1.00  0.00    -0.000 C 
BRANCH  13  14
ATOM     14  C   UNL     1      30.037  51.010   8.283  1.00  0.00    -0.000 C 
BRANCH  14  15
ATOM     15  C   UNL     1      28.596  50.848   7.779  1.00  0.00    -0.003 C 
ATOM     16  C   UNL     1      28.571  50.393   6.322  1.00  0.00     0.004 C 
ENDBRANCH  14  15
ENDBRANCH  13  14
ENDBRANCH  12  13
ENDBRANCH  11  12
ENDBRANCH  10  11
ENDBRANCH   1  10
TORSDOF 12
ENDMDL
MODEL 7
REMARK VINA RESULT:    -3.266      1.419      2.818
REMARK INTER + INTRA:          -7.207
REMARK INTER:                  -6.009
REMARK INTRA:                  -1.198
REMARK UNBOUND:                -1.649
REMARK SMILES CCCCCCCCCCCCCC(=O)[O-]
REMARK SMILES IDX 8 1 9 2 10 3 11 4 12 5 13 6 14 7 15 8 16 9 7 10 6 11 5 12
REMARK SMILES IDX 4 13 3 14 2 15 1 16
REMARK H PARENT
REMARK Flexibility Score: inf
ROOT
ATOM      1  C   UNL     1      32.015  48.403   7.844  1.00  0.00     0.000 C 
ENDROOT
BRANCH   1   2
ATOM      2  C   UNL     1      31.543  48.594   6.391  1.00  0.00     0.000 C 
BRANCH   2   3
ATOM      3  C   UNL     1      30.503  49.720   6.256  1.00  0.00     0.000 C 
BRANCH   3   4
ATOM      4  C   UNL     1      30.863  50.957   7.096  1.00  0.00     0.000 C 
BRANCH   4   5
ATOM      5  C   UNL     1      31.630  52.026   6.296  1.00  0.00     0.006 C 
BRANCH   5   6
ATOM      6  C   UNL     1      32.985  52.418   6.914  1.00  0.00     0.053 C 
BRANCH   6   7
ATOM      7  C   UNL     1      33.387  53.824   6.583  1.00  0.00     0.041 C 
ATOM      8  O   UNL     1      34.553  54.072   6.176  1.00  0.00    -0.550 OA
ATOM      9  O   UNL     1      32.463  54.855   6.690  1.00  0.00    -0.550 OA
ENDBRANCH   6   7
ENDBRANCH   5   6
ENDBRANCH   4   5
ENDBRANCH   3   4
ENDBRANCH   2   3
ENDBRANCH   1   2
BRANCH   1  10
ATOM     10  C   UNL     1      31.563  47.060   8.441  1.00  0.00     0.000 C 
BRANCH  10  11
ATOM     11  C   UNL     1      30.524  46.340   7.563  1.00  0.00    -0.000 C 
BRANCH  11  12
ATOM     12  C   UNL     1      29.110  46.384   8.164  1.00  0.00    -0.000 C 
BRANCH  12  13
ATOM     13  C   UNL     1      28.998  47.375   9.336  1.00  0.00    -0.000 C 
BRANCH  13  14
ATOM     14  C   UNL     1      28.295  48.683   8.938  1.00  0.00    -0.000 C 
BRANCH  14  15
ATOM     15  C   UNL     1      26.863  48.456   8.430  1.00  0.00    -0.003 C 
ATOM     16  C   UNL     1      26.039  47.671   9.446  1.00  0.00     0.004 C 
ENDBRANCH  14  15
ENDBRANCH  13  14
ENDBRANCH  12  13
ENDBRANCH  11  12
ENDBRANCH  10  11
ENDBRANCH   1  10
TORSDOF 12
ENDMDL
MODEL 8
REMARK VINA RESULT:    -3.231      2.400      6.153
REMARK INTER + INTRA:          -7.146
REMARK INTER:                  -6.054
REMARK INTRA:                  -1.092
REMARK UNBOUND:                -1.649
REMARK SMILES CCCCCCCCCCCCCC(=O)[O-]
REMARK SMILES IDX 8 1 9 2 10 3 11 4 12 5 13 6 14 7 15 8 16 9 7 10 6 11 5 12
REMARK SMILES IDX 4 13 3 14 2 15 1 16
REMARK H PARENT
REMARK Flexibility Score: inf
ROOT
ATOM      1  C   UNL     1      31.656  47.196   8.439  1.00  0.00     0.000 C 
ENDROOT
BRANCH   1   2
ATOM      2  C   UNL     1      30.690  46.092   7.970  1.00  0.00     0.000 C 
BRANCH   2   3
ATOM      3  C   UNL     1      29.214  46.492   8.142  1.00  0.00     0.000 C 
BRANCH   3   4
ATOM      4  C   UNL     1      29.012  47.530   9.260  1.00  0.00     0.000 C 
BRANCH   4   5
ATOM      5  C   UNL     1      27.655  48.251   9.172  1.00  0.00     0.006 C 
BRANCH   5   6
ATOM      6  C   UNL     1      27.444  49.031   7.861  1.00  0.00     0.053 C 
BRANCH   6   7
ATOM      7  C   UNL     1      26.760  50.348   8.074  1.00  0.00     0.041 C 
ATOM      8  O   UNL     1      25.503  50.414   8.103  1.00  0.00    -0.550 OA
ATOM      9  O   UNL     1      27.514  51.497   8.276  1.00  0.00    -0.550 OA
ENDBRANCH   6   7
ENDBRANCH   5   6
ENDBRANCH   4   5
ENDBRANCH   3   4
ENDBRANCH   2   3
ENDBRANCH   1   2
BRANCH   1  10
ATOM     10  C   UNL     1      31.973  48.214   7.331  1.00  0.00     0.000 C 
BRANCH  10  11
ATOM     11  C   UNL     1      32.197  49.635   7.877  1.00  0.00    -0.000 C 
BRANCH  11  12
ATOM     12  C   UNL     1      30.928  50.502   7.804  1.00  0.00    -0.000 C 
BRANCH  12  13
ATOM     13  C   UNL     1      31.122  51.760   6.941  1.00  0.00    -0.000 C 
BRANCH  13  14
ATOM     14  C   UNL     1      32.595  52.187   6.841  1.00  0.00    -0.000 C 
BRANCH  14  15
ATOM     15  C   UNL     1      32.760  53.654   6.416  1.00  0.00    -0.003 C 
ATOM     16  C   UNL     1      33.775  54.371   7.302  1.00  0.00     0.004 C 
ENDBRANCH  14  15
ENDBRANCH  13  14
ENDBRANCH  12  13
ENDBRANCH  11  12
ENDBRANCH  10  11
ENDBRANCH   1  10
TORSDOF 12
ENDMDL
MODEL 9
REMARK VINA RESULT:    -3.211      1.672      2.992
REMARK INTER + INTRA:          -7.113
REMARK INTER:                  -5.419
REMARK INTRA:                  -1.694
REMARK UNBOUND:                -1.649
REMARK SMILES CCCCCCCCCCCCCC(=O)[O-]
REMARK SMILES IDX 8 1 9 2 10 3 11 4 12 5 13 6 14 7 15 8 16 9 7 10 6 11 5 12
REMARK SMILES IDX 4 13 3 14 2 15 1 16
REMARK H PARENT
REMARK Flexibility Score: inf
ROOT
ATOM      1  C   UNL     1      28.507  45.991   6.500  1.00  0.00     0.000 C 
ENDROOT
BRANCH   1   2
ATOM      2  C   UNL     1      30.007  46.325   6.591  1.00  0.00     0.000 C 
BRANCH   2   3
ATOM      3  C   UNL     1      30.586  46.049   7.990  1.00  0.00     0.000 C 
BRANCH   3   4
ATOM      4  C   UNL     1      31.602  47.118   8.428  1.00  0.00     0.000 C 
BRANCH   4   5
ATOM      5  C   UNL     1      31.933  48.126   7.312  1.00  0.00     0.006 C 
BRANCH   5   6
ATOM      6  C   UNL     1      31.898  49.597   7.768  1.00  0.00     0.053 C 
BRANCH   6   7
ATOM      7  C   UNL     1      30.519  50.183   7.731  1.00  0.00     0.041 C 
ATOM      8  O   UNL     1      30.112  50.913   8.673  1.00  0.00    -0.550 OA
ATOM      9  O   UNL     1      29.695  49.952   6.637  1.00  0.00    -0.550 OA
ENDBRANCH   6   7
ENDBRANCH   5   6
ENDBRANCH   4   5
ENDBRANCH   3   4
ENDBRANCH   2   3
ENDBRANCH   1   2
BRANCH   1  10
ATOM     10  C   UNL     1      28.088  44.882   7.479  1.00  0.00     0.000 C 
BRANCH  10  11
ATOM     11  C   UNL     1      26.563  44.810   7.676  1.00  0.00    -0.000 C 
BRANCH  11  12
ATOM     12  C   UNL     1      26.159  44.794   9.160  1.00  0.00    -0.000 C 
BRANCH  12  13
ATOM     13  C   UNL     1      26.150  46.200   9.785  1.00  0.00    -0.000 C 
BRANCH  13  14
ATOM     14  C   UNL     1      25.525  47.254   8.857  1.00  0.00    -0.000 C 
BRANCH  14  15
ATOM     15  C   UNL     1      26.486  48.410   8.542  1.00  0.00    -0.003 C 
ATOM     16  C   UNL     1      27.840  48.198   9.213  1.00  0.00     0.004 C 
ENDBRANCH  14  15
ENDBRANCH  13  14
ENDBRANCH  12  13
ENDBRANCH  11  12
ENDBRANCH  10  11
ENDBRANCH   1  10
TORSDOF 12
ENDMDL
