MODEL 1
REMARK VINA RESULT:    -3.947      0.000      0.000
REMARK INTER + INTRA:          -4.063
REMARK INTER:                  -4.063
REMARK INTRA:                   0.000
REMARK UNBOUND:                 0.000
REMARK SMILES CC1(C)[C@H]2CC[C@](C)(C2)[C@@H]1O
REMARK SMILES IDX 1 1 2 2 4 3 5 4 6 5 7 6 9 7 10 8 8 9 3 10 11 11
REMARK H PARENT 11 12
REMARK Flexibility Score: inf
ROOT
ATOM      1  C   UNL     1     116.614 119.116 112.138  1.00  0.00     0.014 C 
ATOM      2  C   UNL     1     117.067 117.963 113.067  1.00  0.00    -0.006 C 
ATOM      3  C   UNL     1     118.231 117.100 112.466  1.00  0.00    -0.002 C 
ATOM      4  C   UNL     1     119.379 117.989 111.941  1.00  0.00     0.005 C 
ATOM      5  C   UNL     1     119.974 118.580 113.230  1.00  0.00     0.010 C 
ATOM      6  C   UNL     1     119.152 117.881 114.338  1.00  0.00    -0.006 C 
ATOM      7  C   UNL     1     118.895 116.527 113.708  1.00  0.00     0.013 C 
ATOM      8  C   UNL     1     117.729 118.519 114.375  1.00  0.00     0.126 C 
ATOM      9  C   UNL     1     119.883 117.829 115.686  1.00  0.00     0.014 C 
ATOM     10  C   UNL     1     115.826 117.068 113.321  1.00  0.00     0.014 C 
ENDROOT
BRANCH   8  11
ATOM     11  O   UNL     1     117.005 118.208 115.546  1.00  0.00    -0.392 OA
ATOM     12  H   UNL     1     116.328 117.516 115.333  1.00  0.00     0.211 HD
ENDBRANCH   8  11
TORSDOF 1
ENDMDL
MODEL 2
REMARK VINA RESULT:    -3.936      2.207      3.529
REMARK INTER + INTRA:          -4.052
REMARK INTER:                  -4.052
REMARK INTRA:                   0.000
REMARK UNBOUND:                 0.000
REMARK SMILES CC1(C)[C@H]2CC[C@](C)(C2)[C@@H]1O
REMARK SMILES IDX 1 1 2 2 4 3 5 4 6 5 7 6 9 7 10 8 8 9 3 10 11 11
REMARK H PARENT 11 12
REMARK Flexibility Score: inf
ROOT
ATOM      1  C   UNL     1     115.158 119.619 114.387  1.00  0.00     0.014 C 
ATOM      2  C   UNL     1     115.569 118.931 113.062  1.00  0.00    -0.006 C 
ATOM      3  C   UNL     1     117.099 118.595 112.983  1.00  0.00    -0.002 C 
ATOM      4  C   UNL     1     117.584 117.874 114.258  1.00  0.00     0.005 C 
ATOM      5  C   UNL     1     116.893 116.504 114.162  1.00  0.00     0.010 C 
ATOM      6  C   UNL     1     116.173 116.579 112.795  1.00  0.00    -0.006 C 
ATOM      7  C   UNL     1     117.135 117.437 111.999  1.00  0.00     0.013 C 
ATOM      8  C   UNL     1     114.927 117.506 112.943  1.00  0.00     0.126 C 
ATOM      9  C   UNL     1     115.895 115.199 112.186  1.00  0.00     0.014 C 
ATOM     10  C   UNL     1     115.182 119.893 111.908  1.00  0.00     0.014 C 
ENDROOT
BRANCH   8  11
ATOM     11  O   UNL     1     114.012 117.390 111.875  1.00  0.00    -0.392 OA
ATOM     12  H   UNL     1     114.091 118.188 111.293  1.00  0.00     0.211 HD
ENDBRANCH   8  11
TORSDOF 1
ENDMDL
MODEL 3
REMARK VINA RESULT:    -3.932      1.712      2.868
REMARK INTER + INTRA:          -4.047
REMARK INTER:                  -4.047
REMARK INTRA:                   0.000
REMARK UNBOUND:                 0.000
REMARK SMILES CC1(C)[C@H]2CC[C@](C)(C2)[C@@H]1O
REMARK SMILES IDX 1 1 2 2 4 3 5 4 6 5 7 6 9 7 10 8 8 9 3 10 11 11
REMARK H PARENT 11 12
REMARK Flexibility Score: inf
ROOT
ATOM      1  C   UNL     1     114.628 117.137 112.474  1.00  0.00     0.014 C 
ATOM      2  C   UNL     1     115.534 118.176 113.179  1.00  0.00    -0.006 C 
ATOM      3  C   UNL     1     116.014 117.720 114.601  1.00  0.00    -0.002 C 
ATOM      4  C   UNL     1     116.586 116.287 114.570  1.00  0.00     0.005 C 
ATOM      5  C   UNL     1     117.887 116.453 113.768  1.00  0.00     0.010 C 
ATOM      6  C   UNL     1     117.945 117.979 113.521  1.00  0.00    -0.006 C 
ATOM      7  C   UNL     1     117.301 118.509 114.785  1.00  0.00     0.013 C 
ATOM      8  C   UNL     1     116.898 118.342 112.423  1.00  0.00     0.126 C 
ATOM      9  C   UNL     1     119.367 118.493 113.266  1.00  0.00     0.014 C 
ATOM     10  C   UNL     1     114.716 119.489 113.296  1.00  0.00     0.014 C 
ENDROOT
BRANCH   8  11
ATOM     11  O   UNL     1     117.082 119.629 111.875  1.00  0.00    -0.392 OA
ATOM     12  H   UNL     1     116.980 120.304 112.593  1.00  0.00     0.211 HD
ENDBRANCH   8  11
TORSDOF 1
ENDMDL
MODEL 4
REMARK VINA RESULT:    -3.920      2.100      3.982
REMARK INTER + INTRA:          -4.034
REMARK INTER:                  -4.034
REMARK INTRA:                   0.000
REMARK UNBOUND:                 0.000
REMARK SMILES CC1(C)[C@H]2CC[C@](C)(C2)[C@@H]1O
REMARK SMILES IDX 1 1 2 2 4 3 5 4 6 5 7 6 9 7 10 8 8 9 3 10 11 11
REMARK H PARENT 11 12
REMARK Flexibility Score: inf
ROOT
ATOM      1  C   UNL     1     117.567 116.887 114.792  1.00  0.00     0.014 C 
ATOM      2  C   UNL     1     116.982 117.161 113.385  1.00  0.00    -0.006 C 
ATOM      3  C   UNL     1     115.425 116.983 113.312  1.00  0.00    -0.002 C 
ATOM      4  C   UNL     1     114.718 117.736 114.459  1.00  0.00     0.005 C 
ATOM      5  C   UNL     1     114.945 119.212 114.093  1.00  0.00     0.010 C 
ATOM      6  C   UNL     1     115.674 119.119 112.732  1.00  0.00    -0.006 C 
ATOM      7  C   UNL     1     115.043 117.874 112.142  1.00  0.00     0.013 C 
ATOM      8  C   UNL     1     117.146 118.669 112.989  1.00  0.00     0.126 C 
ATOM      9  C   UNL     1     115.514 120.383 111.878  1.00  0.00     0.014 C 
ATOM     10  C   UNL     1     117.671 116.176 112.405  1.00  0.00     0.014 C 
ENDROOT
BRANCH   8  11
ATOM     11  O   UNL     1     117.995 118.870 111.880  1.00  0.00    -0.392 OA
ATOM     12  H   UNL     1     118.936 118.760 112.170  1.00  0.00     0.211 HD
ENDBRANCH   8  11
TORSDOF 1
ENDMDL
MODEL 5
REMARK VINA RESULT:    -3.907      1.546      3.527
REMARK INTER + INTRA:          -4.021
REMARK INTER:                  -4.021
REMARK INTRA:                   0.000
REMARK UNBOUND:                 0.000
REMARK SMILES CC1(C)[C@H]2CC[C@](C)(C2)[C@@H]1O
REMARK SMILES IDX 1 1 2 2 4 3 5 4 6 5 7 6 9 7 10 8 8 9 3 10 11 11
REMARK H PARENT 11 12
REMARK Flexibility Score: inf
ROOT
ATOM      1  C   UNL     1     119.603 118.088 114.397  1.00  0.00     0.014 C 
ATOM      2  C   UNL     1     118.942 117.684 113.057  1.00  0.00    -0.006 C 
ATOM      3  C   UNL     1     118.640 116.149 112.947  1.00  0.00    -0.002 C 
ATOM      4  C   UNL     1     117.912 115.627 114.204  1.00  0.00     0.005 C 
ATOM      5  C   UNL     1     116.529 116.290 114.101  1.00  0.00     0.010 C 
ATOM      6  C   UNL     1     116.607 117.035 112.747  1.00  0.00    -0.006 C 
ATOM      7  C   UNL     1     117.496 116.105 111.947  1.00  0.00     0.013 C 
ATOM      8  C   UNL     1     117.505 118.298 112.929  1.00  0.00     0.126 C 
ATOM      9  C   UNL     1     115.229 117.293 112.124  1.00  0.00     0.014 C 
ATOM     10  C   UNL     1     119.911 118.112 111.923  1.00  0.00     0.014 C 
ENDROOT
BRANCH   8  11
ATOM     11  O   UNL     1     117.383 119.228 111.875  1.00  0.00    -0.392 OA
ATOM     12  H   UNL     1     116.424 119.423 111.725  1.00  0.00     0.211 HD
ENDBRANCH   8  11
TORSDOF 1
ENDMDL
MODEL 6
REMARK VINA RESULT:    -3.902      2.683      3.950
REMARK INTER + INTRA:          -4.016
REMARK INTER:                  -4.016
REMARK INTRA:                   0.000
REMARK UNBOUND:                 0.000
REMARK SMILES CC1(C)[C@H]2CC[C@](C)(C2)[C@@H]1O
REMARK SMILES IDX 1 1 2 2 4 3 5 4 6 5 7 6 9 7 10 8 8 9 3 10 11 11
REMARK H PARENT 11 12
REMARK Flexibility Score: inf
ROOT
ATOM      1  C   UNL     1     115.663 116.545 114.580  1.00  0.00     0.014 C 
ATOM      2  C   UNL     1     116.194 116.172 113.174  1.00  0.00    -0.006 C 
ATOM      3  C   UNL     1     117.735 116.409 113.006  1.00  0.00    -0.002 C 
ATOM      4  C   UNL     1     118.531 115.792 114.176  1.00  0.00     0.005 C 
ATOM      5  C   UNL     1     118.356 114.281 113.952  1.00  0.00     0.010 C 
ATOM      6  C   UNL     1     117.560 114.222 112.627  1.00  0.00    -0.006 C 
ATOM      7  C   UNL     1     118.103 115.435 111.899  1.00  0.00     0.013 C 
ATOM      8  C   UNL     1     116.083 114.629 112.919  1.00  0.00     0.126 C 
ATOM      9  C   UNL     1     117.739 112.895 111.878  1.00  0.00     0.014 C 
ATOM     10  C   UNL     1     115.414 117.036 112.148  1.00  0.00     0.014 C 
ENDROOT
BRANCH   8  11
ATOM     11  O   UNL     1     115.192 114.295 111.877  1.00  0.00    -0.392 OA
ATOM     12  H   UNL     1     114.384 114.862 111.948  1.00  0.00     0.211 HD
ENDBRANCH   8  11
TORSDOF 1
ENDMDL
MODEL 7
REMARK VINA RESULT:    -3.869      2.458      3.560
REMARK INTER + INTRA:          -3.982
REMARK INTER:                  -3.982
REMARK INTRA:                   0.000
REMARK UNBOUND:                 0.000
REMARK SMILES CC1(C)[C@H]2CC[C@](C)(C2)[C@@H]1O
REMARK SMILES IDX 1 1 2 2 4 3 5 4 6 5 7 6 9 7 10 8 8 9 3 10 11 11
REMARK H PARENT 11 12
REMARK Flexibility Score: inf
ROOT
ATOM      1  C   UNL     1     119.192 116.490 111.911  1.00  0.00     0.014 C 
ATOM      2  C   UNL     1     117.911 116.125 112.700  1.00  0.00    -0.006 C 
ATOM      3  C   UNL     1     117.153 114.881 112.117  1.00  0.00    -0.002 C 
ATOM      4  C   UNL     1     118.115 113.699 111.875  1.00  0.00     0.005 C 
ATOM      5  C   UNL     1     118.501 113.271 113.301  1.00  0.00     0.010 C 
ATOM      6  C   UNL     1     117.637 114.203 114.183  1.00  0.00    -0.006 C 
ATOM      7  C   UNL     1     116.397 114.356 113.327  1.00  0.00     0.013 C 
ATOM      8  C   UNL     1     118.258 115.633 114.147  1.00  0.00     0.126 C 
ATOM      9  C   UNL     1     117.379 113.634 115.584  1.00  0.00     0.014 C 
ATOM     10  C   UNL     1     116.984 117.369 112.665  1.00  0.00     0.014 C 
ENDROOT
BRANCH   8  11
ATOM     11  O   UNL     1     117.768 116.483 115.162  1.00  0.00    -0.392 OA
ATOM     12  H   UNL     1     118.050 117.413 114.969  1.00  0.00     0.211 HD
ENDBRANCH   8  11
TORSDOF 1
ENDMDL
MODEL 8
REMARK VINA RESULT:    -3.861      2.769      4.611
REMARK INTER + INTRA:          -3.974
REMARK INTER:                  -3.974
REMARK INTRA:                   0.000
REMARK UNBOUND:                 0.000
REMARK SMILES CC1(C)[C@H]2CC[C@](C)(C2)[C@@H]1O
REMARK SMILES IDX 1 1 2 2 4 3 5 4 6 5 7 6 9 7 10 8 8 9 3 10 11 11
REMARK H PARENT 11 12
REMARK Flexibility Score: inf
ROOT
ATOM      1  C   UNL     1     118.125 116.574 112.112  1.00  0.00     0.014 C 
ATOM      2  C   UNL     1     116.962 115.890 112.870  1.00  0.00    -0.006 C 
ATOM      3  C   UNL     1     116.131 116.878 113.762  1.00  0.00    -0.002 C 
ATOM      4  C   UNL     1     115.727 118.143 112.974  1.00  0.00     0.005 C 
ATOM      5  C   UNL     1     114.707 117.604 111.958  1.00  0.00     0.010 C 
ATOM      6  C   UNL     1     114.584 116.113 112.354  1.00  0.00    -0.006 C 
ATOM      7  C   UNL     1     114.781 116.187 113.854  1.00  0.00     0.013 C 
ATOM      8  C   UNL     1     115.868 115.368 111.875  1.00  0.00     0.126 C 
ATOM      9  C   UNL     1     113.257 115.483 111.914  1.00  0.00     0.014 C 
ATOM     10  C   UNL     1     117.585 114.780 113.757  1.00  0.00     0.014 C 
ENDROOT
BRANCH   8  11
ATOM     11  O   UNL     1     115.734 113.963 111.875  1.00  0.00    -0.392 OA
ATOM     12  H   UNL     1     116.076 113.606 111.017  1.00  0.00     0.211 HD
ENDBRANCH   8  11
TORSDOF 1
ENDMDL
MODEL 9
REMARK VINA RESULT:    -2.891      2.854      4.300
REMARK INTER + INTRA:          -2.976
REMARK INTER:                  -2.976
REMARK INTRA:                   0.000
REMARK UNBOUND:                 0.000
REMARK SMILES CC1(C)[C@H]2CC[C@](C)(C2)[C@@H]1O
REMARK SMILES IDX 1 1 2 2 4 3 5 4 6 5 7 6 9 7 10 8 8 9 3 10 11 11
REMARK H PARENT 11 12
REMARK Flexibility Score: inf
ROOT
ATOM      1  C   UNL     1     113.610 115.129 114.431  1.00  0.00     0.014 C 
ATOM      2  C   UNL     1     114.260 115.540 113.088  1.00  0.00    -0.006 C 
ATOM      3  C   UNL     1     114.572 117.074 112.989  1.00  0.00    -0.002 C 
ATOM      4  C   UNL     1     115.317 117.579 114.243  1.00  0.00     0.005 C 
ATOM      5  C   UNL     1     116.694 116.906 114.119  1.00  0.00     0.010 C 
ATOM      6  C   UNL     1     116.596 116.175 112.759  1.00  0.00    -0.006 C 
ATOM      7  C   UNL     1     115.706 117.119 111.978  1.00  0.00     0.013 C 
ATOM      8  C   UNL     1     115.692 114.918 112.939  1.00  0.00     0.126 C 
ATOM      9  C   UNL     1     117.966 115.913 112.119  1.00  0.00     0.014 C 
ATOM     10  C   UNL     1     113.276 115.130 111.960  1.00  0.00     0.014 C 
ENDROOT
BRANCH   8  11
ATOM     11  O   UNL     1     115.795 113.996 111.875  1.00  0.00    -0.392 OA
ATOM     12  H   UNL     1     116.016 114.486 111.043  1.00  0.00     0.211 HD
ENDBRANCH   8  11
TORSDOF 1
ENDMDL
