MODEL 1
REMARK VINA RESULT:     0.935      0.000      0.000
REMARK INTER + INTRA:           1.001
REMARK INTER:                   1.809
REMARK INTRA:                  -0.808
REMARK UNBOUND:                -0.808
REMARK SMILES CCCCCCCCCCCCCCCCCC(=O)[O-]
REMARK SMILES IDX 10 1 11 2 12 3 13 4 14 5 15 6 16 7 17 8 18 9 19 10 20 11
REMARK SMILES IDX 9 12 8 13 7 14 6 15 5 16 4 17 3 18 2 19 1 20
REMARK H PARENT
REMARK Flexibility Score: inf
ROOT
ATOM      1  C   UNL     1      -4.433  37.248  21.069  1.00  0.00     0.000 C 
ENDROOT
BRANCH   1   2
ATOM      2  C   UNL     1      -4.402  36.118  20.025  1.00  0.00     0.000 C 
BRANCH   2   3
ATOM      3  C   UNL     1      -5.808  35.667  19.599  1.00  0.00     0.000 C 
BRANCH   3   4
ATOM      4  C   UNL     1      -5.841  34.207  19.122  1.00  0.00     0.000 C 
BRANCH   4   5
ATOM      5  C   UNL     1      -5.094  34.046  17.793  1.00  0.00     0.000 C 
BRANCH   5   6
ATOM      6  C   UNL     1      -4.592  35.402  17.275  1.00  0.00     0.000 C 
BRANCH   6   7
ATOM      7  C   UNL     1      -3.670  35.270  16.050  1.00  0.00     0.006 C 
BRANCH   7   8
ATOM      8  C   UNL     1      -4.264  35.828  14.748  1.00  0.00     0.053 C 
BRANCH   8   9
ATOM      9  C   UNL     1      -3.477  36.988  14.221  1.00  0.00     0.041 C 
ATOM     10  O   UNL     1      -2.241  36.871  14.010  1.00  0.00    -0.550 OA
ATOM     11  O   UNL     1      -4.101  38.209  13.999  1.00  0.00    -0.550 OA
ENDBRANCH   8   9
ENDBRANCH   7   8
ENDBRANCH   6   7
ENDBRANCH   5   6
ENDBRANCH   4   5
ENDBRANCH   3   4
ENDBRANCH   2   3
ENDBRANCH   1   2
BRANCH   1  12
ATOM     12  C   UNL     1      -5.729  38.071  21.008  1.00  0.00     0.000 C 
BRANCH  12  13
ATOM     13  C   UNL     1      -5.515  39.538  21.415  1.00  0.00    -0.000 C 
BRANCH  13  14
ATOM     14  C   UNL     1      -4.714  39.677  22.720  1.00  0.00    -0.000 C 
BRANCH  14  15
ATOM     15  C   UNL     1      -5.436  39.055  23.927  1.00  0.00    -0.000 C 
BRANCH  15  16
ATOM     16  C   UNL     1      -4.664  37.859  24.529  1.00  0.00    -0.000 C 
BRANCH  16  17
ATOM     17  C   UNL     1      -5.454  37.097  25.609  1.00  0.00    -0.000 C 
BRANCH  17  18
ATOM     18  C   UNL     1      -5.907  35.686  25.194  1.00  0.00    -0.000 C 
BRANCH  18  19
ATOM     19  C   UNL     1      -6.125  35.528  23.672  1.00  0.00    -0.003 C 
ATOM     20  C   UNL     1      -5.962  34.085  23.195  1.00  0.00     0.004 C 
ENDBRANCH  18  19
ENDBRANCH  17  18
ENDBRANCH  16  17
ENDBRANCH  15  16
ENDBRANCH  14  15
ENDBRANCH  13  14
ENDBRANCH  12  13
ENDBRANCH   1  12
TORSDOF 16
ENDMDL
MODEL 2
REMARK VINA RESULT:     0.955      0.851      3.055
REMARK INTER + INTRA:           1.041
REMARK INTER:                   1.765
REMARK INTRA:                  -0.725
REMARK UNBOUND:                -0.808
REMARK SMILES CCCCCCCCCCCCCCCCCC(=O)[O-]
REMARK SMILES IDX 10 1 11 2 12 3 13 4 14 5 15 6 16 7 17 8 18 9 19 10 20 11
REMARK SMILES IDX 9 12 8 13 7 14 6 15 5 16 4 17 3 18 2 19 1 20
REMARK H PARENT
REMARK Flexibility Score: inf
ROOT
ATOM      1  C   UNL     1      -5.271  34.748  22.636  1.00  0.00     0.000 C 
ENDROOT
BRANCH   1   2
ATOM      2  C   UNL     1      -6.125  35.392  21.529  1.00  0.00     0.000 C 
BRANCH   2   3
ATOM      3  C   UNL     1      -5.443  35.341  20.153  1.00  0.00     0.000 C 
BRANCH   3   4
ATOM      4  C   UNL     1      -5.560  33.962  19.486  1.00  0.00     0.000 C 
BRANCH   4   5
ATOM      5  C   UNL     1      -5.001  33.993  18.059  1.00  0.00     0.000 C 
BRANCH   5   6
ATOM      6  C   UNL     1      -4.948  35.430  17.519  1.00  0.00     0.000 C 
BRANCH   6   7
ATOM      7  C   UNL     1      -3.960  35.593  16.349  1.00  0.00     0.006 C 
BRANCH   7   8
ATOM      8  C   UNL     1      -4.581  36.189  15.076  1.00  0.00     0.053 C 
BRANCH   8   9
ATOM      9  C   UNL     1      -3.590  36.987  14.287  1.00  0.00     0.041 C 
ATOM     10  O   UNL     1      -3.883  38.144  13.886  1.00  0.00    -0.550 OA
ATOM     11  O   UNL     1      -2.356  36.438  13.961  1.00  0.00    -0.550 OA
ENDBRANCH   8   9
ENDBRANCH   7   8
ENDBRANCH   6   7
ENDBRANCH   5   6
ENDBRANCH   4   5
ENDBRANCH   3   4
ENDBRANCH   2   3
ENDBRANCH   1   2
BRANCH   1  12
ATOM     12  C   UNL     1      -6.125  34.121  23.749  1.00  0.00     0.000 C 
BRANCH  12  13
ATOM     13  C   UNL     1      -6.056  34.917  25.063  1.00  0.00    -0.000 C 
BRANCH  13  14
ATOM     14  C   UNL     1      -6.053  36.437  24.833  1.00  0.00    -0.000 C 
BRANCH  14  15
ATOM     15  C   UNL     1      -4.960  37.156  25.642  1.00  0.00    -0.000 C 
BRANCH  15  16
ATOM     16  C   UNL     1      -4.772  38.629  25.210  1.00  0.00    -0.000 C 
BRANCH  16  17
ATOM     17  C   UNL     1      -5.394  38.952  23.840  1.00  0.00    -0.000 C 
BRANCH  17  18
ATOM     18  C   UNL     1      -4.741  38.221  22.653  1.00  0.00    -0.000 C 
BRANCH  18  19
ATOM     19  C   UNL     1      -5.148  38.789  21.275  1.00  0.00    -0.003 C 
ATOM     20  C   UNL     1      -6.081  39.996  21.381  1.00  0.00     0.004 C 
ENDBRANCH  18  19
ENDBRANCH  17  18
ENDBRANCH  16  17
ENDBRANCH  15  16
ENDBRANCH  14  15
ENDBRANCH  13  14
ENDBRANCH  12  13
ENDBRANCH   1  12
TORSDOF 16
ENDMDL
MODEL 3
REMARK VINA RESULT:     1.456      2.155      7.200
REMARK INTER + INTRA:           2.011
REMARK INTER:                   2.197
REMARK INTRA:                  -0.186
REMARK UNBOUND:                -0.808
REMARK SMILES CCCCCCCCCCCCCCCCCC(=O)[O-]
REMARK SMILES IDX 10 1 11 2 12 3 13 4 14 5 15 6 16 7 17 8 18 9 19 10 20 11
REMARK SMILES IDX 9 12 8 13 7 14 6 15 5 16 4 17 3 18 2 19 1 20
REMARK H PARENT
REMARK Flexibility Score: inf
ROOT
ATOM      1  C   UNL     1      -5.515  34.393  23.069  1.00  0.00     0.000 C 
ENDROOT
BRANCH   1   2
ATOM      2  C   UNL     1      -5.604  35.354  24.267  1.00  0.00     0.000 C 
BRANCH   2   3
ATOM      3  C   UNL     1      -5.818  36.814  23.839  1.00  0.00     0.000 C 
BRANCH   3   4
ATOM      4  C   UNL     1      -4.850  37.782  24.537  1.00  0.00     0.000 C 
BRANCH   4   5
ATOM      5  C   UNL     1      -5.118  39.230  24.111  1.00  0.00     0.000 C 
BRANCH   5   6
ATOM      6  C   UNL     1      -4.634  39.480  22.675  1.00  0.00     0.000 C 
BRANCH   6   7
ATOM      7  C   UNL     1      -5.783  39.806  21.704  1.00  0.00     0.006 C 
BRANCH   7   8
ATOM      8  C   UNL     1      -6.125  38.673  20.724  1.00  0.00     0.053 C 
BRANCH   8   9
ATOM      9  C   UNL     1      -4.902  37.948  20.254  1.00  0.00     0.041 C 
ATOM     10  O   UNL     1      -4.559  38.002  19.043  1.00  0.00    -0.550 OA
ATOM     11  O   UNL     1      -4.162  37.181  21.145  1.00  0.00    -0.550 OA
ENDBRANCH   8   9
ENDBRANCH   7   8
ENDBRANCH   6   7
ENDBRANCH   5   6
ENDBRANCH   4   5
ENDBRANCH   3   4
ENDBRANCH   2   3
ENDBRANCH   1   2
BRANCH   1  12
ATOM     12  C   UNL     1      -6.066  35.011  21.775  1.00  0.00     0.000 C 
BRANCH  12  13
ATOM     13  C   UNL     1      -5.909  34.078  20.562  1.00  0.00    -0.000 C 
BRANCH  13  14
ATOM     14  C   UNL     1      -5.988  34.832  19.224  1.00  0.00    -0.000 C 
BRANCH  14  15
ATOM     15  C   UNL     1      -4.919  34.369  18.220  1.00  0.00    -0.000 C 
BRANCH  15  16
ATOM     16  C   UNL     1      -4.546  35.469  17.199  1.00  0.00    -0.000 C 
BRANCH  16  17
ATOM     17  C   UNL     1      -3.786  34.937  15.971  1.00  0.00    -0.000 C 
BRANCH  17  18
ATOM     18  C   UNL     1      -3.247  36.030  15.030  1.00  0.00    -0.000 C 
BRANCH  18  19
ATOM     19  C   UNL     1      -4.337  36.682  14.150  1.00  0.00    -0.003 C 
ATOM     20  C   UNL     1      -4.241  38.207  14.117  1.00  0.00     0.004 C 
ENDBRANCH  18  19
ENDBRANCH  17  18
ENDBRANCH  16  17
ENDBRANCH  15  16
ENDBRANCH  14  15
ENDBRANCH  13  14
ENDBRANCH  12  13
ENDBRANCH   1  12
TORSDOF 16
ENDMDL
MODEL 4
REMARK VINA RESULT:     2.216      1.038      1.800
REMARK INTER + INTRA:           3.482
REMARK INTER:                   3.317
REMARK INTRA:                   0.165
REMARK UNBOUND:                -0.808
REMARK SMILES CCCCCCCCCCCCCCCCCC(=O)[O-]
REMARK SMILES IDX 10 1 11 2 12 3 13 4 14 5 15 6 16 7 17 8 18 9 19 10 20 11
REMARK SMILES IDX 9 12 8 13 7 14 6 15 5 16 4 17 3 18 2 19 1 20
REMARK H PARENT
REMARK Flexibility Score: inf
ROOT
ATOM      1  C   UNL     1      -4.615  35.397  21.080  1.00  0.00     0.000 C 
ENDROOT
BRANCH   1   2
ATOM      2  C   UNL     1      -4.162  35.438  19.610  1.00  0.00     0.000 C 
BRANCH   2   3
ATOM      3  C   UNL     1      -5.234  34.908  18.646  1.00  0.00     0.000 C 
BRANCH   3   4
ATOM      4  C   UNL     1      -4.661  34.537  17.270  1.00  0.00     0.000 C 
BRANCH   4   5
ATOM      5  C   UNL     1      -4.397  35.792  16.429  1.00  0.00     0.000 C 
BRANCH   5   6
ATOM      6  C   UNL     1      -3.237  35.564  15.448  1.00  0.00     0.000 C 
BRANCH   6   7
ATOM      7  C   UNL     1      -3.597  35.942  14.000  1.00  0.00     0.006 C 
BRANCH   7   8
ATOM      8  C   UNL     1      -4.781  36.914  13.875  1.00  0.00     0.053 C 
BRANCH   8   9
ATOM      9  C   UNL     1      -4.390  38.322  14.203  1.00  0.00     0.041 C 
ATOM     10  O   UNL     1      -3.291  38.560  14.770  1.00  0.00    -0.550 OA
ATOM     11  O   UNL     1      -5.256  39.370  13.915  1.00  0.00    -0.550 OA
ENDBRANCH   8   9
ENDBRANCH   7   8
ENDBRANCH   6   7
ENDBRANCH   5   6
ENDBRANCH   4   5
ENDBRANCH   3   4
ENDBRANCH   2   3
ENDBRANCH   1   2
BRANCH   1  12
ATOM     12  C   UNL     1      -5.806  36.328  21.356  1.00  0.00     0.000 C 
BRANCH  12  13
ATOM     13  C   UNL     1      -5.548  37.770  20.887  1.00  0.00    -0.000 C 
BRANCH  13  14
ATOM     14  C   UNL     1      -4.272  38.370  21.500  1.00  0.00    -0.000 C 
BRANCH  14  15
ATOM     15  C   UNL     1      -4.571  39.496  22.504  1.00  0.00    -0.000 C 
BRANCH  15  16
ATOM     16  C   UNL     1      -5.374  39.002  23.729  1.00  0.00    -0.000 C 
BRANCH  16  17
ATOM     17  C   UNL     1      -5.170  37.508  24.037  1.00  0.00    -0.000 C 
BRANCH  17  18
ATOM     18  C   UNL     1      -5.429  37.116  25.503  1.00  0.00    -0.000 C 
BRANCH  18  19
ATOM     19  C   UNL     1      -6.123  35.745  25.664  1.00  0.00    -0.003 C 
ATOM     20  C   UNL     1      -6.123  34.923  24.375  1.00  0.00     0.004 C 
ENDBRANCH  18  19
ENDBRANCH  17  18
ENDBRANCH  16  17
ENDBRANCH  15  16
ENDBRANCH  14  15
ENDBRANCH  13  14
ENDBRANCH  12  13
ENDBRANCH   1  12
TORSDOF 16
ENDMDL
MODEL 5
REMARK VINA RESULT:     2.276      1.027      3.284
REMARK INTER + INTRA:           3.598
REMARK INTER:                   3.534
REMARK INTRA:                   0.063
REMARK UNBOUND:                -0.808
REMARK SMILES CCCCCCCCCCCCCCCCCC(=O)[O-]
REMARK SMILES IDX 10 1 11 2 12 3 13 4 14 5 15 6 16 7 17 8 18 9 19 10 20 11
REMARK SMILES IDX 9 12 8 13 7 14 6 15 5 16 4 17 3 18 2 19 1 20
REMARK H PARENT
REMARK Flexibility Score: inf
ROOT
ATOM      1  C   UNL     1      -4.861  35.622  22.022  1.00  0.00     0.000 C 
ENDROOT
BRANCH   1   2
ATOM      2  C   UNL     1      -5.726  36.678  21.311  1.00  0.00     0.000 C 
BRANCH   2   3
ATOM      3  C   UNL     1      -4.926  37.515  20.300  1.00  0.00     0.000 C 
BRANCH   3   4
ATOM      4  C   UNL     1      -4.476  36.697  19.080  1.00  0.00     0.000 C 
BRANCH   4   5
ATOM      5  C   UNL     1      -5.001  35.259  19.160  1.00  0.00     0.000 C 
BRANCH   5   6
ATOM      6  C   UNL     1      -4.886  34.554  17.800  1.00  0.00     0.000 C 
BRANCH   6   7
ATOM      7  C   UNL     1      -4.673  35.537  16.634  1.00  0.00     0.006 C 
BRANCH   7   8
ATOM      8  C   UNL     1      -3.453  35.222  15.756  1.00  0.00     0.053 C 
BRANCH   8   9
ATOM      9  C   UNL     1      -3.341  36.156  14.591  1.00  0.00     0.041 C 
ATOM     10  O   UNL     1      -4.371  36.706  14.119  1.00  0.00    -0.550 OA
ATOM     11  O   UNL     1      -2.105  36.389  14.001  1.00  0.00    -0.550 OA
ENDBRANCH   8   9
ENDBRANCH   7   8
ENDBRANCH   6   7
ENDBRANCH   5   6
ENDBRANCH   4   5
ENDBRANCH   3   4
ENDBRANCH   2   3
ENDBRANCH   1   2
BRANCH   1  12
ATOM     12  C   UNL     1      -5.638  34.332  22.327  1.00  0.00     0.000 C 
BRANCH  12  13
ATOM     13  C   UNL     1      -5.286  33.744  23.704  1.00  0.00    -0.000 C 
BRANCH  13  14
ATOM     14  C   UNL     1      -6.095  34.385  24.843  1.00  0.00    -0.000 C 
BRANCH  14  15
ATOM     15  C   UNL     1      -6.125  35.920  24.757  1.00  0.00    -0.000 C 
BRANCH  15  16
ATOM     16  C   UNL     1      -4.939  36.580  25.498  1.00  0.00    -0.000 C 
BRANCH  16  17
ATOM     17  C   UNL     1      -4.886  38.110  25.335  1.00  0.00    -0.000 C 
BRANCH  17  18
ATOM     18  C   UNL     1      -4.688  38.592  23.887  1.00  0.00    -0.000 C 
BRANCH  18  19
ATOM     19  C   UNL     1      -5.341  39.962  23.595  1.00  0.00    -0.003 C 
ATOM     20  C   UNL     1      -5.561  40.210  22.104  1.00  0.00     0.004 C 
ENDBRANCH  18  19
ENDBRANCH  17  18
ENDBRANCH  16  17
ENDBRANCH  15  16
ENDBRANCH  14  15
ENDBRANCH  13  14
ENDBRANCH  12  13
ENDBRANCH   1  12
TORSDOF 16
ENDMDL
MODEL 6
REMARK VINA RESULT:     2.611      2.744      7.712
REMARK INTER + INTRA:           4.246
REMARK INTER:                   3.164
REMARK INTRA:                   1.082
REMARK UNBOUND:                -0.808
REMARK SMILES CCCCCCCCCCCCCCCCCC(=O)[O-]
REMARK SMILES IDX 10 1 11 2 12 3 13 4 14 5 15 6 16 7 17 8 18 9 19 10 20 11
REMARK SMILES IDX 9 12 8 13 7 14 6 15 5 16 4 17 3 18 2 19 1 20
REMARK H PARENT
REMARK Flexibility Score: inf
ROOT
ATOM      1  C   UNL     1      -4.545  34.742  22.216  1.00  0.00     0.000 C 
ENDROOT
BRANCH   1   2
ATOM      2  C   UNL     1      -5.795  34.044  22.782  1.00  0.00     0.000 C 
BRANCH   2   3
ATOM      3  C   UNL     1      -6.057  34.402  24.253  1.00  0.00     0.000 C 
BRANCH   3   4
ATOM      4  C   UNL     1      -6.122  35.918  24.490  1.00  0.00     0.000 C 
BRANCH   4   5
ATOM      5  C   UNL     1      -5.006  36.374  25.437  1.00  0.00     0.000 C 
BRANCH   5   6
ATOM      6  C   UNL     1      -5.206  37.837  25.860  1.00  0.00     0.000 C 
BRANCH   6   7
ATOM      7  C   UNL     1      -4.912  38.833  24.723  1.00  0.00     0.006 C 
BRANCH   7   8
ATOM      8  C   UNL     1      -5.401  38.375  23.340  1.00  0.00     0.053 C 
BRANCH   8   9
ATOM      9  C   UNL     1      -5.022  39.341  22.260  1.00  0.00     0.041 C 
ATOM     10  O   UNL     1      -4.019  39.116  21.532  1.00  0.00    -0.550 OA
ATOM     11  O   UNL     1      -5.753  40.509  22.083  1.00  0.00    -0.550 OA
ENDBRANCH   8   9
ENDBRANCH   7   8
ENDBRANCH   6   7
ENDBRANCH   5   6
ENDBRANCH   4   5
ENDBRANCH   3   4
ENDBRANCH   2   3
ENDBRANCH   1   2
BRANCH   1  12
ATOM     12  C   UNL     1      -4.851  36.142  21.663  1.00  0.00     0.000 C 
BRANCH  12  13
ATOM     13  C   UNL     1      -5.545  36.094  20.290  1.00  0.00    -0.000 C 
BRANCH  13  14
ATOM     14  C   UNL     1      -4.933  35.036  19.357  1.00  0.00    -0.000 C 
BRANCH  14  15
ATOM     15  C   UNL     1      -4.982  35.453  17.878  1.00  0.00    -0.000 C 
BRANCH  15  16
ATOM     16  C   UNL     1      -3.926  34.720  17.019  1.00  0.00    -0.000 C 
BRANCH  16  17
ATOM     17  C   UNL     1      -3.950  35.126  15.534  1.00  0.00    -0.000 C 
BRANCH  17  18
ATOM     18  C   UNL     1      -3.375  36.525  15.245  1.00  0.00    -0.000 C 
BRANCH  18  19
ATOM     19  C   UNL     1      -3.904  37.154  13.937  1.00  0.00    -0.003 C 
ATOM     20  C   UNL     1      -4.522  38.536  14.150  1.00  0.00     0.004 C 
ENDBRANCH  18  19
ENDBRANCH  17  18
ENDBRANCH  16  17
ENDBRANCH  15  16
ENDBRANCH  14  15
ENDBRANCH  13  14
ENDBRANCH  12  13
ENDBRANCH   1  12
TORSDOF 16
ENDMDL
MODEL 7
REMARK VINA RESULT:     3.109      3.934      8.201
REMARK INTER + INTRA:           5.210
REMARK INTER:                   3.570
REMARK INTRA:                   1.640
REMARK UNBOUND:                -0.808
REMARK SMILES CCCCCCCCCCCCCCCCCC(=O)[O-]
REMARK SMILES IDX 10 1 11 2 12 3 13 4 14 5 15 6 16 7 17 8 18 9 19 10 20 11
REMARK SMILES IDX 9 12 8 13 7 14 6 15 5 16 4 17 3 18 2 19 1 20
REMARK H PARENT
REMARK Flexibility Score: inf
ROOT
ATOM      1  C   UNL     1      -4.484  38.234  21.344  1.00  0.00     0.000 C 
ENDROOT
BRANCH   1   2
ATOM      2  C   UNL     1      -5.208  37.972  22.677  1.00  0.00     0.000 C 
BRANCH   2   3
ATOM      3  C   UNL     1      -6.100  36.722  22.629  1.00  0.00     0.000 C 
BRANCH   3   4
ATOM      4  C   UNL     1      -5.348  35.478  22.133  1.00  0.00     0.000 C 
BRANCH   4   5
ATOM      5  C   UNL     1      -5.497  34.315  23.121  1.00  0.00     0.000 C 
BRANCH   5   6
ATOM      6  C   UNL     1      -6.123  34.791  24.440  1.00  0.00     0.000 C 
BRANCH   6   7
ATOM      7  C   UNL     1      -5.101  35.451  25.383  1.00  0.00     0.006 C 
BRANCH   7   8
ATOM      8  C   UNL     1      -5.640  36.673  26.144  1.00  0.00     0.053 C 
BRANCH   8   9
ATOM      9  C   UNL     1      -4.726  37.853  26.034  1.00  0.00     0.041 C 
ATOM     10  O   UNL     1      -3.726  37.954  26.792  1.00  0.00    -0.550 OA
ATOM     11  O   UNL     1      -4.999  38.862  25.118  1.00  0.00    -0.550 OA
ENDBRANCH   8   9
ENDBRANCH   7   8
ENDBRANCH   6   7
ENDBRANCH   5   6
ENDBRANCH   4   5
ENDBRANCH   3   4
ENDBRANCH   2   3
ENDBRANCH   1   2
BRANCH   1  12
ATOM     12  C   UNL     1      -5.314  37.799  20.127  1.00  0.00     0.000 C 
BRANCH  12  13
ATOM     13  C   UNL     1      -4.608  36.722  19.286  1.00  0.00    -0.000 C 
BRANCH  13  14
ATOM     14  C   UNL     1      -5.255  35.336  19.440  1.00  0.00    -0.000 C 
BRANCH  14  15
ATOM     15  C   UNL     1      -5.319  34.562  18.113  1.00  0.00    -0.000 C 
BRANCH  15  16
ATOM     16  C   UNL     1      -4.080  34.806  17.221  1.00  0.00    -0.000 C 
BRANCH  16  17
ATOM     17  C   UNL     1      -4.417  35.433  15.856  1.00  0.00    -0.000 C 
BRANCH  17  18
ATOM     18  C   UNL     1      -3.201  35.978  15.086  1.00  0.00    -0.000 C 
BRANCH  18  19
ATOM     19  C   UNL     1      -3.580  36.860  13.875  1.00  0.00    -0.003 C 
ATOM     20  C   UNL     1      -4.142  38.222  14.284  1.00  0.00     0.004 C 
ENDBRANCH  18  19
ENDBRANCH  17  18
ENDBRANCH  16  17
ENDBRANCH  15  16
ENDBRANCH  14  15
ENDBRANCH  13  14
ENDBRANCH  12  13
ENDBRANCH   1  12
TORSDOF 16
ENDMDL
