MODEL 1
REMARK VINA RESULT:    -6.441      0.000      0.000
REMARK INTER + INTRA:         -10.582
REMARK INTER:                  -9.265
REMARK INTRA:                  -1.317
REMARK UNBOUND:                -1.317
REMARK SMILES O=c1c(O[C@H]2O[C@@H](CO)[C@@H](O)[C@H](O)[C@H]2O)c(-c2ccc(O)cc2)oc2cc(O)cc(O)c12
REMARK SMILES IDX 4 1 3 2 16 3 24 4 2 5 25 6 1 7 32 8 26 9 30 10 27 11 29 12
REMARK SMILES IDX 17 13 18 14 19 15 20 16 23 17 22 18 21 19 31 21 28 23 5 25
REMARK SMILES IDX 14 26 6 27 12 28 7 29 10 30 15 31 13 33 8 35 9 36 11 38
REMARK H PARENT 21 20 31 22 28 24 15 32 13 34 9 37 11 39
REMARK Flexibility Score: inf
ROOT
ATOM      1  O   UNL     1      14.874  -3.555 -12.215  1.00  0.00    -0.454 OA
ENDROOT
BRANCH   1   2
ATOM      2  C   UNL     1      15.592  -2.669 -11.397  1.00  0.00     0.214 A 
ATOM      3  C   UNL     1      15.686  -1.296 -11.687  1.00  0.00     0.180 A 
ATOM      4  O   UNL     1      16.432  -0.512 -10.917  1.00  0.00    -0.452 OA
ATOM      5  C   UNL     1      16.230  -3.167 -10.253  1.00  0.00     0.239 A 
ATOM      6  C   UNL     1      17.081  -0.943  -9.842  1.00  0.00     0.146 A 
ATOM      7  O   UNL     1      16.092  -4.387  -9.984  1.00  0.00    -0.285 OA
ATOM      8  C   UNL     1      17.010  -2.305  -9.441  1.00  0.00     0.111 A 
ATOM      9  C   UNL     1      17.824  -0.020  -9.104  1.00  0.00     0.094 A 
ATOM     10  C   UNL     1      17.717  -2.702  -8.261  1.00  0.00     0.134 A 
ATOM     11  C   UNL     1      18.498  -0.414  -7.952  1.00  0.00     0.123 A 
ATOM     12  C   UNL     1      18.443  -1.746  -7.539  1.00  0.00     0.093 A 
BRANCH   3  13
ATOM     13  C   UNL     1      14.967  -0.675 -12.814  1.00  0.00     0.021 A 
ATOM     14  C   UNL     1      13.564  -0.561 -12.806  1.00  0.00     0.016 A 
ATOM     15  C   UNL     1      12.900   0.053 -13.873  1.00  0.00     0.047 A 
ATOM     16  C   UNL     1      13.630   0.555 -14.960  1.00  0.00     0.115 A 
ATOM     17  C   UNL     1      15.692  -0.143 -13.893  1.00  0.00     0.016 A 
ATOM     18  C   UNL     1      15.026   0.454 -14.966  1.00  0.00     0.047 A 
BRANCH  16  19
ATOM     19  O   UNL     1      12.982   1.164 -16.033  1.00  0.00    -0.508 OA
ATOM     20  H   UNL     1      13.168   2.127 -16.290  1.00  0.00     0.293 HD
ENDBRANCH  16  19
ENDBRANCH   3  13
BRANCH  10  21
ATOM     21  O   UNL     1      17.750  -4.006  -7.753  1.00  0.00    -0.507 OA
ATOM     22  H   UNL     1      17.335  -4.324  -6.892  1.00  0.00     0.293 HD
ENDBRANCH  10  21
BRANCH  11  23
ATOM     23  O   UNL     1      19.217   0.528  -7.217  1.00  0.00    -0.508 OA
ATOM     24  H   UNL     1      19.434   1.442  -7.598  1.00  0.00     0.293 HD
ENDBRANCH  11  23
ENDBRANCH   1   2
BRANCH   1  25
ATOM     25  C   UNL     1      15.352  -4.092 -13.456  1.00  0.00     0.339 C 
ATOM     26  C   UNL     1      15.707  -5.593 -13.343  1.00  0.00     0.214 C 
ATOM     27  O   UNL     1      16.470  -3.354 -13.915  1.00  0.00    -0.332 OA
ATOM     28  C   UNL     1      16.180  -6.117 -14.719  1.00  0.00     0.180 C 
ATOM     29  C   UNL     1      16.786  -3.714 -15.249  1.00  0.00     0.179 C 
ATOM     30  C   UNL     1      17.261  -5.188 -15.314  1.00  0.00     0.177 C 
BRANCH  26  31
ATOM     31  O   UNL     1      16.732  -5.779 -12.400  1.00  0.00    -0.384 OA
ATOM     32  H   UNL     1      17.356  -6.451 -12.777  1.00  0.00     0.211 HD
ENDBRANCH  26  31
BRANCH  28  33
ATOM     33  O   UNL     1      15.093  -6.193 -15.607  1.00  0.00    -0.387 OA
ATOM     34  H   UNL     1      15.400  -6.714 -16.395  1.00  0.00     0.211 HD
ENDBRANCH  28  33
BRANCH  29  35
ATOM     35  C   UNL     1      17.850  -2.741 -15.780  1.00  0.00     0.191 C 
BRANCH  35  36
ATOM     36  O   UNL     1      18.416  -3.216 -16.972  1.00  0.00    -0.394 OA
ATOM     37  H   UNL     1      19.370  -3.413 -16.774  1.00  0.00     0.210 HD
ENDBRANCH  35  36
ENDBRANCH  29  35
BRANCH  30  38
ATOM     38  O   UNL     1      18.458  -5.346 -14.591  1.00  0.00    -0.387 OA
ATOM     39  H   UNL     1      19.175  -4.884 -15.100  1.00  0.00     0.211 HD
ENDBRANCH  30  38
ENDBRANCH   1  25
TORSDOF 11
ENDMDL
MODEL 2
REMARK VINA RESULT:    -6.239      4.373      7.216
REMARK INTER + INTRA:         -10.291
REMARK INTER:                  -8.795
REMARK INTRA:                  -1.497
REMARK UNBOUND:                -1.317
REMARK SMILES O=c1c(O[C@H]2O[C@@H](CO)[C@@H](O)[C@H](O)[C@H]2O)c(-c2ccc(O)cc2)oc2cc(O)cc(O)c12
REMARK SMILES IDX 4 1 3 2 16 3 24 4 2 5 25 6 1 7 32 8 26 9 30 10 27 11 29 12
REMARK SMILES IDX 17 13 18 14 19 15 20 16 23 17 22 18 21 19 31 21 28 23 5 25
REMARK SMILES IDX 14 26 6 27 12 28 7 29 10 30 15 31 13 33 8 35 9 36 11 38
REMARK H PARENT 21 20 31 22 28 24 15 32 13 34 9 37 11 39
REMARK Flexibility Score: inf
ROOT
ATOM      1  O   UNL     1      12.257  -3.589 -12.486  1.00  0.00    -0.454 OA
ENDROOT
BRANCH   1   2
ATOM      2  C   UNL     1      11.977  -4.518 -11.473  1.00  0.00     0.214 A 
ATOM      3  C   UNL     1      12.992  -5.253 -10.833  1.00  0.00     0.180 A 
ATOM      4  O   UNL     1      12.669  -6.167  -9.926  1.00  0.00    -0.452 OA
ATOM      5  C   UNL     1      10.647  -4.716 -11.082  1.00  0.00     0.239 A 
ATOM      6  C   UNL     1      11.421  -6.414  -9.546  1.00  0.00     0.146 A 
ATOM      7  O   UNL     1       9.760  -4.013 -11.629  1.00  0.00    -0.285 OA
ATOM      8  C   UNL     1      10.330  -5.690 -10.101  1.00  0.00     0.111 A 
ATOM      9  C   UNL     1      11.207  -7.392  -8.574  1.00  0.00     0.094 A 
ATOM     10  C   UNL     1       9.011  -5.990  -9.634  1.00  0.00     0.134 A 
ATOM     11  C   UNL     1       9.920  -7.667  -8.118  1.00  0.00     0.123 A 
ATOM     12  C   UNL     1       8.834  -6.970  -8.648  1.00  0.00     0.093 A 
BRANCH   3  13
ATOM     13  C   UNL     1      14.423  -5.037 -11.116  1.00  0.00     0.021 A 
ATOM     14  C   UNL     1      15.019  -5.557 -12.280  1.00  0.00     0.016 A 
ATOM     15  C   UNL     1      16.373  -5.322 -12.544  1.00  0.00     0.047 A 
ATOM     16  C   UNL     1      17.143  -4.570 -11.647  1.00  0.00     0.115 A 
ATOM     17  C   UNL     1      15.195  -4.260 -10.238  1.00  0.00     0.016 A 
ATOM     18  C   UNL     1      16.551  -4.041 -10.495  1.00  0.00     0.047 A 
BRANCH  16  19
ATOM     19  O   UNL     1      18.495  -4.332 -11.893  1.00  0.00    -0.508 OA
ATOM     20  H   UNL     1      19.220  -4.915 -11.490  1.00  0.00     0.293 HD
ENDBRANCH  16  19
ENDBRANCH   3  13
BRANCH  10  21
ATOM     21  O   UNL     1       7.842  -5.372 -10.096  1.00  0.00    -0.507 OA
ATOM     22  H   UNL     1       7.747  -4.827 -10.937  1.00  0.00     0.293 HD
ENDBRANCH  10  21
BRANCH  11  23
ATOM     23  O   UNL     1       9.731  -8.633  -7.130  1.00  0.00    -0.508 OA
ATOM     24  H   UNL     1      10.089  -8.507  -6.191  1.00  0.00     0.293 HD
ENDBRANCH  11  23
ENDBRANCH   1   2
BRANCH   1  25
ATOM     25  C   UNL     1      12.860  -2.305 -12.273  1.00  0.00     0.339 C 
ATOM     26  C   UNL     1      11.941  -1.147 -12.729  1.00  0.00     0.214 C 
ATOM     27  O   UNL     1      14.110  -2.231 -12.934  1.00  0.00    -0.332 OA
ATOM     28  C   UNL     1      12.632   0.206 -12.441  1.00  0.00     0.180 C 
ATOM     29  C   UNL     1      14.818  -1.074 -12.524  1.00  0.00     0.179 C 
ATOM     30  C   UNL     1      14.077   0.207 -12.986  1.00  0.00     0.177 C 
BRANCH  26  31
ATOM     31  O   UNL     1      11.679  -1.249 -14.106  1.00  0.00    -0.384 OA
ATOM     32  H   UNL     1      11.080  -2.029 -14.231  1.00  0.00     0.211 HD
ENDBRANCH  26  31
BRANCH  28  33
ATOM     33  O   UNL     1      12.658   0.450 -11.057  1.00  0.00    -0.387 OA
ATOM     34  H   UNL     1      11.893   1.049 -10.855  1.00  0.00     0.211 HD
ENDBRANCH  28  33
BRANCH  29  35
ATOM     35  C   UNL     1      16.247  -1.149 -13.086  1.00  0.00     0.191 C 
BRANCH  35  36
ATOM     36  O   UNL     1      16.268  -1.823 -14.316  1.00  0.00    -0.394 OA
ATOM     37  H   UNL     1      17.039  -1.457 -14.826  1.00  0.00     0.210 HD
ENDBRANCH  35  36
ENDBRANCH  29  35
BRANCH  30  38
ATOM     38  O   UNL     1      14.043   0.269 -14.392  1.00  0.00    -0.387 OA
ATOM     39  H   UNL     1      14.465   1.126 -14.661  1.00  0.00     0.211 HD
ENDBRANCH  30  38
ENDBRANCH   1  25
TORSDOF 11
ENDMDL
MODEL 3
REMARK VINA RESULT:    -6.150      3.152      5.030
REMARK INTER + INTRA:         -10.164
REMARK INTER:                  -8.408
REMARK INTRA:                  -1.756
REMARK UNBOUND:                -1.317
REMARK SMILES O=c1c(O[C@H]2O[C@@H](CO)[C@@H](O)[C@H](O)[C@H]2O)c(-c2ccc(O)cc2)oc2cc(O)cc(O)c12
REMARK SMILES IDX 4 1 3 2 16 3 24 4 2 5 25 6 1 7 32 8 26 9 30 10 27 11 29 12
REMARK SMILES IDX 17 13 18 14 19 15 20 16 23 17 22 18 21 19 31 21 28 23 5 25
REMARK SMILES IDX 14 26 6 27 12 28 7 29 10 30 15 31 13 33 8 35 9 36 11 38
REMARK H PARENT 21 20 31 22 28 24 15 32 13 34 9 37 11 39
REMARK Flexibility Score: inf
ROOT
ATOM      1  O   UNL     1      17.642  -0.095 -10.634  1.00  0.00    -0.454 OA
ENDROOT
BRANCH   1   2
ATOM      2  C   UNL     1      18.614  -0.568  -9.738  1.00  0.00     0.214 A 
ATOM      3  C   UNL     1      19.983  -0.300  -9.913  1.00  0.00     0.180 A 
ATOM      4  O   UNL     1      20.868  -0.826  -9.074  1.00  0.00    -0.452 OA
ATOM      5  C   UNL     1      18.206  -1.326  -8.633  1.00  0.00     0.239 A 
ATOM      6  C   UNL     1      20.533  -1.576  -8.031  1.00  0.00     0.146 A 
ATOM      7  O   UNL     1      16.973  -1.512  -8.466  1.00  0.00    -0.285 OA
ATOM      8  C   UNL     1      19.171  -1.865  -7.744  1.00  0.00     0.111 A 
ATOM      9  C   UNL     1      21.553  -2.063  -7.212  1.00  0.00     0.094 A 
ATOM     10  C   UNL     1      18.875  -2.663  -6.594  1.00  0.00     0.134 A 
ATOM     11  C   UNL     1      21.253  -2.829  -6.089  1.00  0.00     0.123 A 
ATOM     12  C   UNL     1      19.923  -3.125  -5.787  1.00  0.00     0.093 A 
BRANCH   3  13
ATOM     13  C   UNL     1      20.488   0.568 -10.994  1.00  0.00     0.021 A 
ATOM     14  C   UNL     1      20.628   1.955 -10.804  1.00  0.00     0.016 A 
ATOM     15  C   UNL     1      21.131   2.761 -11.831  1.00  0.00     0.047 A 
ATOM     16  C   UNL     1      21.493   2.188 -13.058  1.00  0.00     0.115 A 
ATOM     17  C   UNL     1      20.881  -0.000 -12.215  1.00  0.00     0.016 A 
ATOM     18  C   UNL     1      21.366   0.808 -13.246  1.00  0.00     0.047 A 
BRANCH  16  19
ATOM     19  O   UNL     1      21.991   2.978 -14.094  1.00  0.00    -0.508 OA
ATOM     20  H   UNL     1      21.386   3.582 -14.640  1.00  0.00     0.293 HD
ENDBRANCH  16  19
ENDBRANCH   3  13
BRANCH  10  21
ATOM     21  O   UNL     1      17.587  -3.040  -6.194  1.00  0.00    -0.507 OA
ATOM     22  H   UNL     1      16.858  -2.425  -5.869  1.00  0.00     0.293 HD
ENDBRANCH  10  21
BRANCH  11  23
ATOM     23  O   UNL     1      22.286  -3.287  -5.271  1.00  0.00    -0.508 OA
ATOM     24  H   UNL     1      22.263  -4.211  -4.857  1.00  0.00     0.293 HD
ENDBRANCH  11  23
ENDBRANCH   1   2
BRANCH   1  25
ATOM     25  C   UNL     1      17.190  -0.801 -11.797  1.00  0.00     0.339 C 
ATOM     26  C   UNL     1      15.647  -0.872 -11.873  1.00  0.00     0.214 C 
ATOM     27  O   UNL     1      17.746  -2.104 -11.832  1.00  0.00    -0.332 OA
ATOM     28  C   UNL     1      15.226  -1.613 -13.164  1.00  0.00     0.180 C 
ATOM     29  C   UNL     1      17.510  -2.708 -13.092  1.00  0.00     0.179 C 
ATOM     30  C   UNL     1      15.993  -2.946 -13.303  1.00  0.00     0.177 C 
BRANCH  26  31
ATOM     31  O   UNL     1      15.138  -1.561 -10.758  1.00  0.00    -0.384 OA
ATOM     32  H   UNL     1      15.443  -1.073  -9.951  1.00  0.00     0.211 HD
ENDBRANCH  26  31
BRANCH  28  33
ATOM     33  O   UNL     1      15.485  -0.809 -14.288  1.00  0.00    -0.387 OA
ATOM     34  H   UNL     1      15.946   0.007 -13.960  1.00  0.00     0.211 HD
ENDBRANCH  28  33
BRANCH  29  35
ATOM     35  C   UNL     1      18.315  -4.016 -13.166  1.00  0.00     0.191 C 
BRANCH  35  36
ATOM     36  O   UNL     1      18.315  -4.677 -11.929  1.00  0.00    -0.394 OA
ATOM     37  H   UNL     1      19.209  -5.101 -11.835  1.00  0.00     0.210 HD
ENDBRANCH  35  36
ENDBRANCH  29  35
BRANCH  30  38
ATOM     38  O   UNL     1      15.507  -3.862 -12.352  1.00  0.00    -0.387 OA
ATOM     39  H   UNL     1      15.239  -3.342 -11.549  1.00  0.00     0.211 HD
ENDBRANCH  30  38
ENDBRANCH   1  25
TORSDOF 11
ENDMDL
MODEL 4
REMARK VINA RESULT:    -6.108      1.143      2.121
REMARK INTER + INTRA:         -10.103
REMARK INTER:                  -9.046
REMARK INTRA:                  -1.057
REMARK UNBOUND:                -1.317
REMARK SMILES O=c1c(O[C@H]2O[C@@H](CO)[C@@H](O)[C@H](O)[C@H]2O)c(-c2ccc(O)cc2)oc2cc(O)cc(O)c12
REMARK SMILES IDX 4 1 3 2 16 3 24 4 2 5 25 6 1 7 32 8 26 9 30 10 27 11 29 12
REMARK SMILES IDX 17 13 18 14 19 15 20 16 23 17 22 18 21 19 31 21 28 23 5 25
REMARK SMILES IDX 14 26 6 27 12 28 7 29 10 30 15 31 13 33 8 35 9 36 11 38
REMARK H PARENT 21 20 31 22 28 24 15 32 13 34 9 37 11 39
REMARK Flexibility Score: inf
ROOT
ATOM      1  O   UNL     1      15.420  -3.449 -13.393  1.00  0.00    -0.454 OA
ENDROOT
BRANCH   1   2
ATOM      2  C   UNL     1      15.892  -2.614 -12.369  1.00  0.00     0.214 A 
ATOM      3  C   UNL     1      15.918  -1.214 -12.500  1.00  0.00     0.180 A 
ATOM      4  O   UNL     1      16.434  -0.472 -11.527  1.00  0.00    -0.452 OA
ATOM      5  C   UNL     1      16.346  -3.193 -11.176  1.00  0.00     0.239 A 
ATOM      6  C   UNL     1      16.906  -0.976 -10.393  1.00  0.00     0.146 A 
ATOM      7  O   UNL     1      16.267  -4.442 -11.058  1.00  0.00    -0.285 OA
ATOM      8  C   UNL     1      16.880  -2.376 -10.147  1.00  0.00     0.111 A 
ATOM      9  C   UNL     1      17.414  -0.093  -9.438  1.00  0.00     0.094 A 
ATOM     10  C   UNL     1      17.386  -2.854  -8.896  1.00  0.00     0.134 A 
ATOM     11  C   UNL     1      17.892  -0.568  -8.220  1.00  0.00     0.123 A 
ATOM     12  C   UNL     1      17.878  -1.938  -7.956  1.00  0.00     0.093 A 
BRANCH   3  13
ATOM     13  C   UNL     1      15.371  -0.520 -13.681  1.00  0.00     0.021 A 
ATOM     14  C   UNL     1      14.000  -0.214 -13.773  1.00  0.00     0.016 A 
ATOM     15  C   UNL     1      13.502   0.465 -14.890  1.00  0.00     0.047 A 
ATOM     16  C   UNL     1      14.368   0.842 -15.926  1.00  0.00     0.115 A 
ATOM     17  C   UNL     1      16.235  -0.114 -14.710  1.00  0.00     0.016 A 
ATOM     18  C   UNL     1      15.733   0.550 -15.833  1.00  0.00     0.047 A 
BRANCH  16  19
ATOM     19  O   UNL     1      13.886   1.515 -17.048  1.00  0.00    -0.508 OA
ATOM     20  H   UNL     1      12.996   1.276 -17.470  1.00  0.00     0.293 HD
ENDBRANCH  16  19
ENDBRANCH   3  13
BRANCH  10  21
ATOM     21  O   UNL     1      17.438  -4.201  -8.520  1.00  0.00    -0.507 OA
ATOM     22  H   UNL     1      16.860  -4.945  -8.877  1.00  0.00     0.293 HD
ENDBRANCH  10  21
BRANCH  11  23
ATOM     23  O   UNL     1      18.375   0.333  -7.271  1.00  0.00    -0.508 OA
ATOM     24  H   UNL     1      17.848   0.554  -6.435  1.00  0.00     0.293 HD
ENDBRANCH  11  23
ENDBRANCH   1   2
BRANCH   1  25
ATOM     25  C   UNL     1      16.167  -4.524 -13.980  1.00  0.00     0.339 C 
ATOM     26  C   UNL     1      17.508  -4.042 -14.581  1.00  0.00     0.214 C 
ATOM     27  O   UNL     1      15.392  -5.181 -14.968  1.00  0.00    -0.332 OA
ATOM     28  C   UNL     1      18.277  -5.249 -15.165  1.00  0.00     0.180 C 
ATOM     29  C   UNL     1      16.021  -6.386 -15.367  1.00  0.00     0.179 C 
ATOM     30  C   UNL     1      17.362  -6.086 -16.086  1.00  0.00     0.177 C 
BRANCH  26  31
ATOM     31  O   UNL     1      17.273  -3.105 -15.602  1.00  0.00    -0.384 OA
ATOM     32  H   UNL     1      18.065  -2.509 -15.639  1.00  0.00     0.211 HD
ENDBRANCH  26  31
BRANCH  28  33
ATOM     33  O   UNL     1      18.758  -6.064 -14.125  1.00  0.00    -0.387 OA
ATOM     34  H   UNL     1      17.965  -6.459 -13.677  1.00  0.00     0.211 HD
ENDBRANCH  28  33
BRANCH  29  35
ATOM     35  C   UNL     1      15.050  -7.171 -16.264  1.00  0.00     0.191 C 
BRANCH  35  36
ATOM     36  O   UNL     1      14.368  -6.313 -17.139  1.00  0.00    -0.394 OA
ATOM     37  H   UNL     1      14.394  -5.409 -16.726  1.00  0.00     0.210 HD
ENDBRANCH  35  36
ENDBRANCH  29  35
BRANCH  30  38
ATOM     38  O   UNL     1      17.127  -5.374 -17.277  1.00  0.00    -0.387 OA
ATOM     39  H   UNL     1      18.004  -5.249 -17.725  1.00  0.00     0.211 HD
ENDBRANCH  30  38
ENDBRANCH   1  25
TORSDOF 11
ENDMDL
MODEL 5
REMARK VINA RESULT:    -6.000      1.824      5.511
REMARK INTER + INTRA:          -9.948
REMARK INTER:                  -8.506
REMARK INTRA:                  -1.442
REMARK UNBOUND:                -1.317
REMARK SMILES O=c1c(O[C@H]2O[C@@H](CO)[C@@H](O)[C@H](O)[C@H]2O)c(-c2ccc(O)cc2)oc2cc(O)cc(O)c12
REMARK SMILES IDX 4 1 3 2 16 3 24 4 2 5 25 6 1 7 32 8 26 9 30 10 27 11 29 12
REMARK SMILES IDX 17 13 18 14 19 15 20 16 23 17 22 18 21 19 31 21 28 23 5 25
REMARK SMILES IDX 14 26 6 27 12 28 7 29 10 30 15 31 13 33 8 35 9 36 11 38
REMARK H PARENT 21 20 31 22 28 24 15 32 13 34 9 37 11 39
REMARK Flexibility Score: inf
ROOT
ATOM      1  O   UNL     1      16.757  -0.639 -14.176  1.00  0.00    -0.454 OA
ENDROOT
BRANCH   1   2
ATOM      2  C   UNL     1      16.948  -1.313 -12.960  1.00  0.00     0.214 A 
ATOM      3  C   UNL     1      16.975  -2.717 -12.883  1.00  0.00     0.180 A 
ATOM      4  O   UNL     1      17.093  -3.308 -11.699  1.00  0.00    -0.452 OA
ATOM      5  C   UNL     1      17.123  -0.565 -11.789  1.00  0.00     0.239 A 
ATOM      6  C   UNL     1      17.230  -2.642 -10.558  1.00  0.00     0.146 A 
ATOM      7  O   UNL     1      17.147   0.688 -11.887  1.00  0.00    -0.285 OA
ATOM      8  C   UNL     1      17.261  -1.221 -10.539  1.00  0.00     0.111 A 
ATOM      9  C   UNL     1      17.357  -3.374  -9.377  1.00  0.00     0.094 A 
ATOM     10  C   UNL     1      17.430  -0.564  -9.279  1.00  0.00     0.134 A 
ATOM     11  C   UNL     1      17.534  -2.725  -8.158  1.00  0.00     0.123 A 
ATOM     12  C   UNL     1      17.567  -1.331  -8.114  1.00  0.00     0.093 A 
BRANCH   3  13
ATOM     13  C   UNL     1      16.895  -3.577 -14.078  1.00  0.00     0.021 A 
ATOM     14  C   UNL     1      17.826  -3.453 -15.125  1.00  0.00     0.016 A 
ATOM     15  C   UNL     1      17.750  -4.293 -16.242  1.00  0.00     0.047 A 
ATOM     16  C   UNL     1      16.740  -5.262 -16.323  1.00  0.00     0.115 A 
ATOM     17  C   UNL     1      15.905  -4.570 -14.155  1.00  0.00     0.016 A 
ATOM     18  C   UNL     1      15.819  -5.397 -15.278  1.00  0.00     0.047 A 
BRANCH  16  19
ATOM     19  O   UNL     1      16.647  -6.103 -17.431  1.00  0.00    -0.508 OA
ATOM     20  H   UNL     1      15.779  -6.567 -17.676  1.00  0.00     0.293 HD
ENDBRANCH  16  19
ENDBRANCH   3  13
BRANCH  10  21
ATOM     21  O   UNL     1      17.466   0.825  -9.103  1.00  0.00    -0.507 OA
ATOM     22  H   UNL     1      16.836   1.496  -9.511  1.00  0.00     0.293 HD
ENDBRANCH  10  21
BRANCH  11  23
ATOM     23  O   UNL     1      17.682  -3.476  -6.992  1.00  0.00    -0.508 OA
ATOM     24  H   UNL     1      17.287  -4.406  -6.908  1.00  0.00     0.293 HD
ENDBRANCH  11  23
ENDBRANCH   1   2
BRANCH   1  25
ATOM     25  C   UNL     1      15.497  -0.137 -14.643  1.00  0.00     0.339 C 
ATOM     26  C   UNL     1      15.568   1.363 -15.012  1.00  0.00     0.214 C 
ATOM     27  O   UNL     1      14.487  -0.361 -13.676  1.00  0.00    -0.332 OA
ATOM     28  C   UNL     1      14.192   1.831 -15.540  1.00  0.00     0.180 C 
ATOM     29  C   UNL     1      13.208  -0.102 -14.229  1.00  0.00     0.179 C 
ATOM     30  C   UNL     1      13.063   1.401 -14.578  1.00  0.00     0.177 C 
BRANCH  26  31
ATOM     31  O   UNL     1      15.912   2.124 -13.881  1.00  0.00    -0.384 OA
ATOM     32  H   UNL     1      15.357   1.793 -13.128  1.00  0.00     0.211 HD
ENDBRANCH  26  31
BRANCH  28  33
ATOM     33  O   UNL     1      13.950   1.282 -16.812  1.00  0.00    -0.387 OA
ATOM     34  H   UNL     1      12.974   1.356 -16.978  1.00  0.00     0.211 HD
ENDBRANCH  28  33
BRANCH  29  35
ATOM     35  C   UNL     1      12.138  -0.568 -13.228  1.00  0.00     0.191 C 
BRANCH  35  36
ATOM     36  O   UNL     1      12.589  -0.424 -11.908  1.00  0.00    -0.394 OA
ATOM     37  H   UNL     1      12.860   0.527 -11.803  1.00  0.00     0.210 HD
ENDBRANCH  35  36
ENDBRANCH  29  35
BRANCH  30  38
ATOM     38  O   UNL     1      13.129   2.181 -13.408  1.00  0.00    -0.387 OA
ATOM     39  H   UNL     1      12.292   2.023 -12.898  1.00  0.00     0.211 HD
ENDBRANCH  30  38
ENDBRANCH   1  25
TORSDOF 11
ENDMDL
MODEL 6
REMARK VINA RESULT:    -5.893      1.689      5.654
REMARK INTER + INTRA:          -9.794
REMARK INTER:                  -8.734
REMARK INTRA:                  -1.060
REMARK UNBOUND:                -1.317
REMARK SMILES O=c1c(O[C@H]2O[C@@H](CO)[C@@H](O)[C@H](O)[C@H]2O)c(-c2ccc(O)cc2)oc2cc(O)cc(O)c12
REMARK SMILES IDX 4 1 3 2 16 3 24 4 2 5 25 6 1 7 32 8 26 9 30 10 27 11 29 12
REMARK SMILES IDX 17 13 18 14 19 15 20 16 23 17 22 18 21 19 31 21 28 23 5 25
REMARK SMILES IDX 14 26 6 27 12 28 7 29 10 30 15 31 13 33 8 35 9 36 11 38
REMARK H PARENT 21 20 31 22 28 24 15 32 13 34 9 37 11 39
REMARK Flexibility Score: inf
ROOT
ATOM      1  O   UNL     1      17.196  -2.119 -13.735  1.00  0.00    -0.454 OA
ENDROOT
BRANCH   1   2
ATOM      2  C   UNL     1      16.155  -1.214 -13.476  1.00  0.00     0.214 A 
ATOM      3  C   UNL     1      15.603  -1.061 -12.192  1.00  0.00     0.180 A 
ATOM      4  O   UNL     1      14.575  -0.239 -12.012  1.00  0.00    -0.452 OA
ATOM      5  C   UNL     1      15.656  -0.435 -14.528  1.00  0.00     0.239 A 
ATOM      6  C   UNL     1      14.046   0.496 -12.983  1.00  0.00     0.146 A 
ATOM      7  O   UNL     1      16.197  -0.549 -15.656  1.00  0.00    -0.285 OA
ATOM      8  C   UNL     1      14.566   0.445 -14.306  1.00  0.00     0.111 A 
ATOM      9  C   UNL     1      12.974   1.333 -12.670  1.00  0.00     0.094 A 
ATOM     10  C   UNL     1      13.963   1.277 -15.303  1.00  0.00     0.134 A 
ATOM     11  C   UNL     1      12.404   2.147 -13.645  1.00  0.00     0.123 A 
ATOM     12  C   UNL     1      12.897   2.114 -14.950  1.00  0.00     0.093 A 
BRANCH   3  13
ATOM     13  C   UNL     1      16.133  -1.770 -11.013  1.00  0.00     0.021 A 
ATOM     14  C   UNL     1      15.722  -3.081 -10.708  1.00  0.00     0.016 A 
ATOM     15  C   UNL     1      16.253  -3.748  -9.599  1.00  0.00     0.047 A 
ATOM     16  C   UNL     1      17.196  -3.110  -8.782  1.00  0.00     0.115 A 
ATOM     17  C   UNL     1      17.100  -1.151 -10.206  1.00  0.00     0.016 A 
ATOM     18  C   UNL     1      17.617  -1.811  -9.088  1.00  0.00     0.047 A 
BRANCH  16  19
ATOM     19  O   UNL     1      17.731  -3.759  -7.670  1.00  0.00    -0.508 OA
ATOM     20  H   UNL     1      17.362  -4.646  -7.343  1.00  0.00     0.293 HD
ENDBRANCH  16  19
ENDBRANCH   3  13
BRANCH  10  21
ATOM     21  O   UNL     1      14.357   1.324 -16.646  1.00  0.00    -0.507 OA
ATOM     22  H   UNL     1      14.032   1.975 -17.342  1.00  0.00     0.293 HD
ENDBRANCH  10  21
BRANCH  11  23
ATOM     23  O   UNL     1      11.348   2.992 -13.305  1.00  0.00    -0.508 OA
ATOM     24  H   UNL     1      11.372   3.982 -13.521  1.00  0.00     0.293 HD
ENDBRANCH  11  23
ENDBRANCH   1   2
BRANCH   1  25
ATOM     25  C   UNL     1      17.018  -3.442 -14.259  1.00  0.00     0.339 C 
ATOM     26  C   UNL     1      17.173  -4.527 -13.166  1.00  0.00     0.214 C 
ATOM     27  O   UNL     1      17.924  -3.679 -15.321  1.00  0.00    -0.332 OA
ATOM     28  C   UNL     1      16.935  -5.923 -13.787  1.00  0.00     0.180 C 
ATOM     29  C   UNL     1      17.586  -4.876 -16.001  1.00  0.00     0.179 C 
ATOM     30  C   UNL     1      17.776  -6.100 -15.070  1.00  0.00     0.177 C 
BRANCH  26  31
ATOM     31  O   UNL     1      18.466  -4.479 -12.617  1.00  0.00    -0.384 OA
ATOM     32  H   UNL     1      19.072  -4.146 -13.327  1.00  0.00     0.211 HD
ENDBRANCH  26  31
BRANCH  28  33
ATOM     33  O   UNL     1      15.574  -6.088 -14.098  1.00  0.00    -0.387 OA
ATOM     34  H   UNL     1      15.259  -5.228 -14.482  1.00  0.00     0.211 HD
ENDBRANCH  28  33
BRANCH  29  35
ATOM     35  C   UNL     1      18.446  -4.977 -17.271  1.00  0.00     0.191 C 
BRANCH  35  36
ATOM     36  O   UNL     1      18.967  -6.270 -17.423  1.00  0.00    -0.394 OA
ATOM     37  H   UNL     1      19.026  -6.439 -18.401  1.00  0.00     0.210 HD
ENDBRANCH  35  36
ENDBRANCH  29  35
BRANCH  30  38
ATOM     38  O   UNL     1      19.132  -6.240 -14.720  1.00  0.00    -0.387 OA
ATOM     39  H   UNL     1      19.540  -6.878 -15.363  1.00  0.00     0.211 HD
ENDBRANCH  30  38
ENDBRANCH   1  25
TORSDOF 11
ENDMDL
MODEL 7
REMARK VINA RESULT:    -5.873      1.738      5.890
REMARK INTER + INTRA:          -9.765
REMARK INTER:                  -8.050
REMARK INTRA:                  -1.715
REMARK UNBOUND:                -1.317
REMARK SMILES O=c1c(O[C@H]2O[C@@H](CO)[C@@H](O)[C@H](O)[C@H]2O)c(-c2ccc(O)cc2)oc2cc(O)cc(O)c12
REMARK SMILES IDX 4 1 3 2 16 3 24 4 2 5 25 6 1 7 32 8 26 9 30 10 27 11 29 12
REMARK SMILES IDX 17 13 18 14 19 15 20 16 23 17 22 18 21 19 31 21 28 23 5 25
REMARK SMILES IDX 14 26 6 27 12 28 7 29 10 30 15 31 13 33 8 35 9 36 11 38
REMARK H PARENT 21 20 31 22 28 24 15 32 13 34 9 37 11 39
REMARK Flexibility Score: inf
ROOT
ATOM      1  O   UNL     1      17.411  -1.830 -12.649  1.00  0.00    -0.454 OA
ENDROOT
BRANCH   1   2
ATOM      2  C   UNL     1      16.302  -1.055 -12.278  1.00  0.00     0.214 A 
ATOM      3  C   UNL     1      15.974  -0.819 -10.931  1.00  0.00     0.180 A 
ATOM      4  O   UNL     1      14.877  -0.132 -10.633  1.00  0.00    -0.452 OA
ATOM      5  C   UNL     1      15.501  -0.493 -13.281  1.00  0.00     0.239 A 
ATOM      6  C   UNL     1      14.069   0.393 -11.547  1.00  0.00     0.146 A 
ATOM      7  O   UNL     1      15.840  -0.672 -14.478  1.00  0.00    -0.285 OA
ATOM      8  C   UNL     1      14.342   0.248 -12.934  1.00  0.00     0.111 A 
ATOM      9  C   UNL     1      12.951   1.105 -11.110  1.00  0.00     0.094 A 
ATOM     10  C   UNL     1      13.443   0.854 -13.868  1.00  0.00     0.134 A 
ATOM     11  C   UNL     1      12.090   1.701 -12.027  1.00  0.00     0.123 A 
ATOM     12  C   UNL     1      12.337   1.572 -13.395  1.00  0.00     0.093 A 
BRANCH   3  13
ATOM     13  C   UNL     1      16.817  -1.292  -9.817  1.00  0.00     0.021 A 
ATOM     14  C   UNL     1      17.765  -0.444  -9.214  1.00  0.00     0.016 A 
ATOM     15  C   UNL     1      18.540  -0.901  -8.143  1.00  0.00     0.047 A 
ATOM     16  C   UNL     1      18.376  -2.210  -7.667  1.00  0.00     0.115 A 
ATOM     17  C   UNL     1      16.640  -2.590  -9.315  1.00  0.00     0.016 A 
ATOM     18  C   UNL     1      17.427  -3.051  -8.256  1.00  0.00     0.047 A 
BRANCH  16  19
ATOM     19  O   UNL     1      19.145  -2.682  -6.604  1.00  0.00    -0.508 OA
ATOM     20  H   UNL     1      18.963  -3.582  -6.174  1.00  0.00     0.293 HD
ENDBRANCH  16  19
ENDBRANCH   3  13
BRANCH  10  21
ATOM     21  O   UNL     1      13.574   0.785 -15.261  1.00  0.00    -0.507 OA
ATOM     22  H   UNL     1      14.127   0.120 -15.777  1.00  0.00     0.293 HD
ENDBRANCH  10  21
BRANCH  11  23
ATOM     23  O   UNL     1      10.990   2.427 -11.569  1.00  0.00    -0.508 OA
ATOM     24  H   UNL     1      10.991   3.440 -11.561  1.00  0.00     0.293 HD
ENDBRANCH  11  23
ENDBRANCH   1   2
BRANCH   1  25
ATOM     25  C   UNL     1      17.381  -3.248 -12.865  1.00  0.00     0.339 C 
ATOM     26  C   UNL     1      17.855  -3.631 -14.287  1.00  0.00     0.214 C 
ATOM     27  O   UNL     1      16.081  -3.757 -12.624  1.00  0.00    -0.332 OA
ATOM     28  C   UNL     1      17.833  -5.170 -14.441  1.00  0.00     0.180 C 
ATOM     29  C   UNL     1      16.105  -5.173 -12.588  1.00  0.00     0.179 C 
ATOM     30  C   UNL     1      16.476  -5.746 -13.980  1.00  0.00     0.177 C 
BRANCH  26  31
ATOM     31  O   UNL     1      17.008  -3.057 -15.251  1.00  0.00    -0.384 OA
ATOM     32  H   UNL     1      17.288  -2.112 -15.358  1.00  0.00     0.211 HD
ENDBRANCH  26  31
BRANCH  28  33
ATOM     33  O   UNL     1      18.865  -5.747 -13.681  1.00  0.00    -0.387 OA
ATOM     34  H   UNL     1      18.649  -5.577 -12.727  1.00  0.00     0.211 HD
ENDBRANCH  28  33
BRANCH  29  35
ATOM     35  C   UNL     1      14.733  -5.674 -12.105  1.00  0.00     0.191 C 
BRANCH  35  36
ATOM     36  O   UNL     1      14.380  -6.869 -12.747  1.00  0.00    -0.394 OA
ATOM     37  H   UNL     1      13.388  -6.882 -12.797  1.00  0.00     0.210 HD
ENDBRANCH  35  36
ENDBRANCH  29  35
BRANCH  30  38
ATOM     38  O   UNL     1      15.486  -5.412 -14.923  1.00  0.00    -0.387 OA
ATOM     39  H   UNL     1      14.624  -5.776 -14.589  1.00  0.00     0.211 HD
ENDBRANCH  30  38
ENDBRANCH   1  25
TORSDOF 11
ENDMDL
MODEL 8
REMARK VINA RESULT:    -5.837      2.159      6.760
REMARK INTER + INTRA:          -9.713
REMARK INTER:                  -8.329
REMARK INTRA:                  -1.384
REMARK UNBOUND:                -1.317
REMARK SMILES O=c1c(O[C@H]2O[C@@H](CO)[C@@H](O)[C@H](O)[C@H]2O)c(-c2ccc(O)cc2)oc2cc(O)cc(O)c12
REMARK SMILES IDX 4 1 3 2 16 3 24 4 2 5 25 6 1 7 32 8 26 9 30 10 27 11 29 12
REMARK SMILES IDX 17 13 18 14 19 15 20 16 23 17 22 18 21 19 31 21 28 23 5 25
REMARK SMILES IDX 14 26 6 27 12 28 7 29 10 30 15 31 13 33 8 35 9 36 11 38
REMARK H PARENT 21 20 31 22 28 24 15 32 13 34 9 37 11 39
REMARK Flexibility Score: inf
ROOT
ATOM      1  O   UNL     1      17.507  -0.869 -11.156  1.00  0.00    -0.454 OA
ENDROOT
BRANCH   1   2
ATOM      2  C   UNL     1      16.193  -0.915 -11.649  1.00  0.00     0.214 A 
ATOM      3  C   UNL     1      15.737  -1.970 -12.458  1.00  0.00     0.180 A 
ATOM      4  O   UNL     1      14.504  -1.934 -12.952  1.00  0.00    -0.452 OA
ATOM      5  C   UNL     1      15.308   0.119 -11.317  1.00  0.00     0.239 A 
ATOM      6  C   UNL     1      13.640  -0.960 -12.693  1.00  0.00     0.146 A 
ATOM      7  O   UNL     1      15.720   1.027 -10.551  1.00  0.00    -0.285 OA
ATOM      8  C   UNL     1      13.992   0.127 -11.848  1.00  0.00     0.111 A 
ATOM      9  C   UNL     1      12.367  -1.038 -13.261  1.00  0.00     0.094 A 
ATOM     10  C   UNL     1      13.008   1.135 -11.593  1.00  0.00     0.134 A 
ATOM     11  C   UNL     1      11.413  -0.059 -12.996  1.00  0.00     0.123 A 
ATOM     12  C   UNL     1      11.737   1.018 -12.170  1.00  0.00     0.093 A 
BRANCH   3  13
ATOM     13  C   UNL     1      16.572  -3.144 -12.774  1.00  0.00     0.021 A 
ATOM     14  C   UNL     1      16.581  -4.275 -11.937  1.00  0.00     0.016 A 
ATOM     15  C   UNL     1      17.361  -5.389 -12.264  1.00  0.00     0.047 A 
ATOM     16  C   UNL     1      18.143  -5.381 -13.428  1.00  0.00     0.115 A 
ATOM     17  C   UNL     1      17.336  -3.156 -13.952  1.00  0.00     0.016 A 
ATOM     18  C   UNL     1      18.128  -4.263 -14.268  1.00  0.00     0.047 A 
BRANCH  16  19
ATOM     19  O   UNL     1      18.930  -6.481 -13.764  1.00  0.00    -0.508 OA
ATOM     20  H   UNL     1      19.943  -6.431 -13.766  1.00  0.00     0.293 HD
ENDBRANCH  16  19
ENDBRANCH   3  13
BRANCH  10  21
ATOM     21  O   UNL     1      13.214   2.266 -10.794  1.00  0.00    -0.507 OA
ATOM     22  H   UNL     1      13.760   3.078 -11.037  1.00  0.00     0.293 HD
ENDBRANCH  10  21
BRANCH  11  23
ATOM     23  O   UNL     1      10.141  -0.167 -13.556  1.00  0.00    -0.508 OA
ATOM     24  H   UNL     1       9.686   0.625 -13.994  1.00  0.00     0.293 HD
ENDBRANCH  11  23
ENDBRANCH   1   2
BRANCH   1  25
ATOM     25  C   UNL     1      18.022  -1.716 -10.120  1.00  0.00     0.339 C 
ATOM     26  C   UNL     1      17.178  -1.633  -8.826  1.00  0.00     0.214 C 
ATOM     27  O   UNL     1      19.375  -1.397  -9.849  1.00  0.00    -0.332 OA
ATOM     28  C   UNL     1      17.764  -2.594  -7.765  1.00  0.00     0.180 C 
ATOM     29  C   UNL     1      19.958  -2.385  -9.017  1.00  0.00     0.179 C 
ATOM     30  C   UNL     1      19.287  -2.383  -7.620  1.00  0.00     0.177 C 
BRANCH  26  31
ATOM     31  O   UNL     1      17.193  -0.322  -8.321  1.00  0.00    -0.384 OA
ATOM     32  H   UNL     1      16.614  -0.314  -7.516  1.00  0.00     0.211 HD
ENDBRANCH  26  31
BRANCH  28  33
ATOM     33  O   UNL     1      17.514  -3.928  -8.131  1.00  0.00    -0.387 OA
ATOM     34  H   UNL     1      16.741  -3.917  -8.753  1.00  0.00     0.211 HD
ENDBRANCH  28  33
BRANCH  29  35
ATOM     35  C   UNL     1      21.470  -2.123  -8.932  1.00  0.00     0.191 C 
BRANCH  35  36
ATOM     36  O   UNL     1      21.988  -2.563  -7.705  1.00  0.00    -0.394 OA
ATOM     37  H   UNL     1      21.331  -2.294  -7.008  1.00  0.00     0.210 HD
ENDBRANCH  35  36
ENDBRANCH  29  35
BRANCH  30  38
ATOM     38  O   UNL     1      19.525  -1.158  -6.968  1.00  0.00    -0.387 OA
ATOM     39  H   UNL     1      18.664  -0.664  -6.942  1.00  0.00     0.211 HD
ENDBRANCH  30  38
ENDBRANCH   1  25
TORSDOF 11
ENDMDL
MODEL 9
REMARK VINA RESULT:    -5.827      3.945      7.154
REMARK INTER + INTRA:          -9.699
REMARK INTER:                  -7.987
REMARK INTRA:                  -1.712
REMARK UNBOUND:                -1.317
REMARK SMILES O=c1c(O[C@H]2O[C@@H](CO)[C@@H](O)[C@H](O)[C@H]2O)c(-c2ccc(O)cc2)oc2cc(O)cc(O)c12
REMARK SMILES IDX 4 1 3 2 16 3 24 4 2 5 25 6 1 7 32 8 26 9 30 10 27 11 29 12
REMARK SMILES IDX 17 13 18 14 19 15 20 16 23 17 22 18 21 19 31 21 28 23 5 25
REMARK SMILES IDX 14 26 6 27 12 28 7 29 10 30 15 31 13 33 8 35 9 36 11 38
REMARK H PARENT 21 20 31 22 28 24 15 32 13 34 9 37 11 39
REMARK Flexibility Score: inf
ROOT
ATOM      1  O   UNL     1      16.424   1.341 -10.276  1.00  0.00    -0.454 OA
ENDROOT
BRANCH   1   2
ATOM      2  C   UNL     1      15.807   1.896  -9.145  1.00  0.00     0.214 A 
ATOM      3  C   UNL     1      16.550   2.424  -8.074  1.00  0.00     0.180 A 
ATOM      4  O   UNL     1      15.918   2.879  -6.997  1.00  0.00    -0.452 OA
ATOM      5  C   UNL     1      14.408   1.932  -9.084  1.00  0.00     0.239 A 
ATOM      6  C   UNL     1      14.596   2.904  -6.879  1.00  0.00     0.146 A 
ATOM      7  O   UNL     1      13.762   1.503 -10.074  1.00  0.00    -0.285 OA
ATOM      8  C   UNL     1      13.758   2.436  -7.928  1.00  0.00     0.111 A 
ATOM      9  C   UNL     1      14.047   3.416  -5.703  1.00  0.00     0.094 A 
ATOM     10  C   UNL     1      12.340   2.508  -7.746  1.00  0.00     0.134 A 
ATOM     11  C   UNL     1      12.666   3.494  -5.542  1.00  0.00     0.123 A 
ATOM     12  C   UNL     1      11.824   3.040  -6.558  1.00  0.00     0.093 A 
BRANCH   3  13
ATOM     13  C   UNL     1      18.022   2.513  -8.099  1.00  0.00     0.021 A 
ATOM     14  C   UNL     1      18.672   3.591  -8.727  1.00  0.00     0.016 A 
ATOM     15  C   UNL     1      20.069   3.673  -8.722  1.00  0.00     0.047 A 
ATOM     16  C   UNL     1      20.827   2.676  -8.093  1.00  0.00     0.115 A 
ATOM     17  C   UNL     1      18.789   1.535  -7.447  1.00  0.00     0.016 A 
ATOM     18  C   UNL     1      20.184   1.608  -7.457  1.00  0.00     0.047 A 
BRANCH  16  19
ATOM     19  O   UNL     1      22.220   2.739  -8.084  1.00  0.00    -0.508 OA
ATOM     20  H   UNL     1      22.781   2.063  -7.578  1.00  0.00     0.293 HD
ENDBRANCH  16  19
ENDBRANCH   3  13
BRANCH  10  21
ATOM     21  O   UNL     1      11.394   2.074  -8.682  1.00  0.00    -0.507 OA
ATOM     22  H   UNL     1      11.476   1.275  -9.290  1.00  0.00     0.293 HD
ENDBRANCH  10  21
BRANCH  11  23
ATOM     23  O   UNL     1      12.138   4.030  -4.368  1.00  0.00    -0.508 OA
ATOM     24  H   UNL     1      12.125   5.030  -4.202  1.00  0.00     0.293 HD
ENDBRANCH  11  23
ENDBRANCH   1   2
BRANCH   1  25
ATOM     25  C   UNL     1      16.912  -0.005 -10.364  1.00  0.00     0.339 C 
ATOM     26  C   UNL     1      16.206  -0.810 -11.480  1.00  0.00     0.214 C 
ATOM     27  O   UNL     1      16.771  -0.662  -9.117  1.00  0.00    -0.332 OA
ATOM     28  C   UNL     1      16.801  -2.235 -11.544  1.00  0.00     0.180 C 
ATOM     29  C   UNL     1      17.476  -1.892  -9.126  1.00  0.00     0.179 C 
ATOM     30  C   UNL     1      16.837  -2.876 -10.139  1.00  0.00     0.177 C 
BRANCH  26  31
ATOM     31  O   UNL     1      14.828  -0.895 -11.219  1.00  0.00    -0.384 OA
ATOM     32  H   UNL     1      14.414  -0.063 -11.566  1.00  0.00     0.211 HD
ENDBRANCH  26  31
BRANCH  28  33
ATOM     33  O   UNL     1      18.105  -2.192 -12.067  1.00  0.00    -0.387 OA
ATOM     34  H   UNL     1      18.564  -3.021 -11.769  1.00  0.00     0.211 HD
ENDBRANCH  28  33
BRANCH  29  35
ATOM     35  C   UNL     1      17.485  -2.461  -7.697  1.00  0.00     0.191 C 
BRANCH  35  36
ATOM     36  O   UNL     1      17.706  -3.846  -7.710  1.00  0.00    -0.394 OA
ATOM     37  H   UNL     1      18.615  -3.990  -7.334  1.00  0.00     0.210 HD
ENDBRANCH  35  36
ENDBRANCH  29  35
BRANCH  30  38
ATOM     38  O   UNL     1      15.525  -3.199  -9.743  1.00  0.00    -0.387 OA
ATOM     39  H   UNL     1      15.439  -4.187  -9.782  1.00  0.00     0.211 HD
ENDBRANCH  30  38
ENDBRANCH   1  25
TORSDOF 11
ENDMDL
