MODEL 1
REMARK VINA RESULT:    -7.287      0.000      0.000
REMARK INTER + INTRA:          -8.204
REMARK INTER:                  -7.926
REMARK INTRA:                  -0.278
REMARK UNBOUND:                -0.278
REMARK SMILES C[C@@H]1[C@@H](C)CC[C@@]2(C(=O)[O-])CC[C@@]3(C)C(=CC[C@@H]4[C@]5(C)CC[C@H](O)C(C)(C)[C@@H]5CC[C@]43C)[C@@H]12
REMARK SMILES IDX 7 1 6 2 11 3 33 4 5 5 12 6 15 7 2 8 3 9 13 10 16 11 1 12
REMARK SMILES IDX 4 13 14 14 31 15 17 16 18 17 30 18 32 19 19 20 29 21 28 22
REMARK SMILES IDX 21 23 20 24 25 25 22 26 23 27 26 28 27 29 8 30 9 31 10 32
REMARK SMILES IDX 24 33
REMARK H PARENT 24 34
REMARK Flexibility Score: inf
ROOT
ATOM      1  C   UNL     1      -5.019  25.343  31.470  1.00  0.00     0.017 C 
ATOM      2  C   UNL     1      -6.457  24.887  31.897  1.00  0.00     0.014 C 
ATOM      3  C   UNL     1      -4.485  24.310  30.432  1.00  0.00     0.014 C 
ATOM      4  C   UNL     1      -5.067  26.818  30.904  1.00  0.00     0.030 C 
ATOM      5  C   UNL     1      -7.301  26.045  32.436  1.00  0.00     0.004 C 
ATOM      6  C   UNL     1      -3.225  24.761  29.664  1.00  0.00     0.013 C 
ATOM      7  C   UNL     1      -3.845  27.144  30.028  1.00  0.00    -0.063 C 
ATOM      8  C   UNL     1      -6.440  27.212  30.278  1.00  0.00    -0.003 C 
ATOM      9  C   UNL     1      -7.598  27.089  31.329  1.00  0.00    -0.011 C 
ATOM     10  C   UNL     1      -3.378  26.140  28.941  1.00  0.00    -0.006 C 
ATOM     11  C   UNL     1      -3.093  28.216  30.409  1.00  0.00    -0.027 C 
ATOM     12  C   UNL     1      -6.411  28.642  29.697  1.00  0.00     0.008 C 
ATOM     13  C   UNL     1      -8.936  26.778  30.635  1.00  0.00     0.008 C 
ATOM     14  C   UNL     1      -4.481  25.987  27.837  1.00  0.00     0.017 C 
ATOM     15  C   UNL     1      -2.006  26.652  28.246  1.00  0.00    -0.020 C 
ATOM     16  C   UNL     1      -1.667  28.468  29.979  1.00  0.00     0.032 C 
ATOM     17  C   UNL     1      -1.053  27.190  29.380  1.00  0.00     0.006 C 
ATOM     18  C   UNL     1      -1.276  25.535  27.430  1.00  0.00     0.008 C 
ATOM     19  C   UNL     1      -2.376  27.798  27.230  1.00  0.00     0.012 C 
ATOM     20  C   UNL     1       0.518  27.206  29.106  1.00  0.00    -0.025 C 
ATOM     21  C   UNL     1      -0.147  24.831  28.195  1.00  0.00     0.005 C 
ATOM     22  C   UNL     1       1.017  25.787  28.582  1.00  0.00     0.003 C 
ATOM     23  C   UNL     1       0.935  28.314  28.108  1.00  0.00     0.010 C 
ATOM     24  C   UNL     1       1.219  27.518  30.474  1.00  0.00     0.012 C 
ATOM     25  C   UNL     1       2.227  25.804  27.537  1.00  0.00    -0.006 C 
ATOM     26  C   UNL     1       2.452  28.390  27.864  1.00  0.00     0.033 C 
ATOM     27  C   UNL     1       3.171  27.017  27.814  1.00  0.00     0.120 C 
ATOM     28  C   UNL     1       3.073  24.514  27.738  1.00  0.00     0.014 C 
ATOM     29  C   UNL     1       1.784  25.811  26.044  1.00  0.00     0.014 C 
ENDROOT
BRANCH   1  30
ATOM     30  C   UNL     1      -4.076  25.302  32.676  1.00  0.00     0.048 C 
ATOM     31  O   UNL     1      -3.913  26.317  33.406  1.00  0.00    -0.550 OA
ATOM     32  O   UNL     1      -3.459  24.116  33.049  1.00  0.00    -0.550 OA
ENDBRANCH   1  30
BRANCH  27  33
ATOM     33  O   UNL     1       4.198  27.070  26.852  1.00  0.00    -0.393 OA
ATOM     34  H   UNL     1       3.792  27.406  26.011  1.00  0.00     0.210 HD
ENDBRANCH  27  33
TORSDOF 2
ENDMDL
MODEL 2
REMARK VINA RESULT:    -7.146      1.940      3.785
REMARK INTER + INTRA:          -8.051
REMARK INTER:                  -7.778
REMARK INTRA:                  -0.272
REMARK UNBOUND:                -0.278
REMARK SMILES C[C@@H]1[C@@H](C)CC[C@@]2(C(=O)[O-])CC[C@@]3(C)C(=CC[C@@H]4[C@]5(C)CC[C@H](O)C(C)(C)[C@@H]5CC[C@]43C)[C@@H]12
REMARK SMILES IDX 7 1 6 2 11 3 33 4 5 5 12 6 15 7 2 8 3 9 13 10 16 11 1 12
REMARK SMILES IDX 4 13 14 14 31 15 17 16 18 17 30 18 32 19 19 20 29 21 28 22
REMARK SMILES IDX 21 23 20 24 25 25 22 26 23 27 26 28 27 29 8 30 9 31 10 32
REMARK SMILES IDX 24 33
REMARK H PARENT 24 34
REMARK Flexibility Score: inf
ROOT
ATOM      1  C   UNL     1      -4.714  26.125  31.702  1.00  0.00     0.017 C 
ATOM      2  C   UNL     1      -5.611  25.859  32.960  1.00  0.00     0.014 C 
ATOM      3  C   UNL     1      -3.494  26.979  32.165  1.00  0.00     0.014 C 
ATOM      4  C   UNL     1      -4.292  24.754  31.039  1.00  0.00     0.030 C 
ATOM      5  C   UNL     1      -6.488  24.614  32.798  1.00  0.00     0.004 C 
ATOM      6  C   UNL     1      -2.346  27.071  31.138  1.00  0.00     0.013 C 
ATOM      7  C   UNL     1      -3.049  24.900  30.144  1.00  0.00    -0.063 C 
ATOM      8  C   UNL     1      -4.236  23.558  32.040  1.00  0.00    -0.003 C 
ATOM      9  C   UNL     1      -5.629  23.325  32.722  1.00  0.00    -0.011 C 
ATOM     10  C   UNL     1      -1.810  25.682  30.655  1.00  0.00    -0.006 C 
ATOM     11  C   UNL     1      -3.189  24.515  28.844  1.00  0.00    -0.027 C 
ATOM     12  C   UNL     1      -3.770  22.259  31.348  1.00  0.00     0.008 C 
ATOM     13  C   UNL     1      -5.457  22.705  34.120  1.00  0.00     0.008 C 
ATOM     14  C   UNL     1      -1.181  24.950  31.891  1.00  0.00     0.017 C 
ATOM     15  C   UNL     1      -0.692  25.801  29.488  1.00  0.00    -0.020 C 
ATOM     16  C   UNL     1      -2.283  24.941  27.713  1.00  0.00     0.032 C 
ATOM     17  C   UNL     1      -1.427  26.149  28.137  1.00  0.00     0.006 C 
ATOM     18  C   UNL     1       0.398  26.882  29.788  1.00  0.00     0.008 C 
ATOM     19  C   UNL     1       0.050  24.415  29.385  1.00  0.00     0.012 C 
ATOM     20  C   UNL     1      -0.597  26.882  26.990  1.00  0.00    -0.025 C 
ATOM     21  C   UNL     1       0.142  28.238  29.118  1.00  0.00     0.005 C 
ATOM     22  C   UNL     1       0.154  28.164  27.565  1.00  0.00     0.003 C 
ATOM     23  C   UNL     1       0.417  25.942  26.297  1.00  0.00     0.010 C 
ATOM     24  C   UNL     1      -1.630  27.344  25.903  1.00  0.00     0.012 C 
ATOM     25  C   UNL     1       1.566  28.512  26.902  1.00  0.00    -0.006 C 
ATOM     26  C   UNL     1       1.195  26.606  25.149  1.00  0.00     0.033 C 
ATOM     27  C   UNL     1       1.585  28.086  25.399  1.00  0.00     0.120 C 
ATOM     28  C   UNL     1       1.765  30.055  26.940  1.00  0.00     0.014 C 
ATOM     29  C   UNL     1       2.790  27.894  27.640  1.00  0.00     0.014 C 
ENDROOT
BRANCH   1  30
ATOM     30  C   UNL     1      -5.486  26.959  30.674  1.00  0.00     0.048 C 
ATOM     31  O   UNL     1      -6.041  26.412  29.683  1.00  0.00    -0.550 OA
ATOM     32  O   UNL     1      -5.677  28.320  30.870  1.00  0.00    -0.550 OA
ENDBRANCH   1  30
BRANCH  27  33
ATOM     33  O   UNL     1       2.852  28.330  24.835  1.00  0.00    -0.393 OA
ATOM     34  H   UNL     1       2.718  28.453  23.860  1.00  0.00     0.210 HD
ENDBRANCH  27  33
TORSDOF 2
ENDMDL
MODEL 3
REMARK VINA RESULT:    -6.883      2.087      7.687
REMARK INTER + INTRA:          -7.765
REMARK INTER:                  -7.494
REMARK INTRA:                  -0.270
REMARK UNBOUND:                -0.278
REMARK SMILES C[C@@H]1[C@@H](C)CC[C@@]2(C(=O)[O-])CC[C@@]3(C)C(=CC[C@@H]4[C@]5(C)CC[C@H](O)C(C)(C)[C@@H]5CC[C@]43C)[C@@H]12
REMARK SMILES IDX 7 1 6 2 11 3 33 4 5 5 12 6 15 7 2 8 3 9 13 10 16 11 1 12
REMARK SMILES IDX 4 13 14 14 31 15 17 16 18 17 30 18 32 19 19 20 29 21 28 22
REMARK SMILES IDX 21 23 20 24 25 25 22 26 23 27 26 28 27 29 8 30 9 31 10 32
REMARK SMILES IDX 24 33
REMARK H PARENT 24 34
REMARK Flexibility Score: inf
ROOT
ATOM      1  C   UNL     1       1.149  27.015  26.709  1.00  0.00     0.017 C 
ATOM      2  C   UNL     1       2.370  27.558  25.889  1.00  0.00     0.014 C 
ATOM      3  C   UNL     1       1.329  27.480  28.186  1.00  0.00     0.014 C 
ATOM      4  C   UNL     1      -0.202  27.521  26.063  1.00  0.00     0.030 C 
ATOM      5  C   UNL     1       2.062  27.681  24.394  1.00  0.00     0.004 C 
ATOM      6  C   UNL     1       0.075  27.314  29.071  1.00  0.00     0.013 C 
ATOM      7  C   UNL     1      -1.377  27.462  27.054  1.00  0.00    -0.063 C 
ATOM      8  C   UNL     1      -0.069  28.871  25.292  1.00  0.00    -0.003 C 
ATOM      9  C   UNL     1       0.978  28.757  24.129  1.00  0.00    -0.011 C 
ATOM     10  C   UNL     1      -1.206  28.007  28.497  1.00  0.00    -0.006 C 
ATOM     11  C   UNL     1      -2.456  26.722  26.673  1.00  0.00    -0.027 C 
ATOM     12  C   UNL     1      -1.426  29.340  24.727  1.00  0.00     0.008 C 
ATOM     13  C   UNL     1       1.629  30.122  23.842  1.00  0.00     0.008 C 
ATOM     14  C   UNL     1      -0.945  29.553  28.463  1.00  0.00     0.017 C 
ATOM     15  C   UNL     1      -2.536  27.717  29.376  1.00  0.00    -0.020 C 
ATOM     16  C   UNL     1      -3.511  26.184  27.610  1.00  0.00     0.032 C 
ATOM     17  C   UNL     1      -3.017  26.248  29.067  1.00  0.00     0.006 C 
ATOM     18  C   UNL     1      -2.305  27.883  30.914  1.00  0.00     0.008 C 
ATOM     19  C   UNL     1      -3.632  28.768  28.958  1.00  0.00     0.012 C 
ATOM     20  C   UNL     1      -3.900  25.494  30.161  1.00  0.00    -0.025 C 
ATOM     21  C   UNL     1      -2.023  26.570  31.655  1.00  0.00     0.005 C 
ATOM     22  C   UNL     1      -3.210  25.566  31.595  1.00  0.00     0.003 C 
ATOM     23  C   UNL     1      -5.344  26.044  30.241  1.00  0.00     0.010 C 
ATOM     24  C   UNL     1      -3.992  23.992  29.717  1.00  0.00     0.012 C 
ATOM     25  C   UNL     1      -4.196  25.641  32.850  1.00  0.00    -0.006 C 
ATOM     26  C   UNL     1      -6.236  25.300  31.249  1.00  0.00     0.033 C 
ATOM     27  C   UNL     1      -5.519  24.866  32.553  1.00  0.00     0.120 C 
ATOM     28  C   UNL     1      -3.515  24.933  34.057  1.00  0.00     0.014 C 
ATOM     29  C   UNL     1      -4.527  27.088  33.321  1.00  0.00     0.014 C 
ENDROOT
BRANCH   1  30
ATOM     30  C   UNL     1       1.158  25.484  26.711  1.00  0.00     0.048 C 
ATOM     31  O   UNL     1       0.416  24.831  25.928  1.00  0.00    -0.550 OA
ATOM     32  O   UNL     1       2.057  24.785  27.505  1.00  0.00    -0.550 OA
ENDBRANCH   1  30
BRANCH  27  33
ATOM     33  O   UNL     1      -6.414  24.990  33.633  1.00  0.00    -0.393 OA
ATOM     34  H   UNL     1      -6.098  24.375  34.345  1.00  0.00     0.210 HD
ENDBRANCH  27  33
TORSDOF 2
ENDMDL
MODEL 4
REMARK VINA RESULT:    -6.609      1.919      7.720
REMARK INTER + INTRA:          -7.467
REMARK INTER:                  -7.188
REMARK INTRA:                  -0.279
REMARK UNBOUND:                -0.278
REMARK SMILES C[C@@H]1[C@@H](C)CC[C@@]2(C(=O)[O-])CC[C@@]3(C)C(=CC[C@@H]4[C@]5(C)CC[C@H](O)C(C)(C)[C@@H]5CC[C@]43C)[C@@H]12
REMARK SMILES IDX 7 1 6 2 11 3 33 4 5 5 12 6 15 7 2 8 3 9 13 10 16 11 1 12
REMARK SMILES IDX 4 13 14 14 31 15 17 16 18 17 30 18 32 19 19 20 29 21 28 22
REMARK SMILES IDX 21 23 20 24 25 25 22 26 23 27 26 28 27 29 8 30 9 31 10 32
REMARK SMILES IDX 24 33
REMARK H PARENT 24 34
REMARK Flexibility Score: inf
ROOT
ATOM      1  C   UNL     1       0.544  28.329  28.424  1.00  0.00     0.017 C 
ATOM      2  C   UNL     1       1.367  29.217  27.428  1.00  0.00     0.014 C 
ATOM      3  C   UNL     1      -0.870  28.969  28.569  1.00  0.00     0.014 C 
ATOM      4  C   UNL     1       0.495  26.838  27.904  1.00  0.00     0.030 C 
ATOM      5  C   UNL     1       2.510  28.444  26.764  1.00  0.00     0.004 C 
ATOM      6  C   UNL     1      -1.918  28.068  29.255  1.00  0.00     0.013 C 
ATOM      7  C   UNL     1      -0.667  26.044  28.524  1.00  0.00    -0.063 C 
ATOM      8  C   UNL     1       0.622  26.703  26.355  1.00  0.00    -0.003 C 
ATOM      9  C   UNL     1       1.969  27.322  25.841  1.00  0.00    -0.011 C 
ATOM     10  C   UNL     1      -2.089  26.664  28.584  1.00  0.00    -0.006 C 
ATOM     11  C   UNL     1      -0.334  24.906  29.198  1.00  0.00    -0.027 C 
ATOM     12  C   UNL     1       0.517  25.231  25.901  1.00  0.00     0.008 C 
ATOM     13  C   UNL     1       1.820  27.832  24.396  1.00  0.00     0.008 C 
ATOM     14  C   UNL     1      -2.642  26.886  27.133  1.00  0.00     0.017 C 
ATOM     15  C   UNL     1      -3.101  25.690  29.391  1.00  0.00    -0.020 C 
ATOM     16  C   UNL     1      -1.213  24.214  30.213  1.00  0.00     0.032 C 
ATOM     17  C   UNL     1      -2.349  25.149  30.666  1.00  0.00     0.006 C 
ATOM     18  C   UNL     1      -4.426  26.401  29.822  1.00  0.00     0.008 C 
ATOM     19  C   UNL     1      -3.504  24.508  28.431  1.00  0.00     0.012 C 
ATOM     20  C   UNL     1      -3.220  24.672  31.914  1.00  0.00    -0.025 C 
ATOM     21  C   UNL     1      -4.422  26.919  31.266  1.00  0.00     0.005 C 
ATOM     22  C   UNL     1      -4.284  25.785  32.322  1.00  0.00     0.003 C 
ATOM     23  C   UNL     1      -3.937  23.325  31.657  1.00  0.00     0.010 C 
ATOM     24  C   UNL     1      -2.227  24.456  33.109  1.00  0.00     0.012 C 
ATOM     25  C   UNL     1      -5.676  25.254  32.900  1.00  0.00    -0.006 C 
ATOM     26  C   UNL     1      -4.742  22.811  32.863  1.00  0.00     0.033 C 
ATOM     27  C   UNL     1      -5.471  23.913  33.674  1.00  0.00     0.120 C 
ATOM     28  C   UNL     1      -6.215  26.293  33.925  1.00  0.00     0.014 C 
ATOM     29  C   UNL     1      -6.791  25.078  31.827  1.00  0.00     0.014 C 
ENDROOT
BRANCH   1  30
ATOM     30  C   UNL     1       1.196  28.353  29.810  1.00  0.00     0.048 C 
ATOM     31  O   UNL     1       2.053  27.488  30.137  1.00  0.00    -0.550 OA
ATOM     32  O   UNL     1       0.932  29.388  30.696  1.00  0.00    -0.550 OA
ENDBRANCH   1  30
BRANCH  27  33
ATOM     33  O   UNL     1      -6.708  23.411  34.124  1.00  0.00    -0.393 OA
ATOM     34  H   UNL     1      -7.080  24.079  34.756  1.00  0.00     0.210 HD
ENDBRANCH  27  33
TORSDOF 2
ENDMDL
MODEL 5
REMARK VINA RESULT:    -6.227      2.172      7.813
REMARK INTER + INTRA:          -7.051
REMARK INTER:                  -6.768
REMARK INTRA:                  -0.282
REMARK UNBOUND:                -0.278
REMARK SMILES C[C@@H]1[C@@H](C)CC[C@@]2(C(=O)[O-])CC[C@@]3(C)C(=CC[C@@H]4[C@]5(C)CC[C@H](O)C(C)(C)[C@@H]5CC[C@]43C)[C@@H]12
REMARK SMILES IDX 7 1 6 2 11 3 33 4 5 5 12 6 15 7 2 8 3 9 13 10 16 11 1 12
REMARK SMILES IDX 4 13 14 14 31 15 17 16 18 17 30 18 32 19 19 20 29 21 28 22
REMARK SMILES IDX 21 23 20 24 25 25 22 26 23 27 26 28 27 29 8 30 9 31 10 32
REMARK SMILES IDX 24 33
REMARK H PARENT 24 34
REMARK Flexibility Score: inf
ROOT
ATOM      1  C   UNL     1       0.111  24.760  28.099  1.00  0.00     0.017 C 
ATOM      2  C   UNL     1       1.420  23.988  27.710  1.00  0.00     0.014 C 
ATOM      3  C   UNL     1      -0.544  24.004  29.294  1.00  0.00     0.014 C 
ATOM      4  C   UNL     1       0.453  26.266  28.434  1.00  0.00     0.030 C 
ATOM      5  C   UNL     1       2.429  24.880  26.981  1.00  0.00     0.004 C 
ATOM      6  C   UNL     1      -1.662  24.786  30.016  1.00  0.00     0.013 C 
ATOM      7  C   UNL     1      -0.644  26.936  29.281  1.00  0.00    -0.063 C 
ATOM      8  C   UNL     1       1.905  26.485  28.960  1.00  0.00    -0.003 C 
ATOM      9  C   UNL     1       2.966  25.999  27.911  1.00  0.00    -0.011 C 
ATOM     10  C   UNL     1      -1.226  26.202  30.519  1.00  0.00    -0.006 C 
ATOM     11  C   UNL     1      -1.209  28.062  28.762  1.00  0.00    -0.027 C 
ATOM     12  C   UNL     1       2.164  27.964  29.318  1.00  0.00     0.008 C 
ATOM     13  C   UNL     1       4.261  25.549  28.610  1.00  0.00     0.008 C 
ATOM     14  C   UNL     1      -0.111  26.008  31.606  1.00  0.00     0.017 C 
ATOM     15  C   UNL     1      -2.445  27.054  31.163  1.00  0.00    -0.020 C 
ATOM     16  C   UNL     1      -2.542  28.633  29.184  1.00  0.00     0.032 C 
ATOM     17  C   UNL     1      -3.344  27.591  29.984  1.00  0.00     0.006 C 
ATOM     18  C   UNL     1      -3.321  26.221  32.156  1.00  0.00     0.008 C 
ATOM     19  C   UNL     1      -1.823  28.246  31.984  1.00  0.00     0.012 C 
ATOM     20  C   UNL     1      -4.870  27.937  30.292  1.00  0.00    -0.025 C 
ATOM     21  C   UNL     1      -4.596  25.636  31.534  1.00  0.00     0.005 C 
ATOM     22  C   UNL     1      -5.588  26.725  31.036  1.00  0.00     0.003 C 
ATOM     23  C   UNL     1      -5.029  29.235  31.121  1.00  0.00     0.010 C 
ATOM     24  C   UNL     1      -5.573  28.173  28.910  1.00  0.00     0.012 C 
ATOM     25  C   UNL     1      -6.719  27.117  32.096  1.00  0.00    -0.006 C 
ATOM     26  C   UNL     1      -6.492  29.625  31.388  1.00  0.00     0.033 C 
ATOM     27  C   UNL     1      -7.443  28.431  31.663  1.00  0.00     0.120 C 
ATOM     28  C   UNL     1      -7.792  25.990  32.113  1.00  0.00     0.014 C 
ATOM     29  C   UNL     1      -6.205  27.256  33.559  1.00  0.00     0.014 C 
ENDROOT
BRANCH   1  30
ATOM     30  C   UNL     1      -0.885  24.721  26.936  1.00  0.00     0.048 C 
ATOM     31  O   UNL     1      -0.929  25.655  26.090  1.00  0.00    -0.550 OA
ATOM     32  O   UNL     1      -1.690  23.609  26.735  1.00  0.00    -0.550 OA
ENDBRANCH   1  30
BRANCH  27  33
ATOM     33  O   UNL     1      -8.391  28.812  32.631  1.00  0.00    -0.393 OA
ATOM     34  H   UNL     1      -7.905  29.317  33.332  1.00  0.00     0.210 HD
ENDBRANCH  27  33
TORSDOF 2
ENDMDL
MODEL 6
REMARK VINA RESULT:    -5.917      1.817      2.399
REMARK INTER + INTRA:          -6.714
REMARK INTER:                  -6.430
REMARK INTRA:                  -0.284
REMARK UNBOUND:                -0.278
REMARK SMILES C[C@@H]1[C@@H](C)CC[C@@]2(C(=O)[O-])CC[C@@]3(C)C(=CC[C@@H]4[C@]5(C)CC[C@H](O)C(C)(C)[C@@H]5CC[C@]43C)[C@@H]12
REMARK SMILES IDX 7 1 6 2 11 3 33 4 5 5 12 6 15 7 2 8 3 9 13 10 16 11 1 12
REMARK SMILES IDX 4 13 14 14 31 15 17 16 18 17 30 18 32 19 19 20 29 21 28 22
REMARK SMILES IDX 21 23 20 24 25 25 22 26 23 27 26 28 27 29 8 30 9 31 10 32
REMARK SMILES IDX 24 33
REMARK H PARENT 24 34
REMARK Flexibility Score: inf
ROOT
ATOM      1  C   UNL     1      -4.057  27.297  32.823  1.00  0.00     0.017 C 
ATOM      2  C   UNL     1      -4.952  26.935  34.058  1.00  0.00     0.014 C 
ATOM      3  C   UNL     1      -3.164  26.059  32.508  1.00  0.00     0.014 C 
ATOM      4  C   UNL     1      -4.967  27.729  31.605  1.00  0.00     0.030 C 
ATOM      5  C   UNL     1      -6.226  27.782  34.125  1.00  0.00     0.004 C 
ATOM      6  C   UNL     1      -2.451  26.111  31.141  1.00  0.00     0.013 C 
ATOM      7  C   UNL     1      -4.229  27.614  30.260  1.00  0.00    -0.063 C 
ATOM      8  C   UNL     1      -6.391  27.093  31.623  1.00  0.00    -0.003 C 
ATOM      9  C   UNL     1      -7.168  27.478  32.931  1.00  0.00    -0.011 C 
ATOM     10  C   UNL     1      -3.414  26.336  29.927  1.00  0.00    -0.006 C 
ATOM     11  C   UNL     1      -4.150  28.750  29.512  1.00  0.00    -0.027 C 
ATOM     12  C   UNL     1      -7.215  27.508  30.385  1.00  0.00     0.008 C 
ATOM     13  C   UNL     1      -8.185  26.385  33.306  1.00  0.00     0.008 C 
ATOM     14  C   UNL     1      -4.369  25.095  29.831  1.00  0.00     0.017 C 
ATOM     15  C   UNL     1      -2.633  26.510  28.518  1.00  0.00    -0.020 C 
ATOM     16  C   UNL     1      -3.154  28.987  28.402  1.00  0.00     0.032 C 
ATOM     17  C   UNL     1      -2.011  27.958  28.477  1.00  0.00     0.006 C 
ATOM     18  C   UNL     1      -1.507  25.447  28.302  1.00  0.00     0.008 C 
ATOM     19  C   UNL     1      -3.681  26.315  27.357  1.00  0.00     0.012 C 
ATOM     20  C   UNL     1      -0.748  28.214  27.539  1.00  0.00    -0.025 C 
ATOM     21  C   UNL     1      -0.101  25.933  28.675  1.00  0.00     0.005 C 
ATOM     22  C   UNL     1       0.385  27.125  27.802  1.00  0.00     0.003 C 
ATOM     23  C   UNL     1      -1.119  28.237  26.037  1.00  0.00     0.010 C 
ATOM     24  C   UNL     1      -0.185  29.632  27.906  1.00  0.00     0.012 C 
ATOM     25  C   UNL     1       1.262  26.697  26.537  1.00  0.00    -0.006 C 
ATOM     26  C   UNL     1       0.069  28.536  25.108  1.00  0.00     0.033 C 
ATOM     27  C   UNL     1       1.412  27.895  25.545  1.00  0.00     0.120 C 
ATOM     28  C   UNL     1       2.692  26.331  27.027  1.00  0.00     0.014 C 
ATOM     29  C   UNL     1       0.725  25.449  25.777  1.00  0.00     0.014 C 
ENDROOT
BRANCH   1  30
ATOM     30  C   UNL     1      -3.118  28.455  33.178  1.00  0.00     0.048 C 
ATOM     31  O   UNL     1      -3.429  29.646  32.910  1.00  0.00    -0.550 OA
ATOM     32  O   UNL     1      -1.951  28.221  33.893  1.00  0.00    -0.550 OA
ENDBRANCH   1  30
BRANCH  27  33
ATOM     33  O   UNL     1       2.127  27.498  24.399  1.00  0.00    -0.393 OA
ATOM     34  H   UNL     1       1.709  27.951  23.622  1.00  0.00     0.210 HD
ENDBRANCH  27  33
TORSDOF 2
ENDMDL
MODEL 7
REMARK VINA RESULT:    -5.907      2.014      7.952
REMARK INTER + INTRA:          -6.703
REMARK INTER:                  -6.419
REMARK INTRA:                  -0.283
REMARK UNBOUND:                -0.278
REMARK SMILES C[C@@H]1[C@@H](C)CC[C@@]2(C(=O)[O-])CC[C@@]3(C)C(=CC[C@@H]4[C@]5(C)CC[C@H](O)C(C)(C)[C@@H]5CC[C@]43C)[C@@H]12
REMARK SMILES IDX 7 1 6 2 11 3 33 4 5 5 12 6 15 7 2 8 3 9 13 10 16 11 1 12
REMARK SMILES IDX 4 13 14 14 31 15 17 16 18 17 30 18 32 19 19 20 29 21 28 22
REMARK SMILES IDX 21 23 20 24 25 25 22 26 23 27 26 28 27 29 8 30 9 31 10 32
REMARK SMILES IDX 24 33
REMARK H PARENT 24 34
REMARK Flexibility Score: inf
ROOT
ATOM      1  C   UNL     1       0.456  27.451  28.767  1.00  0.00     0.017 C 
ATOM      2  C   UNL     1       1.580  27.682  27.698  1.00  0.00     0.014 C 
ATOM      3  C   UNL     1      -0.891  27.928  28.144  1.00  0.00     0.014 C 
ATOM      4  C   UNL     1       0.431  25.932  29.203  1.00  0.00     0.030 C 
ATOM      5  C   UNL     1       2.794  26.776  27.922  1.00  0.00     0.004 C 
ATOM      6  C   UNL     1      -2.150  27.487  28.920  1.00  0.00     0.013 C 
ATOM      7  C   UNL     1      -0.912  25.532  29.837  1.00  0.00    -0.063 C 
ATOM      8  C   UNL     1       0.952  24.950  28.109  1.00  0.00    -0.003 C 
ATOM      9  C   UNL     1       2.431  25.284  27.705  1.00  0.00    -0.011 C 
ATOM     10  C   UNL     1      -2.246  25.943  29.158  1.00  0.00    -0.006 C 
ATOM     11  C   UNL     1      -0.859  25.018  31.099  1.00  0.00    -0.027 C 
ATOM     12  C   UNL     1       0.857  23.480  28.571  1.00  0.00     0.008 C 
ATOM     13  C   UNL     1       2.710  24.864  26.251  1.00  0.00     0.008 C 
ATOM     14  C   UNL     1      -2.377  25.246  27.759  1.00  0.00     0.017 C 
ATOM     15  C   UNL     1      -3.509  25.516  30.079  1.00  0.00    -0.020 C 
ATOM     16  C   UNL     1      -2.026  24.952  32.055  1.00  0.00     0.032 C 
ATOM     17  C   UNL     1      -3.165  25.870  31.577  1.00  0.00     0.006 C 
ATOM     18  C   UNL     1      -4.841  26.222  29.663  1.00  0.00     0.008 C 
ATOM     19  C   UNL     1      -3.733  23.967  29.905  1.00  0.00     0.012 C 
ATOM     20  C   UNL     1      -4.369  26.114  32.593  1.00  0.00    -0.025 C 
ATOM     21  C   UNL     1      -5.179  27.469  30.490  1.00  0.00     0.005 C 
ATOM     22  C   UNL     1      -5.413  27.158  31.996  1.00  0.00     0.003 C 
ATOM     23  C   UNL     1      -5.096  24.803  32.978  1.00  0.00     0.010 C 
ATOM     24  C   UNL     1      -3.748  26.710  33.904  1.00  0.00     0.012 C 
ATOM     25  C   UNL     1      -6.946  26.928  32.387  1.00  0.00    -0.006 C 
ATOM     26  C   UNL     1      -6.228  24.997  34.000  1.00  0.00     0.033 C 
ATOM     27  C   UNL     1      -7.058  26.293  33.810  1.00  0.00     0.120 C 
ATOM     28  C   UNL     1      -7.655  28.312  32.449  1.00  0.00     0.014 C 
ATOM     29  C   UNL     1      -7.747  26.070  31.363  1.00  0.00     0.014 C 
ENDROOT
BRANCH   1  30
ATOM     30  C   UNL     1       0.719  28.320  30.000  1.00  0.00     0.048 C 
ATOM     31  O   UNL     1       1.347  27.863  30.993  1.00  0.00    -0.550 OA
ATOM     32  O   UNL     1       0.358  29.661  30.008  1.00  0.00    -0.550 OA
ENDBRANCH   1  30
BRANCH  27  33
ATOM     33  O   UNL     1      -8.405  26.028  34.125  1.00  0.00    -0.393 OA
ATOM     34  H   UNL     1      -8.461  25.941  35.111  1.00  0.00     0.210 HD
ENDBRANCH  27  33
TORSDOF 2
ENDMDL
MODEL 8
REMARK VINA RESULT:    -5.858      1.235      1.392
REMARK INTER + INTRA:          -6.650
REMARK INTER:                  -6.400
REMARK INTRA:                  -0.250
REMARK UNBOUND:                -0.278
REMARK SMILES C[C@@H]1[C@@H](C)CC[C@@]2(C(=O)[O-])CC[C@@]3(C)C(=CC[C@@H]4[C@]5(C)CC[C@H](O)C(C)(C)[C@@H]5CC[C@]43C)[C@@H]12
REMARK SMILES IDX 7 1 6 2 11 3 33 4 5 5 12 6 15 7 2 8 3 9 13 10 16 11 1 12
REMARK SMILES IDX 4 13 14 14 31 15 17 16 18 17 30 18 32 19 19 20 29 21 28 22
REMARK SMILES IDX 21 23 20 24 25 25 22 26 23 27 26 28 27 29 8 30 9 31 10 32
REMARK SMILES IDX 24 33
REMARK H PARENT 24 34
REMARK Flexibility Score: inf
ROOT
ATOM      1  C   UNL     1      -5.063  25.132  32.153  1.00  0.00     0.017 C 
ATOM      2  C   UNL     1      -6.418  24.656  32.783  1.00  0.00     0.014 C 
ATOM      3  C   UNL     1      -4.970  24.523  30.721  1.00  0.00     0.014 C 
ATOM      4  C   UNL     1      -4.991  26.711  32.158  1.00  0.00     0.030 C 
ATOM      5  C   UNL     1      -6.903  25.589  33.896  1.00  0.00     0.004 C 
ATOM      6  C   UNL     1      -3.866  25.133  29.832  1.00  0.00     0.013 C 
ATOM      7  C   UNL     1      -3.971  27.248  31.140  1.00  0.00    -0.063 C 
ATOM      8  C   UNL     1      -6.386  27.408  32.112  1.00  0.00    -0.003 C 
ATOM      9  C   UNL     1      -7.270  26.988  33.338  1.00  0.00    -0.011 C 
ATOM     10  C   UNL     1      -3.948  26.689  29.692  1.00  0.00    -0.006 C 
ATOM     11  C   UNL     1      -2.981  28.044  31.635  1.00  0.00    -0.027 C 
ATOM     12  C   UNL     1      -6.252  28.945  32.067  1.00  0.00     0.008 C 
ATOM     13  C   UNL     1      -8.766  27.056  32.983  1.00  0.00     0.008 C 
ATOM     14  C   UNL     1      -5.289  27.039  28.957  1.00  0.00     0.017 C 
ATOM     15  C   UNL     1      -2.710  27.321  28.858  1.00  0.00    -0.020 C 
ATOM     16  C   UNL     1      -1.673  28.333  30.937  1.00  0.00     0.032 C 
ATOM     17  C   UNL     1      -1.441  27.328  29.793  1.00  0.00     0.006 C 
ATOM     18  C   UNL     1      -2.391  26.537  27.543  1.00  0.00     0.008 C 
ATOM     19  C   UNL     1      -3.108  28.786  28.437  1.00  0.00     0.012 C 
ATOM     20  C   UNL     1       0.001  27.330  29.113  1.00  0.00    -0.025 C 
ATOM     21  C   UNL     1      -1.251  25.519  27.676  1.00  0.00     0.005 C 
ATOM     22  C   UNL     1       0.116  26.175  28.023  1.00  0.00     0.003 C 
ATOM     23  C   UNL     1       0.355  28.695  28.476  1.00  0.00     0.010 C 
ATOM     24  C   UNL     1       1.044  27.058  30.253  1.00  0.00     0.012 C 
ATOM     25  C   UNL     1       1.033  26.491  26.752  1.00  0.00    -0.006 C 
ATOM     26  C   UNL     1       1.763  28.746  27.860  1.00  0.00     0.033 C 
ATOM     27  C   UNL     1       2.207  27.442  27.148  1.00  0.00     0.120 C 
ATOM     28  C   UNL     1       1.671  25.160  26.259  1.00  0.00     0.014 C 
ATOM     29  C   UNL     1       0.261  27.084  25.536  1.00  0.00     0.014 C 
ENDROOT
BRANCH   1  30
ATOM     30  C   UNL     1      -3.885  24.576  32.959  1.00  0.00     0.048 C 
ATOM     31  O   UNL     1      -3.456  25.181  33.979  1.00  0.00    -0.550 OA
ATOM     32  O   UNL     1      -3.333  23.343  32.641  1.00  0.00    -0.550 OA
ENDBRANCH   1  30
BRANCH  27  33
ATOM     33  O   UNL     1       2.974  27.774  26.015  1.00  0.00    -0.393 OA
ATOM     34  H   UNL     1       3.697  28.380  26.320  1.00  0.00     0.210 HD
ENDBRANCH  27  33
TORSDOF 2
ENDMDL
MODEL 9
REMARK VINA RESULT:    -5.738      1.897      2.678
REMARK INTER + INTRA:          -6.520
REMARK INTER:                  -6.237
REMARK INTRA:                  -0.283
REMARK UNBOUND:                -0.278
REMARK SMILES C[C@@H]1[C@@H](C)CC[C@@]2(C(=O)[O-])CC[C@@]3(C)C(=CC[C@@H]4[C@]5(C)CC[C@H](O)C(C)(C)[C@@H]5CC[C@]43C)[C@@H]12
REMARK SMILES IDX 7 1 6 2 11 3 33 4 5 5 12 6 15 7 2 8 3 9 13 10 16 11 1 12
REMARK SMILES IDX 4 13 14 14 31 15 17 16 18 17 30 18 32 19 19 20 29 21 28 22
REMARK SMILES IDX 21 23 20 24 25 25 22 26 23 27 26 28 27 29 8 30 9 31 10 32
REMARK SMILES IDX 24 33
REMARK H PARENT 24 34
REMARK Flexibility Score: inf
ROOT
ATOM      1  C   UNL     1      -6.811  26.194  32.366  1.00  0.00     0.017 C 
ATOM      2  C   UNL     1      -8.264  26.439  32.901  1.00  0.00     0.014 C 
ATOM      3  C   UNL     1      -6.923  25.790  30.865  1.00  0.00     0.014 C 
ATOM      4  C   UNL     1      -5.928  27.485  32.594  1.00  0.00     0.030 C 
ATOM      5  C   UNL     1      -8.289  27.359  34.125  1.00  0.00     0.004 C 
ATOM      6  C   UNL     1      -5.589  25.818  30.089  1.00  0.00     0.013 C 
ATOM      7  C   UNL     1      -4.691  27.511  31.679  1.00  0.00    -0.063 C 
ATOM      8  C   UNL     1      -6.744  28.814  32.622  1.00  0.00    -0.003 C 
ATOM      9  C   UNL     1      -7.822  28.792  33.762  1.00  0.00    -0.011 C 
ATOM     10  C   UNL     1      -4.835  27.188  30.167  1.00  0.00    -0.006 C 
ATOM     11  C   UNL     1      -3.480  27.604  32.297  1.00  0.00    -0.027 C 
ATOM     12  C   UNL     1      -5.826  30.043  32.795  1.00  0.00     0.008 C 
ATOM     13  C   UNL     1      -9.026  29.678  33.395  1.00  0.00     0.008 C 
ATOM     14  C   UNL     1      -5.727  28.271  29.466  1.00  0.00     0.017 C 
ATOM     15  C   UNL     1      -3.382  27.158  29.451  1.00  0.00    -0.020 C 
ATOM     16  C   UNL     1      -2.158  27.233  31.669  1.00  0.00     0.032 C 
ATOM     17  C   UNL     1      -2.383  26.391  30.400  1.00  0.00     0.006 C 
ATOM     18  C   UNL     1      -3.403  26.474  28.045  1.00  0.00     0.008 C 
ATOM     19  C   UNL     1      -2.919  28.648  29.233  1.00  0.00     0.012 C 
ATOM     20  C   UNL     1      -1.097  25.706  29.752  1.00  0.00    -0.025 C 
ATOM     21  C   UNL     1      -2.977  25.000  28.054  1.00  0.00     0.005 C 
ATOM     22  C   UNL     1      -1.505  24.792  28.513  1.00  0.00     0.003 C 
ATOM     23  C   UNL     1      -0.030  26.739  29.318  1.00  0.00     0.010 C 
ATOM     24  C   UNL     1      -0.454  24.801  30.860  1.00  0.00     0.012 C 
ATOM     25  C   UNL     1      -0.450  24.714  27.314  1.00  0.00    -0.006 C 
ATOM     26  C   UNL     1       1.247  26.106  28.739  1.00  0.00     0.033 C 
ATOM     27  C   UNL     1       1.007  24.851  27.860  1.00  0.00     0.120 C 
ATOM     28  C   UNL     1      -0.558  23.311  26.651  1.00  0.00     0.014 C 
ATOM     29  C   UNL     1      -0.688  25.755  26.181  1.00  0.00     0.014 C 
ENDROOT
BRANCH   1  30
ATOM     30  C   UNL     1      -6.171  25.016  33.107  1.00  0.00     0.048 C 
ATOM     31  O   UNL     1      -5.411  25.207  34.094  1.00  0.00    -0.550 OA
ATOM     32  O   UNL     1      -6.498  23.710  32.769  1.00  0.00    -0.550 OA
ENDBRANCH   1  30
BRANCH  27  33
ATOM     33  O   UNL     1       1.932  24.850  26.797  1.00  0.00    -0.393 OA
ATOM     34  H   UNL     1       1.591  24.216  26.115  1.00  0.00     0.210 HD
ENDBRANCH  27  33
TORSDOF 2
ENDMDL
