MODEL 1
REMARK VINA RESULT:    -3.770      0.000      0.000
REMARK INTER + INTRA:          -7.633
REMARK INTER:                  -5.974
REMARK INTRA:                  -1.659
REMARK UNBOUND:                -1.659
REMARK SMILES CCCCCCCCCCCC(=O)[O-]
REMARK SMILES IDX 7 1 8 2 9 3 10 4 11 5 12 6 13 7 14 8 6 9 5 10 4 11 3 12 2 13
REMARK SMILES IDX 1 14
REMARK H PARENT
REMARK Flexibility Score: inf
ROOT
ATOM      1  C   UNL     1       9.843  -6.387 -22.341  1.00  0.00     0.000 C 
ENDROOT
BRANCH   1   2
ATOM      2  C   UNL     1      10.174  -7.467 -23.383  1.00  0.00     0.000 C 
BRANCH   2   3
ATOM      3  C   UNL     1       9.911  -6.954 -24.806  1.00  0.00     0.000 C 
BRANCH   3   4
ATOM      4  C   UNL     1       9.024  -7.905 -25.625  1.00  0.00     0.006 C 
BRANCH   4   5
ATOM      5  C   UNL     1       7.527  -7.607 -25.460  1.00  0.00     0.053 C 
BRANCH   5   6
ATOM      6  C   UNL     1       6.815  -8.804 -24.914  1.00  0.00     0.041 C 
ATOM      7  O   UNL     1       7.029  -9.184 -23.732  1.00  0.00    -0.550 OA
ATOM      8  O   UNL     1       5.951  -9.529 -25.725  1.00  0.00    -0.550 OA
ENDBRANCH   5   6
ENDBRANCH   4   5
ENDBRANCH   3   4
ENDBRANCH   2   3
ENDBRANCH   1   2
BRANCH   1   9
ATOM      9  C   UNL     1       8.506  -6.643 -21.628  1.00  0.00     0.000 C 
BRANCH   9  10
ATOM     10  C   UNL     1       7.404  -5.662 -22.068  1.00  0.00    -0.000 C 
BRANCH  10  11
ATOM     11  C   UNL     1       7.965  -4.426 -22.792  1.00  0.00    -0.000 C 
BRANCH  11  12
ATOM     12  C   UNL     1       7.177  -4.081 -24.067  1.00  0.00    -0.000 C 
BRANCH  12  13
ATOM     13  C   UNL     1       8.093  -3.678 -25.233  1.00  0.00    -0.003 C 
ATOM     14  C   UNL     1       9.539  -3.441 -24.797  1.00  0.00     0.004 C 
ENDBRANCH  12  13
ENDBRANCH  11  12
ENDBRANCH  10  11
ENDBRANCH   9  10
ENDBRANCH   1   9
TORSDOF 10
ENDMDL
MODEL 2
REMARK VINA RESULT:    -3.728     10.063     11.818
REMARK INTER + INTRA:          -7.567
REMARK INTER:                  -6.329
REMARK INTRA:                  -1.238
REMARK UNBOUND:                -1.659
REMARK SMILES CCCCCCCCCCCC(=O)[O-]
REMARK SMILES IDX 7 1 8 2 9 3 10 4 11 5 12 6 13 7 14 8 6 9 5 10 4 11 3 12 2 13
REMARK SMILES IDX 1 14
REMARK H PARENT
REMARK Flexibility Score: inf
ROOT
ATOM      1  C   UNL     1      18.786  -6.159 -16.790  1.00  0.00     0.000 C 
ENDROOT
BRANCH   1   2
ATOM      2  C   UNL     1      17.253  -6.107 -16.714  1.00  0.00     0.000 C 
BRANCH   2   3
ATOM      3  C   UNL     1      16.783  -4.831 -16.001  1.00  0.00     0.000 C 
BRANCH   3   4
ATOM      4  C   UNL     1      15.986  -3.895 -16.924  1.00  0.00     0.006 C 
BRANCH   4   5
ATOM      5  C   UNL     1      15.736  -4.504 -18.310  1.00  0.00     0.053 C 
BRANCH   5   6
ATOM      6  C   UNL     1      15.091  -3.500 -19.212  1.00  0.00     0.041 C 
ATOM      7  O   UNL     1      14.045  -3.799 -19.848  1.00  0.00    -0.550 OA
ATOM      8  O   UNL     1      15.671  -2.250 -19.389  1.00  0.00    -0.550 OA
ENDBRANCH   5   6
ENDBRANCH   4   5
ENDBRANCH   3   4
ENDBRANCH   2   3
ENDBRANCH   1   2
BRANCH   1   9
ATOM      9  C   UNL     1      19.335  -5.556 -18.094  1.00  0.00     0.000 C 
BRANCH   9  10
ATOM     10  C   UNL     1      20.067  -4.221 -17.865  1.00  0.00    -0.000 C 
BRANCH  10  11
ATOM     11  C   UNL     1      19.231  -3.005 -18.296  1.00  0.00    -0.000 C 
BRANCH  11  12
ATOM     12  C   UNL     1      19.143  -2.860 -19.824  1.00  0.00    -0.000 C 
BRANCH  12  13
ATOM     13  C   UNL     1      20.512  -2.593 -20.469  1.00  0.00    -0.003 C 
ATOM     14  C   UNL     1      20.882  -3.634 -21.526  1.00  0.00     0.004 C 
ENDBRANCH  12  13
ENDBRANCH  11  12
ENDBRANCH  10  11
ENDBRANCH   9  10
ENDBRANCH   1   9
TORSDOF 10
ENDMDL
MODEL 3
REMARK VINA RESULT:    -3.687     10.507     12.316
REMARK INTER + INTRA:          -7.502
REMARK INTER:                  -6.186
REMARK INTRA:                  -1.316
REMARK UNBOUND:                -1.659
REMARK SMILES CCCCCCCCCCCC(=O)[O-]
REMARK SMILES IDX 7 1 8 2 9 3 10 4 11 5 12 6 13 7 14 8 6 9 5 10 4 11 3 12 2 13
REMARK SMILES IDX 1 14
REMARK H PARENT
REMARK Flexibility Score: inf
ROOT
ATOM      1  C   UNL     1      20.928  -3.144 -19.543  1.00  0.00     0.000 C 
ENDROOT
BRANCH   1   2
ATOM      2  C   UNL     1      19.840  -2.241 -20.143  1.00  0.00     0.000 C 
BRANCH   2   3
ATOM      3  C   UNL     1      18.496  -2.456 -19.431  1.00  0.00     0.000 C 
BRANCH   3   4
ATOM      4  C   UNL     1      18.637  -3.261 -18.129  1.00  0.00     0.006 C 
BRANCH   4   5
ATOM      5  C   UNL     1      17.627  -4.413 -18.035  1.00  0.00     0.053 C 
BRANCH   5   6
ATOM      6  C   UNL     1      16.982  -4.432 -16.686  1.00  0.00     0.041 C 
ATOM      7  O   UNL     1      17.180  -5.397 -15.902  1.00  0.00    -0.550 OA
ATOM      8  O   UNL     1      16.123  -3.406 -16.311  1.00  0.00    -0.550 OA
ENDBRANCH   5   6
ENDBRANCH   4   5
ENDBRANCH   3   4
ENDBRANCH   2   3
ENDBRANCH   1   2
BRANCH   1   9
ATOM      9  C   UNL     1      21.283  -4.329 -20.456  1.00  0.00     0.000 C 
BRANCH   9  10
ATOM     10  C   UNL     1      20.904  -4.077 -21.926  1.00  0.00    -0.000 C 
BRANCH  10  11
ATOM     11  C   UNL     1      20.041  -5.204 -22.518  1.00  0.00    -0.000 C 
BRANCH  11  12
ATOM     12  C   UNL     1      18.663  -5.307 -21.844  1.00  0.00    -0.000 C 
BRANCH  12  13
ATOM     13  C   UNL     1      17.540  -4.707 -22.704  1.00  0.00    -0.003 C 
ATOM     14  C   UNL     1      16.392  -4.140 -21.869  1.00  0.00     0.004 C 
ENDBRANCH  12  13
ENDBRANCH  11  12
ENDBRANCH  10  11
ENDBRANCH   9  10
ENDBRANCH   1   9
TORSDOF 10
ENDMDL
MODEL 4
REMARK VINA RESULT:    -3.677     11.075     12.744
REMARK INTER + INTRA:          -7.485
REMARK INTER:                  -6.182
REMARK INTRA:                  -1.303
REMARK UNBOUND:                -1.659
REMARK SMILES CCCCCCCCCCCC(=O)[O-]
REMARK SMILES IDX 7 1 8 2 9 3 10 4 11 5 12 6 13 7 14 8 6 9 5 10 4 11 3 12 2 13
REMARK SMILES IDX 1 14
REMARK H PARENT
REMARK Flexibility Score: inf
ROOT
ATOM      1  C   UNL     1      19.728  -5.643 -17.986  1.00  0.00     0.000 C 
ENDROOT
BRANCH   1   2
ATOM      2  C   UNL     1      20.917  -4.734 -17.639  1.00  0.00     0.000 C 
BRANCH   2   3
ATOM      3  C   UNL     1      20.536  -3.253 -17.787  1.00  0.00     0.000 C 
BRANCH   3   4
ATOM      4  C   UNL     1      20.995  -2.654 -19.126  1.00  0.00     0.006 C 
BRANCH   4   5
ATOM      5  C   UNL     1      19.827  -2.392 -20.087  1.00  0.00     0.053 C 
BRANCH   5   6
ATOM      6  C   UNL     1      19.812  -3.413 -21.179  1.00  0.00     0.041 C 
ATOM      7  O   UNL     1      18.743  -4.013 -21.471  1.00  0.00    -0.550 OA
ATOM      8  O   UNL     1      20.988  -3.739 -21.844  1.00  0.00    -0.550 OA
ENDBRANCH   5   6
ENDBRANCH   4   5
ENDBRANCH   3   4
ENDBRANCH   2   3
ENDBRANCH   1   2
BRANCH   1   9
ATOM      9  C   UNL     1      19.207  -6.425 -16.770  1.00  0.00     0.000 C 
BRANCH   9  10
ATOM     10  C   UNL     1      17.765  -6.038 -16.393  1.00  0.00    -0.000 C 
BRANCH  10  11
ATOM     11  C   UNL     1      17.131  -5.061 -17.397  1.00  0.00    -0.000 C 
BRANCH  11  12
ATOM     12  C   UNL     1      16.731  -3.725 -16.747  1.00  0.00    -0.000 C 
BRANCH  12  13
ATOM     13  C   UNL     1      16.830  -2.544 -17.724  1.00  0.00    -0.003 C 
ATOM     14  C   UNL     1      16.301  -2.881 -19.118  1.00  0.00     0.004 C 
ENDBRANCH  12  13
ENDBRANCH  11  12
ENDBRANCH  10  11
ENDBRANCH   9  10
ENDBRANCH   1   9
TORSDOF 10
ENDMDL
MODEL 5
REMARK VINA RESULT:    -3.671      1.125      2.866
REMARK INTER + INTRA:          -7.476
REMARK INTER:                  -5.928
REMARK INTRA:                  -1.548
REMARK UNBOUND:                -1.659
REMARK SMILES CCCCCCCCCCCC(=O)[O-]
REMARK SMILES IDX 7 1 8 2 9 3 10 4 11 5 12 6 13 7 14 8 6 9 5 10 4 11 3 12 2 13
REMARK SMILES IDX 1 14
REMARK H PARENT
REMARK Flexibility Score: inf
ROOT
ATOM      1  C   UNL     1       9.901  -3.905 -24.728  1.00  0.00     0.000 C 
ENDROOT
BRANCH   1   2
ATOM      2  C   UNL     1      10.461  -4.999 -25.649  1.00  0.00     0.000 C 
BRANCH   2   3
ATOM      3  C   UNL     1      10.277  -6.389 -25.024  1.00  0.00     0.000 C 
BRANCH   3   4
ATOM      4  C   UNL     1       8.916  -7.017 -25.363  1.00  0.00     0.006 C 
BRANCH   4   5
ATOM      5  C   UNL     1       8.953  -8.551 -25.352  1.00  0.00     0.053 C 
BRANCH   5   6
ATOM      6  C   UNL     1       8.431  -9.076 -24.052  1.00  0.00     0.041 C 
ATOM      7  O   UNL     1       9.229  -9.470 -23.161  1.00  0.00    -0.550 OA
ATOM      8  O   UNL     1       7.061  -9.175 -23.842  1.00  0.00    -0.550 OA
ENDBRANCH   5   6
ENDBRANCH   4   5
ENDBRANCH   3   4
ENDBRANCH   2   3
ENDBRANCH   1   2
BRANCH   1   9
ATOM      9  C   UNL     1       8.509  -3.419 -25.164  1.00  0.00     0.000 C 
BRANCH   9  10
ATOM     10  C   UNL     1       7.405  -3.823 -24.171  1.00  0.00    -0.000 C 
BRANCH  10  11
ATOM     11  C   UNL     1       7.962  -4.221 -22.793  1.00  0.00    -0.000 C 
BRANCH  11  12
ATOM     12  C   UNL     1       7.377  -5.547 -22.281  1.00  0.00    -0.000 C 
BRANCH  12  13
ATOM     13  C   UNL     1       8.408  -6.388 -21.513  1.00  0.00    -0.003 C 
ATOM     14  C   UNL     1       9.777  -5.711 -21.425  1.00  0.00     0.004 C 
ENDBRANCH  12  13
ENDBRANCH  11  12
ENDBRANCH  10  11
ENDBRANCH   9  10
ENDBRANCH   1   9
TORSDOF 10
ENDMDL
MODEL 6
REMARK VINA RESULT:    -3.655      3.597      4.905
REMARK INTER + INTRA:          -7.450
REMARK INTER:                  -6.025
REMARK INTRA:                  -1.425
REMARK UNBOUND:                -1.659
REMARK SMILES CCCCCCCCCCCC(=O)[O-]
REMARK SMILES IDX 7 1 8 2 9 3 10 4 11 5 12 6 13 7 14 8 6 9 5 10 4 11 3 12 2 13
REMARK SMILES IDX 1 14
REMARK H PARENT
REMARK Flexibility Score: inf
ROOT
ATOM      1  C   UNL     1       7.718  -4.170 -23.204  1.00  0.00     0.000 C 
ENDROOT
BRANCH   1   2
ATOM      2  C   UNL     1       8.541  -3.990 -24.488  1.00  0.00     0.000 C 
BRANCH   2   3
ATOM      3  C   UNL     1       8.866  -5.349 -25.125  1.00  0.00     0.000 C 
BRANCH   3   4
ATOM      4  C   UNL     1      10.354  -5.719 -25.009  1.00  0.00     0.006 C 
BRANCH   4   5
ATOM      5  C   UNL     1      11.267  -4.726 -25.742  1.00  0.00     0.053 C 
BRANCH   5   6
ATOM      6  C   UNL     1      12.235  -4.106 -24.785  1.00  0.00     0.041 C 
ATOM      7  O   UNL     1      13.375  -4.615 -24.616  1.00  0.00    -0.550 OA
ATOM      8  O   UNL     1      11.862  -2.992 -24.042  1.00  0.00    -0.550 OA
ENDBRANCH   5   6
ENDBRANCH   4   5
ENDBRANCH   3   4
ENDBRANCH   2   3
ENDBRANCH   1   2
BRANCH   1   9
ATOM      9  C   UNL     1       7.259  -5.622 -22.993  1.00  0.00     0.000 C 
BRANCH   9  10
ATOM     10  C   UNL     1       7.172  -6.004 -21.504  1.00  0.00    -0.000 C 
BRANCH  10  11
ATOM     11  C   UNL     1       8.041  -7.223 -21.153  1.00  0.00    -0.000 C 
BRANCH  11  12
ATOM     12  C   UNL     1       9.459  -7.126 -21.742  1.00  0.00    -0.000 C 
BRANCH  12  13
ATOM     13  C   UNL     1      10.431  -6.381 -20.814  1.00  0.00    -0.003 C 
ATOM     14  C   UNL     1      10.793  -4.988 -21.330  1.00  0.00     0.004 C 
ENDBRANCH  12  13
ENDBRANCH  11  12
ENDBRANCH  10  11
ENDBRANCH   9  10
ENDBRANCH   1   9
TORSDOF 10
ENDMDL
MODEL 7
REMARK VINA RESULT:    -3.635     11.174     12.747
REMARK INTER + INTRA:          -7.418
REMARK INTER:                  -6.042
REMARK INTRA:                  -1.376
REMARK UNBOUND:                -1.659
REMARK SMILES CCCCCCCCCCCC(=O)[O-]
REMARK SMILES IDX 7 1 8 2 9 3 10 4 11 5 12 6 13 7 14 8 6 9 5 10 4 11 3 12 2 13
REMARK SMILES IDX 1 14
REMARK H PARENT
REMARK Flexibility Score: inf
ROOT
ATOM      1  C   UNL     1      21.154  -5.375 -17.254  1.00  0.00     0.000 C 
ENDROOT
BRANCH   1   2
ATOM      2  C   UNL     1      20.119  -6.510 -17.295  1.00  0.00     0.000 C 
BRANCH   2   3
ATOM      3  C   UNL     1      18.785  -6.014 -17.873  1.00  0.00     0.000 C 
BRANCH   3   4
ATOM      4  C   UNL     1      17.975  -5.182 -16.866  1.00  0.00     0.006 C 
BRANCH   4   5
ATOM      5  C   UNL     1      16.633  -4.705 -17.437  1.00  0.00     0.053 C 
BRANCH   5   6
ATOM      6  C   UNL     1      16.223  -3.416 -16.799  1.00  0.00     0.041 C 
ATOM      7  O   UNL     1      16.631  -2.319 -17.265  1.00  0.00    -0.550 OA
ATOM      8  O   UNL     1      15.429  -3.426 -15.659  1.00  0.00    -0.550 OA
ENDBRANCH   5   6
ENDBRANCH   4   5
ENDBRANCH   3   4
ENDBRANCH   2   3
ENDBRANCH   1   2
BRANCH   1   9
ATOM      9  C   UNL     1      21.424  -4.771 -18.642  1.00  0.00     0.000 C 
BRANCH   9  10
ATOM     10  C   UNL     1      21.214  -3.247 -18.673  1.00  0.00    -0.000 C 
BRANCH  10  11
ATOM     11  C   UNL     1      20.516  -2.771 -19.959  1.00  0.00    -0.000 C 
BRANCH  11  12
ATOM     12  C   UNL     1      18.990  -2.663 -19.796  1.00  0.00    -0.000 C 
BRANCH  12  13
ATOM     13  C   UNL     1      18.230  -3.602 -20.746  1.00  0.00    -0.003 C 
ATOM     14  C   UNL     1      19.160  -4.497 -21.565  1.00  0.00     0.004 C 
ENDBRANCH  12  13
ENDBRANCH  11  12
ENDBRANCH  10  11
ENDBRANCH   9  10
ENDBRANCH   1   9
TORSDOF 10
ENDMDL
MODEL 8
REMARK VINA RESULT:    -3.628     11.685     13.133
REMARK INTER + INTRA:          -7.408
REMARK INTER:                  -5.821
REMARK INTRA:                  -1.587
REMARK UNBOUND:                -1.659
REMARK SMILES CCCCCCCCCCCC(=O)[O-]
REMARK SMILES IDX 7 1 8 2 9 3 10 4 11 5 12 6 13 7 14 8 6 9 5 10 4 11 3 12 2 13
REMARK SMILES IDX 1 14
REMARK H PARENT
REMARK Flexibility Score: inf
ROOT
ATOM      1  C   UNL     1      20.876  -3.507 -17.858  1.00  0.00     0.000 C 
ENDROOT
BRANCH   1   2
ATOM      2  C   UNL     1      20.760  -2.804 -19.218  1.00  0.00     0.000 C 
BRANCH   2   3
ATOM      3  C   UNL     1      19.314  -2.842 -19.733  1.00  0.00     0.000 C 
BRANCH   3   4
ATOM      4  C   UNL     1      19.122  -3.838 -20.889  1.00  0.00     0.006 C 
BRANCH   4   5
ATOM      5  C   UNL     1      20.422  -4.105 -21.660  1.00  0.00     0.053 C 
BRANCH   5   6
ATOM      6  C   UNL     1      20.542  -5.559 -21.991  1.00  0.00     0.041 C 
ATOM      7  O   UNL     1      19.699  -6.108 -22.749  1.00  0.00    -0.550 OA
ATOM      8  O   UNL     1      21.556  -6.320 -21.423  1.00  0.00    -0.550 OA
ENDBRANCH   5   6
ENDBRANCH   4   5
ENDBRANCH   3   4
ENDBRANCH   2   3
ENDBRANCH   1   2
BRANCH   1   9
ATOM      9  C   UNL     1      21.460  -4.925 -17.973  1.00  0.00     0.000 C 
BRANCH   9  10
ATOM     10  C   UNL     1      20.540  -5.994 -17.357  1.00  0.00    -0.000 C 
BRANCH  10  11
ATOM     11  C   UNL     1      19.635  -6.670 -18.401  1.00  0.00    -0.000 C 
BRANCH  11  12
ATOM     12  C   UNL     1      18.145  -6.362 -18.177  1.00  0.00    -0.000 C 
BRANCH  12  13
ATOM     13  C   UNL     1      17.848  -5.900 -16.742  1.00  0.00    -0.003 C 
ATOM     14  C   UNL     1      17.215  -4.509 -16.686  1.00  0.00     0.004 C 
ENDBRANCH  12  13
ENDBRANCH  11  12
ENDBRANCH  10  11
ENDBRANCH   9  10
ENDBRANCH   1   9
TORSDOF 10
ENDMDL
MODEL 9
REMARK VINA RESULT:    -3.610      1.602      3.487
REMARK INTER + INTRA:          -7.379
REMARK INTER:                  -5.818
REMARK INTRA:                  -1.561
REMARK UNBOUND:                -1.659
REMARK SMILES CCCCCCCCCCCC(=O)[O-]
REMARK SMILES IDX 7 1 8 2 9 3 10 4 11 5 12 6 13 7 14 8 6 9 5 10 4 11 3 12 2 13
REMARK SMILES IDX 1 14
REMARK H PARENT
REMARK Flexibility Score: inf
ROOT
ATOM      1  C   UNL     1       7.379  -4.977 -22.770  1.00  0.00     0.000 C 
ENDROOT
BRANCH   1   2
ATOM      2  C   UNL     1       8.650  -4.115 -22.755  1.00  0.00     0.000 C 
BRANCH   2   3
ATOM      3  C   UNL     1       9.560  -4.461 -23.942  1.00  0.00     0.000 C 
BRANCH   3   4
ATOM      4  C   UNL     1       8.869  -5.363 -24.977  1.00  0.00     0.006 C 
BRANCH   4   5
ATOM      5  C   UNL     1       9.598  -6.699 -25.177  1.00  0.00     0.053 C 
BRANCH   5   6
ATOM      6  C   UNL     1       8.611  -7.803 -25.390  1.00  0.00     0.041 C 
ATOM      7  O   UNL     1       8.979  -9.005 -25.309  1.00  0.00    -0.550 OA
ATOM      8  O   UNL     1       7.296  -7.506 -25.726  1.00  0.00    -0.550 OA
ENDBRANCH   5   6
ENDBRANCH   4   5
ENDBRANCH   3   4
ENDBRANCH   2   3
ENDBRANCH   1   2
BRANCH   1   9
ATOM      9  C   UNL     1       7.245  -5.856 -21.516  1.00  0.00     0.000 C 
BRANCH   9  10
ATOM     10  C   UNL     1       7.443  -7.352 -21.818  1.00  0.00    -0.000 C 
BRANCH  10  11
ATOM     11  C   UNL     1       8.655  -7.950 -21.084  1.00  0.00    -0.000 C 
BRANCH  11  12
ATOM     12  C   UNL     1       9.992  -7.394 -21.602  1.00  0.00    -0.000 C 
BRANCH  12  13
ATOM     13  C   UNL     1      10.910  -6.917 -20.467  1.00  0.00    -0.003 C 
ATOM     14  C   UNL     1      11.105  -5.400 -20.460  1.00  0.00     0.004 C 
ENDBRANCH  12  13
ENDBRANCH  11  12
ENDBRANCH  10  11
ENDBRANCH   9  10
ENDBRANCH   1   9
TORSDOF 10
ENDMDL
