MODEL 1
REMARK VINA RESULT:    -3.096      0.000      0.000
REMARK INTER + INTRA:         -11.187
REMARK INTER:                  -7.077
REMARK INTRA:                  -4.110
REMARK UNBOUND:                -4.110
REMARK SMILES CCCCCCCCCCCCCCCCCCCCCCCC(=O)[O-]
REMARK SMILES IDX 13 1 14 2 15 3 16 4 17 5 18 6 19 7 20 8 21 9 22 10 23 11
REMARK SMILES IDX 24 12 25 13 26 14 12 15 11 16 10 17 9 18 8 19 7 20 6 21 5 22
REMARK SMILES IDX 4 23 3 24 2 25 1 26
REMARK H PARENT
REMARK Flexibility Score: inf
ROOT
ATOM      1  C   UNL     1      29.958  31.419  51.801  1.00  0.00     0.000 C 
ENDROOT
BRANCH   1   2
ATOM      2  C   UNL     1      31.222  30.548  51.713  1.00  0.00     0.000 C 
BRANCH   2   3
ATOM      3  C   UNL     1      31.815  30.230  53.097  1.00  0.00     0.000 C 
BRANCH   3   4
ATOM      4  C   UNL     1      32.451  31.462  53.763  1.00  0.00     0.000 C 
BRANCH   4   5
ATOM      5  C   UNL     1      32.473  31.357  55.298  1.00  0.00     0.000 C 
BRANCH   5   6
ATOM      6  C   UNL     1      31.679  32.478  55.983  1.00  0.00     0.000 C 
BRANCH   6   7
ATOM      7  C   UNL     1      30.158  32.263  55.904  1.00  0.00     0.000 C 
BRANCH   7   8
ATOM      8  C   UNL     1      29.736  30.827  56.260  1.00  0.00     0.000 C 
BRANCH   8   9
ATOM      9  C   UNL     1      28.820  30.146  55.227  1.00  0.00     0.000 C 
BRANCH   9  10
ATOM     10  C   UNL     1      27.422  30.782  55.153  1.00  0.00     0.006 C 
BRANCH  10  11
ATOM     11  C   UNL     1      26.323  29.739  54.911  1.00  0.00     0.053 C 
BRANCH  11  12
ATOM     12  C   UNL     1      24.958  30.298  55.171  1.00  0.00     0.041 C 
ATOM     13  O   UNL     1      24.271  30.760  54.222  1.00  0.00    -0.550 OA
ATOM     14  O   UNL     1      24.458  30.342  56.467  1.00  0.00    -0.550 OA
ENDBRANCH  11  12
ENDBRANCH  10  11
ENDBRANCH   9  10
ENDBRANCH   8   9
ENDBRANCH   7   8
ENDBRANCH   6   7
ENDBRANCH   5   6
ENDBRANCH   4   5
ENDBRANCH   3   4
ENDBRANCH   2   3
ENDBRANCH   1   2
BRANCH   1  15
ATOM     15  C   UNL     1      30.175  32.891  51.412  1.00  0.00     0.000 C 
BRANCH  15  16
ATOM     16  C   UNL     1      29.486  33.887  52.375  1.00  0.00     0.000 C 
BRANCH  16  17
ATOM     17  C   UNL     1      28.212  33.314  53.035  1.00  0.00     0.000 C 
BRANCH  17  18
ATOM     18  C   UNL     1      27.091  34.357  53.218  1.00  0.00    -0.000 C 
BRANCH  18  19
ATOM     19  C   UNL     1      25.691  33.858  52.813  1.00  0.00    -0.000 C 
BRANCH  19  20
ATOM     20  C   UNL     1      25.726  32.754  51.736  1.00  0.00    -0.000 C 
BRANCH  20  21
ATOM     21  C   UNL     1      25.596  33.285  50.294  1.00  0.00    -0.000 C 
BRANCH  21  22
ATOM     22  C   UNL     1      26.884  33.156  49.452  1.00  0.00    -0.000 C 
BRANCH  22  23
ATOM     23  C   UNL     1      27.300  31.695  49.219  1.00  0.00    -0.000 C 
BRANCH  23  24
ATOM     24  C   UNL     1      28.550  31.610  48.337  1.00  0.00    -0.000 C 
BRANCH  24  25
ATOM     25  C   UNL     1      29.001  33.005  47.886  1.00  0.00    -0.003 C 
ATOM     26  C   UNL     1      30.513  33.067  47.706  1.00  0.00     0.004 C 
ENDBRANCH  24  25
ENDBRANCH  23  24
ENDBRANCH  22  23
ENDBRANCH  21  22
ENDBRANCH  20  21
ENDBRANCH  19  20
ENDBRANCH  18  19
ENDBRANCH  17  18
ENDBRANCH  16  17
ENDBRANCH  15  16
ENDBRANCH   1  15
TORSDOF 22
ENDMDL
MODEL 2
REMARK VINA RESULT:    -3.094      2.905      7.356
REMARK INTER + INTRA:         -11.183
REMARK INTER:                  -7.438
REMARK INTRA:                  -3.745
REMARK UNBOUND:                -4.110
REMARK SMILES CCCCCCCCCCCCCCCCCCCCCCCC(=O)[O-]
REMARK SMILES IDX 13 1 14 2 15 3 16 4 17 5 18 6 19 7 20 8 21 9 22 10 23 11
REMARK SMILES IDX 24 12 25 13 26 14 12 15 11 16 10 17 9 18 8 19 7 20 6 21 5 22
REMARK SMILES IDX 4 23 3 24 2 25 1 26
REMARK H PARENT
REMARK Flexibility Score: inf
ROOT
ATOM      1  C   UNL     1      29.461  33.240  52.583  1.00  0.00     0.000 C 
ENDROOT
BRANCH   1   2
ATOM      2  C   UNL     1      28.123  33.135  53.333  1.00  0.00     0.000 C 
BRANCH   2   3
ATOM      3  C   UNL     1      27.227  34.368  53.115  1.00  0.00     0.000 C 
BRANCH   3   4
ATOM      4  C   UNL     1      25.790  33.990  52.719  1.00  0.00     0.000 C 
BRANCH   4   5
ATOM      5  C   UNL     1      25.630  32.484  52.450  1.00  0.00     0.000 C 
BRANCH   5   6
ATOM      6  C   UNL     1      25.437  32.162  50.961  1.00  0.00     0.000 C 
BRANCH   6   7
ATOM      7  C   UNL     1      25.240  33.423  50.102  1.00  0.00     0.000 C 
BRANCH   7   8
ATOM      8  C   UNL     1      26.248  33.522  48.943  1.00  0.00     0.000 C 
BRANCH   8   9
ATOM      9  C   UNL     1      27.666  33.023  49.274  1.00  0.00     0.000 C 
BRANCH   9  10
ATOM     10  C   UNL     1      28.321  32.264  48.108  1.00  0.00     0.006 C 
BRANCH  10  11
ATOM     11  C   UNL     1      29.218  33.173  47.257  1.00  0.00     0.053 C 
BRANCH  11  12
ATOM     12  C   UNL     1      30.629  33.190  47.758  1.00  0.00     0.041 C 
ATOM     13  O   UNL     1      31.176  32.125  48.150  1.00  0.00    -0.550 OA
ATOM     14  O   UNL     1      31.330  34.387  47.827  1.00  0.00    -0.550 OA
ENDBRANCH  11  12
ENDBRANCH  10  11
ENDBRANCH   9  10
ENDBRANCH   8   9
ENDBRANCH   7   8
ENDBRANCH   6   7
ENDBRANCH   5   6
ENDBRANCH   4   5
ENDBRANCH   3   4
ENDBRANCH   2   3
ENDBRANCH   1   2
BRANCH   1  15
ATOM     15  C   UNL     1      29.907  31.936  51.900  1.00  0.00     0.000 C 
BRANCH  15  16
ATOM     16  C   UNL     1      31.086  31.239  52.621  1.00  0.00     0.000 C 
BRANCH  16  17
ATOM     17  C   UNL     1      31.833  32.167  53.604  1.00  0.00     0.000 C 
BRANCH  17  18
ATOM     18  C   UNL     1      32.548  31.411  54.741  1.00  0.00    -0.000 C 
BRANCH  18  19
ATOM     19  C   UNL     1      31.908  31.603  56.130  1.00  0.00    -0.000 C 
BRANCH  19  20
ATOM     20  C   UNL     1      30.602  32.425  56.088  1.00  0.00    -0.000 C 
BRANCH  20  21
ATOM     21  C   UNL     1      29.339  31.606  56.426  1.00  0.00    -0.000 C 
BRANCH  21  22
ATOM     22  C   UNL     1      29.307  30.199  55.792  1.00  0.00    -0.000 C 
BRANCH  22  23
ATOM     23  C   UNL     1      28.055  29.962  54.933  1.00  0.00    -0.000 C 
BRANCH  23  24
ATOM     24  C   UNL     1      26.777  30.278  55.718  1.00  0.00    -0.000 C 
BRANCH  24  25
ATOM     25  C   UNL     1      25.529  29.864  54.928  1.00  0.00    -0.003 C 
ATOM     26  C   UNL     1      24.293  30.613  55.412  1.00  0.00     0.004 C 
ENDBRANCH  24  25
ENDBRANCH  23  24
ENDBRANCH  22  23
ENDBRANCH  21  22
ENDBRANCH  20  21
ENDBRANCH  19  20
ENDBRANCH  18  19
ENDBRANCH  17  18
ENDBRANCH  16  17
ENDBRANCH  15  16
ENDBRANCH   1  15
TORSDOF 22
ENDMDL
MODEL 3
REMARK VINA RESULT:    -3.073      1.947      4.819
REMARK INTER + INTRA:         -11.135
REMARK INTER:                  -6.380
REMARK INTRA:                  -4.755
REMARK UNBOUND:                -4.110
REMARK SMILES CCCCCCCCCCCCCCCCCCCCCCCC(=O)[O-]
REMARK SMILES IDX 13 1 14 2 15 3 16 4 17 5 18 6 19 7 20 8 21 9 22 10 23 11
REMARK SMILES IDX 24 12 25 13 26 14 12 15 11 16 10 17 9 18 8 19 7 20 6 21 5 22
REMARK SMILES IDX 4 23 3 24 2 25 1 26
REMARK H PARENT
REMARK Flexibility Score: inf
ROOT
ATOM      1  C   UNL     1      29.381  34.818  53.684  1.00  0.00     0.000 C 
ENDROOT
BRANCH   1   2
ATOM      2  C   UNL     1      28.160  33.892  53.564  1.00  0.00     0.000 C 
BRANCH   2   3
ATOM      3  C   UNL     1      26.869  34.660  53.227  1.00  0.00     0.000 C 
BRANCH   3   4
ATOM      4  C   UNL     1      25.687  33.723  52.929  1.00  0.00     0.000 C 
BRANCH   4   5
ATOM      5  C   UNL     1      25.996  32.256  53.272  1.00  0.00     0.000 C 
BRANCH   5   6
ATOM      6  C   UNL     1      25.032  31.270  52.595  1.00  0.00     0.000 C 
BRANCH   6   7
ATOM      7  C   UNL     1      25.676  29.899  52.328  1.00  0.00     0.000 C 
BRANCH   7   8
ATOM      8  C   UNL     1      25.832  29.051  53.603  1.00  0.00     0.000 C 
BRANCH   8   9
ATOM      9  C   UNL     1      24.708  29.228  54.640  1.00  0.00     0.000 C 
BRANCH   9  10
ATOM     10  C   UNL     1      25.238  29.429  56.069  1.00  0.00     0.006 C 
BRANCH  10  11
ATOM     11  C   UNL     1      26.385  28.464  56.402  1.00  0.00     0.053 C 
BRANCH  11  12
ATOM     12  C   UNL     1      26.081  27.635  57.612  1.00  0.00     0.041 C 
ATOM     13  O   UNL     1      26.811  27.715  58.635  1.00  0.00    -0.550 OA
ATOM     14  O   UNL     1      25.013  26.747  57.597  1.00  0.00    -0.550 OA
ENDBRANCH  11  12
ENDBRANCH  10  11
ENDBRANCH   9  10
ENDBRANCH   8   9
ENDBRANCH   7   8
ENDBRANCH   6   7
ENDBRANCH   5   6
ENDBRANCH   4   5
ENDBRANCH   3   4
ENDBRANCH   2   3
ENDBRANCH   1   2
BRANCH   1  15
ATOM     15  C   UNL     1      30.705  34.086  53.963  1.00  0.00     0.000 C 
BRANCH  15  16
ATOM     16  C   UNL     1      30.947  33.809  55.465  1.00  0.00     0.000 C 
BRANCH  16  17
ATOM     17  C   UNL     1      30.988  32.303  55.808  1.00  0.00     0.000 C 
BRANCH  17  18
ATOM     18  C   UNL     1      29.683  31.782  56.445  1.00  0.00    -0.000 C 
BRANCH  18  19
ATOM     19  C   UNL     1      28.755  31.036  55.466  1.00  0.00    -0.000 C 
BRANCH  19  20
ATOM     20  C   UNL     1      29.515  30.107  54.496  1.00  0.00    -0.000 C 
BRANCH  20  21
ATOM     21  C   UNL     1      29.256  30.414  53.007  1.00  0.00    -0.000 C 
BRANCH  21  22
ATOM     22  C   UNL     1      30.506  30.872  52.227  1.00  0.00    -0.000 C 
BRANCH  22  23
ATOM     23  C   UNL     1      30.159  31.622  50.931  1.00  0.00    -0.000 C 
BRANCH  23  24
ATOM     24  C   UNL     1      28.647  31.623  50.681  1.00  0.00    -0.000 C 
BRANCH  24  25
ATOM     25  C   UNL     1      28.194  32.946  50.053  1.00  0.00    -0.003 C 
ATOM     26  C   UNL     1      26.793  32.829  49.464  1.00  0.00     0.004 C 
ENDBRANCH  24  25
ENDBRANCH  23  24
ENDBRANCH  22  23
ENDBRANCH  21  22
ENDBRANCH  20  21
ENDBRANCH  19  20
ENDBRANCH  18  19
ENDBRANCH  17  18
ENDBRANCH  16  17
ENDBRANCH  15  16
ENDBRANCH   1  15
TORSDOF 22
ENDMDL
MODEL 4
REMARK VINA RESULT:    -3.032      6.709     11.223
REMARK INTER + INTRA:         -11.041
REMARK INTER:                  -6.368
REMARK INTRA:                  -4.673
REMARK UNBOUND:                -4.110
REMARK SMILES CCCCCCCCCCCCCCCCCCCCCCCC(=O)[O-]
REMARK SMILES IDX 13 1 14 2 15 3 16 4 17 5 18 6 19 7 20 8 21 9 22 10 23 11
REMARK SMILES IDX 24 12 25 13 26 14 12 15 11 16 10 17 9 18 8 19 7 20 6 21 5 22
REMARK SMILES IDX 4 23 3 24 2 25 1 26
REMARK H PARENT
REMARK Flexibility Score: inf
ROOT
ATOM      1  C   UNL     1      20.846  26.128  53.961  1.00  0.00     0.000 C 
ENDROOT
BRANCH   1   2
ATOM      2  C   UNL     1      19.750  27.139  54.339  1.00  0.00     0.000 C 
BRANCH   2   3
ATOM      3  C   UNL     1      18.496  26.459  54.917  1.00  0.00     0.000 C 
BRANCH   3   4
ATOM      4  C   UNL     1      18.065  27.066  56.263  1.00  0.00     0.000 C 
BRANCH   4   5
ATOM      5  C   UNL     1      17.560  28.512  56.123  1.00  0.00     0.000 C 
BRANCH   5   6
ATOM      6  C   UNL     1      16.331  28.628  55.210  1.00  0.00     0.000 C 
BRANCH   6   7
ATOM      7  C   UNL     1      16.363  29.886  54.325  1.00  0.00     0.000 C 
BRANCH   7   8
ATOM      8  C   UNL     1      17.763  30.185  53.759  1.00  0.00     0.000 C 
BRANCH   8   9
ATOM      9  C   UNL     1      17.844  30.230  52.222  1.00  0.00     0.000 C 
BRANCH   9  10
ATOM     10  C   UNL     1      18.224  28.875  51.602  1.00  0.00     0.006 C 
BRANCH  10  11
ATOM     11  C   UNL     1      17.111  28.317  50.704  1.00  0.00     0.053 C 
BRANCH  11  12
ATOM     12  C   UNL     1      16.060  27.603  51.499  1.00  0.00     0.041 C 
ATOM     13  O   UNL     1      14.917  28.111  51.639  1.00  0.00    -0.550 OA
ATOM     14  O   UNL     1      16.355  26.393  52.114  1.00  0.00    -0.550 OA
ENDBRANCH  11  12
ENDBRANCH  10  11
ENDBRANCH   9  10
ENDBRANCH   8   9
ENDBRANCH   7   8
ENDBRANCH   6   7
ENDBRANCH   5   6
ENDBRANCH   4   5
ENDBRANCH   3   4
ENDBRANCH   2   3
ENDBRANCH   1   2
BRANCH   1  15
ATOM     15  C   UNL     1      22.149  26.278  54.764  1.00  0.00     0.000 C 
BRANCH  15  16
ATOM     16  C   UNL     1      21.937  26.200  56.295  1.00  0.00     0.000 C 
BRANCH  16  17
ATOM     17  C   UNL     1      23.057  26.896  57.100  1.00  0.00     0.000 C 
BRANCH  17  18
ATOM     18  C   UNL     1      22.540  27.675  58.326  1.00  0.00    -0.000 C 
BRANCH  18  19
ATOM     19  C   UNL     1      21.008  27.651  58.491  1.00  0.00    -0.000 C 
BRANCH  19  20
ATOM     20  C   UNL     1      20.372  29.057  58.466  1.00  0.00    -0.000 C 
BRANCH  20  21
ATOM     21  C   UNL     1      21.178  30.091  57.653  1.00  0.00    -0.000 C 
BRANCH  21  22
ATOM     22  C   UNL     1      20.872  30.085  56.140  1.00  0.00    -0.000 C 
BRANCH  22  23
ATOM     23  C   UNL     1      22.143  30.035  55.276  1.00  0.00    -0.000 C 
BRANCH  23  24
ATOM     24  C   UNL     1      23.365  30.523  56.061  1.00  0.00    -0.000 C 
BRANCH  24  25
ATOM     25  C   UNL     1      24.667  30.084  55.380  1.00  0.00    -0.003 C 
ATOM     26  C   UNL     1      24.398  29.074  54.270  1.00  0.00     0.004 C 
ENDBRANCH  24  25
ENDBRANCH  23  24
ENDBRANCH  22  23
ENDBRANCH  21  22
ENDBRANCH  20  21
ENDBRANCH  19  20
ENDBRANCH  18  19
ENDBRANCH  17  18
ENDBRANCH  16  17
ENDBRANCH  15  16
ENDBRANCH   1  15
TORSDOF 22
ENDMDL
MODEL 5
REMARK VINA RESULT:    -3.024      1.785      4.356
REMARK INTER + INTRA:         -11.022
REMARK INTER:                  -6.105
REMARK INTRA:                  -4.917
REMARK UNBOUND:                -4.110
REMARK SMILES CCCCCCCCCCCCCCCCCCCCCCCC(=O)[O-]
REMARK SMILES IDX 13 1 14 2 15 3 16 4 17 5 18 6 19 7 20 8 21 9 22 10 23 11
REMARK SMILES IDX 24 12 25 13 26 14 12 15 11 16 10 17 9 18 8 19 7 20 6 21 5 22
REMARK SMILES IDX 4 23 3 24 2 25 1 26
REMARK H PARENT
REMARK Flexibility Score: inf
ROOT
ATOM      1  C   UNL     1      31.491  32.791  52.797  1.00  0.00     0.000 C 
ENDROOT
BRANCH   1   2
ATOM      2  C   UNL     1      30.051  33.239  52.498  1.00  0.00     0.000 C 
BRANCH   2   3
ATOM      3  C   UNL     1      29.587  34.384  53.417  1.00  0.00     0.000 C 
BRANCH   3   4
ATOM      4  C   UNL     1      28.056  34.473  53.521  1.00  0.00     0.000 C 
BRANCH   4   5
ATOM      5  C   UNL     1      27.343  33.606  52.469  1.00  0.00     0.000 C 
BRANCH   5   6
ATOM      6  C   UNL     1      25.834  33.480  52.725  1.00  0.00     0.000 C 
BRANCH   6   7
ATOM      7  C   UNL     1      25.311  32.049  52.510  1.00  0.00     0.000 C 
BRANCH   7   8
ATOM      8  C   UNL     1      24.965  31.333  53.828  1.00  0.00     0.000 C 
BRANCH   8   9
ATOM      9  C   UNL     1      24.445  29.894  53.665  1.00  0.00     0.000 C 
BRANCH   9  10
ATOM     10  C   UNL     1      25.085  28.909  54.657  1.00  0.00     0.006 C 
BRANCH  10  11
ATOM     11  C   UNL     1      25.009  29.415  56.104  1.00  0.00     0.053 C 
BRANCH  11  12
ATOM     12  C   UNL     1      23.610  29.370  56.636  1.00  0.00     0.041 C 
ATOM     13  O   UNL     1      23.075  28.267  56.924  1.00  0.00    -0.550 OA
ATOM     14  O   UNL     1      22.882  30.545  56.781  1.00  0.00    -0.550 OA
ENDBRANCH  11  12
ENDBRANCH  10  11
ENDBRANCH   9  10
ENDBRANCH   8   9
ENDBRANCH   7   8
ENDBRANCH   6   7
ENDBRANCH   5   6
ENDBRANCH   4   5
ENDBRANCH   3   4
ENDBRANCH   2   3
ENDBRANCH   1   2
BRANCH   1  15
ATOM     15  C   UNL     1      31.593  31.582  53.742  1.00  0.00     0.000 C 
BRANCH  15  16
ATOM     16  C   UNL     1      31.773  31.978  55.227  1.00  0.00     0.000 C 
BRANCH  16  17
ATOM     17  C   UNL     1      30.756  31.294  56.167  1.00  0.00     0.000 C 
BRANCH  17  18
ATOM     18  C   UNL     1      29.356  31.939  56.133  1.00  0.00    -0.000 C 
BRANCH  18  19
ATOM     19  C   UNL     1      28.302  31.124  55.360  1.00  0.00    -0.000 C 
BRANCH  19  20
ATOM     20  C   UNL     1      28.626  29.616  55.297  1.00  0.00    -0.000 C 
BRANCH  20  21
ATOM     21  C   UNL     1      28.800  29.075  53.863  1.00  0.00    -0.000 C 
BRANCH  21  22
ATOM     22  C   UNL     1      28.331  30.045  52.758  1.00  0.00    -0.000 C 
BRANCH  22  23
ATOM     23  C   UNL     1      27.760  29.319  51.529  1.00  0.00    -0.000 C 
BRANCH  23  24
ATOM     24  C   UNL     1      27.760  30.231  50.298  1.00  0.00    -0.000 C 
BRANCH  24  25
ATOM     25  C   UNL     1      29.146  30.847  50.070  1.00  0.00    -0.003 C 
ATOM     26  C   UNL     1      30.144  29.801  49.586  1.00  0.00     0.004 C 
ENDBRANCH  24  25
ENDBRANCH  23  24
ENDBRANCH  22  23
ENDBRANCH  21  22
ENDBRANCH  20  21
ENDBRANCH  19  20
ENDBRANCH  18  19
ENDBRANCH  17  18
ENDBRANCH  16  17
ENDBRANCH  15  16
ENDBRANCH   1  15
TORSDOF 22
ENDMDL
MODEL 6
REMARK VINA RESULT:    -3.017      2.451      5.295
REMARK INTER + INTRA:         -11.006
REMARK INTER:                  -6.592
REMARK INTRA:                  -4.414
REMARK UNBOUND:                -4.110
REMARK SMILES CCCCCCCCCCCCCCCCCCCCCCCC(=O)[O-]
REMARK SMILES IDX 13 1 14 2 15 3 16 4 17 5 18 6 19 7 20 8 21 9 22 10 23 11
REMARK SMILES IDX 24 12 25 13 26 14 12 15 11 16 10 17 9 18 8 19 7 20 6 21 5 22
REMARK SMILES IDX 4 23 3 24 2 25 1 26
REMARK H PARENT
REMARK Flexibility Score: inf
ROOT
ATOM      1  C   UNL     1      25.680  33.365  52.866  1.00  0.00     0.000 C 
ENDROOT
BRANCH   1   2
ATOM      2  C   UNL     1      25.690  31.978  53.531  1.00  0.00     0.000 C 
BRANCH   2   3
ATOM      3  C   UNL     1      24.834  30.952  52.768  1.00  0.00     0.000 C 
BRANCH   3   4
ATOM      4  C   UNL     1      23.949  30.112  53.703  1.00  0.00     0.000 C 
BRANCH   4   5
ATOM      5  C   UNL     1      23.903  30.673  55.134  1.00  0.00     0.000 C 
BRANCH   5   6
ATOM      6  C   UNL     1      24.315  29.640  56.193  1.00  0.00     0.000 C 
BRANCH   6   7
ATOM      7  C   UNL     1      25.490  28.758  55.737  1.00  0.00     0.000 C 
BRANCH   7   8
ATOM      8  C   UNL     1      26.743  28.929  56.615  1.00  0.00     0.000 C 
BRANCH   8   9
ATOM      9  C   UNL     1      27.288  30.367  56.692  1.00  0.00     0.000 C 
BRANCH   9  10
ATOM     10  C   UNL     1      28.797  30.452  56.411  1.00  0.00     0.006 C 
BRANCH  10  11
ATOM     11  C   UNL     1      29.205  31.820  55.850  1.00  0.00     0.053 C 
BRANCH  11  12
ATOM     12  C   UNL     1      30.652  32.116  56.101  1.00  0.00     0.041 C 
ATOM     13  O   UNL     1      31.499  31.184  56.099  1.00  0.00    -0.550 OA
ATOM     14  O   UNL     1      31.061  33.415  56.373  1.00  0.00    -0.550 OA
ENDBRANCH  11  12
ENDBRANCH  10  11
ENDBRANCH   9  10
ENDBRANCH   8   9
ENDBRANCH   7   8
ENDBRANCH   6   7
ENDBRANCH   5   6
ENDBRANCH   4   5
ENDBRANCH   3   4
ENDBRANCH   2   3
ENDBRANCH   1   2
BRANCH   1  15
ATOM     15  C   UNL     1      26.950  34.195  53.114  1.00  0.00     0.000 C 
BRANCH  15  16
ATOM     16  C   UNL     1      28.214  33.593  52.455  1.00  0.00     0.000 C 
BRANCH  16  17
ATOM     17  C   UNL     1      29.527  34.229  52.962  1.00  0.00     0.000 C 
BRANCH  17  18
ATOM     18  C   UNL     1      30.756  33.310  52.808  1.00  0.00    -0.000 C 
BRANCH  18  19
ATOM     19  C   UNL     1      30.515  32.076  51.917  1.00  0.00    -0.000 C 
BRANCH  19  20
ATOM     20  C   UNL     1      31.131  30.783  52.492  1.00  0.00    -0.000 C 
BRANCH  20  21
ATOM     21  C   UNL     1      30.164  29.581  52.501  1.00  0.00    -0.000 C 
BRANCH  21  22
ATOM     22  C   UNL     1      28.680  29.964  52.686  1.00  0.00    -0.000 C 
BRANCH  22  23
ATOM     23  C   UNL     1      27.782  29.429  51.559  1.00  0.00    -0.000 C 
BRANCH  23  24
ATOM     24  C   UNL     1      28.117  30.096  50.221  1.00  0.00    -0.000 C 
BRANCH  24  25
ATOM     25  C   UNL     1      27.105  31.199  49.887  1.00  0.00    -0.003 C 
ATOM     26  C   UNL     1      27.772  32.362  49.160  1.00  0.00     0.004 C 
ENDBRANCH  24  25
ENDBRANCH  23  24
ENDBRANCH  22  23
ENDBRANCH  21  22
ENDBRANCH  20  21
ENDBRANCH  19  20
ENDBRANCH  18  19
ENDBRANCH  17  18
ENDBRANCH  16  17
ENDBRANCH  15  16
ENDBRANCH   1  15
TORSDOF 22
ENDMDL
MODEL 7
REMARK VINA RESULT:    -3.013      2.647      5.400
REMARK INTER + INTRA:         -10.998
REMARK INTER:                  -6.353
REMARK INTRA:                  -4.645
REMARK UNBOUND:                -4.110
REMARK SMILES CCCCCCCCCCCCCCCCCCCCCCCC(=O)[O-]
REMARK SMILES IDX 13 1 14 2 15 3 16 4 17 5 18 6 19 7 20 8 21 9 22 10 23 11
REMARK SMILES IDX 24 12 25 13 26 14 12 15 11 16 10 17 9 18 8 19 7 20 6 21 5 22
REMARK SMILES IDX 4 23 3 24 2 25 1 26
REMARK H PARENT
REMARK Flexibility Score: inf
ROOT
ATOM      1  C   UNL     1      29.839  33.981  52.533  1.00  0.00     0.000 C 
ENDROOT
BRANCH   1   2
ATOM      2  C   UNL     1      30.974  33.600  53.499  1.00  0.00     0.000 C 
BRANCH   2   3
ATOM      3  C   UNL     1      30.609  33.867  54.970  1.00  0.00     0.000 C 
BRANCH   3   4
ATOM      4  C   UNL     1      31.165  32.792  55.919  1.00  0.00     0.000 C 
BRANCH   4   5
ATOM      5  C   UNL     1      30.429  31.449  55.784  1.00  0.00     0.000 C 
BRANCH   5   6
ATOM      6  C   UNL     1      28.903  31.593  55.885  1.00  0.00     0.000 C 
BRANCH   6   7
ATOM      7  C   UNL     1      28.159  30.825  54.779  1.00  0.00     0.000 C 
BRANCH   7   8
ATOM      8  C   UNL     1      29.086  30.368  53.639  1.00  0.00     0.000 C 
BRANCH   8   9
ATOM      9  C   UNL     1      28.407  30.248  52.262  1.00  0.00     0.000 C 
BRANCH   9  10
ATOM     10  C   UNL     1      29.326  30.666  51.103  1.00  0.00     0.006 C 
BRANCH  10  11
ATOM     11  C   UNL     1      28.540  30.951  49.816  1.00  0.00     0.053 C 
BRANCH  11  12
ATOM     12  C   UNL     1      28.839  32.315  49.272  1.00  0.00     0.041 C 
ATOM     13  O   UNL     1      30.028  32.724  49.206  1.00  0.00    -0.550 OA
ATOM     14  O   UNL     1      27.802  33.147  48.870  1.00  0.00    -0.550 OA
ENDBRANCH  11  12
ENDBRANCH  10  11
ENDBRANCH   9  10
ENDBRANCH   8   9
ENDBRANCH   7   8
ENDBRANCH   6   7
ENDBRANCH   5   6
ENDBRANCH   4   5
ENDBRANCH   3   4
ENDBRANCH   2   3
ENDBRANCH   1   2
BRANCH   1  15
ATOM     15  C   UNL     1      28.474  34.189  53.212  1.00  0.00     0.000 C 
BRANCH  15  16
ATOM     16  C   UNL     1      27.281  33.727  52.342  1.00  0.00     0.000 C 
BRANCH  16  17
ATOM     17  C   UNL     1      26.006  33.435  53.163  1.00  0.00     0.000 C 
BRANCH  17  18
ATOM     18  C   UNL     1      25.256  32.168  52.705  1.00  0.00    -0.000 C 
BRANCH  18  19
ATOM     19  C   UNL     1      25.290  31.928  51.183  1.00  0.00    -0.000 C 
BRANCH  19  20
ATOM     20  C   UNL     1      24.624  30.601  50.762  1.00  0.00    -0.000 C 
BRANCH  20  21
ATOM     21  C   UNL     1      24.924  29.424  51.712  1.00  0.00    -0.000 C 
BRANCH  21  22
ATOM     22  C   UNL     1      23.671  28.793  52.357  1.00  0.00    -0.000 C 
BRANCH  22  23
ATOM     23  C   UNL     1      23.312  29.429  53.710  1.00  0.00    -0.000 C 
BRANCH  23  24
ATOM     24  C   UNL     1      24.421  29.195  54.742  1.00  0.00    -0.000 C 
BRANCH  24  25
ATOM     25  C   UNL     1      24.443  30.315  55.789  1.00  0.00    -0.003 C 
ATOM     26  C   UNL     1      23.131  30.373  56.564  1.00  0.00     0.004 C 
ENDBRANCH  24  25
ENDBRANCH  23  24
ENDBRANCH  22  23
ENDBRANCH  21  22
ENDBRANCH  20  21
ENDBRANCH  19  20
ENDBRANCH  18  19
ENDBRANCH  17  18
ENDBRANCH  16  17
ENDBRANCH  15  16
ENDBRANCH   1  15
TORSDOF 22
ENDMDL
MODEL 8
REMARK VINA RESULT:    -3.013      2.228      6.134
REMARK INTER + INTRA:         -10.997
REMARK INTER:                  -6.648
REMARK INTRA:                  -4.350
REMARK UNBOUND:                -4.110
REMARK SMILES CCCCCCCCCCCCCCCCCCCCCCCC(=O)[O-]
REMARK SMILES IDX 13 1 14 2 15 3 16 4 17 5 18 6 19 7 20 8 21 9 22 10 23 11
REMARK SMILES IDX 24 12 25 13 26 14 12 15 11 16 10 17 9 18 8 19 7 20 6 21 5 22
REMARK SMILES IDX 4 23 3 24 2 25 1 26
REMARK H PARENT
REMARK Flexibility Score: inf
ROOT
ATOM      1  C   UNL     1      25.368  29.824  55.542  1.00  0.00     0.000 C 
ENDROOT
BRANCH   1   2
ATOM      2  C   UNL     1      25.386  30.284  54.075  1.00  0.00     0.000 C 
BRANCH   2   3
ATOM      3  C   UNL     1      24.884  31.729  53.904  1.00  0.00     0.000 C 
BRANCH   3   4
ATOM      4  C   UNL     1      25.453  32.406  52.647  1.00  0.00     0.000 C 
BRANCH   4   5
ATOM      5  C   UNL     1      25.918  33.848  52.912  1.00  0.00     0.000 C 
BRANCH   5   6
ATOM      6  C   UNL     1      27.438  34.017  52.781  1.00  0.00     0.000 C 
BRANCH   6   7
ATOM      7  C   UNL     1      28.125  32.776  52.187  1.00  0.00     0.000 C 
BRANCH   7   8
ATOM      8  C   UNL     1      29.095  33.118  51.041  1.00  0.00     0.000 C 
BRANCH   8   9
ATOM      9  C   UNL     1      28.502  32.979  49.628  1.00  0.00     0.000 C 
BRANCH   9  10
ATOM     10  C   UNL     1      27.472  31.842  49.519  1.00  0.00     0.006 C 
BRANCH  10  11
ATOM     11  C   UNL     1      26.462  32.082  48.388  1.00  0.00     0.053 C 
BRANCH  11  12
ATOM     12  C   UNL     1      25.137  32.542  48.914  1.00  0.00     0.041 C 
ATOM     13  O   UNL     1      25.037  33.654  49.496  1.00  0.00    -0.550 OA
ATOM     14  O   UNL     1      24.019  31.726  48.795  1.00  0.00    -0.550 OA
ENDBRANCH  11  12
ENDBRANCH  10  11
ENDBRANCH   9  10
ENDBRANCH   8   9
ENDBRANCH   7   8
ENDBRANCH   6   7
ENDBRANCH   5   6
ENDBRANCH   4   5
ENDBRANCH   3   4
ENDBRANCH   2   3
ENDBRANCH   1   2
BRANCH   1  15
ATOM     15  C   UNL     1      26.619  30.221  56.345  1.00  0.00     0.000 C 
BRANCH  15  16
ATOM     16  C   UNL     1      27.923  30.167  55.514  1.00  0.00     0.000 C 
BRANCH  16  17
ATOM     17  C   UNL     1      28.687  31.509  55.492  1.00  0.00     0.000 C 
BRANCH  17  18
ATOM     18  C   UNL     1      29.862  31.564  56.489  1.00  0.00    -0.000 C 
BRANCH  18  19
ATOM     19  C   UNL     1      31.069  32.389  56.001  1.00  0.00    -0.000 C 
BRANCH  19  20
ATOM     20  C   UNL     1      30.746  33.272  54.778  1.00  0.00    -0.000 C 
BRANCH  20  21
ATOM     21  C   UNL     1      31.523  32.881  53.504  1.00  0.00    -0.000 C 
BRANCH  21  22
ATOM     22  C   UNL     1      32.324  31.568  53.628  1.00  0.00    -0.000 C 
BRANCH  22  23
ATOM     23  C   UNL     1      31.952  30.538  52.549  1.00  0.00    -0.000 C 
BRANCH  23  24
ATOM     24  C   UNL     1      30.671  29.784  52.923  1.00  0.00    -0.000 C 
BRANCH  24  25
ATOM     25  C   UNL     1      29.846  29.450  51.674  1.00  0.00    -0.003 C 
ATOM     26  C   UNL     1      28.376  29.239  52.021  1.00  0.00     0.004 C 
ENDBRANCH  24  25
ENDBRANCH  23  24
ENDBRANCH  22  23
ENDBRANCH  21  22
ENDBRANCH  20  21
ENDBRANCH  19  20
ENDBRANCH  18  19
ENDBRANCH  17  18
ENDBRANCH  16  17
ENDBRANCH  15  16
ENDBRANCH   1  15
TORSDOF 22
ENDMDL
MODEL 9
REMARK VINA RESULT:    -3.006      2.497      5.207
REMARK INTER + INTRA:         -10.981
REMARK INTER:                  -6.547
REMARK INTRA:                  -4.434
REMARK UNBOUND:                -4.110
REMARK SMILES CCCCCCCCCCCCCCCCCCCCCCCC(=O)[O-]
REMARK SMILES IDX 13 1 14 2 15 3 16 4 17 5 18 6 19 7 20 8 21 9 22 10 23 11
REMARK SMILES IDX 24 12 25 13 26 14 12 15 11 16 10 17 9 18 8 19 7 20 6 21 5 22
REMARK SMILES IDX 4 23 3 24 2 25 1 26
REMARK H PARENT
REMARK Flexibility Score: inf
ROOT
ATOM      1  C   UNL     1      27.757  29.568  57.565  1.00  0.00     0.000 C 
ENDROOT
BRANCH   1   2
ATOM      2  C   UNL     1      28.298  31.007  57.535  1.00  0.00     0.000 C 
BRANCH   2   3
ATOM      3  C   UNL     1      28.915  31.375  56.173  1.00  0.00     0.000 C 
BRANCH   3   4
ATOM      4  C   UNL     1      30.450  31.444  56.222  1.00  0.00     0.000 C 
BRANCH   4   5
ATOM      5  C   UNL     1      31.006  32.697  55.525  1.00  0.00     0.000 C 
BRANCH   5   6
ATOM      6  C   UNL     1      29.979  33.372  54.604  1.00  0.00     0.000 C 
BRANCH   6   7
ATOM      7  C   UNL     1      30.555  33.708  53.218  1.00  0.00     0.000 C 
BRANCH   7   8
ATOM      8  C   UNL     1      29.503  33.631  52.096  1.00  0.00     0.000 C 
BRANCH   8   9
ATOM      9  C   UNL     1      28.049  33.495  52.582  1.00  0.00     0.000 C 
BRANCH   9  10
ATOM     10  C   UNL     1      27.050  33.291  51.431  1.00  0.00     0.006 C 
BRANCH  10  11
ATOM     11  C   UNL     1      27.751  32.965  50.106  1.00  0.00     0.053 C 
BRANCH  11  12
ATOM     12  C   UNL     1      26.771  32.763  48.992  1.00  0.00     0.041 C 
ATOM     13  O   UNL     1      26.221  31.642  48.826  1.00  0.00    -0.550 OA
ATOM     14  O   UNL     1      26.490  33.802  48.114  1.00  0.00    -0.550 OA
ENDBRANCH  11  12
ENDBRANCH  10  11
ENDBRANCH   9  10
ENDBRANCH   8   9
ENDBRANCH   7   8
ENDBRANCH   6   7
ENDBRANCH   5   6
ENDBRANCH   4   5
ENDBRANCH   3   4
ENDBRANCH   2   3
ENDBRANCH   1   2
BRANCH   1  15
ATOM     15  C   UNL     1      27.209  29.069  56.217  1.00  0.00     0.000 C 
BRANCH  15  16
ATOM     16  C   UNL     1      25.668  28.927  56.198  1.00  0.00     0.000 C 
BRANCH  16  17
ATOM     17  C   UNL     1      24.930  30.281  56.289  1.00  0.00     0.000 C 
BRANCH  17  18
ATOM     18  C   UNL     1      24.168  30.654  55.002  1.00  0.00    -0.000 C 
BRANCH  18  19
ATOM     19  C   UNL     1      25.064  31.189  53.868  1.00  0.00    -0.000 C 
BRANCH  19  20
ATOM     20  C   UNL     1      24.736  30.572  52.492  1.00  0.00    -0.000 C 
BRANCH  20  21
ATOM     21  C   UNL     1      25.937  29.877  51.818  1.00  0.00    -0.000 C 
BRANCH  21  22
ATOM     22  C   UNL     1      27.113  29.575  52.771  1.00  0.00    -0.000 C 
BRANCH  22  23
ATOM     23  C   UNL     1      28.480  29.913  52.156  1.00  0.00    -0.000 C 
BRANCH  23  24
ATOM     24  C   UNL     1      29.624  29.473  53.077  1.00  0.00    -0.000 C 
BRANCH  24  25
ATOM     25  C   UNL     1      30.933  30.178  52.702  1.00  0.00    -0.003 C 
ATOM     26  C   UNL     1      31.085  30.295  51.190  1.00  0.00     0.004 C 
ENDBRANCH  24  25
ENDBRANCH  23  24
ENDBRANCH  22  23
ENDBRANCH  21  22
ENDBRANCH  20  21
ENDBRANCH  19  20
ENDBRANCH  18  19
ENDBRANCH  17  18
ENDBRANCH  16  17
ENDBRANCH  15  16
ENDBRANCH   1  15
TORSDOF 22
ENDMDL
