MODEL 1
REMARK VINA RESULT:    -6.956      0.000      0.000
REMARK INTER + INTRA:         -11.752
REMARK INTER:                 -10.209
REMARK INTRA:                  -1.543
REMARK UNBOUND:                -1.543
REMARK SMILES O=c1c(O[C@H]2O[C@@H](CO)[C@H](O)[C@H](O)[C@@H]2O)c(-c2ccc(O)c(O)c2)oc2cc(O)cc(O)c12
REMARK SMILES IDX 4 1 3 2 16 3 25 4 2 5 26 6 1 7 33 8 27 9 31 10 28 11 30 12
REMARK SMILES IDX 17 13 18 14 19 15 20 16 24 17 22 18 21 19 23 21 32 23 29 25
REMARK SMILES IDX 5 27 14 28 6 29 12 30 7 31 10 32 15 33 13 35 8 37 9 38 11 40
REMARK H PARENT 21 20 23 22 32 24 29 26 15 34 13 36 9 39 11 41
REMARK Flexibility Score: inf
ROOT
ATOM      1  O   UNL     1     -13.648  -8.608  46.601  1.00  0.00    -0.454 OA
ENDROOT
BRANCH   1   2
ATOM      2  C   UNL     1     -12.408  -8.040  46.282  1.00  0.00     0.214 A 
ATOM      3  C   UNL     1     -12.139  -6.676  46.505  1.00  0.00     0.180 A 
ATOM      4  O   UNL     1     -10.916  -6.205  46.290  1.00  0.00    -0.452 OA
ATOM      5  C   UNL     1     -11.404  -8.850  45.739  1.00  0.00     0.239 A 
ATOM      6  C   UNL     1      -9.924  -6.943  45.806  1.00  0.00     0.146 A 
ATOM      7  O   UNL     1     -11.654 -10.070  45.558  1.00  0.00    -0.285 OA
ATOM      8  C   UNL     1     -10.130  -8.302  45.455  1.00  0.00     0.111 A 
ATOM      9  C   UNL     1      -8.668  -6.351  45.649  1.00  0.00     0.094 A 
ATOM     10  C   UNL     1      -9.043  -9.030  44.887  1.00  0.00     0.134 A 
ATOM     11  C   UNL     1      -7.597  -7.090  45.146  1.00  0.00     0.123 A 
ATOM     12  C   UNL     1      -7.788  -8.421  44.773  1.00  0.00     0.093 A 
BRANCH   3  13
ATOM     13  C   UNL     1     -13.177  -5.729  46.974  1.00  0.00     0.025 A 
ATOM     14  C   UNL     1     -14.143  -5.217  46.094  1.00  0.00     0.016 A 
ATOM     15  C   UNL     1     -15.111  -4.323  46.554  1.00  0.00     0.051 A 
ATOM     16  C   UNL     1     -15.126  -3.911  47.891  1.00  0.00     0.157 A 
ATOM     17  C   UNL     1     -13.175  -5.301  48.310  1.00  0.00     0.062 A 
ATOM     18  C   UNL     1     -14.141  -4.404  48.781  1.00  0.00     0.158 A 
BRANCH  16  19
ATOM     19  O   UNL     1     -16.124  -3.019  48.289  1.00  0.00    -0.504 OA
ATOM     20  H   UNL     1     -16.652  -3.108  49.144  1.00  0.00     0.293 HD
ENDBRANCH  16  19
BRANCH  18  21
ATOM     21  O   UNL     1     -14.086  -4.032  50.125  1.00  0.00    -0.504 OA
ATOM     22  H   UNL     1     -13.389  -3.412  50.512  1.00  0.00     0.293 HD
ENDBRANCH  18  21
ENDBRANCH   3  13
BRANCH  10  23
ATOM     23  O   UNL     1      -9.148 -10.336  44.398  1.00  0.00    -0.507 OA
ATOM     24  H   UNL     1      -8.950 -11.169  44.934  1.00  0.00     0.293 HD
ENDBRANCH  10  23
BRANCH  11  25
ATOM     25  O   UNL     1      -6.337  -6.511  45.005  1.00  0.00    -0.508 OA
ATOM     26  H   UNL     1      -6.035  -6.106  44.126  1.00  0.00     0.293 HD
ENDBRANCH  11  25
ENDBRANCH   1   2
BRANCH   1  27
ATOM     27  C   UNL     1     -14.577  -9.057  45.611  1.00  0.00     0.339 C 
ATOM     28  C   UNL     1     -15.893  -8.256  45.675  1.00  0.00     0.214 C 
ATOM     29  O   UNL     1     -14.783 -10.460  45.711  1.00  0.00    -0.332 OA
ATOM     30  C   UNL     1     -16.672  -8.618  46.948  1.00  0.00     0.180 C 
ATOM     31  C   UNL     1     -15.487 -10.866  46.881  1.00  0.00     0.179 C 
ATOM     32  C   UNL     1     -16.842 -10.138  47.061  1.00  0.00     0.177 C 
BRANCH  28  33
ATOM     33  O   UNL     1     -16.676  -8.527  44.540  1.00  0.00    -0.384 OA
ATOM     34  H   UNL     1     -16.714  -7.689  44.009  1.00  0.00     0.211 HD
ENDBRANCH  28  33
BRANCH  30  35
ATOM     35  O   UNL     1     -17.933  -7.999  46.944  1.00  0.00    -0.387 OA
ATOM     36  H   UNL     1     -18.005  -7.490  47.794  1.00  0.00     0.211 HD
ENDBRANCH  30  35
BRANCH  31  37
ATOM     37  C   UNL     1     -14.613 -10.842  48.154  1.00  0.00     0.191 C 
BRANCH  37  38
ATOM     38  O   UNL     1     -13.323 -11.317  47.877  1.00  0.00    -0.394 OA
ATOM     39  H   UNL     1     -13.414 -12.284  47.675  1.00  0.00     0.210 HD
ENDBRANCH  37  38
ENDBRANCH  31  37
BRANCH  32  40
ATOM     40  O   UNL     1     -17.754 -10.584  46.088  1.00  0.00    -0.387 OA
ATOM     41  H   UNL     1     -17.247 -11.167  45.462  1.00  0.00     0.211 HD
ENDBRANCH  32  40
ENDBRANCH   1  27
TORSDOF 12
ENDMDL
MODEL 2
REMARK VINA RESULT:    -6.846      3.568      7.051
REMARK INTER + INTRA:         -11.591
REMARK INTER:                  -9.866
REMARK INTRA:                  -1.725
REMARK UNBOUND:                -1.543
REMARK SMILES O=c1c(O[C@H]2O[C@@H](CO)[C@H](O)[C@H](O)[C@@H]2O)c(-c2ccc(O)c(O)c2)oc2cc(O)cc(O)c12
REMARK SMILES IDX 4 1 3 2 16 3 25 4 2 5 26 6 1 7 33 8 27 9 31 10 28 11 30 12
REMARK SMILES IDX 17 13 18 14 19 15 20 16 24 17 22 18 21 19 23 21 32 23 29 25
REMARK SMILES IDX 5 27 14 28 6 29 12 30 7 31 10 32 15 33 13 35 8 37 9 38 11 40
REMARK H PARENT 21 20 23 22 32 24 29 26 15 34 13 36 9 39 11 41
REMARK Flexibility Score: inf
ROOT
ATOM      1  O   UNL     1     -14.030  -5.863  45.023  1.00  0.00    -0.454 OA
ENDROOT
BRANCH   1   2
ATOM      2  C   UNL     1     -14.745  -6.114  43.845  1.00  0.00     0.214 A 
ATOM      3  C   UNL     1     -15.821  -7.021  43.811  1.00  0.00     0.180 A 
ATOM      4  O   UNL     1     -16.540  -7.145  42.701  1.00  0.00    -0.452 OA
ATOM      5  C   UNL     1     -14.391  -5.435  42.673  1.00  0.00     0.239 A 
ATOM      6  C   UNL     1     -16.261  -6.498  41.575  1.00  0.00     0.146 A 
ATOM      7  O   UNL     1     -13.437  -4.616  42.722  1.00  0.00    -0.285 OA
ATOM      8  C   UNL     1     -15.134  -5.641  41.486  1.00  0.00     0.111 A 
ATOM      9  C   UNL     1     -17.104  -6.681  40.475  1.00  0.00     0.094 A 
ATOM     10  C   UNL     1     -14.851  -5.017  40.234  1.00  0.00     0.134 A 
ATOM     11  C   UNL     1     -16.849  -6.019  39.273  1.00  0.00     0.123 A 
ATOM     12  C   UNL     1     -15.732  -5.192  39.161  1.00  0.00     0.093 A 
BRANCH   3  13
ATOM     13  C   UNL     1     -16.191  -7.858  44.976  1.00  0.00     0.025 A 
ATOM     14  C   UNL     1     -17.042  -7.369  45.979  1.00  0.00     0.016 A 
ATOM     15  C   UNL     1     -17.377  -8.171  47.072  1.00  0.00     0.051 A 
ATOM     16  C   UNL     1     -16.859  -9.465  47.192  1.00  0.00     0.157 A 
ATOM     17  C   UNL     1     -15.653  -9.146  45.105  1.00  0.00     0.062 A 
ATOM     18  C   UNL     1     -15.981  -9.958  46.198  1.00  0.00     0.158 A 
BRANCH  16  19
ATOM     19  O   UNL     1     -17.237 -10.218  48.306  1.00  0.00    -0.504 OA
ATOM     20  H   UNL     1     -18.193 -10.342  48.606  1.00  0.00     0.293 HD
ENDBRANCH  16  19
BRANCH  18  21
ATOM     21  O   UNL     1     -15.419 -11.235  46.255  1.00  0.00    -0.504 OA
ATOM     22  H   UNL     1     -15.956 -12.087  46.324  1.00  0.00     0.293 HD
ENDBRANCH  18  21
ENDBRANCH   3  13
BRANCH  10  23
ATOM     23  O   UNL     1     -13.714  -4.241  39.988  1.00  0.00    -0.507 OA
ATOM     24  H   UNL     1     -13.718  -3.343  39.529  1.00  0.00     0.293 HD
ENDBRANCH  10  23
BRANCH  11  25
ATOM     25  O   UNL     1     -17.697  -6.182  38.179  1.00  0.00    -0.508 OA
ATOM     26  H   UNL     1     -17.630  -6.990  37.572  1.00  0.00     0.293 HD
ENDBRANCH  11  25
ENDBRANCH   1   2
BRANCH   1  27
ATOM     27  C   UNL     1     -12.731  -6.406  45.276  1.00  0.00     0.339 C 
ATOM     28  C   UNL     1     -12.750  -7.365  46.482  1.00  0.00     0.214 C 
ATOM     29  O   UNL     1     -11.770  -5.368  45.417  1.00  0.00    -0.332 OA
ATOM     30  C   UNL     1     -12.963  -6.579  47.783  1.00  0.00     0.180 C 
ATOM     31  C   UNL     1     -11.921  -4.586  46.598  1.00  0.00     0.179 C 
ATOM     32  C   UNL     1     -11.947  -5.435  47.893  1.00  0.00     0.177 C 
BRANCH  28  33
ATOM     33  O   UNL     1     -11.542  -8.081  46.546  1.00  0.00    -0.384 OA
ATOM     34  H   UNL     1     -11.766  -8.999  46.852  1.00  0.00     0.211 HD
ENDBRANCH  28  33
BRANCH  30  35
ATOM     35  O   UNL     1     -12.843  -7.428  48.895  1.00  0.00    -0.387 OA
ATOM     36  H   UNL     1     -13.122  -6.901  49.690  1.00  0.00     0.211 HD
ENDBRANCH  30  35
BRANCH  31  37
ATOM     37  C   UNL     1     -13.087  -3.577  46.512  1.00  0.00     0.191 C 
BRANCH  37  38
ATOM     38  O   UNL     1     -13.207  -3.068  45.211  1.00  0.00    -0.394 OA
ATOM     39  H   UNL     1     -13.718  -3.740  44.689  1.00  0.00     0.210 HD
ENDBRANCH  37  38
ENDBRANCH  31  37
BRANCH  32  40
ATOM     40  O   UNL     1     -10.667  -5.963  48.139  1.00  0.00    -0.387 OA
ATOM     41  H   UNL     1     -10.181  -5.961  47.272  1.00  0.00     0.211 HD
ENDBRANCH  32  40
ENDBRANCH   1  27
TORSDOF 12
ENDMDL
MODEL 3
REMARK VINA RESULT:    -6.829      3.971      6.405
REMARK INTER + INTRA:         -11.566
REMARK INTER:                 -10.134
REMARK INTRA:                  -1.432
REMARK UNBOUND:                -1.543
REMARK SMILES O=c1c(O[C@H]2O[C@@H](CO)[C@H](O)[C@H](O)[C@@H]2O)c(-c2ccc(O)c(O)c2)oc2cc(O)cc(O)c12
REMARK SMILES IDX 4 1 3 2 16 3 25 4 2 5 26 6 1 7 33 8 27 9 31 10 28 11 30 12
REMARK SMILES IDX 17 13 18 14 19 15 20 16 24 17 22 18 21 19 23 21 32 23 29 25
REMARK SMILES IDX 5 27 14 28 6 29 12 30 7 31 10 32 15 33 13 35 8 37 9 38 11 40
REMARK H PARENT 21 20 23 22 32 24 29 26 15 34 13 36 9 39 11 41
REMARK Flexibility Score: inf
ROOT
ATOM      1  O   UNL     1     -15.075  -6.798  44.423  1.00  0.00    -0.454 OA
ENDROOT
BRANCH   1   2
ATOM      2  C   UNL     1     -14.849  -6.517  43.069  1.00  0.00     0.214 A 
ATOM      3  C   UNL     1     -13.548  -6.404  42.544  1.00  0.00     0.180 A 
ATOM      4  O   UNL     1     -13.380  -6.247  41.236  1.00  0.00    -0.452 OA
ATOM      5  C   UNL     1     -15.944  -6.358  42.212  1.00  0.00     0.239 A 
ATOM      6  C   UNL     1     -14.388  -6.123  40.380  1.00  0.00     0.146 A 
ATOM      7  O   UNL     1     -17.101  -6.476  42.693  1.00  0.00    -0.285 OA
ATOM      8  C   UNL     1     -15.733  -6.121  40.833  1.00  0.00     0.111 A 
ATOM      9  C   UNL     1     -14.095  -5.993  39.020  1.00  0.00     0.094 A 
ATOM     10  C   UNL     1     -16.773  -5.928  39.875  1.00  0.00     0.134 A 
ATOM     11  C   UNL     1     -15.124  -5.862  38.086  1.00  0.00     0.123 A 
ATOM     12  C   UNL     1     -16.451  -5.834  38.516  1.00  0.00     0.093 A 
BRANCH   3  13
ATOM     13  C   UNL     1     -12.340  -6.452  43.400  1.00  0.00     0.025 A 
ATOM     14  C   UNL     1     -11.972  -5.358  44.198  1.00  0.00     0.016 A 
ATOM     15  C   UNL     1     -10.828  -5.420  44.995  1.00  0.00     0.051 A 
ATOM     16  C   UNL     1     -10.023  -6.564  45.000  1.00  0.00     0.157 A 
ATOM     17  C   UNL     1     -11.522  -7.592  43.385  1.00  0.00     0.062 A 
ATOM     18  C   UNL     1     -10.372  -7.664  44.180  1.00  0.00     0.158 A 
BRANCH  16  19
ATOM     19  O   UNL     1      -8.895  -6.565  45.824  1.00  0.00    -0.504 OA
ATOM     20  H   UNL     1      -8.309  -7.372  45.978  1.00  0.00     0.293 HD
ENDBRANCH  16  19
BRANCH  18  21
ATOM     21  O   UNL     1      -9.613  -8.834  44.126  1.00  0.00    -0.504 OA
ATOM     22  H   UNL     1      -9.897  -9.670  43.635  1.00  0.00     0.293 HD
ENDBRANCH  18  21
ENDBRANCH   3  13
BRANCH  10  23
ATOM     23  O   UNL     1     -18.125  -5.796  40.206  1.00  0.00    -0.507 OA
ATOM     24  H   UNL     1     -18.578  -6.268  40.975  1.00  0.00     0.293 HD
ENDBRANCH  10  23
BRANCH  11  25
ATOM     25  O   UNL     1     -14.840  -5.752  36.726  1.00  0.00    -0.508 OA
ATOM     26  H   UNL     1     -14.314  -4.968  36.357  1.00  0.00     0.293 HD
ENDBRANCH  11  25
ENDBRANCH   1   2
BRANCH   1  27
ATOM     27  C   UNL     1     -14.753  -8.057  45.021  1.00  0.00     0.339 C 
ATOM     28  C   UNL     1     -15.898  -9.073  44.836  1.00  0.00     0.214 C 
ATOM     29  O   UNL     1     -14.385  -7.889  46.384  1.00  0.00    -0.332 OA
ATOM     30  C   UNL     1     -17.105  -8.675  45.697  1.00  0.00     0.180 C 
ATOM     31  C   UNL     1     -15.458  -7.502  47.237  1.00  0.00     0.179 C 
ATOM     32  C   UNL     1     -16.678  -8.453  47.153  1.00  0.00     0.177 C 
BRANCH  28  33
ATOM     33  O   UNL     1     -15.459 -10.361  45.191  1.00  0.00    -0.384 OA
ATOM     34  H   UNL     1     -15.324 -10.359  46.174  1.00  0.00     0.211 HD
ENDBRANCH  28  33
BRANCH  30  35
ATOM     35  O   UNL     1     -18.097  -9.669  45.641  1.00  0.00    -0.387 OA
ATOM     36  H   UNL     1     -18.475  -9.748  46.556  1.00  0.00     0.211 HD
ENDBRANCH  30  35
BRANCH  31  37
ATOM     37  C   UNL     1     -15.840  -6.012  47.093  1.00  0.00     0.191 C 
BRANCH  37  38
ATOM     38  O   UNL     1     -14.694  -5.219  46.941  1.00  0.00    -0.394 OA
ATOM     39  H   UNL     1     -14.931  -4.312  47.267  1.00  0.00     0.210 HD
ENDBRANCH  37  38
ENDBRANCH  31  37
BRANCH  32  40
ATOM     40  O   UNL     1     -16.358  -9.687  47.745  1.00  0.00    -0.387 OA
ATOM     41  H   UNL     1     -15.557 -10.036  47.272  1.00  0.00     0.211 HD
ENDBRANCH  32  40
ENDBRANCH   1  27
TORSDOF 12
ENDMDL
MODEL 4
REMARK VINA RESULT:    -6.804      6.575     10.259
REMARK INTER + INTRA:         -11.528
REMARK INTER:                 -10.055
REMARK INTRA:                  -1.474
REMARK UNBOUND:                -1.543
REMARK SMILES O=c1c(O[C@H]2O[C@@H](CO)[C@H](O)[C@H](O)[C@@H]2O)c(-c2ccc(O)c(O)c2)oc2cc(O)cc(O)c12
REMARK SMILES IDX 4 1 3 2 16 3 25 4 2 5 26 6 1 7 33 8 27 9 31 10 28 11 30 12
REMARK SMILES IDX 17 13 18 14 19 15 20 16 24 17 22 18 21 19 23 21 32 23 29 25
REMARK SMILES IDX 5 27 14 28 6 29 12 30 7 31 10 32 15 33 13 35 8 37 9 38 11 40
REMARK H PARENT 21 20 23 22 32 24 29 26 15 34 13 36 9 39 11 41
REMARK Flexibility Score: inf
ROOT
ATOM      1  O   UNL     1      -9.595  -8.419  38.492  1.00  0.00    -0.454 OA
ENDROOT
BRANCH   1   2
ATOM      2  C   UNL     1     -10.837  -7.877  38.846  1.00  0.00     0.214 A 
ATOM      3  C   UNL     1     -11.156  -7.567  40.182  1.00  0.00     0.180 A 
ATOM      4  O   UNL     1     -12.301  -6.953  40.458  1.00  0.00    -0.452 OA
ATOM      5  C   UNL     1     -11.783  -7.623  37.846  1.00  0.00     0.239 A 
ATOM      6  C   UNL     1     -13.214  -6.664  39.538  1.00  0.00     0.146 A 
ATOM      7  O   UNL     1     -11.479  -7.892  36.655  1.00  0.00    -0.285 OA
ATOM      8  C   UNL     1     -13.024  -7.032  38.181  1.00  0.00     0.111 A 
ATOM      9  C   UNL     1     -14.371  -5.988  39.936  1.00  0.00     0.094 A 
ATOM     10  C   UNL     1     -14.064  -6.746  37.247  1.00  0.00     0.134 A 
ATOM     11  C   UNL     1     -15.355  -5.663  39.002  1.00  0.00     0.123 A 
ATOM     12  C   UNL     1     -15.196  -6.038  37.668  1.00  0.00     0.093 A 
BRANCH   3  13
ATOM     13  C   UNL     1     -10.257  -7.902  41.311  1.00  0.00     0.025 A 
ATOM     14  C   UNL     1      -9.292  -6.990  41.766  1.00  0.00     0.016 A 
ATOM     15  C   UNL     1      -8.451  -7.325  42.829  1.00  0.00     0.051 A 
ATOM     16  C   UNL     1      -8.546  -8.577  43.446  1.00  0.00     0.157 A 
ATOM     17  C   UNL     1     -10.339  -9.166  41.913  1.00  0.00     0.062 A 
ATOM     18  C   UNL     1      -9.500  -9.512  42.979  1.00  0.00     0.158 A 
BRANCH  16  19
ATOM     19  O   UNL     1      -7.679  -8.848  44.507  1.00  0.00    -0.504 OA
ATOM     20  H   UNL     1      -7.498  -8.207  45.266  1.00  0.00     0.293 HD
ENDBRANCH  16  19
BRANCH  18  21
ATOM     21  O   UNL     1      -9.646 -10.783  43.538  1.00  0.00    -0.504 OA
ATOM     22  H   UNL     1      -9.258 -11.625  43.138  1.00  0.00     0.293 HD
ENDBRANCH  18  21
ENDBRANCH   3  13
BRANCH  10  23
ATOM     23  O   UNL     1     -14.046  -7.154  35.909  1.00  0.00    -0.507 OA
ATOM     24  H   UNL     1     -14.867  -7.282  35.336  1.00  0.00     0.293 HD
ENDBRANCH  10  23
BRANCH  11  25
ATOM     25  O   UNL     1     -16.502  -4.972  39.390  1.00  0.00    -0.508 OA
ATOM     26  H   UNL     1     -17.273  -5.441  39.849  1.00  0.00     0.293 HD
ENDBRANCH  11  25
ENDBRANCH   1   2
BRANCH   1  27
ATOM     27  C   UNL     1      -9.360  -9.826  38.389  1.00  0.00     0.339 C 
ATOM     28  C   UNL     1      -8.063 -10.232  39.116  1.00  0.00     0.214 C 
ATOM     29  O   UNL     1      -9.380 -10.242  37.030  1.00  0.00    -0.332 OA
ATOM     30  C   UNL     1      -6.840  -9.706  38.353  1.00  0.00     0.180 C 
ATOM     31  C   UNL     1      -8.278  -9.773  36.258  1.00  0.00     0.179 C 
ATOM     32  C   UNL     1      -6.904 -10.126  36.878  1.00  0.00     0.177 C 
BRANCH  28  33
ATOM     33  O   UNL     1      -7.993 -11.631  39.229  1.00  0.00    -0.384 OA
ATOM     34  H   UNL     1      -8.686 -12.004  38.623  1.00  0.00     0.211 HD
ENDBRANCH  28  33
BRANCH  30  35
ATOM     35  O   UNL     1      -5.655 -10.189  38.931  1.00  0.00    -0.387 OA
ATOM     36  H   UNL     1      -4.973 -10.213  38.210  1.00  0.00     0.211 HD
ENDBRANCH  30  35
BRANCH  31  37
ATOM     37  C   UNL     1      -8.403  -8.284  35.867  1.00  0.00     0.191 C 
BRANCH  37  38
ATOM     38  O   UNL     1      -9.323  -8.121  34.821  1.00  0.00    -0.394 OA
ATOM     39  H   UNL     1      -9.974  -7.435  35.121  1.00  0.00     0.210 HD
ENDBRANCH  37  38
ENDBRANCH  31  37
BRANCH  32  40
ATOM     40  O   UNL     1      -6.677 -11.509  36.772  1.00  0.00    -0.387 OA
ATOM     41  H   UNL     1      -6.486 -11.699  35.815  1.00  0.00     0.211 HD
ENDBRANCH  32  40
ENDBRANCH   1  27
TORSDOF 12
ENDMDL
MODEL 5
REMARK VINA RESULT:    -6.767      6.817     10.505
REMARK INTER + INTRA:         -11.475
REMARK INTER:                 -10.294
REMARK INTRA:                  -1.181
REMARK UNBOUND:                -1.543
REMARK SMILES O=c1c(O[C@H]2O[C@@H](CO)[C@H](O)[C@H](O)[C@@H]2O)c(-c2ccc(O)c(O)c2)oc2cc(O)cc(O)c12
REMARK SMILES IDX 4 1 3 2 16 3 25 4 2 5 26 6 1 7 33 8 27 9 31 10 28 11 30 12
REMARK SMILES IDX 17 13 18 14 19 15 20 16 24 17 22 18 21 19 23 21 32 23 29 25
REMARK SMILES IDX 5 27 14 28 6 29 12 30 7 31 10 32 15 33 13 35 8 37 9 38 11 40
REMARK H PARENT 21 20 23 22 32 24 29 26 15 34 13 36 9 39 11 41
REMARK Flexibility Score: inf
ROOT
ATOM      1  O   UNL     1      -9.636  -9.157  38.207  1.00  0.00    -0.454 OA
ENDROOT
BRANCH   1   2
ATOM      2  C   UNL     1     -10.763  -8.431  38.613  1.00  0.00     0.214 A 
ATOM      3  C   UNL     1     -10.965  -8.068  39.959  1.00  0.00     0.180 A 
ATOM      4  O   UNL     1     -11.990  -7.287  40.281  1.00  0.00    -0.452 OA
ATOM      5  C   UNL     1     -11.708  -8.043  37.656  1.00  0.00     0.239 A 
ATOM      6  C   UNL     1     -12.893  -6.869  39.402  1.00  0.00     0.146 A 
ATOM      7  O   UNL     1     -11.507  -8.362  36.456  1.00  0.00    -0.285 OA
ATOM      8  C   UNL     1     -12.828  -7.269  38.043  1.00  0.00     0.111 A 
ATOM      9  C   UNL     1     -13.914  -6.024  39.846  1.00  0.00     0.094 A 
ATOM     10  C   UNL     1     -13.858  -6.834  37.155  1.00  0.00     0.134 A 
ATOM     11  C   UNL     1     -14.882  -5.558  38.956  1.00  0.00     0.123 A 
ATOM     12  C   UNL     1     -14.847  -5.961  37.621  1.00  0.00     0.093 A 
BRANCH   3  13
ATOM     13  C   UNL     1     -10.073  -8.529  41.047  1.00  0.00     0.025 A 
ATOM     14  C   UNL     1      -9.254  -7.627  41.745  1.00  0.00     0.016 A 
ATOM     15  C   UNL     1      -8.417  -8.080  42.766  1.00  0.00     0.051 A 
ATOM     16  C   UNL     1      -8.368  -9.438  43.099  1.00  0.00     0.157 A 
ATOM     17  C   UNL     1     -10.009  -9.894  41.364  1.00  0.00     0.062 A 
ATOM     18  C   UNL     1      -9.172 -10.359  42.385  1.00  0.00     0.158 A 
BRANCH  16  19
ATOM     19  O   UNL     1      -7.513  -9.826  44.133  1.00  0.00    -0.504 OA
ATOM     20  H   UNL     1      -7.007 -10.699  44.150  1.00  0.00     0.293 HD
ENDBRANCH  16  19
BRANCH  18  21
ATOM     21  O   UNL     1      -9.169 -11.729  42.654  1.00  0.00    -0.504 OA
ATOM     22  H   UNL     1      -8.420 -12.354  42.396  1.00  0.00     0.293 HD
ENDBRANCH  18  21
ENDBRANCH   3  13
BRANCH  10  23
ATOM     23  O   UNL     1     -13.968  -7.248  35.824  1.00  0.00    -0.507 OA
ATOM     24  H   UNL     1     -13.210  -7.253  35.158  1.00  0.00     0.293 HD
ENDBRANCH  10  23
BRANCH  11  25
ATOM     25  O   UNL     1     -15.891  -4.700  39.389  1.00  0.00    -0.508 OA
ATOM     26  H   UNL     1     -16.857  -4.836  39.114  1.00  0.00     0.293 HD
ENDBRANCH  11  25
ENDBRANCH   1   2
BRANCH   1  27
ATOM     27  C   UNL     1      -8.455  -8.536  37.690  1.00  0.00     0.339 C 
ATOM     28  C   UNL     1      -8.371  -8.683  36.158  1.00  0.00     0.214 C 
ATOM     29  O   UNL     1      -7.297  -9.026  38.353  1.00  0.00    -0.332 OA
ATOM     30  C   UNL     1      -8.086 -10.143  35.780  1.00  0.00     0.180 C 
ATOM     31  C   UNL     1      -6.984 -10.384  38.058  1.00  0.00     0.179 C 
ATOM     32  C   UNL     1      -6.861 -10.667  36.541  1.00  0.00     0.177 C 
BRANCH  28  33
ATOM     33  O   UNL     1      -7.359  -7.850  35.651  1.00  0.00    -0.384 OA
ATOM     34  H   UNL     1      -7.708  -7.450  34.811  1.00  0.00     0.211 HD
ENDBRANCH  28  33
BRANCH  30  35
ATOM     35  O   UNL     1      -7.870 -10.259  34.397  1.00  0.00    -0.387 OA
ATOM     36  H   UNL     1      -8.764 -10.338  33.973  1.00  0.00     0.211 HD
ENDBRANCH  30  35
BRANCH  31  37
ATOM     37  C   UNL     1      -7.901 -11.389  38.789  1.00  0.00     0.191 C 
BRANCH  37  38
ATOM     38  O   UNL     1      -7.308 -11.823  39.983  1.00  0.00    -0.394 OA
ATOM     39  H   UNL     1      -6.777 -12.632  39.759  1.00  0.00     0.210 HD
ENDBRANCH  37  38
ENDBRANCH  31  37
BRANCH  32  40
ATOM     40  O   UNL     1      -5.697 -10.058  36.038  1.00  0.00    -0.387 OA
ATOM     41  H   UNL     1      -5.319  -9.506  36.772  1.00  0.00     0.211 HD
ENDBRANCH  32  40
ENDBRANCH   1  27
TORSDOF 12
ENDMDL
MODEL 6
REMARK VINA RESULT:    -6.697      2.250      7.799
REMARK INTER + INTRA:         -11.372
REMARK INTER:                 -10.104
REMARK INTRA:                  -1.268
REMARK UNBOUND:                -1.543
REMARK SMILES O=c1c(O[C@H]2O[C@@H](CO)[C@H](O)[C@H](O)[C@@H]2O)c(-c2ccc(O)c(O)c2)oc2cc(O)cc(O)c12
REMARK SMILES IDX 4 1 3 2 16 3 25 4 2 5 26 6 1 7 33 8 27 9 31 10 28 11 30 12
REMARK SMILES IDX 17 13 18 14 19 15 20 16 24 17 22 18 21 19 23 21 32 23 29 25
REMARK SMILES IDX 5 27 14 28 6 29 12 30 7 31 10 32 15 33 13 35 8 37 9 38 11 40
REMARK H PARENT 21 20 23 22 32 24 29 26 15 34 13 36 9 39 11 41
REMARK Flexibility Score: inf
ROOT
ATOM      1  O   UNL     1     -11.091  -6.499  45.983  1.00  0.00    -0.454 OA
ENDROOT
BRANCH   1   2
ATOM      2  C   UNL     1     -12.248  -7.241  45.712  1.00  0.00     0.214 A 
ATOM      3  C   UNL     1     -12.217  -8.390  44.899  1.00  0.00     0.180 A 
ATOM      4  O   UNL     1     -13.315  -9.124  44.759  1.00  0.00    -0.452 OA
ATOM      5  C   UNL     1     -13.465  -6.839  46.275  1.00  0.00     0.239 A 
ATOM      6  C   UNL     1     -14.484  -8.800  45.300  1.00  0.00     0.146 A 
ATOM      7  O   UNL     1     -13.475  -5.819  47.011  1.00  0.00    -0.285 OA
ATOM      8  C   UNL     1     -14.635  -7.605  46.050  1.00  0.00     0.111 A 
ATOM      9  C   UNL     1     -15.567  -9.663  45.113  1.00  0.00     0.094 A 
ATOM     10  C   UNL     1     -15.927  -7.279  46.560  1.00  0.00     0.134 A 
ATOM     11  C   UNL     1     -16.813  -9.362  45.666  1.00  0.00     0.123 A 
ATOM     12  C   UNL     1     -16.984  -8.180  46.385  1.00  0.00     0.093 A 
BRANCH   3  13
ATOM     13  C   UNL     1     -10.996  -8.820  44.180  1.00  0.00     0.025 A 
ATOM     14  C   UNL     1     -10.752  -8.417  42.858  1.00  0.00     0.016 A 
ATOM     15  C   UNL     1      -9.597  -8.837  42.195  1.00  0.00     0.051 A 
ATOM     16  C   UNL     1      -8.674  -9.675  42.830  1.00  0.00     0.157 A 
ATOM     17  C   UNL     1     -10.085  -9.679  44.811  1.00  0.00     0.062 A 
ATOM     18  C   UNL     1      -8.924 -10.106  44.155  1.00  0.00     0.158 A 
BRANCH  16  19
ATOM     19  O   UNL     1      -7.537 -10.054  42.114  1.00  0.00    -0.504 OA
ATOM     20  H   UNL     1      -7.520 -10.195  41.115  1.00  0.00     0.293 HD
ENDBRANCH  16  19
BRANCH  18  21
ATOM     21  O   UNL     1      -8.055 -10.950  44.849  1.00  0.00    -0.504 OA
ATOM     22  H   UNL     1      -8.330 -11.526  45.631  1.00  0.00     0.293 HD
ENDBRANCH  18  21
ENDBRANCH   3  13
BRANCH  10  23
ATOM     23  O   UNL     1     -16.229  -6.083  47.217  1.00  0.00    -0.507 OA
ATOM     24  H   UNL     1     -16.486  -5.222  46.756  1.00  0.00     0.293 HD
ENDBRANCH  10  23
BRANCH  11  25
ATOM     25  O   UNL     1     -17.892 -10.228  45.499  1.00  0.00    -0.508 OA
ATOM     26  H   UNL     1     -18.372 -10.636  46.293  1.00  0.00     0.293 HD
ENDBRANCH  11  25
ENDBRANCH   1   2
BRANCH   1  27
ATOM     27  C   UNL     1     -10.095  -6.924  46.918  1.00  0.00     0.339 C 
ATOM     28  C   UNL     1     -10.566  -6.713  48.371  1.00  0.00     0.214 C 
ATOM     29  O   UNL     1      -8.850  -6.294  46.648  1.00  0.00    -0.332 OA
ATOM     30  C   UNL     1     -10.613  -5.215  48.701  1.00  0.00     0.180 C 
ATOM     31  C   UNL     1      -8.830  -4.896  46.918  1.00  0.00     0.179 C 
ATOM     32  C   UNL     1      -9.276  -4.546  48.360  1.00  0.00     0.177 C 
BRANCH  28  33
ATOM     33  O   UNL     1      -9.697  -7.373  49.257  1.00  0.00    -0.384 OA
ATOM     34  H   UNL     1      -9.706  -6.859  50.107  1.00  0.00     0.211 HD
ENDBRANCH  28  33
BRANCH  30  35
ATOM     35  O   UNL     1     -10.905  -5.021  50.062  1.00  0.00    -0.387 OA
ATOM     36  H   UNL     1     -11.516  -4.240  50.115  1.00  0.00     0.211 HD
ENDBRANCH  30  35
BRANCH  31  37
ATOM     37  C   UNL     1      -9.554  -4.060  45.840  1.00  0.00     0.191 C 
BRANCH  37  38
ATOM     38  O   UNL     1      -9.261  -4.545  44.558  1.00  0.00    -0.394 OA
ATOM     39  H   UNL     1      -9.516  -5.504  44.551  1.00  0.00     0.210 HD
ENDBRANCH  37  38
ENDBRANCH  31  37
BRANCH  32  40
ATOM     40  O   UNL     1      -8.292  -4.962  49.274  1.00  0.00    -0.387 OA
ATOM     41  H   UNL     1      -7.474  -4.432  49.082  1.00  0.00     0.211 HD
ENDBRANCH  32  40
ENDBRANCH   1  27
TORSDOF 12
ENDMDL
MODEL 7
REMARK VINA RESULT:    -6.691      3.482      6.838
REMARK INTER + INTRA:         -11.363
REMARK INTER:                  -9.889
REMARK INTRA:                  -1.474
REMARK UNBOUND:                -1.543
REMARK SMILES O=c1c(O[C@H]2O[C@@H](CO)[C@H](O)[C@H](O)[C@@H]2O)c(-c2ccc(O)c(O)c2)oc2cc(O)cc(O)c12
REMARK SMILES IDX 4 1 3 2 16 3 25 4 2 5 26 6 1 7 33 8 27 9 31 10 28 11 30 12
REMARK SMILES IDX 17 13 18 14 19 15 20 16 24 17 22 18 21 19 23 21 32 23 29 25
REMARK SMILES IDX 5 27 14 28 6 29 12 30 7 31 10 32 15 33 13 35 8 37 9 38 11 40
REMARK H PARENT 21 20 23 22 32 24 29 26 15 34 13 36 9 39 11 41
REMARK Flexibility Score: inf
ROOT
ATOM      1  O   UNL     1     -13.736  -6.179  45.050  1.00  0.00    -0.454 OA
ENDROOT
BRANCH   1   2
ATOM      2  C   UNL     1     -14.521  -6.313  43.898  1.00  0.00     0.214 A 
ATOM      3  C   UNL     1     -15.690  -7.098  43.886  1.00  0.00     0.180 A 
ATOM      4  O   UNL     1     -16.463  -7.107  42.806  1.00  0.00    -0.452 OA
ATOM      5  C   UNL     1     -14.144  -5.638  42.731  1.00  0.00     0.239 A 
ATOM      6  C   UNL     1     -16.162  -6.458  41.687  1.00  0.00     0.146 A 
ATOM      7  O   UNL     1     -13.106  -4.929  42.761  1.00  0.00    -0.285 OA
ATOM      8  C   UNL     1     -14.953  -5.724  41.572  1.00  0.00     0.111 A 
ATOM      9  C   UNL     1     -17.064  -6.513  40.621  1.00  0.00     0.094 A 
ATOM     10  C   UNL     1     -14.655  -5.093  40.328  1.00  0.00     0.134 A 
ATOM     11  C   UNL     1     -16.788  -5.843  39.428  1.00  0.00     0.123 A 
ATOM     12  C   UNL     1     -15.594  -5.137  39.290  1.00  0.00     0.093 A 
BRANCH   3  13
ATOM     13  C   UNL     1     -16.101  -7.928  45.042  1.00  0.00     0.025 A 
ATOM     14  C   UNL     1     -17.012  -7.445  45.994  1.00  0.00     0.016 A 
ATOM     15  C   UNL     1     -17.384  -8.241  47.079  1.00  0.00     0.051 A 
ATOM     16  C   UNL     1     -16.846  -9.522  47.244  1.00  0.00     0.157 A 
ATOM     17  C   UNL     1     -15.542  -9.202  45.216  1.00  0.00     0.062 A 
ATOM     18  C   UNL     1     -15.908 -10.007  46.302  1.00  0.00     0.158 A 
BRANCH  16  19
ATOM     19  O   UNL     1     -17.264 -10.268  48.347  1.00  0.00    -0.504 OA
ATOM     20  H   UNL     1     -16.772 -10.297  49.229  1.00  0.00     0.293 HD
ENDBRANCH  16  19
BRANCH  18  21
ATOM     21  O   UNL     1     -15.322 -11.270  46.405  1.00  0.00    -0.504 OA
ATOM     22  H   UNL     1     -14.868 -11.616  47.238  1.00  0.00     0.293 HD
ENDBRANCH  18  21
ENDBRANCH   3  13
BRANCH  10  23
ATOM     23  O   UNL     1     -13.452  -4.437  40.053  1.00  0.00    -0.507 OA
ATOM     24  H   UNL     1     -12.537  -4.858  40.122  1.00  0.00     0.293 HD
ENDBRANCH  10  23
BRANCH  11  25
ATOM     25  O   UNL     1     -17.693  -5.878  38.369  1.00  0.00    -0.508 OA
ATOM     26  H   UNL     1     -17.386  -6.019  37.414  1.00  0.00     0.293 HD
ENDBRANCH  11  25
ENDBRANCH   1   2
BRANCH   1  27
ATOM     27  C   UNL     1     -14.021  -5.229  46.081  1.00  0.00     0.339 C 
ATOM     28  C   UNL     1     -12.893  -4.187  46.209  1.00  0.00     0.214 C 
ATOM     29  O   UNL     1     -14.301  -5.888  47.309  1.00  0.00    -0.332 OA
ATOM     30  C   UNL     1     -11.632  -4.838  46.795  1.00  0.00     0.180 C 
ATOM     31  C   UNL     1     -13.175  -6.530  47.900  1.00  0.00     0.179 C 
ATOM     32  C   UNL     1     -11.966  -5.583  48.095  1.00  0.00     0.177 C 
BRANCH  28  33
ATOM     33  O   UNL     1     -13.311  -3.126  47.031  1.00  0.00    -0.384 OA
ATOM     34  H   UNL     1     -14.302  -3.092  46.977  1.00  0.00     0.211 HD
ENDBRANCH  28  33
BRANCH  30  35
ATOM     35  O   UNL     1     -10.648  -3.868  47.044  1.00  0.00    -0.387 OA
ATOM     36  H   UNL     1     -10.579  -3.777  48.031  1.00  0.00     0.211 HD
ENDBRANCH  30  35
BRANCH  31  37
ATOM     37  C   UNL     1     -12.800  -7.857  47.205  1.00  0.00     0.191 C 
BRANCH  37  38
ATOM     38  O   UNL     1     -13.057  -8.947  48.047  1.00  0.00    -0.394 OA
ATOM     39  H   UNL     1     -13.065  -9.756  47.471  1.00  0.00     0.210 HD
ENDBRANCH  37  38
ENDBRANCH  31  37
BRANCH  32  40
ATOM     40  O   UNL     1     -12.250  -4.653  49.111  1.00  0.00    -0.387 OA
ATOM     41  H   UNL     1     -12.779  -5.132  49.802  1.00  0.00     0.211 HD
ENDBRANCH  32  40
ENDBRANCH   1  27
TORSDOF 12
ENDMDL
MODEL 8
REMARK VINA RESULT:    -6.579      2.128      8.083
REMARK INTER + INTRA:         -11.199
REMARK INTER:                  -9.835
REMARK INTRA:                  -1.364
REMARK UNBOUND:                -1.543
REMARK SMILES O=c1c(O[C@H]2O[C@@H](CO)[C@H](O)[C@H](O)[C@@H]2O)c(-c2ccc(O)c(O)c2)oc2cc(O)cc(O)c12
REMARK SMILES IDX 4 1 3 2 16 3 25 4 2 5 26 6 1 7 33 8 27 9 31 10 28 11 30 12
REMARK SMILES IDX 17 13 18 14 19 15 20 16 24 17 22 18 21 19 23 21 32 23 29 25
REMARK SMILES IDX 5 27 14 28 6 29 12 30 7 31 10 32 15 33 13 35 8 37 9 38 11 40
REMARK H PARENT 21 20 23 22 32 24 29 26 15 34 13 36 9 39 11 41
REMARK Flexibility Score: inf
ROOT
ATOM      1  O   UNL     1     -10.821  -6.452  46.061  1.00  0.00    -0.454 OA
ENDROOT
BRANCH   1   2
ATOM      2  C   UNL     1     -12.065  -7.004  45.729  1.00  0.00     0.214 A 
ATOM      3  C   UNL     1     -12.179  -8.088  44.838  1.00  0.00     0.180 A 
ATOM      4  O   UNL     1     -13.366  -8.649  44.638  1.00  0.00    -0.452 OA
ATOM      5  C   UNL     1     -13.224  -6.475  46.308  1.00  0.00     0.239 A 
ATOM      6  C   UNL     1     -14.488  -8.202  45.189  1.00  0.00     0.146 A 
ATOM      7  O   UNL     1     -13.104  -5.516  47.113  1.00  0.00    -0.285 OA
ATOM      8  C   UNL     1     -14.484  -7.052  46.020  1.00  0.00     0.111 A 
ATOM      9  C   UNL     1     -15.678  -8.889  44.933  1.00  0.00     0.094 A 
ATOM     10  C   UNL     1     -15.728  -6.583  46.540  1.00  0.00     0.134 A 
ATOM     11  C   UNL     1     -16.879  -8.455  45.495  1.00  0.00     0.123 A 
ATOM     12  C   UNL     1     -16.897  -7.312  46.294  1.00  0.00     0.093 A 
BRANCH   3  13
ATOM     13  C   UNL     1     -11.017  -8.637  44.102  1.00  0.00     0.025 A 
ATOM     14  C   UNL     1     -10.821  -8.353  42.741  1.00  0.00     0.016 A 
ATOM     15  C   UNL     1      -9.721  -8.882  42.063  1.00  0.00     0.051 A 
ATOM     16  C   UNL     1      -8.808  -9.713  42.721  1.00  0.00     0.157 A 
ATOM     17  C   UNL     1     -10.117  -9.488  44.759  1.00  0.00     0.062 A 
ATOM     18  C   UNL     1      -9.012 -10.025  44.087  1.00  0.00     0.158 A 
BRANCH  16  19
ATOM     19  O   UNL     1      -7.727 -10.205  41.987  1.00  0.00    -0.504 OA
ATOM     20  H   UNL     1      -7.190  -9.654  41.335  1.00  0.00     0.293 HD
ENDBRANCH  16  19
BRANCH  18  21
ATOM     21  O   UNL     1      -8.150 -10.854  44.807  1.00  0.00    -0.504 OA
ATOM     22  H   UNL     1      -7.237 -10.573  45.133  1.00  0.00     0.293 HD
ENDBRANCH  18  21
ENDBRANCH   3  13
BRANCH  10  23
ATOM     23  O   UNL     1     -15.871  -5.403  47.276  1.00  0.00    -0.507 OA
ATOM     24  H   UNL     1     -15.939  -4.479  46.875  1.00  0.00     0.293 HD
ENDBRANCH  10  23
BRANCH  11  25
ATOM     25  O   UNL     1     -18.065  -9.148  45.259  1.00  0.00    -0.508 OA
ATOM     26  H   UNL     1     -18.791  -9.210  45.963  1.00  0.00     0.293 HD
ENDBRANCH  11  25
ENDBRANCH   1   2
BRANCH   1  27
ATOM     27  C   UNL     1     -10.250  -5.341  45.363  1.00  0.00     0.339 C 
ATOM     28  C   UNL     1      -8.902  -5.719  44.718  1.00  0.00     0.214 C 
ATOM     29  O   UNL     1     -10.152  -4.207  46.215  1.00  0.00    -0.332 OA
ATOM     30  C   UNL     1      -7.834  -5.923  45.801  1.00  0.00     0.180 C 
ATOM     31  C   UNL     1      -9.188  -4.338  47.255  1.00  0.00     0.179 C 
ATOM     32  C   UNL     1      -7.777  -4.709  46.737  1.00  0.00     0.177 C 
BRANCH  28  33
ATOM     33  O   UNL     1      -8.496  -4.709  43.828  1.00  0.00    -0.384 OA
ATOM     34  H   UNL     1      -7.571  -4.931  43.543  1.00  0.00     0.211 HD
ENDBRANCH  28  33
BRANCH  30  35
ATOM     35  O   UNL     1      -6.574  -6.129  45.216  1.00  0.00    -0.387 OA
ATOM     36  H   UNL     1      -6.102  -6.798  45.779  1.00  0.00     0.211 HD
ENDBRANCH  30  35
BRANCH  31  37
ATOM     37  C   UNL     1      -9.666  -5.242  48.413  1.00  0.00     0.191 C 
BRANCH  37  38
ATOM     38  O   UNL     1      -8.648  -5.409  49.363  1.00  0.00    -0.394 OA
ATOM     39  H   UNL     1      -7.830  -5.000  48.978  1.00  0.00     0.210 HD
ENDBRANCH  37  38
ENDBRANCH  31  37
BRANCH  32  40
ATOM     40  O   UNL     1      -7.220  -3.613  46.055  1.00  0.00    -0.387 OA
ATOM     41  H   UNL     1      -7.976  -3.050  45.744  1.00  0.00     0.211 HD
ENDBRANCH  32  40
ENDBRANCH   1  27
TORSDOF 12
ENDMDL
MODEL 9
REMARK VINA RESULT:    -6.444      2.243      5.387
REMARK INTER + INTRA:         -11.001
REMARK INTER:                  -9.530
REMARK INTRA:                  -1.471
REMARK UNBOUND:                -1.543
REMARK SMILES O=c1c(O[C@H]2O[C@@H](CO)[C@H](O)[C@H](O)[C@@H]2O)c(-c2ccc(O)c(O)c2)oc2cc(O)cc(O)c12
REMARK SMILES IDX 4 1 3 2 16 3 25 4 2 5 26 6 1 7 33 8 27 9 31 10 28 11 30 12
REMARK SMILES IDX 17 13 18 14 19 15 20 16 24 17 22 18 21 19 23 21 32 23 29 25
REMARK SMILES IDX 5 27 14 28 6 29 12 30 7 31 10 32 15 33 13 35 8 37 9 38 11 40
REMARK H PARENT 21 20 23 22 32 24 29 26 15 34 13 36 9 39 11 41
REMARK Flexibility Score: inf
ROOT
ATOM      1  O   UNL     1     -10.976  -8.014  46.909  1.00  0.00    -0.454 OA
ENDROOT
BRANCH   1   2
ATOM      2  C   UNL     1     -10.667  -8.709  45.733  1.00  0.00     0.214 A 
ATOM      3  C   UNL     1     -11.652  -9.394  44.997  1.00  0.00     0.180 A 
ATOM      4  O   UNL     1     -11.334  -9.946  43.831  1.00  0.00    -0.452 OA
ATOM      5  C   UNL     1      -9.347  -8.713  45.268  1.00  0.00     0.239 A 
ATOM      6  C   UNL     1     -10.103  -9.948  43.335  1.00  0.00     0.146 A 
ATOM      7  O   UNL     1      -8.479  -8.084  45.929  1.00  0.00    -0.285 OA
ATOM      8  C   UNL     1      -9.026  -9.371  44.056  1.00  0.00     0.111 A 
ATOM      9  C   UNL     1      -9.888 -10.532  42.084  1.00  0.00     0.094 A 
ATOM     10  C   UNL     1      -7.714  -9.451  43.501  1.00  0.00     0.134 A 
ATOM     11  C   UNL     1      -8.610 -10.553  41.525  1.00  0.00     0.123 A 
ATOM     12  C   UNL     1      -7.536 -10.012  42.230  1.00  0.00     0.093 A 
BRANCH   3  13
ATOM     13  C   UNL     1     -13.048  -9.530  45.473  1.00  0.00     0.025 A 
ATOM     14  C   UNL     1     -14.031  -8.595  45.115  1.00  0.00     0.016 A 
ATOM     15  C   UNL     1     -15.341  -8.738  45.577  1.00  0.00     0.051 A 
ATOM     16  C   UNL     1     -15.690  -9.803  46.415  1.00  0.00     0.157 A 
ATOM     17  C   UNL     1     -13.390 -10.585  46.332  1.00  0.00     0.062 A 
ATOM     18  C   UNL     1     -14.700 -10.737  46.802  1.00  0.00     0.158 A 
BRANCH  16  19
ATOM     19  O   UNL     1     -17.018  -9.891  46.838  1.00  0.00    -0.504 OA
ATOM     20  H   UNL     1     -17.814  -9.764  46.230  1.00  0.00     0.293 HD
ENDBRANCH  16  19
BRANCH  18  21
ATOM     21  O   UNL     1     -14.971 -11.818  47.642  1.00  0.00    -0.504 OA
ATOM     22  H   UNL     1     -14.950 -12.783  47.346  1.00  0.00     0.293 HD
ENDBRANCH  18  21
ENDBRANCH   3  13
BRANCH  10  23
ATOM     23  O   UNL     1      -6.558  -9.022  44.160  1.00  0.00    -0.507 OA
ATOM     24  H   UNL     1      -6.032  -9.576  44.819  1.00  0.00     0.293 HD
ENDBRANCH  10  23
BRANCH  11  25
ATOM     25  O   UNL     1      -8.393 -11.116  40.268  1.00  0.00    -0.508 OA
ATOM     26  H   UNL     1      -7.467 -11.164  39.861  1.00  0.00     0.293 HD
ENDBRANCH  11  25
ENDBRANCH   1   2
BRANCH   1  27
ATOM     27  C   UNL     1     -11.233  -6.606  46.936  1.00  0.00     0.339 C 
ATOM     28  C   UNL     1     -10.194  -5.865  47.801  1.00  0.00     0.214 C 
ATOM     29  O   UNL     1     -12.570  -6.346  47.342  1.00  0.00    -0.332 OA
ATOM     30  C   UNL     1     -10.404  -6.199  49.285  1.00  0.00     0.180 C 
ATOM     31  C   UNL     1     -12.838  -6.651  48.707  1.00  0.00     0.179 C 
ATOM     32  C   UNL     1     -11.864  -5.956  49.690  1.00  0.00     0.177 C 
BRANCH  28  33
ATOM     33  O   UNL     1     -10.304  -4.479  47.601  1.00  0.00    -0.384 OA
ATOM     34  H   UNL     1      -9.531  -4.058  48.061  1.00  0.00     0.211 HD
ENDBRANCH  28  33
BRANCH  30  35
ATOM     35  O   UNL     1      -9.554  -5.422  50.088  1.00  0.00    -0.387 OA
ATOM     36  H   UNL     1      -9.361  -4.590  49.580  1.00  0.00     0.211 HD
ENDBRANCH  30  35
BRANCH  31  37
ATOM     37  C   UNL     1     -12.989  -8.164  48.972  1.00  0.00     0.191 C 
BRANCH  37  38
ATOM     38  O   UNL     1     -14.278  -8.460  49.438  1.00  0.00    -0.394 OA
ATOM     39  H   UNL     1     -14.768  -8.868  48.677  1.00  0.00     0.210 HD
ENDBRANCH  37  38
ENDBRANCH  31  37
BRANCH  32  40
ATOM     40  O   UNL     1     -12.122  -4.574  49.716  1.00  0.00    -0.387 OA
ATOM     41  H   UNL     1     -11.581  -4.192  50.457  1.00  0.00     0.211 HD
ENDBRANCH  32  40
ENDBRANCH   1  27
TORSDOF 12
ENDMDL
