MODEL 1
REMARK VINA RESULT:    -7.863      0.000      0.000
REMARK INTER + INTRA:         -12.294
REMARK INTER:                 -11.310
REMARK INTRA:                  -0.984
REMARK UNBOUND:                -0.984
REMARK SMILES O=c1cc(-c2ccc(O)c(O)c2)oc2cc(O[C@@H]3O[C@@H](CO)[C@@H](O)[C@@H](O)[C@@H]3O)cc(O)c12
REMARK SMILES IDX 17 1 16 2 4 3 3 4 13 5 2 6 14 7 1 8 32 9 15 10 30 11 29 12
REMARK SMILES IDX 5 13 6 14 7 15 8 16 12 17 10 18 9 19 11 21 31 23 18 25 27 26
REMARK SMILES IDX 19 27 25 28 20 29 23 30 28 31 26 33 21 35 22 36 24 38
REMARK H PARENT 9 20 11 22 31 24 28 32 26 34 22 37 24 39
REMARK Flexibility Score: inf
ROOT
ATOM      1  O   UNL     1      30.300   3.652 104.745  1.00  0.00    -0.462 OA
ENDROOT
BRANCH   1   2
ATOM      2  C   UNL     1      29.200   2.964 104.203  1.00  0.00     0.130 A 
ATOM      3  C   UNL     1      24.579   3.200 103.046  1.00  0.00     0.138 A 
ATOM      4  C   UNL     1      24.566   1.882 102.562  1.00  0.00     0.100 A 
ATOM      5  O   UNL     1      25.709   3.710 103.528  1.00  0.00    -0.456 OA
ATOM      6  C   UNL     1      25.737   1.123 102.610  1.00  0.00     0.197 A 
ATOM      7  C   UNL     1      26.848   3.027 103.594  1.00  0.00     0.146 A 
ATOM      8  O   UNL     1      25.716  -0.059 102.173  1.00  0.00    -0.289 OA
ATOM      9  C   UNL     1      26.912   1.691 103.139  1.00  0.00     0.107 A 
ATOM     10  C   UNL     1      27.984   3.647 104.121  1.00  0.00     0.094 A 
ATOM     11  C   UNL     1      28.138   0.992 103.226  1.00  0.00     0.134 A 
ATOM     12  C   UNL     1      29.268   1.630 103.759  1.00  0.00     0.093 A 
BRANCH   3  13
ATOM     13  C   UNL     1      23.364   4.056 103.019  1.00  0.00     0.021 A 
ATOM     14  C   UNL     1      22.496   4.057 104.124  1.00  0.00     0.016 A 
ATOM     15  C   UNL     1      21.343   4.847 104.121  1.00  0.00     0.051 A 
ATOM     16  C   UNL     1      21.034   5.640 103.009  1.00  0.00     0.157 A 
ATOM     17  C   UNL     1      23.040   4.846 101.898  1.00  0.00     0.062 A 
ATOM     18  C   UNL     1      21.881   5.636 101.894  1.00  0.00     0.158 A 
BRANCH  16  19
ATOM     19  O   UNL     1      19.885   6.429 103.003  1.00  0.00    -0.504 OA
ATOM     20  H   UNL     1      19.786   7.227 103.619  1.00  0.00     0.293 HD
ENDBRANCH  16  19
BRANCH  18  21
ATOM     21  O   UNL     1      21.564   6.418 100.785  1.00  0.00    -0.504 OA
ATOM     22  H   UNL     1      21.277   6.002  99.908  1.00  0.00     0.293 HD
ENDBRANCH  18  21
ENDBRANCH   3  13
BRANCH  11  23
ATOM     23  O   UNL     1      28.241  -0.329 102.790  1.00  0.00    -0.507 OA
ATOM     24  H   UNL     1      28.193  -0.573 101.807  1.00  0.00     0.293 HD
ENDBRANCH  11  23
ENDBRANCH   1   2
BRANCH   1  25
ATOM     25  C   UNL     1      30.709   4.994 104.442  1.00  0.00     0.339 C 
ATOM     26  C   UNL     1      31.755   5.520 105.457  1.00  0.00     0.214 C 
ATOM     27  O   UNL     1      31.218   5.061 103.117  1.00  0.00    -0.332 OA
ATOM     28  C   UNL     1      33.074   4.738 105.307  1.00  0.00     0.180 C 
ATOM     29  C   UNL     1      32.368   4.243 102.953  1.00  0.00     0.179 C 
ATOM     30  C   UNL     1      33.535   4.741 103.837  1.00  0.00     0.177 C 
BRANCH  26  31
ATOM     31  O   UNL     1      31.287   5.395 106.774  1.00  0.00    -0.384 OA
ATOM     32  H   UNL     1      30.307   5.555 106.746  1.00  0.00     0.211 HD
ENDBRANCH  26  31
BRANCH  28  33
ATOM     33  O   UNL     1      34.076   5.243 106.157  1.00  0.00    -0.387 OA
ATOM     34  H   UNL     1      34.860   5.483 105.599  1.00  0.00     0.211 HD
ENDBRANCH  28  33
BRANCH  29  35
ATOM     35  C   UNL     1      32.753   4.205 101.467  1.00  0.00     0.191 C 
BRANCH  35  36
ATOM     36  O   UNL     1      32.868   5.502 100.951  1.00  0.00    -0.394 OA
ATOM     37  H   UNL     1      33.523   5.445 100.207  1.00  0.00     0.210 HD
ENDBRANCH  35  36
ENDBRANCH  29  35
BRANCH  30  38
ATOM     38  O   UNL     1      33.913   6.038 103.446  1.00  0.00    -0.387 OA
ATOM     39  H   UNL     1      34.732   6.269 103.958  1.00  0.00     0.211 HD
ENDBRANCH  30  38
ENDBRANCH   1  25
TORSDOF 11
ENDMDL
MODEL 2
REMARK VINA RESULT:    -7.644      0.626      1.274
REMARK INTER + INTRA:         -11.979
REMARK INTER:                 -10.993
REMARK INTRA:                  -0.986
REMARK UNBOUND:                -0.984
REMARK SMILES O=c1cc(-c2ccc(O)c(O)c2)oc2cc(O[C@@H]3O[C@@H](CO)[C@@H](O)[C@@H](O)[C@@H]3O)cc(O)c12
REMARK SMILES IDX 17 1 16 2 4 3 3 4 13 5 2 6 14 7 1 8 32 9 15 10 30 11 29 12
REMARK SMILES IDX 5 13 6 14 7 15 8 16 12 17 10 18 9 19 11 21 31 23 18 25 27 26
REMARK SMILES IDX 19 27 25 28 20 29 23 30 28 31 26 33 21 35 22 36 24 38
REMARK H PARENT 9 20 11 22 31 24 28 32 26 34 22 37 24 39
REMARK Flexibility Score: inf
ROOT
ATOM      1  O   UNL     1      30.231   3.221 104.335  1.00  0.00    -0.462 OA
ENDROOT
BRANCH   1   2
ATOM      2  C   UNL     1      29.070   2.555 103.903  1.00  0.00     0.130 A 
ATOM      3  C   UNL     1      24.394   2.937 103.040  1.00  0.00     0.138 A 
ATOM      4  C   UNL     1      24.295   1.598 102.627  1.00  0.00     0.100 A 
ATOM      5  O   UNL     1      25.574   3.420 103.421  1.00  0.00    -0.456 OA
ATOM      6  C   UNL     1      25.435   0.793 102.637  1.00  0.00     0.197 A 
ATOM      7  C   UNL     1      26.687   2.692 103.447  1.00  0.00     0.146 A 
ATOM      8  O   UNL     1      25.338  -0.408 102.264  1.00  0.00    -0.289 OA
ATOM      9  C   UNL     1      26.666   1.334 103.057  1.00  0.00     0.107 A 
ATOM     10  C   UNL     1      27.880   3.286 103.866  1.00  0.00     0.094 A 
ATOM     11  C   UNL     1      27.866   0.586 103.100  1.00  0.00     0.134 A 
ATOM     12  C   UNL     1      29.054   1.199 103.525  1.00  0.00     0.093 A 
BRANCH   3  13
ATOM     13  C   UNL     1      23.216   3.843 103.049  1.00  0.00     0.021 A 
ATOM     14  C   UNL     1      22.985   4.686 101.948  1.00  0.00     0.016 A 
ATOM     15  C   UNL     1      21.889   5.552 101.934  1.00  0.00     0.051 A 
ATOM     16  C   UNL     1      21.012   5.599 103.026  1.00  0.00     0.157 A 
ATOM     17  C   UNL     1      22.338   3.905 104.150  1.00  0.00     0.062 A 
ATOM     18  C   UNL     1      21.240   4.777 104.136  1.00  0.00     0.158 A 
BRANCH  16  19
ATOM     19  O   UNL     1      19.918   6.462 103.015  1.00  0.00    -0.504 OA
ATOM     20  H   UNL     1      19.728   7.067 102.226  1.00  0.00     0.293 HD
ENDBRANCH  16  19
BRANCH  18  21
ATOM     21  O   UNL     1      20.372   4.835 105.225  1.00  0.00    -0.504 OA
ATOM     22  H   UNL     1      19.508   5.363 105.187  1.00  0.00     0.293 HD
ENDBRANCH  18  21
ENDBRANCH   3  13
BRANCH  11  23
ATOM     23  O   UNL     1      27.885  -0.758 102.727  1.00  0.00    -0.507 OA
ATOM     24  H   UNL     1      28.300  -1.064 101.854  1.00  0.00     0.293 HD
ENDBRANCH  11  23
ENDBRANCH   1   2
BRANCH   1  25
ATOM     25  C   UNL     1      30.540   4.612 104.165  1.00  0.00     0.339 C 
ATOM     26  C   UNL     1      31.402   5.157 105.330  1.00  0.00     0.214 C 
ATOM     27  O   UNL     1      31.191   4.816 102.919  1.00  0.00    -0.332 OA
ATOM     28  C   UNL     1      32.800   4.509 105.299  1.00  0.00     0.180 C 
ATOM     29  C   UNL     1      32.428   4.119 102.850  1.00  0.00     0.179 C 
ATOM     30  C   UNL     1      33.428   4.656 103.899  1.00  0.00     0.177 C 
BRANCH  26  31
ATOM     31  O   UNL     1      30.797   4.899 106.569  1.00  0.00    -0.384 OA
ATOM     32  H   UNL     1      30.994   3.951 106.792  1.00  0.00     0.211 HD
ENDBRANCH  26  31
BRANCH  28  33
ATOM     33  O   UNL     1      33.641   5.042 106.294  1.00  0.00    -0.387 OA
ATOM     34  H   UNL     1      33.836   4.323 106.949  1.00  0.00     0.211 HD
ENDBRANCH  28  33
BRANCH  29  35
ATOM     35  C   UNL     1      32.986   4.219 101.424  1.00  0.00     0.191 C 
BRANCH  35  36
ATOM     36  O   UNL     1      33.009   5.551 100.993  1.00  0.00    -0.394 OA
ATOM     37  H   UNL     1      32.698   6.095 101.764  1.00  0.00     0.210 HD
ENDBRANCH  35  36
ENDBRANCH  29  35
BRANCH  30  38
ATOM     38  O   UNL     1      33.721   6.006 103.635  1.00  0.00    -0.387 OA
ATOM     39  H   UNL     1      33.830   6.093 102.651  1.00  0.00     0.211 HD
ENDBRANCH  30  38
ENDBRANCH   1  25
TORSDOF 11
ENDMDL
MODEL 3
REMARK VINA RESULT:    -7.564      4.930      9.947
REMARK INTER + INTRA:         -11.864
REMARK INTER:                 -10.867
REMARK INTRA:                  -0.998
REMARK UNBOUND:                -0.984
REMARK SMILES O=c1cc(-c2ccc(O)c(O)c2)oc2cc(O[C@@H]3O[C@@H](CO)[C@@H](O)[C@@H](O)[C@@H]3O)cc(O)c12
REMARK SMILES IDX 17 1 16 2 4 3 3 4 13 5 2 6 14 7 1 8 32 9 15 10 30 11 29 12
REMARK SMILES IDX 5 13 6 14 7 15 8 16 12 17 10 18 9 19 11 21 31 23 18 25 27 26
REMARK SMILES IDX 19 27 25 28 20 29 23 30 28 31 26 33 21 35 22 36 24 38
REMARK H PARENT 9 20 11 22 31 24 28 32 26 34 22 37 24 39
REMARK Flexibility Score: inf
ROOT
ATOM      1  O   UNL     1      23.439  -3.666 101.629  1.00  0.00    -0.462 OA
ENDROOT
BRANCH   1   2
ATOM      2  C   UNL     1      24.091  -2.470 101.977  1.00  0.00     0.130 A 
ATOM      3  C   UNL     1      23.574   2.183 102.891  1.00  0.00     0.138 A 
ATOM      4  C   UNL     1      24.947   2.354 103.133  1.00  0.00     0.100 A 
ATOM      5  O   UNL     1      23.110   0.978 102.571  1.00  0.00    -0.456 OA
ATOM      6  C   UNL     1      25.804   1.259 103.020  1.00  0.00     0.197 A 
ATOM      7  C   UNL     1      23.887  -0.095 102.452  1.00  0.00     0.146 A 
ATOM      8  O   UNL     1      27.035   1.421 103.240  1.00  0.00    -0.289 OA
ATOM      9  C   UNL     1      25.281  -0.001 102.668  1.00  0.00     0.107 A 
ATOM     10  C   UNL     1      23.309  -1.319 102.108  1.00  0.00     0.094 A 
ATOM     11  C   UNL     1      26.079  -1.160 102.529  1.00  0.00     0.134 A 
ATOM     12  C   UNL     1      25.481  -2.381 102.182  1.00  0.00     0.093 A 
BRANCH   3  13
ATOM     13  C   UNL     1      22.613   3.312 102.999  1.00  0.00     0.021 A 
ATOM     14  C   UNL     1      22.471   4.202 101.920  1.00  0.00     0.016 A 
ATOM     15  C   UNL     1      21.580   5.276 101.999  1.00  0.00     0.051 A 
ATOM     16  C   UNL     1      20.825   5.484 103.160  1.00  0.00     0.157 A 
ATOM     17  C   UNL     1      21.862   3.535 104.170  1.00  0.00     0.062 A 
ATOM     18  C   UNL     1      20.969   4.614 104.249  1.00  0.00     0.158 A 
BRANCH  16  19
ATOM     19  O   UNL     1      19.936   6.554 103.242  1.00  0.00    -0.504 OA
ATOM     20  H   UNL     1      19.094   6.502 103.803  1.00  0.00     0.293 HD
ENDBRANCH  16  19
BRANCH  18  21
ATOM     21  O   UNL     1      20.225   4.831 105.407  1.00  0.00    -0.504 OA
ATOM     22  H   UNL     1      20.672   4.968 106.306  1.00  0.00     0.293 HD
ENDBRANCH  18  21
ENDBRANCH   3  13
BRANCH  11  23
ATOM     23  O   UNL     1      27.458  -1.107 102.731  1.00  0.00    -0.507 OA
ATOM     24  H   UNL     1      28.039  -1.935 102.669  1.00  0.00     0.293 HD
ENDBRANCH  11  23
ENDBRANCH   1   2
BRANCH   1  25
ATOM     25  C   UNL     1      22.033  -3.939 101.723  1.00  0.00     0.339 C 
ATOM     26  C   UNL     1      21.484  -4.583 100.426  1.00  0.00     0.214 C 
ATOM     27  O   UNL     1      21.773  -4.769 102.846  1.00  0.00    -0.332 OA
ATOM     28  C   UNL     1      22.076  -5.994 100.247  1.00  0.00     0.180 C 
ATOM     29  C   UNL     1      22.420  -6.029 102.730  1.00  0.00     0.179 C 
ATOM     30  C   UNL     1      21.870  -6.829 101.526  1.00  0.00     0.177 C 
BRANCH  26  31
ATOM     31  O   UNL     1      21.796  -3.801  99.303  1.00  0.00    -0.384 OA
ATOM     32  H   UNL     1      22.724  -4.037  99.039  1.00  0.00     0.211 HD
ENDBRANCH  26  31
BRANCH  28  33
ATOM     33  O   UNL     1      21.536  -6.645  99.121  1.00  0.00    -0.387 OA
ATOM     34  H   UNL     1      21.683  -7.620  99.229  1.00  0.00     0.211 HD
ENDBRANCH  28  33
BRANCH  29  35
ATOM     35  C   UNL     1      22.263  -6.801 104.048  1.00  0.00     0.191 C 
BRANCH  35  36
ATOM     36  O   UNL     1      20.930  -6.781 104.478  1.00  0.00    -0.394 OA
ATOM     37  H   UNL     1      20.858  -6.024 105.116  1.00  0.00     0.210 HD
ENDBRANCH  35  36
ENDBRANCH  29  35
BRANCH  30  38
ATOM     38  O   UNL     1      20.503  -7.102 101.716  1.00  0.00    -0.387 OA
ATOM     39  H   UNL     1      20.056  -6.235 101.898  1.00  0.00     0.211 HD
ENDBRANCH  30  38
ENDBRANCH   1  25
TORSDOF 11
ENDMDL
MODEL 4
REMARK VINA RESULT:    -7.416      1.379      2.619
REMARK INTER + INTRA:         -11.652
REMARK INTER:                 -10.631
REMARK INTRA:                  -1.021
REMARK UNBOUND:                -0.984
REMARK SMILES O=c1cc(-c2ccc(O)c(O)c2)oc2cc(O[C@@H]3O[C@@H](CO)[C@@H](O)[C@@H](O)[C@@H]3O)cc(O)c12
REMARK SMILES IDX 17 1 16 2 4 3 3 4 13 5 2 6 14 7 1 8 32 9 15 10 30 11 29 12
REMARK SMILES IDX 5 13 6 14 7 15 8 16 12 17 10 18 9 19 11 21 31 23 18 25 27 26
REMARK SMILES IDX 19 27 25 28 20 29 23 30 28 31 26 33 21 35 22 36 24 38
REMARK H PARENT 9 20 11 22 31 24 28 32 26 34 22 37 24 39
REMARK Flexibility Score: inf
ROOT
ATOM      1  O   UNL     1      30.001   2.486 102.953  1.00  0.00    -0.462 OA
ENDROOT
BRANCH   1   2
ATOM      2  C   UNL     1      28.733   1.878 102.944  1.00  0.00     0.130 A 
ATOM      3  C   UNL     1      24.017   2.591 103.001  1.00  0.00     0.138 A 
ATOM      4  C   UNL     1      23.743   1.214 102.954  1.00  0.00     0.100 A 
ATOM      5  O   UNL     1      25.280   3.008 103.002  1.00  0.00    -0.456 OA
ATOM      6  C   UNL     1      24.802   0.306 102.922  1.00  0.00     0.197 A 
ATOM      7  C   UNL     1      26.321   2.182 102.972  1.00  0.00     0.146 A 
ATOM      8  O   UNL     1      24.547  -0.928 102.879  1.00  0.00    -0.289 OA
ATOM      9  C   UNL     1      26.128   0.782 102.935  1.00  0.00     0.107 A 
ATOM     10  C   UNL     1      27.613   2.714 102.979  1.00  0.00     0.094 A 
ATOM     11  C   UNL     1      27.257  -0.069 102.908  1.00  0.00     0.134 A 
ATOM     12  C   UNL     1      28.546   0.483 102.917  1.00  0.00     0.093 A 
BRANCH   3  13
ATOM     13  C   UNL     1      22.931   3.605 103.035  1.00  0.00     0.021 A 
ATOM     14  C   UNL     1      22.750   4.459 101.933  1.00  0.00     0.016 A 
ATOM     15  C   UNL     1      21.741   5.426 101.942  1.00  0.00     0.051 A 
ATOM     16  C   UNL     1      20.904   5.562 103.056  1.00  0.00     0.157 A 
ATOM     17  C   UNL     1      22.093   3.756 104.158  1.00  0.00     0.062 A 
ATOM     18  C   UNL     1      21.082   4.729 104.167  1.00  0.00     0.158 A 
BRANCH  16  19
ATOM     19  O   UNL     1      19.896   6.525 103.068  1.00  0.00    -0.504 OA
ATOM     20  H   UNL     1      18.972   6.321 103.430  1.00  0.00     0.293 HD
ENDBRANCH  16  19
BRANCH  18  21
ATOM     21  O   UNL     1      20.254   4.875 105.278  1.00  0.00    -0.504 OA
ATOM     22  H   UNL     1      19.981   5.789 105.619  1.00  0.00     0.293 HD
ENDBRANCH  18  21
ENDBRANCH   3  13
BRANCH  11  23
ATOM     23  O   UNL     1      27.107  -1.455 102.875  1.00  0.00    -0.507 OA
ATOM     24  H   UNL     1      26.253  -1.908 103.182  1.00  0.00     0.293 HD
ENDBRANCH  11  23
ENDBRANCH   1   2
BRANCH   1  25
ATOM     25  C   UNL     1      30.883   2.620 104.077  1.00  0.00     0.339 C 
ATOM     26  C   UNL     1      32.365   2.716 103.638  1.00  0.00     0.214 C 
ATOM     27  O   UNL     1      30.514   3.753 104.851  1.00  0.00    -0.332 OA
ATOM     28  C   UNL     1      32.606   4.034 102.878  1.00  0.00     0.180 C 
ATOM     29  C   UNL     1      30.625   4.959 104.107  1.00  0.00     0.179 C 
ATOM     30  C   UNL     1      32.093   5.230 103.704  1.00  0.00     0.177 C 
BRANCH  26  31
ATOM     31  O   UNL     1      32.718   1.634 102.816  1.00  0.00    -0.384 OA
ATOM     32  H   UNL     1      33.641   1.809 102.493  1.00  0.00     0.211 HD
ENDBRANCH  26  31
BRANCH  28  33
ATOM     33  O   UNL     1      33.961   4.195 102.534  1.00  0.00    -0.387 OA
ATOM     34  H   UNL     1      34.431   3.343 102.726  1.00  0.00     0.211 HD
ENDBRANCH  28  33
BRANCH  29  35
ATOM     35  C   UNL     1      30.034   6.115 104.926  1.00  0.00     0.191 C 
BRANCH  35  36
ATOM     36  O   UNL     1      30.405   6.009 106.273  1.00  0.00    -0.394 OA
ATOM     37  H   UNL     1      30.619   5.051 106.424  1.00  0.00     0.210 HD
ENDBRANCH  35  36
ENDBRANCH  29  35
BRANCH  30  38
ATOM     38  O   UNL     1      32.883   5.403 104.855  1.00  0.00    -0.387 OA
ATOM     39  H   UNL     1      32.266   5.633 105.599  1.00  0.00     0.211 HD
ENDBRANCH  30  38
ENDBRANCH   1  25
TORSDOF 11
ENDMDL
MODEL 5
REMARK VINA RESULT:    -7.281      1.793      3.162
REMARK INTER + INTRA:         -11.457
REMARK INTER:                 -10.506
REMARK INTRA:                  -0.952
REMARK UNBOUND:                -0.984
REMARK SMILES O=c1cc(-c2ccc(O)c(O)c2)oc2cc(O[C@@H]3O[C@@H](CO)[C@@H](O)[C@@H](O)[C@@H]3O)cc(O)c12
REMARK SMILES IDX 17 1 16 2 4 3 3 4 13 5 2 6 14 7 1 8 32 9 15 10 30 11 29 12
REMARK SMILES IDX 5 13 6 14 7 15 8 16 12 17 10 18 9 19 11 21 31 23 18 25 27 26
REMARK SMILES IDX 19 27 25 28 20 29 23 30 28 31 26 33 21 35 22 36 24 38
REMARK H PARENT 9 20 11 22 31 24 28 32 26 34 22 37 24 39
REMARK Flexibility Score: inf
ROOT
ATOM      1  O   UNL     1      29.731   2.109 102.183  1.00  0.00    -0.462 OA
ENDROOT
BRANCH   1   2
ATOM      2  C   UNL     1      28.457   1.554 102.399  1.00  0.00     0.130 A 
ATOM      3  C   UNL     1      23.812   2.455 103.002  1.00  0.00     0.138 A 
ATOM      4  C   UNL     1      23.497   1.092 103.126  1.00  0.00     0.100 A 
ATOM      5  O   UNL     1      25.075   2.820 102.797  1.00  0.00    -0.456 OA
ATOM      6  C   UNL     1      24.518   0.144 103.045  1.00  0.00     0.197 A 
ATOM      7  C   UNL     1      26.080   1.954 102.712  1.00  0.00     0.146 A 
ATOM      8  O   UNL     1      24.227  -1.078 103.156  1.00  0.00    -0.289 OA
ATOM      9  C   UNL     1      25.846   0.566 102.838  1.00  0.00     0.107 A 
ATOM     10  C   UNL     1      27.375   2.433 102.498  1.00  0.00     0.094 A 
ATOM     11  C   UNL     1      26.938  -0.328 102.747  1.00  0.00     0.134 A 
ATOM     12  C   UNL     1      28.231   0.171 102.533  1.00  0.00     0.093 A 
BRANCH   3  13
ATOM     13  C   UNL     1      22.768   3.510 103.078  1.00  0.00     0.021 A 
ATOM     14  C   UNL     1      22.584   4.379 101.988  1.00  0.00     0.016 A 
ATOM     15  C   UNL     1      21.615   5.384 102.036  1.00  0.00     0.051 A 
ATOM     16  C   UNL     1      20.820   5.544 103.178  1.00  0.00     0.157 A 
ATOM     17  C   UNL     1      21.974   3.685 104.229  1.00  0.00     0.062 A 
ATOM     18  C   UNL     1      21.003   4.695 104.278  1.00  0.00     0.158 A 
BRANCH  16  19
ATOM     19  O   UNL     1      19.852   6.545 103.230  1.00  0.00    -0.504 OA
ATOM     20  H   UNL     1      18.971   6.406 103.710  1.00  0.00     0.293 HD
ENDBRANCH  16  19
BRANCH  18  21
ATOM     21  O   UNL     1      20.218   4.865 105.416  1.00  0.00    -0.504 OA
ATOM     22  H   UNL     1      19.777   4.079 105.879  1.00  0.00     0.293 HD
ENDBRANCH  18  21
ENDBRANCH   3  13
BRANCH  11  23
ATOM     23  O   UNL     1      26.748  -1.704 102.870  1.00  0.00    -0.507 OA
ATOM     24  H   UNL     1      27.502  -2.364 102.718  1.00  0.00     0.293 HD
ENDBRANCH  11  23
ENDBRANCH   1   2
BRANCH   1  25
ATOM     25  C   UNL     1      30.976   1.642 102.722  1.00  0.00     0.339 C 
ATOM     26  C   UNL     1      31.967   1.227 101.607  1.00  0.00     0.214 C 
ATOM     27  O   UNL     1      31.549   2.639 103.557  1.00  0.00    -0.332 OA
ATOM     28  C   UNL     1      32.407   2.466 100.804  1.00  0.00     0.180 C 
ATOM     29  C   UNL     1      31.844   3.826 102.834  1.00  0.00     0.179 C 
ATOM     30  C   UNL     1      32.920   3.566 101.754  1.00  0.00     0.177 C 
BRANCH  26  31
ATOM     31  O   UNL     1      31.384   0.292 100.737  1.00  0.00    -0.384 OA
ATOM     32  H   UNL     1      32.013   0.178  99.977  1.00  0.00     0.211 HD
ENDBRANCH  26  31
BRANCH  28  33
ATOM     33  O   UNL     1      33.372   2.140  99.833  1.00  0.00    -0.387 OA
ATOM     34  H   UNL     1      34.051   2.863  99.819  1.00  0.00     0.211 HD
ENDBRANCH  28  33
BRANCH  29  35
ATOM     35  C   UNL     1      32.275   4.923 103.818  1.00  0.00     0.191 C 
BRANCH  35  36
ATOM     36  O   UNL     1      33.353   5.655 103.303  1.00  0.00    -0.394 OA
ATOM     37  H   UNL     1      33.443   5.379 102.354  1.00  0.00     0.210 HD
ENDBRANCH  35  36
ENDBRANCH  29  35
BRANCH  30  38
ATOM     38  O   UNL     1      34.123   3.164 102.363  1.00  0.00    -0.387 OA
ATOM     39  H   UNL     1      33.919   2.357 102.904  1.00  0.00     0.211 HD
ENDBRANCH  30  38
ENDBRANCH   1  25
TORSDOF 11
ENDMDL
MODEL 6
REMARK VINA RESULT:    -7.169      1.396      9.024
REMARK INTER + INTRA:         -11.295
REMARK INTER:                 -10.327
REMARK INTRA:                  -0.968
REMARK UNBOUND:                -0.984
REMARK SMILES O=c1cc(-c2ccc(O)c(O)c2)oc2cc(O[C@@H]3O[C@@H](CO)[C@@H](O)[C@@H](O)[C@@H]3O)cc(O)c12
REMARK SMILES IDX 17 1 16 2 4 3 3 4 13 5 2 6 14 7 1 8 32 9 15 10 30 11 29 12
REMARK SMILES IDX 5 13 6 14 7 15 8 16 12 17 10 18 9 19 11 21 31 23 18 25 27 26
REMARK SMILES IDX 19 27 25 28 20 29 23 30 28 31 26 33 21 35 22 36 24 38
REMARK H PARENT 9 20 11 22 31 24 28 32 26 34 22 37 24 39
REMARK Flexibility Score: inf
ROOT
ATOM      1  O   UNL     1      23.972   3.300 102.585  1.00  0.00    -0.462 OA
ENDROOT
BRANCH   1   2
ATOM      2  C   UNL     1      25.109   2.546 102.926  1.00  0.00     0.130 A 
ATOM      3  C   UNL     1      29.704   2.691 104.196  1.00  0.00     0.138 A 
ATOM      4  C   UNL     1      29.793   1.291 104.276  1.00  0.00     0.100 A 
ATOM      5  O   UNL     1      28.548   3.256 103.859  1.00  0.00    -0.456 OA
ATOM      6  C   UNL     1      28.669   0.516 103.986  1.00  0.00     0.197 A 
ATOM      7  C   UNL     1      27.451   2.559 103.574  1.00  0.00     0.146 A 
ATOM      8  O   UNL     1      28.758  -0.740 104.061  1.00  0.00    -0.289 OA
ATOM      9  C   UNL     1      27.464   1.147 103.621  1.00  0.00     0.107 A 
ATOM     10  C   UNL     1      26.283   3.242 103.227  1.00  0.00     0.094 A 
ATOM     11  C   UNL     1      26.282   0.437 103.310  1.00  0.00     0.134 A 
ATOM     12  C   UNL     1      25.118   1.139 102.962  1.00  0.00     0.093 A 
BRANCH   3  13
ATOM     13  C   UNL     1      30.866   3.567 104.495  1.00  0.00     0.021 A 
ATOM     14  C   UNL     1      31.207   3.831 105.833  1.00  0.00     0.016 A 
ATOM     15  C   UNL     1      32.290   4.658 106.141  1.00  0.00     0.051 A 
ATOM     16  C   UNL     1      33.044   5.244 105.117  1.00  0.00     0.157 A 
ATOM     17  C   UNL     1      31.620   4.172 103.469  1.00  0.00     0.062 A 
ATOM     18  C   UNL     1      32.706   5.005 103.779  1.00  0.00     0.158 A 
BRANCH  16  19
ATOM     19  O   UNL     1      34.125   6.070 105.421  1.00  0.00    -0.504 OA
ATOM     20  H   UNL     1      35.027   5.688 105.678  1.00  0.00     0.293 HD
ENDBRANCH  16  19
BRANCH  18  21
ATOM     21  O   UNL     1      33.452   5.600 102.764  1.00  0.00    -0.504 OA
ATOM     22  H   UNL     1      33.559   5.160 101.857  1.00  0.00     0.293 HD
ENDBRANCH  18  21
ENDBRANCH   3  13
BRANCH  11  23
ATOM     23  O   UNL     1      26.255  -0.958 103.341  1.00  0.00    -0.507 OA
ATOM     24  H   UNL     1      25.743  -1.467 104.053  1.00  0.00     0.293 HD
ENDBRANCH  11  23
ENDBRANCH   1   2
BRANCH   1  25
ATOM     25  C   UNL     1      23.727   4.678 102.902  1.00  0.00     0.339 C 
ATOM     26  C   UNL     1      22.886   5.381 101.808  1.00  0.00     0.214 C 
ATOM     27  O   UNL     1      23.089   4.779 104.168  1.00  0.00    -0.332 OA
ATOM     28  C   UNL     1      21.461   4.796 101.781  1.00  0.00     0.180 C 
ATOM     29  C   UNL     1      21.823   4.134 104.173  1.00  0.00     0.179 C 
ATOM     30  C   UNL     1      20.844   4.823 103.193  1.00  0.00     0.177 C 
BRANCH  26  31
ATOM     31  O   UNL     1      23.475   5.227 100.543  1.00  0.00    -0.384 OA
ATOM     32  H   UNL     1      22.732   5.152  99.888  1.00  0.00     0.211 HD
ENDBRANCH  26  31
BRANCH  28  33
ATOM     33  O   UNL     1      20.641   5.466 100.854  1.00  0.00    -0.387 OA
ATOM     34  H   UNL     1      19.696   5.262 101.074  1.00  0.00     0.211 HD
ENDBRANCH  28  33
BRANCH  29  35
ATOM     35  C   UNL     1      21.274   4.109 105.606  1.00  0.00     0.191 C 
BRANCH  35  36
ATOM     36  O   UNL     1      19.912   4.435 105.621  1.00  0.00    -0.394 OA
ATOM     37  H   UNL     1      19.863   5.404 105.832  1.00  0.00     0.210 HD
ENDBRANCH  35  36
ENDBRANCH  29  35
BRANCH  30  38
ATOM     38  O   UNL     1      20.613   6.149 103.600  1.00  0.00    -0.387 OA
ATOM     39  H   UNL     1      19.822   6.474 103.095  1.00  0.00     0.211 HD
ENDBRANCH  30  38
ENDBRANCH   1  25
TORSDOF 11
ENDMDL
MODEL 7
REMARK VINA RESULT:    -7.117      4.308      8.883
REMARK INTER + INTRA:         -11.221
REMARK INTER:                 -10.253
REMARK INTRA:                  -0.968
REMARK UNBOUND:                -0.984
REMARK SMILES O=c1cc(-c2ccc(O)c(O)c2)oc2cc(O[C@@H]3O[C@@H](CO)[C@@H](O)[C@@H](O)[C@@H]3O)cc(O)c12
REMARK SMILES IDX 17 1 16 2 4 3 3 4 13 5 2 6 14 7 1 8 32 9 15 10 30 11 29 12
REMARK SMILES IDX 5 13 6 14 7 15 8 16 12 17 10 18 9 19 11 21 31 23 18 25 27 26
REMARK SMILES IDX 19 27 25 28 20 29 23 30 28 31 26 33 21 35 22 36 24 38
REMARK H PARENT 9 20 11 22 31 24 28 32 26 34 22 37 24 39
REMARK Flexibility Score: inf
ROOT
ATOM      1  O   UNL     1      24.270  -3.358 103.069  1.00  0.00    -0.462 OA
ENDROOT
BRANCH   1   2
ATOM      2  C   UNL     1      24.826  -2.069 102.994  1.00  0.00     0.130 A 
ATOM      3  C   UNL     1      23.930   2.616 102.942  1.00  0.00     0.138 A 
ATOM      4  C   UNL     1      25.293   2.941 102.839  1.00  0.00     0.100 A 
ATOM      5  O   UNL     1      23.564   1.339 103.005  1.00  0.00    -0.456 OA
ATOM      6  C   UNL     1      26.239   1.917 102.790  1.00  0.00     0.197 A 
ATOM      7  C   UNL     1      24.429   0.329 102.962  1.00  0.00     0.146 A 
ATOM      8  O   UNL     1      27.461   2.217 102.698  1.00  0.00    -0.289 OA
ATOM      9  C   UNL     1      25.816   0.574 102.847  1.00  0.00     0.107 A 
ATOM     10  C   UNL     1      23.949  -0.981 103.031  1.00  0.00     0.094 A 
ATOM     11  C   UNL     1      26.708  -0.522 102.801  1.00  0.00     0.134 A 
ATOM     12  C   UNL     1      26.208  -1.831 102.870  1.00  0.00     0.093 A 
BRANCH   3  13
ATOM     13  C   UNL     1      22.878   3.663 103.001  1.00  0.00     0.021 A 
ATOM     14  C   UNL     1      22.099   3.795 104.163  1.00  0.00     0.016 A 
ATOM     15  C   UNL     1      21.097   4.767 104.241  1.00  0.00     0.051 A 
ATOM     16  C   UNL     1      20.851   5.615 103.155  1.00  0.00     0.157 A 
ATOM     17  C   UNL     1      22.615   4.511 101.906  1.00  0.00     0.062 A 
ATOM     18  C   UNL     1      21.608   5.485 101.984  1.00  0.00     0.158 A 
BRANCH  16  19
ATOM     19  O   UNL     1      19.854   6.585 103.229  1.00  0.00    -0.504 OA
ATOM     20  H   UNL     1      19.909   7.354 103.887  1.00  0.00     0.293 HD
ENDBRANCH  16  19
BRANCH  18  21
ATOM     21  O   UNL     1      21.352   6.323 100.901  1.00  0.00    -0.504 OA
ATOM     22  H   UNL     1      21.422   7.330 100.982  1.00  0.00     0.293 HD
ENDBRANCH  18  21
ENDBRANCH   3  13
BRANCH  11  23
ATOM     23  O   UNL     1      28.083  -0.320 102.684  1.00  0.00    -0.507 OA
ATOM     24  H   UNL     1      28.467   0.508 102.243  1.00  0.00     0.293 HD
ENDBRANCH  11  23
ENDBRANCH   1   2
BRANCH   1  25
ATOM     25  C   UNL     1      24.692  -4.521 102.341  1.00  0.00     0.339 C 
ATOM     26  C   UNL     1      24.047  -5.814 102.897  1.00  0.00     0.214 C 
ATOM     27  O   UNL     1      24.395  -4.364 100.960  1.00  0.00    -0.332 OA
ATOM     28  C   UNL     1      22.529  -5.801 102.634  1.00  0.00     0.180 C 
ATOM     29  C   UNL     1      22.998  -4.234 100.734  1.00  0.00     0.179 C 
ATOM     30  C   UNL     1      22.245  -5.520 101.146  1.00  0.00     0.177 C 
BRANCH  26  31
ATOM     31  O   UNL     1      24.280  -5.941 104.275  1.00  0.00    -0.384 OA
ATOM     32  H   UNL     1      24.960  -5.258 104.515  1.00  0.00     0.211 HD
ENDBRANCH  26  31
BRANCH  28  33
ATOM     33  O   UNL     1      21.920  -6.999 103.053  1.00  0.00    -0.387 OA
ATOM     34  H   UNL     1      21.217  -6.772 103.715  1.00  0.00     0.211 HD
ENDBRANCH  28  33
BRANCH  29  35
ATOM     35  C   UNL     1      22.756  -3.877  99.261  1.00  0.00     0.191 C 
BRANCH  35  36
ATOM     36  O   UNL     1      21.458  -4.233  98.871  1.00  0.00    -0.394 OA
ATOM     37  H   UNL     1      21.134  -4.877  99.553  1.00  0.00     0.210 HD
ENDBRANCH  35  36
ENDBRANCH  29  35
BRANCH  30  38
ATOM     38  O   UNL     1      22.674  -6.601 100.354  1.00  0.00    -0.387 OA
ATOM     39  H   UNL     1      22.604  -6.313  99.406  1.00  0.00     0.211 HD
ENDBRANCH  30  38
ENDBRANCH   1  25
TORSDOF 11
ENDMDL
MODEL 8
REMARK VINA RESULT:    -6.735      3.367      9.189
REMARK INTER + INTRA:         -10.671
REMARK INTER:                  -9.712
REMARK INTRA:                  -0.959
REMARK UNBOUND:                -0.984
REMARK SMILES O=c1cc(-c2ccc(O)c(O)c2)oc2cc(O[C@@H]3O[C@@H](CO)[C@@H](O)[C@@H](O)[C@@H]3O)cc(O)c12
REMARK SMILES IDX 17 1 16 2 4 3 3 4 13 5 2 6 14 7 1 8 32 9 15 10 30 11 29 12
REMARK SMILES IDX 5 13 6 14 7 15 8 16 12 17 10 18 9 19 11 21 31 23 18 25 27 26
REMARK SMILES IDX 19 27 25 28 20 29 23 30 28 31 26 33 21 35 22 36 24 38
REMARK H PARENT 9 20 11 22 31 24 28 32 26 34 22 37 24 39
REMARK Flexibility Score: inf
ROOT
ATOM      1  O   UNL     1      22.526   1.251 103.778  1.00  0.00    -0.462 OA
ENDROOT
BRANCH   1   2
ATOM      2  C   UNL     1      23.348   0.464 102.953  1.00  0.00     0.130 A 
ATOM      3  C   UNL     1      27.790  -0.315 101.399  1.00  0.00     0.138 A 
ATOM      4  C   UNL     1      27.388  -1.391 100.592  1.00  0.00     0.100 A 
ATOM      5  O   UNL     1      26.884   0.332 102.127  1.00  0.00    -0.456 OA
ATOM      6  C   UNL     1      26.042  -1.755 100.556  1.00  0.00     0.197 A 
ATOM      7  C   UNL     1      25.591   0.022 102.127  1.00  0.00     0.146 A 
ATOM      8  O   UNL     1      25.690  -2.724  99.829  1.00  0.00    -0.289 OA
ATOM      9  C   UNL     1      25.107  -1.041 101.332  1.00  0.00     0.107 A 
ATOM     10  C   UNL     1      24.713   0.762 102.923  1.00  0.00     0.094 A 
ATOM     11  C   UNL     1      23.726  -1.343 101.351  1.00  0.00     0.134 A 
ATOM     12  C   UNL     1      22.859  -0.589 102.156  1.00  0.00     0.093 A 
BRANCH   3  13
ATOM     13  C   UNL     1      29.210   0.117 101.478  1.00  0.00     0.021 A 
ATOM     14  C   UNL     1      29.511   1.488 101.556  1.00  0.00     0.016 A 
ATOM     15  C   UNL     1      30.838   1.921 101.624  1.00  0.00     0.051 A 
ATOM     16  C   UNL     1      31.886   0.992 101.605  1.00  0.00     0.157 A 
ATOM     17  C   UNL     1      30.269  -0.811 101.444  1.00  0.00     0.062 A 
ATOM     18  C   UNL     1      31.601  -0.376 101.510  1.00  0.00     0.158 A 
BRANCH  16  19
ATOM     19  O   UNL     1      33.210   1.420 101.672  1.00  0.00    -0.504 OA
ATOM     20  H   UNL     1      33.564   2.147 101.062  1.00  0.00     0.293 HD
ENDBRANCH  16  19
BRANCH  18  21
ATOM     21  O   UNL     1      32.647  -1.296 101.479  1.00  0.00    -0.504 OA
ATOM     22  H   UNL     1      33.610  -1.001 101.371  1.00  0.00     0.293 HD
ENDBRANCH  18  21
ENDBRANCH   3  13
BRANCH  11  23
ATOM     23  O   UNL     1      23.209  -2.383 100.577  1.00  0.00    -0.507 OA
ATOM     24  H   UNL     1      22.305  -2.313 100.125  1.00  0.00     0.293 HD
ENDBRANCH  11  23
ENDBRANCH   1   2
BRANCH   1  25
ATOM     25  C   UNL     1      21.351   1.975 103.383  1.00  0.00     0.339 C 
ATOM     26  C   UNL     1      20.630   2.610 104.598  1.00  0.00     0.214 C 
ATOM     27  O   UNL     1      21.691   2.968 102.425  1.00  0.00    -0.332 OA
ATOM     28  C   UNL     1      21.505   3.721 105.208  1.00  0.00     0.180 C 
ATOM     29  C   UNL     1      22.594   3.927 102.959  1.00  0.00     0.179 C 
ATOM     30  C   UNL     1      21.944   4.718 104.118  1.00  0.00     0.177 C 
BRANCH  26  31
ATOM     31  O   UNL     1      20.352   1.646 105.579  1.00  0.00    -0.384 OA
ATOM     32  H   UNL     1      20.291   0.771 105.113  1.00  0.00     0.211 HD
ENDBRANCH  26  31
BRANCH  28  33
ATOM     33  O   UNL     1      20.848   4.379 106.265  1.00  0.00    -0.387 OA
ATOM     34  H   UNL     1      20.603   3.700 106.945  1.00  0.00     0.211 HD
ENDBRANCH  28  33
BRANCH  29  35
ATOM     35  C   UNL     1      23.071   4.854 101.831  1.00  0.00     0.191 C 
BRANCH  35  36
ATOM     36  O   UNL     1      22.160   4.848 100.767  1.00  0.00    -0.394 OA
ATOM     37  H   UNL     1      21.546   4.087 100.934  1.00  0.00     0.210 HD
ENDBRANCH  35  36
ENDBRANCH  29  35
BRANCH  30  38
ATOM     38  O   UNL     1      20.835   5.441 103.642  1.00  0.00    -0.387 OA
ATOM     39  H   UNL     1      20.976   6.391 103.896  1.00  0.00     0.211 HD
ENDBRANCH  30  38
ENDBRANCH   1  25
TORSDOF 11
ENDMDL
MODEL 9
REMARK VINA RESULT:    -6.639      3.980      8.512
REMARK INTER + INTRA:         -10.533
REMARK INTER:                  -9.524
REMARK INTRA:                  -1.009
REMARK UNBOUND:                -0.984
REMARK SMILES O=c1cc(-c2ccc(O)c(O)c2)oc2cc(O[C@@H]3O[C@@H](CO)[C@@H](O)[C@@H](O)[C@@H]3O)cc(O)c12
REMARK SMILES IDX 17 1 16 2 4 3 3 4 13 5 2 6 14 7 1 8 32 9 15 10 30 11 29 12
REMARK SMILES IDX 5 13 6 14 7 15 8 16 12 17 10 18 9 19 11 21 31 23 18 25 27 26
REMARK SMILES IDX 19 27 25 28 20 29 23 30 28 31 26 33 21 35 22 36 24 38
REMARK H PARENT 9 20 11 22 31 24 28 32 26 34 22 37 24 39
REMARK Flexibility Score: inf
ROOT
ATOM      1  O   UNL     1      25.480  -2.875 102.806  1.00  0.00    -0.462 OA
ENDROOT
BRANCH   1   2
ATOM      2  C   UNL     1      25.858  -1.522 102.874  1.00  0.00     0.130 A 
ATOM      3  C   UNL     1      24.336   2.995 103.031  1.00  0.00     0.138 A 
ATOM      4  C   UNL     1      25.644   3.502 103.093  1.00  0.00     0.100 A 
ATOM      5  O   UNL     1      24.144   1.680 102.972  1.00  0.00    -0.456 OA
ATOM      6  C   UNL     1      26.723   2.617 103.078  1.00  0.00     0.197 A 
ATOM      7  C   UNL     1      25.140   0.798 102.955  1.00  0.00     0.146 A 
ATOM      8  O   UNL     1      27.894   3.080 103.136  1.00  0.00    -0.289 OA
ATOM      9  C   UNL     1      26.484   1.230 103.004  1.00  0.00     0.107 A 
ATOM     10  C   UNL     1      24.840  -0.565 102.888  1.00  0.00     0.094 A 
ATOM     11  C   UNL     1      27.519   0.267 102.980  1.00  0.00     0.134 A 
ATOM     12  C   UNL     1      27.199  -1.098 102.912  1.00  0.00     0.093 A 
BRANCH   3  13
ATOM     13  C   UNL     1      23.148   3.889 103.046  1.00  0.00     0.021 A 
ATOM     14  C   UNL     1      22.910   4.738 101.951  1.00  0.00     0.016 A 
ATOM     15  C   UNL     1      21.805   5.594 101.944  1.00  0.00     0.051 A 
ATOM     16  C   UNL     1      20.927   5.622 103.034  1.00  0.00     0.157 A 
ATOM     17  C   UNL     1      22.269   3.933 104.146  1.00  0.00     0.062 A 
ATOM     18  C   UNL     1      21.161   4.793 104.138  1.00  0.00     0.158 A 
BRANCH  16  19
ATOM     19  O   UNL     1      19.824   6.474 103.030  1.00  0.00    -0.504 OA
ATOM     20  H   UNL     1      18.916   6.164 102.703  1.00  0.00     0.293 HD
ENDBRANCH  16  19
BRANCH  18  21
ATOM     21  O   UNL     1      20.291   4.833 105.226  1.00  0.00    -0.504 OA
ATOM     22  H   UNL     1      19.435   5.373 105.201  1.00  0.00     0.293 HD
ENDBRANCH  18  21
ENDBRANCH   3  13
BRANCH  11  23
ATOM     23  O   UNL     1      28.858   0.654 103.023  1.00  0.00    -0.507 OA
ATOM     24  H   UNL     1      29.506   0.265 103.699  1.00  0.00     0.293 HD
ENDBRANCH  11  23
ENDBRANCH   1   2
BRANCH   1  25
ATOM     25  C   UNL     1      24.246  -3.448 103.264  1.00  0.00     0.339 C 
ATOM     26  C   UNL     1      23.474  -4.146 102.116  1.00  0.00     0.214 C 
ATOM     27  O   UNL     1      24.498  -4.358 104.326  1.00  0.00    -0.332 OA
ATOM     28  C   UNL     1      24.251  -5.388 101.638  1.00  0.00     0.180 C 
ATOM     29  C   UNL     1      25.315  -5.443 103.907  1.00  0.00     0.179 C 
ATOM     30  C   UNL     1      24.600  -6.296 102.833  1.00  0.00     0.177 C 
BRANCH  26  31
ATOM     31  O   UNL     1      23.282  -3.273 101.035  1.00  0.00    -0.384 OA
ATOM     32  H   UNL     1      23.038  -3.835 100.253  1.00  0.00     0.211 HD
ENDBRANCH  26  31
BRANCH  28  33
ATOM     33  O   UNL     1      23.540  -6.096 100.650  1.00  0.00    -0.387 OA
ATOM     34  H   UNL     1      23.195  -6.932 101.059  1.00  0.00     0.211 HD
ENDBRANCH  28  33
BRANCH  29  35
ATOM     35  C   UNL     1      25.709  -6.281 105.132  1.00  0.00     0.191 C 
BRANCH  35  36
ATOM     36  O   UNL     1      24.720  -6.207 106.122  1.00  0.00    -0.394 OA
ATOM     37  H   UNL     1      23.964  -6.762 105.797  1.00  0.00     0.210 HD
ENDBRANCH  35  36
ENDBRANCH  29  35
BRANCH  30  38
ATOM     38  O   UNL     1      23.432  -6.865 103.372  1.00  0.00    -0.387 OA
ATOM     39  H   UNL     1      22.671  -6.298 103.079  1.00  0.00     0.211 HD
ENDBRANCH  30  38
ENDBRANCH   1  25
TORSDOF 11
ENDMDL
