MODEL 1
REMARK VINA RESULT:    -6.778      0.000      0.000
REMARK INTER + INTRA:         -11.345
REMARK INTER:                  -9.750
REMARK INTRA:                  -1.595
REMARK UNBOUND:                -1.595
REMARK SMILES O=c1c(O[C@@H]2O[C@H](CO)[C@@H](O)[C@@H](O)[C@H]2O)c(-c2ccc(O)cc2)oc2cc(O)cc(O)c12
REMARK SMILES IDX 4 1 3 2 16 3 24 4 2 5 25 6 1 7 32 8 26 9 30 10 27 11 29 12
REMARK SMILES IDX 17 13 18 14 19 15 20 16 23 17 22 18 21 19 31 21 28 23 5 25
REMARK SMILES IDX 14 26 6 27 12 28 7 29 10 30 15 31 13 33 8 35 9 36 11 38
REMARK H PARENT 21 20 31 22 28 24 15 32 13 34 9 37 11 39
REMARK Flexibility Score: inf
ROOT
ATOM      1  O   UNL     1      14.129  14.664  11.175  1.00  0.00    -0.454 OA
ENDROOT
BRANCH   1   2
ATOM      2  C   UNL     1      15.120  14.184  12.052  1.00  0.00     0.214 A 
ATOM      3  C   UNL     1      16.449  14.605  11.863  1.00  0.00     0.180 A 
ATOM      4  O   UNL     1      17.401  14.195  12.690  1.00  0.00    -0.452 OA
ATOM      5  C   UNL     1      14.838  13.308  13.121  1.00  0.00     0.239 A 
ATOM      6  C   UNL     1      17.179  13.390  13.721  1.00  0.00     0.146 A 
ATOM      7  O   UNL     1      13.681  12.829  13.237  1.00  0.00    -0.285 OA
ATOM      8  C   UNL     1      15.870  12.934  14.016  1.00  0.00     0.111 A 
ATOM      9  C   UNL     1      18.266  12.996  14.506  1.00  0.00     0.094 A 
ATOM     10  C   UNL     1      15.682  12.106  15.165  1.00  0.00     0.134 A 
ATOM     11  C   UNL     1      18.081  12.137  15.587  1.00  0.00     0.123 A 
ATOM     12  C   UNL     1      16.796  11.693  15.908  1.00  0.00     0.093 A 
BRANCH   3  13
ATOM     13  C   UNL     1      16.828  15.536  10.776  1.00  0.00     0.021 A 
ATOM     14  C   UNL     1      17.108  16.890  11.035  1.00  0.00     0.016 A 
ATOM     15  C   UNL     1      17.460  17.751   9.992  1.00  0.00     0.047 A 
ATOM     16  C   UNL     1      17.520  17.275   8.676  1.00  0.00     0.115 A 
ATOM     17  C   UNL     1      16.871  15.072   9.451  1.00  0.00     0.016 A 
ATOM     18  C   UNL     1      17.222  15.935   8.410  1.00  0.00     0.047 A 
BRANCH  16  19
ATOM     19  O   UNL     1      17.869  18.124   7.628  1.00  0.00    -0.508 OA
ATOM     20  H   UNL     1      17.168  18.612   7.085  1.00  0.00     0.293 HD
ENDBRANCH  16  19
ENDBRANCH   3  13
BRANCH  10  21
ATOM     21  O   UNL     1      14.432  11.692  15.633  1.00  0.00    -0.507 OA
ATOM     22  H   UNL     1      13.583  12.231  15.549  1.00  0.00     0.293 HD
ENDBRANCH  10  21
BRANCH  11  23
ATOM     23  O   UNL     1      19.181  11.739  16.344  1.00  0.00    -0.508 OA
ATOM     24  H   UNL     1      19.204  11.859  17.351  1.00  0.00     0.293 HD
ENDBRANCH  11  23
ENDBRANCH   1   2
BRANCH   1  25
ATOM     25  C   UNL     1      13.258  15.773  11.416  1.00  0.00     0.339 C 
ATOM     26  C   UNL     1      13.646  16.946  10.500  1.00  0.00     0.214 C 
ATOM     27  O   UNL     1      11.887  15.413  11.294  1.00  0.00    -0.332 OA
ATOM     28  C   UNL     1      13.287  16.624   9.041  1.00  0.00     0.180 C 
ATOM     29  C   UNL     1      11.482  15.065   9.973  1.00  0.00     0.179 C 
ATOM     30  C   UNL     1      11.827  16.158   8.920  1.00  0.00     0.177 C 
BRANCH  26  31
ATOM     31  O   UNL     1      12.999  18.123  10.913  1.00  0.00    -0.384 OA
ATOM     32  H   UNL     1      13.681  18.846  10.902  1.00  0.00     0.211 HD
ENDBRANCH  26  31
BRANCH  28  33
ATOM     33  O   UNL     1      13.498  17.747   8.223  1.00  0.00    -0.387 OA
ATOM     34  H   UNL     1      12.714  17.812   7.618  1.00  0.00     0.211 HD
ENDBRANCH  28  33
BRANCH  29  35
ATOM     35  C   UNL     1      11.946  13.650   9.570  1.00  0.00     0.191 C 
BRANCH  35  36
ATOM     36  O   UNL     1      12.073  12.830  10.703  1.00  0.00    -0.394 OA
ATOM     37  H   UNL     1      11.650  11.960  10.480  1.00  0.00     0.210 HD
ENDBRANCH  35  36
ENDBRANCH  29  35
BRANCH  30  38
ATOM     38  O   UNL     1      10.941  17.251   9.002  1.00  0.00    -0.387 OA
ATOM     39  H   UNL     1      10.182  17.089   8.384  1.00  0.00     0.211 HD
ENDBRANCH  30  38
ENDBRANCH   1  25
TORSDOF 11
ENDMDL
MODEL 2
REMARK VINA RESULT:    -6.604      2.613      8.553
REMARK INTER + INTRA:         -11.095
REMARK INTER:                  -9.358
REMARK INTRA:                  -1.737
REMARK UNBOUND:                -1.595
REMARK SMILES O=c1c(O[C@@H]2O[C@H](CO)[C@@H](O)[C@@H](O)[C@H]2O)c(-c2ccc(O)cc2)oc2cc(O)cc(O)c12
REMARK SMILES IDX 4 1 3 2 16 3 24 4 2 5 25 6 1 7 32 8 26 9 30 10 27 11 29 12
REMARK SMILES IDX 17 13 18 14 19 15 20 16 23 17 22 18 21 19 31 21 28 23 5 25
REMARK SMILES IDX 14 26 6 27 12 28 7 29 10 30 15 31 13 33 8 35 9 36 11 38
REMARK H PARENT 21 20 31 22 28 24 15 32 13 34 9 37 11 39
REMARK Flexibility Score: inf
ROOT
ATOM      1  O   UNL     1      15.776  12.199  15.061  1.00  0.00    -0.454 OA
ENDROOT
BRANCH   1   2
ATOM      2  C   UNL     1      15.176  12.813  13.946  1.00  0.00     0.214 A 
ATOM      3  C   UNL     1      14.088  12.171  13.327  1.00  0.00     0.180 A 
ATOM      4  O   UNL     1      13.483  12.737  12.292  1.00  0.00    -0.452 OA
ATOM      5  C   UNL     1      15.611  14.051  13.427  1.00  0.00     0.239 A 
ATOM      6  C   UNL     1      13.842  13.910  11.785  1.00  0.00     0.146 A 
ATOM      7  O   UNL     1      16.651  14.583  13.890  1.00  0.00    -0.285 OA
ATOM      8  C   UNL     1      14.907  14.651  12.355  1.00  0.00     0.111 A 
ATOM      9  C   UNL     1      13.151  14.394  10.670  1.00  0.00     0.094 A 
ATOM     10  C   UNL     1      15.220  15.928  11.796  1.00  0.00     0.134 A 
ATOM     11  C   UNL     1      13.506  15.611  10.094  1.00  0.00     0.123 A 
ATOM     12  C   UNL     1      14.539  16.368  10.653  1.00  0.00     0.093 A 
BRANCH   3  13
ATOM     13  C   UNL     1      13.559  10.879  13.818  1.00  0.00     0.021 A 
ATOM     14  C   UNL     1      14.070   9.653  13.356  1.00  0.00     0.016 A 
ATOM     15  C   UNL     1      13.551   8.446  13.832  1.00  0.00     0.047 A 
ATOM     16  C   UNL     1      12.503   8.448  14.763  1.00  0.00     0.115 A 
ATOM     17  C   UNL     1      12.495  10.872  14.736  1.00  0.00     0.016 A 
ATOM     18  C   UNL     1      11.977   9.664  15.210  1.00  0.00     0.047 A 
BRANCH  16  19
ATOM     19  O   UNL     1      11.978   7.251  15.243  1.00  0.00    -0.508 OA
ATOM     20  H   UNL     1      10.992   7.151  15.452  1.00  0.00     0.293 HD
ENDBRANCH  16  19
ENDBRANCH   3  13
BRANCH  10  21
ATOM     21  O   UNL     1      16.161  16.807  12.339  1.00  0.00    -0.507 OA
ATOM     22  H   UNL     1      17.122  16.570  12.530  1.00  0.00     0.293 HD
ENDBRANCH  10  21
BRANCH  11  23
ATOM     23  O   UNL     1      12.820  16.066   8.970  1.00  0.00    -0.508 OA
ATOM     24  H   UNL     1      12.956  17.004   8.609  1.00  0.00     0.293 HD
ENDBRANCH  11  23
ENDBRANCH   1   2
BRANCH   1  25
ATOM     25  C   UNL     1      15.584  12.571  16.430  1.00  0.00     0.339 C 
ATOM     26  C   UNL     1      15.002  11.382  17.213  1.00  0.00     0.214 C 
ATOM     27  O   UNL     1      16.774  13.083  17.018  1.00  0.00    -0.332 OA
ATOM     28  C   UNL     1      16.059  10.279  17.372  1.00  0.00     0.180 C 
ATOM     29  C   UNL     1      17.819  12.127  17.167  1.00  0.00     0.179 C 
ATOM     30  C   UNL     1      17.373  10.848  17.932  1.00  0.00     0.177 C 
BRANCH  26  31
ATOM     31  O   UNL     1      14.544  11.804  18.473  1.00  0.00    -0.384 OA
ATOM     32  H   UNL     1      15.077  12.605  18.720  1.00  0.00     0.211 HD
ENDBRANCH  26  31
BRANCH  28  33
ATOM     33  O   UNL     1      15.584   9.259  18.213  1.00  0.00    -0.387 OA
ATOM     34  H   UNL     1      15.300   8.511  17.624  1.00  0.00     0.211 HD
ENDBRANCH  28  33
BRANCH  29  35
ATOM     35  C   UNL     1      18.539  11.832  15.835  1.00  0.00     0.191 C 
BRANCH  35  36
ATOM     36  O   UNL     1      18.846  13.025  15.163  1.00  0.00    -0.394 OA
ATOM     37  H   UNL     1      18.267  13.733  15.549  1.00  0.00     0.210 HD
ENDBRANCH  35  36
ENDBRANCH  29  35
BRANCH  30  38
ATOM     38  O   UNL     1      17.268  11.086  19.317  1.00  0.00    -0.387 OA
ATOM     39  H   UNL     1      17.901  10.485  19.790  1.00  0.00     0.211 HD
ENDBRANCH  30  38
ENDBRANCH   1  25
TORSDOF 11
ENDMDL
MODEL 3
REMARK VINA RESULT:    -6.582      1.956      4.573
REMARK INTER + INTRA:         -11.063
REMARK INTER:                  -9.757
REMARK INTRA:                  -1.307
REMARK UNBOUND:                -1.595
REMARK SMILES O=c1c(O[C@@H]2O[C@H](CO)[C@@H](O)[C@@H](O)[C@H]2O)c(-c2ccc(O)cc2)oc2cc(O)cc(O)c12
REMARK SMILES IDX 4 1 3 2 16 3 24 4 2 5 25 6 1 7 32 8 26 9 30 10 27 11 29 12
REMARK SMILES IDX 17 13 18 14 19 15 20 16 23 17 22 18 21 19 31 21 28 23 5 25
REMARK SMILES IDX 14 26 6 27 12 28 7 29 10 30 15 31 13 33 8 35 9 36 11 38
REMARK H PARENT 21 20 31 22 28 24 15 32 13 34 9 37 11 39
REMARK Flexibility Score: inf
ROOT
ATOM      1  O   UNL     1      16.650  15.511  11.420  1.00  0.00    -0.454 OA
ENDROOT
BRANCH   1   2
ATOM      2  C   UNL     1      16.489  14.959  12.705  1.00  0.00     0.214 A 
ATOM      3  C   UNL     1      15.265  15.150  13.372  1.00  0.00     0.180 A 
ATOM      4  O   UNL     1      15.071  14.618  14.571  1.00  0.00    -0.452 OA
ATOM      5  C   UNL     1      17.498  14.213  13.351  1.00  0.00     0.239 A 
ATOM      6  C   UNL     1      15.981  13.891  15.206  1.00  0.00     0.146 A 
ATOM      7  O   UNL     1      18.636  14.131  12.824  1.00  0.00    -0.285 OA
ATOM      8  C   UNL     1      17.236  13.615  14.608  1.00  0.00     0.111 A 
ATOM      9  C   UNL     1      15.678  13.409  16.482  1.00  0.00     0.094 A 
ATOM     10  C   UNL     1      18.160  12.789  15.318  1.00  0.00     0.134 A 
ATOM     11  C   UNL     1      16.611  12.657  17.193  1.00  0.00     0.123 A 
ATOM     12  C   UNL     1      17.845  12.356  16.612  1.00  0.00     0.093 A 
BRANCH   3  13
ATOM     13  C   UNL     1      14.149  15.905  12.759  1.00  0.00     0.021 A 
ATOM     14  C   UNL     1      13.072  15.247  12.138  1.00  0.00     0.016 A 
ATOM     15  C   UNL     1      12.031  15.982  11.563  1.00  0.00     0.047 A 
ATOM     16  C   UNL     1      12.062  17.382  11.586  1.00  0.00     0.115 A 
ATOM     17  C   UNL     1      14.181  17.309  12.760  1.00  0.00     0.016 A 
ATOM     18  C   UNL     1      13.141  18.041  12.184  1.00  0.00     0.047 A 
BRANCH  16  19
ATOM     19  O   UNL     1      11.031  18.125  11.015  1.00  0.00    -0.508 OA
ATOM     20  H   UNL     1      10.733  19.009  11.410  1.00  0.00     0.293 HD
ENDBRANCH  16  19
ENDBRANCH   3  13
BRANCH  10  21
ATOM     21  O   UNL     1      19.375  12.345  14.788  1.00  0.00    -0.507 OA
ATOM     22  H   UNL     1      20.283  12.627  15.125  1.00  0.00     0.293 HD
ENDBRANCH  10  21
BRANCH  11  23
ATOM     23  O   UNL     1      16.298  12.204  18.473  1.00  0.00    -0.508 OA
ATOM     24  H   UNL     1      16.005  12.841  19.205  1.00  0.00     0.293 HD
ENDBRANCH  11  23
ENDBRANCH   1   2
BRANCH   1  25
ATOM     25  C   UNL     1      17.333  16.729  11.109  1.00  0.00     0.339 C 
ATOM     26  C   UNL     1      18.599  16.420  10.292  1.00  0.00     0.214 C 
ATOM     27  O   UNL     1      16.482  17.670  10.464  1.00  0.00    -0.332 OA
ATOM     28  C   UNL     1      18.221  15.945   8.881  1.00  0.00     0.180 C 
ATOM     29  C   UNL     1      16.057  17.285   9.159  1.00  0.00     0.179 C 
ATOM     30  C   UNL     1      17.238  16.920   8.214  1.00  0.00     0.177 C 
BRANCH  26  31
ATOM     31  O   UNL     1      19.424  17.555  10.220  1.00  0.00    -0.384 OA
ATOM     32  H   UNL     1      19.787  17.706  11.133  1.00  0.00     0.211 HD
ENDBRANCH  26  31
BRANCH  28  33
ATOM     33  O   UNL     1      19.370  15.807   8.084  1.00  0.00    -0.387 OA
ATOM     34  H   UNL     1      19.434  14.847   7.839  1.00  0.00     0.211 HD
ENDBRANCH  28  33
BRANCH  29  35
ATOM     35  C   UNL     1      14.943  16.219   9.195  1.00  0.00     0.191 C 
BRANCH  35  36
ATOM     36  O   UNL     1      13.791  16.684   8.540  1.00  0.00    -0.394 OA
ATOM     37  H   UNL     1      14.061  16.926   7.617  1.00  0.00     0.210 HD
ENDBRANCH  35  36
ENDBRANCH  29  35
BRANCH  30  38
ATOM     38  O   UNL     1      17.906  18.074   7.756  1.00  0.00    -0.387 OA
ATOM     39  H   UNL     1      17.803  18.129   6.770  1.00  0.00     0.211 HD
ENDBRANCH  30  38
ENDBRANCH   1  25
TORSDOF 11
ENDMDL
MODEL 4
REMARK VINA RESULT:    -6.359      1.693      4.762
REMARK INTER + INTRA:         -10.743
REMARK INTER:                  -9.119
REMARK INTRA:                  -1.624
REMARK UNBOUND:                -1.595
REMARK SMILES O=c1c(O[C@@H]2O[C@H](CO)[C@@H](O)[C@@H](O)[C@H]2O)c(-c2ccc(O)cc2)oc2cc(O)cc(O)c12
REMARK SMILES IDX 4 1 3 2 16 3 24 4 2 5 25 6 1 7 32 8 26 9 30 10 27 11 29 12
REMARK SMILES IDX 17 13 18 14 19 15 20 16 23 17 22 18 21 19 31 21 28 23 5 25
REMARK SMILES IDX 14 26 6 27 12 28 7 29 10 30 15 31 13 33 8 35 9 36 11 38
REMARK H PARENT 21 20 31 22 28 24 15 32 13 34 9 37 11 39
REMARK Flexibility Score: inf
ROOT
ATOM      1  O   UNL     1      15.891  15.323  11.381  1.00  0.00    -0.454 OA
ENDROOT
BRANCH   1   2
ATOM      2  C   UNL     1      15.322  14.256  12.101  1.00  0.00     0.214 A 
ATOM      3  C   UNL     1      13.921  14.118  12.107  1.00  0.00     0.180 A 
ATOM      4  O   UNL     1      13.356  13.107  12.752  1.00  0.00    -0.452 OA
ATOM      5  C   UNL     1      16.094  13.312  12.810  1.00  0.00     0.239 A 
ATOM      6  C   UNL     1      14.042  12.183  13.412  1.00  0.00     0.146 A 
ATOM      7  O   UNL     1      17.335  13.484  12.914  1.00  0.00    -0.285 OA
ATOM      8  C   UNL     1      15.459  12.215  13.442  1.00  0.00     0.111 A 
ATOM      9  C   UNL     1      13.337  11.181  14.084  1.00  0.00     0.094 A 
ATOM     10  C   UNL     1      16.147  11.169  14.129  1.00  0.00     0.134 A 
ATOM     11  C   UNL     1      14.017  10.201  14.804  1.00  0.00     0.123 A 
ATOM     12  C   UNL     1      15.414  10.202  14.829  1.00  0.00     0.093 A 
BRANCH   3  13
ATOM     13  C   UNL     1      13.039  15.055  11.376  1.00  0.00     0.021 A 
ATOM     14  C   UNL     1      12.352  14.660  10.214  1.00  0.00     0.016 A 
ATOM     15  C   UNL     1      11.527  15.564   9.539  1.00  0.00     0.047 A 
ATOM     16  C   UNL     1      11.392  16.878  10.006  1.00  0.00     0.115 A 
ATOM     17  C   UNL     1      12.913  16.380  11.826  1.00  0.00     0.016 A 
ATOM     18  C   UNL     1      12.089  17.282  11.149  1.00  0.00     0.047 A 
BRANCH  16  19
ATOM     19  O   UNL     1      10.573  17.788   9.341  1.00  0.00    -0.508 OA
ATOM     20  H   UNL     1       9.848  17.481   8.704  1.00  0.00     0.293 HD
ENDBRANCH  16  19
ENDBRANCH   3  13
BRANCH  10  21
ATOM     21  O   UNL     1      17.537  11.019  14.129  1.00  0.00    -0.507 OA
ATOM     22  H   UNL     1      18.177  11.614  14.634  1.00  0.00     0.293 HD
ENDBRANCH  10  21
BRANCH  11  23
ATOM     23  O   UNL     1      13.295   9.223  15.486  1.00  0.00    -0.508 OA
ATOM     24  H   UNL     1      12.966   9.370  16.433  1.00  0.00     0.293 HD
ENDBRANCH  11  23
ENDBRANCH   1   2
BRANCH   1  25
ATOM     25  C   UNL     1      16.490  15.237  10.085  1.00  0.00     0.339 C 
ATOM     26  C   UNL     1      15.597  15.944   9.051  1.00  0.00     0.214 C 
ATOM     27  O   UNL     1      17.826  15.726  10.079  1.00  0.00    -0.332 OA
ATOM     28  C   UNL     1      15.629  17.464   9.270  1.00  0.00     0.180 C 
ATOM     29  C   UNL     1      17.943  17.127  10.311  1.00  0.00     0.179 C 
ATOM     30  C   UNL     1      17.074  17.983   9.345  1.00  0.00     0.177 C 
BRANCH  26  31
ATOM     31  O   UNL     1      16.015  15.631   7.747  1.00  0.00    -0.384 OA
ATOM     32  H   UNL     1      15.718  16.377   7.162  1.00  0.00     0.211 HD
ENDBRANCH  26  31
BRANCH  28  33
ATOM     33  O   UNL     1      14.938  18.125   8.240  1.00  0.00    -0.387 OA
ATOM     34  H   UNL     1      14.384  18.827   8.672  1.00  0.00     0.211 HD
ENDBRANCH  28  33
BRANCH  29  35
ATOM     35  C   UNL     1      17.758  17.493  11.798  1.00  0.00     0.191 C 
BRANCH  35  36
ATOM     36  O   UNL     1      18.213  16.453  12.624  1.00  0.00    -0.394 OA
ATOM     37  H   UNL     1      18.385  16.847  13.519  1.00  0.00     0.210 HD
ENDBRANCH  35  36
ENDBRANCH  29  35
BRANCH  30  38
ATOM     38  O   UNL     1      17.650  18.055   8.061  1.00  0.00    -0.387 OA
ATOM     39  H   UNL     1      16.947  18.323   7.413  1.00  0.00     0.211 HD
ENDBRANCH  30  38
ENDBRANCH   1  25
TORSDOF 11
ENDMDL
MODEL 5
REMARK VINA RESULT:    -6.317      3.087      6.419
REMARK INTER + INTRA:         -10.682
REMARK INTER:                  -9.368
REMARK INTRA:                  -1.314
REMARK UNBOUND:                -1.595
REMARK SMILES O=c1c(O[C@@H]2O[C@H](CO)[C@@H](O)[C@@H](O)[C@H]2O)c(-c2ccc(O)cc2)oc2cc(O)cc(O)c12
REMARK SMILES IDX 4 1 3 2 16 3 24 4 2 5 25 6 1 7 32 8 26 9 30 10 27 11 29 12
REMARK SMILES IDX 17 13 18 14 19 15 20 16 23 17 22 18 21 19 31 21 28 23 5 25
REMARK SMILES IDX 14 26 6 27 12 28 7 29 10 30 15 31 13 33 8 35 9 36 11 38
REMARK H PARENT 21 20 31 22 28 24 15 32 13 34 9 37 11 39
REMARK Flexibility Score: inf
ROOT
ATOM      1  O   UNL     1      15.701  13.824  15.289  1.00  0.00    -0.454 OA
ENDROOT
BRANCH   1   2
ATOM      2  C   UNL     1      16.122  13.106  16.424  1.00  0.00     0.214 A 
ATOM      3  C   UNL     1      15.661  11.788  16.597  1.00  0.00     0.180 A 
ATOM      4  O   UNL     1      16.061  11.075  17.641  1.00  0.00    -0.452 OA
ATOM      5  C   UNL     1      16.993  13.647  17.393  1.00  0.00     0.239 A 
ATOM      6  C   UNL     1      16.898  11.533  18.564  1.00  0.00     0.146 A 
ATOM      7  O   UNL     1      17.322  14.858  17.320  1.00  0.00    -0.285 OA
ATOM      8  C   UNL     1      17.442  12.838  18.466  1.00  0.00     0.111 A 
ATOM      9  C   UNL     1      17.224  10.703  19.640  1.00  0.00     0.094 A 
ATOM     10  C   UNL     1      18.372  13.262  19.463  1.00  0.00     0.134 A 
ATOM     11  C   UNL     1      18.083  11.150  20.641  1.00  0.00     0.123 A 
ATOM     12  C   UNL     1      18.648  12.424  20.552  1.00  0.00     0.093 A 
BRANCH   3  13
ATOM     13  C   UNL     1      14.758  11.139  15.620  1.00  0.00     0.021 A 
ATOM     14  C   UNL     1      13.360  11.239  15.734  1.00  0.00     0.016 A 
ATOM     15  C   UNL     1      12.528  10.615  14.801  1.00  0.00     0.047 A 
ATOM     16  C   UNL     1      13.081   9.868  13.752  1.00  0.00     0.115 A 
ATOM     17  C   UNL     1      15.304  10.372  14.578  1.00  0.00     0.016 A 
ATOM     18  C   UNL     1      14.470   9.747  13.647  1.00  0.00     0.047 A 
BRANCH  16  19
ATOM     19  O   UNL     1      12.261   9.241  12.817  1.00  0.00    -0.508 OA
ATOM     20  H   UNL     1      11.808   8.358  13.017  1.00  0.00     0.293 HD
ENDBRANCH  16  19
ENDBRANCH   3  13
BRANCH  10  21
ATOM     21  O   UNL     1      19.070  14.472  19.414  1.00  0.00    -0.507 OA
ATOM     22  H   UNL     1      19.029  15.126  18.647  1.00  0.00     0.293 HD
ENDBRANCH  10  21
BRANCH  11  23
ATOM     23  O   UNL     1      18.379  10.315  21.717  1.00  0.00    -0.508 OA
ATOM     24  H   UNL     1      18.969   9.498  21.608  1.00  0.00     0.293 HD
ENDBRANCH  11  23
ENDBRANCH   1   2
BRANCH   1  25
ATOM     25  C   UNL     1      16.418  13.940  14.056  1.00  0.00     0.339 C 
ATOM     26  C   UNL     1      15.481  13.616  12.879  1.00  0.00     0.214 C 
ATOM     27  O   UNL     1      17.048  15.208  13.920  1.00  0.00    -0.332 OA
ATOM     28  C   UNL     1      14.442  14.734  12.702  1.00  0.00     0.180 C 
ATOM     29  C   UNL     1      16.148  16.304  13.786  1.00  0.00     0.179 C 
ATOM     30  C   UNL     1      15.117  16.113  12.637  1.00  0.00     0.177 C 
BRANCH  26  31
ATOM     31  O   UNL     1      16.221  13.447  11.697  1.00  0.00    -0.384 OA
ATOM     32  H   UNL     1      16.486  14.355  11.390  1.00  0.00     0.211 HD
ENDBRANCH  26  31
BRANCH  28  33
ATOM     33  O   UNL     1      13.682  14.519  11.540  1.00  0.00    -0.387 OA
ATOM     34  H   UNL     1      14.264  14.026  10.905  1.00  0.00     0.211 HD
ENDBRANCH  28  33
BRANCH  29  35
ATOM     35  C   UNL     1      15.507  16.706  15.131  1.00  0.00     0.191 C 
BRANCH  35  36
ATOM     36  O   UNL     1      14.699  17.842  14.975  1.00  0.00    -0.394 OA
ATOM     37  H   UNL     1      14.898  18.447  15.736  1.00  0.00     0.210 HD
ENDBRANCH  35  36
ENDBRANCH  29  35
BRANCH  30  38
ATOM     38  O   UNL     1      15.708  16.325  11.374  1.00  0.00    -0.387 OA
ATOM     39  H   UNL     1      16.571  16.798  11.505  1.00  0.00     0.211 HD
ENDBRANCH  30  38
ENDBRANCH   1  25
TORSDOF 11
ENDMDL
MODEL 6
REMARK VINA RESULT:    -6.317      3.190      6.120
REMARK INTER + INTRA:         -10.681
REMARK INTER:                  -9.348
REMARK INTRA:                  -1.333
REMARK UNBOUND:                -1.595
REMARK SMILES O=c1c(O[C@@H]2O[C@H](CO)[C@@H](O)[C@@H](O)[C@H]2O)c(-c2ccc(O)cc2)oc2cc(O)cc(O)c12
REMARK SMILES IDX 4 1 3 2 16 3 24 4 2 5 25 6 1 7 32 8 26 9 30 10 27 11 29 12
REMARK SMILES IDX 17 13 18 14 19 15 20 16 23 17 22 18 21 19 31 21 28 23 5 25
REMARK SMILES IDX 14 26 6 27 12 28 7 29 10 30 15 31 13 33 8 35 9 36 11 38
REMARK H PARENT 21 20 31 22 28 24 15 32 13 34 9 37 11 39
REMARK Flexibility Score: inf
ROOT
ATOM      1  O   UNL     1      15.196  14.004   9.392  1.00  0.00    -0.454 OA
ENDROOT
BRANCH   1   2
ATOM      2  C   UNL     1      14.556  12.757   9.520  1.00  0.00     0.214 A 
ATOM      3  C   UNL     1      13.259  12.718  10.065  1.00  0.00     0.180 A 
ATOM      4  O   UNL     1      12.617  11.562  10.173  1.00  0.00    -0.452 OA
ATOM      5  C   UNL     1      15.153  11.544   9.116  1.00  0.00     0.239 A 
ATOM      6  C   UNL     1      13.129  10.401   9.785  1.00  0.00     0.146 A 
ATOM      7  O   UNL     1      16.351  11.543   8.737  1.00  0.00    -0.285 OA
ATOM      8  C   UNL     1      14.417  10.337   9.196  1.00  0.00     0.111 A 
ATOM      9  C   UNL     1      12.374   9.242   9.978  1.00  0.00     0.094 A 
ATOM     10  C   UNL     1      14.899   9.066   8.756  1.00  0.00     0.134 A 
ATOM     11  C   UNL     1      12.880   7.999   9.603  1.00  0.00     0.123 A 
ATOM     12  C   UNL     1      14.138   7.916   9.001  1.00  0.00     0.093 A 
BRANCH   3  13
ATOM     13  C   UNL     1      12.554  13.946  10.498  1.00  0.00     0.021 A 
ATOM     14  C   UNL     1      12.596  14.384  11.834  1.00  0.00     0.016 A 
ATOM     15  C   UNL     1      11.919  15.544  12.219  1.00  0.00     0.047 A 
ATOM     16  C   UNL     1      11.177  16.271  11.279  1.00  0.00     0.115 A 
ATOM     17  C   UNL     1      11.791  14.670   9.566  1.00  0.00     0.016 A 
ATOM     18  C   UNL     1      11.114  15.828   9.954  1.00  0.00     0.047 A 
BRANCH  16  19
ATOM     19  O   UNL     1      10.498  17.429  11.652  1.00  0.00    -0.508 OA
ATOM     20  H   UNL     1      10.986  18.231  12.030  1.00  0.00     0.293 HD
ENDBRANCH  16  19
ENDBRANCH   3  13
BRANCH  10  21
ATOM     21  O   UNL     1      16.094   8.886   8.053  1.00  0.00    -0.507 OA
ATOM     22  H   UNL     1      16.401   8.008   7.663  1.00  0.00     0.293 HD
ENDBRANCH  10  21
BRANCH  11  23
ATOM     23  O   UNL     1      12.120   6.852   9.824  1.00  0.00    -0.508 OA
ATOM     24  H   UNL     1      11.774   6.289   9.055  1.00  0.00     0.293 HD
ENDBRANCH  11  23
ENDBRANCH   1   2
BRANCH   1  25
ATOM     25  C   UNL     1      16.003  14.640  10.387  1.00  0.00     0.339 C 
ATOM     26  C   UNL     1      17.472  14.659   9.929  1.00  0.00     0.214 C 
ATOM     27  O   UNL     1      15.519  15.935  10.723  1.00  0.00    -0.332 OA
ATOM     28  C   UNL     1      17.653  15.637   8.758  1.00  0.00     0.180 C 
ATOM     29  C   UNL     1      15.619  16.894   9.674  1.00  0.00     0.179 C 
ATOM     30  C   UNL     1      17.056  17.014   9.090  1.00  0.00     0.177 C 
BRANCH  26  31
ATOM     31  O   UNL     1      18.312  15.016  10.997  1.00  0.00    -0.384 OA
ATOM     32  H   UNL     1      19.204  14.621  10.806  1.00  0.00     0.211 HD
ENDBRANCH  26  31
BRANCH  28  33
ATOM     33  O   UNL     1      19.014  15.772   8.436  1.00  0.00    -0.387 OA
ATOM     34  H   UNL     1      19.263  16.712   8.637  1.00  0.00     0.211 HD
ENDBRANCH  28  33
BRANCH  29  35
ATOM     35  C   UNL     1      14.529  16.705   8.599  1.00  0.00     0.191 C 
BRANCH  35  36
ATOM     36  O   UNL     1      13.693  17.831   8.537  1.00  0.00    -0.394 OA
ATOM     37  H   UNL     1      14.084  18.446   7.864  1.00  0.00     0.210 HD
ENDBRANCH  35  36
ENDBRANCH  29  35
BRANCH  30  38
ATOM     38  O   UNL     1      17.905  17.735   9.955  1.00  0.00    -0.387 OA
ATOM     39  H   UNL     1      18.695  18.043   9.439  1.00  0.00     0.211 HD
ENDBRANCH  30  38
ENDBRANCH   1  25
TORSDOF 11
ENDMDL
MODEL 7
REMARK VINA RESULT:    -6.259      1.830      4.699
REMARK INTER + INTRA:         -10.599
REMARK INTER:                  -9.233
REMARK INTRA:                  -1.366
REMARK UNBOUND:                -1.595
REMARK SMILES O=c1c(O[C@@H]2O[C@H](CO)[C@@H](O)[C@@H](O)[C@H]2O)c(-c2ccc(O)cc2)oc2cc(O)cc(O)c12
REMARK SMILES IDX 4 1 3 2 16 3 24 4 2 5 25 6 1 7 32 8 26 9 30 10 27 11 29 12
REMARK SMILES IDX 17 13 18 14 19 15 20 16 23 17 22 18 21 19 31 21 28 23 5 25
REMARK SMILES IDX 14 26 6 27 12 28 7 29 10 30 15 31 13 33 8 35 9 36 11 38
REMARK H PARENT 21 20 31 22 28 24 15 32 13 34 9 37 11 39
REMARK Flexibility Score: inf
ROOT
ATOM      1  O   UNL     1      15.768  14.863  10.584  1.00  0.00    -0.454 OA
ENDROOT
BRANCH   1   2
ATOM      2  C   UNL     1      15.221  13.978  11.531  1.00  0.00     0.214 A 
ATOM      3  C   UNL     1      13.853  14.086  11.844  1.00  0.00     0.180 A 
ATOM      4  O   UNL     1      13.301  13.248  12.711  1.00  0.00    -0.452 OA
ATOM      5  C   UNL     1      15.981  12.979  12.175  1.00  0.00     0.239 A 
ATOM      6  C   UNL     1      13.971  12.280  13.323  1.00  0.00     0.146 A 
ATOM      7  O   UNL     1      17.226  12.942  11.999  1.00  0.00    -0.285 OA
ATOM      8  C   UNL     1      15.347  12.068  13.055  1.00  0.00     0.111 A 
ATOM      9  C   UNL     1      13.293  11.477  14.244  1.00  0.00     0.094 A 
ATOM     10  C   UNL     1      16.007  10.983  13.708  1.00  0.00     0.134 A 
ATOM     11  C   UNL     1      13.961  10.461  14.922  1.00  0.00     0.123 A 
ATOM     12  C   UNL     1      15.312  10.222  14.657  1.00  0.00     0.093 A 
BRANCH   3  13
ATOM     13  C   UNL     1      12.980  15.094  11.202  1.00  0.00     0.021 A 
ATOM     14  C   UNL     1      12.825  16.382  11.745  1.00  0.00     0.016 A 
ATOM     15  C   UNL     1      11.992  17.316  11.123  1.00  0.00     0.047 A 
ATOM     16  C   UNL     1      11.290  16.970   9.961  1.00  0.00     0.115 A 
ATOM     17  C   UNL     1      12.257  14.748  10.049  1.00  0.00     0.016 A 
ATOM     18  C   UNL     1      11.424  15.683   9.430  1.00  0.00     0.047 A 
BRANCH  16  19
ATOM     19  O   UNL     1      10.456  17.892   9.333  1.00  0.00    -0.508 OA
ATOM     20  H   UNL     1      10.806  18.781   8.998  1.00  0.00     0.293 HD
ENDBRANCH  16  19
ENDBRANCH   3  13
BRANCH  10  21
ATOM     21  O   UNL     1      17.322  10.594  13.438  1.00  0.00    -0.507 OA
ATOM     22  H   UNL     1      17.689   9.668  13.596  1.00  0.00     0.293 HD
ENDBRANCH  10  21
BRANCH  11  23
ATOM     23  O   UNL     1      13.272   9.686  15.853  1.00  0.00    -0.508 OA
ATOM     24  H   UNL     1      12.876   8.786  15.605  1.00  0.00     0.293 HD
ENDBRANCH  11  23
ENDBRANCH   1   2
BRANCH   1  25
ATOM     25  C   UNL     1      16.545  16.029  10.874  1.00  0.00     0.339 C 
ATOM     26  C   UNL     1      18.008  15.794  10.459  1.00  0.00     0.214 C 
ATOM     27  O   UNL     1      15.992  17.201  10.286  1.00  0.00    -0.332 OA
ATOM     28  C   UNL     1      18.129  15.753   8.929  1.00  0.00     0.180 C 
ATOM     29  C   UNL     1      16.034  17.224   8.862  1.00  0.00     0.179 C 
ATOM     30  C   UNL     1      17.460  16.980   8.288  1.00  0.00     0.177 C 
BRANCH  26  31
ATOM     31  O   UNL     1      18.833  16.800  10.987  1.00  0.00    -0.384 OA
ATOM     32  H   UNL     1      18.321  17.650  10.936  1.00  0.00     0.211 HD
ENDBRANCH  26  31
BRANCH  28  33
ATOM     33  O   UNL     1      19.478  15.690   8.543  1.00  0.00    -0.387 OA
ATOM     34  H   UNL     1      19.829  16.619   8.577  1.00  0.00     0.211 HD
ENDBRANCH  28  33
BRANCH  29  35
ATOM     35  C   UNL     1      14.950  16.329   8.227  1.00  0.00     0.191 C 
BRANCH  35  36
ATOM     36  O   UNL     1      14.026  17.104   7.509  1.00  0.00    -0.394 OA
ATOM     37  H   UNL     1      13.581  17.704   8.162  1.00  0.00     0.210 HD
ENDBRANCH  35  36
ENDBRANCH  29  35
BRANCH  30  38
ATOM     38  O   UNL     1      18.272  18.124   8.422  1.00  0.00    -0.387 OA
ATOM     39  H   UNL     1      18.984  18.090   7.732  1.00  0.00     0.211 HD
ENDBRANCH  30  38
ENDBRANCH   1  25
TORSDOF 11
ENDMDL
MODEL 8
REMARK VINA RESULT:    -6.254      2.367      8.193
REMARK INTER + INTRA:         -10.592
REMARK INTER:                  -9.304
REMARK INTRA:                  -1.288
REMARK UNBOUND:                -1.595
REMARK SMILES O=c1c(O[C@@H]2O[C@H](CO)[C@@H](O)[C@@H](O)[C@H]2O)c(-c2ccc(O)cc2)oc2cc(O)cc(O)c12
REMARK SMILES IDX 4 1 3 2 16 3 24 4 2 5 25 6 1 7 32 8 26 9 30 10 27 11 29 12
REMARK SMILES IDX 17 13 18 14 19 15 20 16 23 17 22 18 21 19 31 21 28 23 5 25
REMARK SMILES IDX 14 26 6 27 12 28 7 29 10 30 15 31 13 33 8 35 9 36 11 38
REMARK H PARENT 21 20 31 22 28 24 15 32 13 34 9 37 11 39
REMARK Flexibility Score: inf
ROOT
ATOM      1  O   UNL     1      15.284  13.045  14.659  1.00  0.00    -0.454 OA
ENDROOT
BRANCH   1   2
ATOM      2  C   UNL     1      14.570  13.391  13.496  1.00  0.00     0.214 A 
ATOM      3  C   UNL     1      13.668  12.457  12.956  1.00  0.00     0.180 A 
ATOM      4  O   UNL     1      12.959  12.764  11.878  1.00  0.00    -0.452 OA
ATOM      5  C   UNL     1      14.712  14.640  12.854  1.00  0.00     0.239 A 
ATOM      6  C   UNL     1      13.041  13.932  11.254  1.00  0.00     0.146 A 
ATOM      7  O   UNL     1      15.595  15.441  13.250  1.00  0.00    -0.285 OA
ATOM      8  C   UNL     1      13.899  14.953  11.737  1.00  0.00     0.111 A 
ATOM      9  C   UNL     1      12.270  14.132  10.107  1.00  0.00     0.094 A 
ATOM     10  C   UNL     1      13.914  16.206  11.053  1.00  0.00     0.134 A 
ATOM     11  C   UNL     1      12.339  15.337   9.410  1.00  0.00     0.123 A 
ATOM     12  C   UNL     1      13.162  16.363   9.881  1.00  0.00     0.093 A 
BRANCH   3  13
ATOM     13  C   UNL     1      13.447  11.132  13.577  1.00  0.00     0.021 A 
ATOM     14  C   UNL     1      12.462  10.937  14.561  1.00  0.00     0.016 A 
ATOM     15  C   UNL     1      12.274   9.678  15.136  1.00  0.00     0.047 A 
ATOM     16  C   UNL     1      13.081   8.600  14.747  1.00  0.00     0.115 A 
ATOM     17  C   UNL     1      14.265  10.050  13.207  1.00  0.00     0.016 A 
ATOM     18  C   UNL     1      14.076   8.792  13.784  1.00  0.00     0.047 A 
BRANCH  16  19
ATOM     19  O   UNL     1      12.904   7.340  15.314  1.00  0.00    -0.508 OA
ATOM     20  H   UNL     1      13.543   6.978  16.011  1.00  0.00     0.293 HD
ENDBRANCH  16  19
ENDBRANCH   3  13
BRANCH  10  21
ATOM     21  O   UNL     1      14.619  17.329  11.496  1.00  0.00    -0.507 OA
ATOM     22  H   UNL     1      14.616  18.226  11.035  1.00  0.00     0.293 HD
ENDBRANCH  10  21
BRANCH  11  23
ATOM     23  O   UNL     1      11.579  15.508   8.255  1.00  0.00    -0.508 OA
ATOM     24  H   UNL     1      10.825  16.185   8.212  1.00  0.00     0.293 HD
ENDBRANCH  11  23
ENDBRANCH   1   2
BRANCH   1  25
ATOM     25  C   UNL     1      16.627  12.554  14.705  1.00  0.00     0.339 C 
ATOM     26  C   UNL     1      17.552  13.627  15.305  1.00  0.00     0.214 C 
ATOM     27  O   UNL     1      16.718  11.309  15.389  1.00  0.00    -0.332 OA
ATOM     28  C   UNL     1      17.268  13.798  16.804  1.00  0.00     0.180 C 
ATOM     29  C   UNL     1      16.433  11.378  16.783  1.00  0.00     0.179 C 
ATOM     30  C   UNL     1      17.286  12.443  17.530  1.00  0.00     0.177 C 
BRANCH  26  31
ATOM     31  O   UNL     1      18.898  13.281  15.100  1.00  0.00    -0.384 OA
ATOM     32  H   UNL     1      19.445  14.044  15.427  1.00  0.00     0.211 HD
ENDBRANCH  26  31
BRANCH  28  33
ATOM     33  O   UNL     1      18.208  14.664  17.388  1.00  0.00    -0.387 OA
ATOM     34  H   UNL     1      18.822  14.099  17.926  1.00  0.00     0.211 HD
ENDBRANCH  28  33
BRANCH  29  35
ATOM     35  C   UNL     1      14.921  11.486  17.068  1.00  0.00     0.191 C 
BRANCH  35  36
ATOM     36  O   UNL     1      14.690  11.722  18.432  1.00  0.00    -0.394 OA
ATOM     37  H   UNL     1      14.824  10.859  18.903  1.00  0.00     0.210 HD
ENDBRANCH  35  36
ENDBRANCH  29  35
BRANCH  30  38
ATOM     38  O   UNL     1      18.608  11.996  17.729  1.00  0.00    -0.387 OA
ATOM     39  H   UNL     1      18.595  11.011  17.845  1.00  0.00     0.211 HD
ENDBRANCH  30  38
ENDBRANCH   1  25
TORSDOF 11
ENDMDL
MODEL 9
REMARK VINA RESULT:    -6.201      1.901      2.838
REMARK INTER + INTRA:         -10.515
REMARK INTER:                  -9.281
REMARK INTRA:                  -1.234
REMARK UNBOUND:                -1.595
REMARK SMILES O=c1c(O[C@@H]2O[C@H](CO)[C@@H](O)[C@@H](O)[C@H]2O)c(-c2ccc(O)cc2)oc2cc(O)cc(O)c12
REMARK SMILES IDX 4 1 3 2 16 3 24 4 2 5 25 6 1 7 32 8 26 9 30 10 27 11 29 12
REMARK SMILES IDX 17 13 18 14 19 15 20 16 23 17 22 18 21 19 31 21 28 23 5 25
REMARK SMILES IDX 14 26 6 27 12 28 7 29 10 30 15 31 13 33 8 35 9 36 11 38
REMARK H PARENT 21 20 31 22 28 24 15 32 13 34 9 37 11 39
REMARK Flexibility Score: inf
ROOT
ATOM      1  O   UNL     1      15.301  14.037  11.855  1.00  0.00    -0.454 OA
ENDROOT
BRANCH   1   2
ATOM      2  C   UNL     1      15.723  13.702  13.155  1.00  0.00     0.214 A 
ATOM      3  C   UNL     1      16.938  14.232  13.627  1.00  0.00     0.180 A 
ATOM      4  O   UNL     1      17.349  13.959  14.858  1.00  0.00    -0.452 OA
ATOM      5  C   UNL     1      14.975  12.866  14.012  1.00  0.00     0.239 A 
ATOM      6  C   UNL     1      16.668  13.198  15.706  1.00  0.00     0.146 A 
ATOM      7  O   UNL     1      13.949  12.290  13.570  1.00  0.00    -0.285 OA
ATOM      8  C   UNL     1      15.418  12.641  15.338  1.00  0.00     0.111 A 
ATOM      9  C   UNL     1      17.215  12.951  16.968  1.00  0.00     0.094 A 
ATOM     10  C   UNL     1      14.708  11.867  16.306  1.00  0.00     0.134 A 
ATOM     11  C   UNL     1      16.544  12.143  17.883  1.00  0.00     0.123 A 
ATOM     12  C   UNL     1      15.301  11.602  17.548  1.00  0.00     0.093 A 
BRANCH   3  13
ATOM     13  C   UNL     1      17.775  15.129  12.800  1.00  0.00     0.021 A 
ATOM     14  C   UNL     1      18.827  14.631  12.010  1.00  0.00     0.016 A 
ATOM     15  C   UNL     1      19.605  15.500  11.240  1.00  0.00     0.047 A 
ATOM     16  C   UNL     1      19.355  16.878  11.263  1.00  0.00     0.115 A 
ATOM     17  C   UNL     1      17.543  16.515  12.832  1.00  0.00     0.016 A 
ATOM     18  C   UNL     1      18.324  17.381  12.063  1.00  0.00     0.047 A 
BRANCH  16  19
ATOM     19  O   UNL     1      20.125  17.753  10.501  1.00  0.00    -0.508 OA
ATOM     20  H   UNL     1      19.700  18.427   9.876  1.00  0.00     0.293 HD
ENDBRANCH  16  19
ENDBRANCH   3  13
BRANCH  10  21
ATOM     21  O   UNL     1      13.417  11.368  16.111  1.00  0.00    -0.507 OA
ATOM     22  H   UNL     1      12.578  11.928  16.130  1.00  0.00     0.293 HD
ENDBRANCH  10  21
BRANCH  11  23
ATOM     23  O   UNL     1      17.117  11.891  19.128  1.00  0.00    -0.508 OA
ATOM     24  H   UNL     1      16.639  12.129  19.990  1.00  0.00     0.293 HD
ENDBRANCH  11  23
ENDBRANCH   1   2
BRANCH   1  25
ATOM     25  C   UNL     1      13.972  14.398  11.469  1.00  0.00     0.339 C 
ATOM     26  C   UNL     1      13.463  15.540  12.366  1.00  0.00     0.214 C 
ATOM     27  O   UNL     1      13.881  14.709  10.084  1.00  0.00    -0.332 OA
ATOM     28  C   UNL     1      14.208  16.843  12.044  1.00  0.00     0.180 C 
ATOM     29  C   UNL     1      14.579  15.890   9.697  1.00  0.00     0.179 C 
ATOM     30  C   UNL     1      14.181  17.138  10.535  1.00  0.00     0.177 C 
BRANCH  26  31
ATOM     31  O   UNL     1      12.079  15.714  12.198  1.00  0.00    -0.384 OA
ATOM     32  H   UNL     1      11.904  16.691  12.246  1.00  0.00     0.211 HD
ENDBRANCH  26  31
BRANCH  28  33
ATOM     33  O   UNL     1      13.646  17.920  12.751  1.00  0.00    -0.387 OA
ATOM     34  H   UNL     1      12.937  18.303  12.171  1.00  0.00     0.211 HD
ENDBRANCH  28  33
BRANCH  29  35
ATOM     35  C   UNL     1      16.103  15.667   9.604  1.00  0.00     0.191 C 
BRANCH  35  36
ATOM     36  O   UNL     1      16.387  14.396   9.080  1.00  0.00    -0.394 OA
ATOM     37  H   UNL     1      15.869  13.740   9.614  1.00  0.00     0.210 HD
ENDBRANCH  35  36
ENDBRANCH  29  35
BRANCH  30  38
ATOM     38  O   UNL     1      12.924  17.642  10.144  1.00  0.00    -0.387 OA
ATOM     39  H   UNL     1      12.904  18.618  10.324  1.00  0.00     0.211 HD
ENDBRANCH  30  38
ENDBRANCH   1  25
TORSDOF 11
ENDMDL
