MODEL 1
REMARK VINA RESULT:    -4.509      0.000      0.000
REMARK INTER + INTRA:          -5.512
REMARK INTER:                  -5.300
REMARK INTRA:                  -0.212
REMARK UNBOUND:                -0.212
REMARK SMILES O=C([O-])C=Cc1ccc(O)c(O)c1
REMARK SMILES IDX 6 1 13 2 7 3 11 4 8 5 9 6 5 7 4 8 2 9 1 10 3 11 12 12 10 14
REMARK H PARENT 12 13 10 15
REMARK Flexibility Score: inf
ROOT
ATOM      1  C   UNL     1     137.840 146.403 159.630  1.00  0.00    -0.022 A 
ATOM      2  C   UNL     1     138.174 147.466 160.484  1.00  0.00     0.058 A 
ATOM      3  C   UNL     1     138.411 146.344 158.354  1.00  0.00     0.012 A 
ATOM      4  C   UNL     1     139.108 148.433 160.094  1.00  0.00     0.157 A 
ATOM      5  C   UNL     1     139.345 147.303 157.956  1.00  0.00     0.051 A 
ATOM      6  C   UNL     1     139.707 148.347 158.814  1.00  0.00     0.157 A 
ENDROOT
BRANCH   1   7
ATOM      7  C   UNL     1     136.816 145.406 160.010  1.00  0.00     0.010 C 
ATOM      8  C   UNL     1     135.568 145.349 159.518  1.00  0.00     0.025 C 
BRANCH   8   9
ATOM      9  C   UNL     1     134.934 146.361 158.652  1.00  0.00     0.064 C 
ATOM     10  O   UNL     1     134.275 147.321 159.133  1.00  0.00    -0.545 OA
ATOM     11  O   UNL     1     135.008 146.215 157.273  1.00  0.00    -0.545 OA
ENDBRANCH   8   9
ENDBRANCH   1   7
BRANCH   4  12
ATOM     12  O   UNL     1     139.404 149.457 160.997  1.00  0.00    -0.504 OA
ATOM     13  H   UNL     1     138.814 150.261 161.153  1.00  0.00     0.293 HD
ENDBRANCH   4  12
BRANCH   6  14
ATOM     14  O   UNL     1     140.653 149.269 158.360  1.00  0.00    -0.504 OA
ATOM     15  H   UNL     1     140.484 150.262 158.287  1.00  0.00     0.293 HD
ENDBRANCH   6  14
TORSDOF 4
ENDMDL
MODEL 2
REMARK VINA RESULT:    -4.408      0.837      1.939
REMARK INTER + INTRA:          -5.392
REMARK INTER:                  -5.108
REMARK INTRA:                  -0.284
REMARK UNBOUND:                -0.212
REMARK SMILES O=C([O-])C=Cc1ccc(O)c(O)c1
REMARK SMILES IDX 6 1 13 2 7 3 11 4 8 5 9 6 5 7 4 8 2 9 1 10 3 11 12 12 10 14
REMARK H PARENT 12 13 10 15
REMARK Flexibility Score: inf
ROOT
ATOM      1  C   UNL     1     137.733 146.455 159.511  1.00  0.00    -0.022 A 
ATOM      2  C   UNL     1     138.495 146.214 158.357  1.00  0.00     0.058 A 
ATOM      3  C   UNL     1     137.987 147.601 160.273  1.00  0.00     0.012 A 
ATOM      4  C   UNL     1     139.466 147.131 157.934  1.00  0.00     0.157 A 
ATOM      5  C   UNL     1     138.951 148.523 159.859  1.00  0.00     0.051 A 
ATOM      6  C   UNL     1     139.693 148.305 158.692  1.00  0.00     0.157 A 
ENDROOT
BRANCH   1   7
ATOM      7  C   UNL     1     136.744 145.470 159.997  1.00  0.00     0.010 C 
ATOM      8  C   UNL     1     135.473 145.373 159.576  1.00  0.00     0.025 C 
BRANCH   8   9
ATOM      9  C   UNL     1     134.780 146.331 158.694  1.00  0.00     0.064 C 
ATOM     10  O   UNL     1     134.052 147.247 159.159  1.00  0.00    -0.545 OA
ATOM     11  O   UNL     1     134.879 146.178 157.317  1.00  0.00    -0.545 OA
ENDBRANCH   8   9
ENDBRANCH   1   7
BRANCH   4  12
ATOM     12  O   UNL     1     140.179 146.836 156.770  1.00  0.00    -0.504 OA
ATOM     13  H   UNL     1     139.766 146.434 155.941  1.00  0.00     0.293 HD
ENDBRANCH   4  12
BRANCH   6  14
ATOM     14  O   UNL     1     140.636 149.268 158.328  1.00  0.00    -0.504 OA
ATOM     15  H   UNL     1     140.446 150.036 157.700  1.00  0.00     0.293 HD
ENDBRANCH   6  14
TORSDOF 4
ENDMDL
MODEL 3
REMARK VINA RESULT:    -4.245      4.104      6.085
REMARK INTER + INTRA:          -5.202
REMARK INTER:                  -4.926
REMARK INTRA:                  -0.276
REMARK UNBOUND:                -0.212
REMARK SMILES O=C([O-])C=Cc1ccc(O)c(O)c1
REMARK SMILES IDX 6 1 13 2 7 3 11 4 8 5 9 6 5 7 4 8 2 9 1 10 3 11 12 12 10 14
REMARK H PARENT 12 13 10 15
REMARK Flexibility Score: inf
ROOT
ATOM      1  C   UNL     1     140.639 146.280 156.092  1.00  0.00    -0.022 A 
ATOM      2  C   UNL     1     140.550 147.611 156.530  1.00  0.00     0.058 A 
ATOM      3  C   UNL     1     140.896 145.268 157.024  1.00  0.00     0.012 A 
ATOM      4  C   UNL     1     140.663 147.928 157.890  1.00  0.00     0.157 A 
ATOM      5  C   UNL     1     141.007 145.573 158.382  1.00  0.00     0.051 A 
ATOM      6  C   UNL     1     140.888 146.894 158.830  1.00  0.00     0.157 A 
ENDROOT
BRANCH   1   7
ATOM      7  C   UNL     1     140.576 145.941 154.655  1.00  0.00     0.010 C 
ATOM      8  C   UNL     1     141.636 145.798 153.843  1.00  0.00     0.025 C 
BRANCH   8   9
ATOM      9  C   UNL     1     143.034 146.123 154.184  1.00  0.00     0.064 C 
ATOM     10  O   UNL     1     143.553 147.222 153.856  1.00  0.00    -0.545 OA
ATOM     11  O   UNL     1     143.816 145.167 154.820  1.00  0.00    -0.545 OA
ENDBRANCH   8   9
ENDBRANCH   1   7
BRANCH   4  12
ATOM     12  O   UNL     1     140.552 149.270 158.259  1.00  0.00    -0.504 OA
ATOM     13  H   UNL     1     140.747 150.044 157.640  1.00  0.00     0.293 HD
ENDBRANCH   4  12
BRANCH   6  14
ATOM     14  O   UNL     1     141.001 147.131 160.201  1.00  0.00    -0.504 OA
ATOM     15  H   UNL     1     140.373 146.751 160.894  1.00  0.00     0.293 HD
ENDBRANCH   6  14
TORSDOF 4
ENDMDL
MODEL 4
REMARK VINA RESULT:    -4.210      3.879      5.933
REMARK INTER + INTRA:          -5.160
REMARK INTER:                  -4.898
REMARK INTRA:                  -0.262
REMARK UNBOUND:                -0.212
REMARK SMILES O=C([O-])C=Cc1ccc(O)c(O)c1
REMARK SMILES IDX 6 1 13 2 7 3 11 4 8 5 9 6 5 7 4 8 2 9 1 10 3 11 12 12 10 14
REMARK H PARENT 12 13 10 15
REMARK Flexibility Score: inf
ROOT
ATOM      1  C   UNL     1     140.965 145.636 156.692  1.00  0.00    -0.022 A 
ATOM      2  C   UNL     1     142.264 145.102 156.660  1.00  0.00     0.058 A 
ATOM      3  C   UNL     1     140.481 146.326 155.576  1.00  0.00     0.012 A 
ATOM      4  C   UNL     1     143.054 145.208 155.509  1.00  0.00     0.157 A 
ATOM      5  C   UNL     1     141.260 146.435 154.422  1.00  0.00     0.051 A 
ATOM      6  C   UNL     1     142.543 145.878 154.371  1.00  0.00     0.157 A 
ENDROOT
BRANCH   1   7
ATOM      7  C   UNL     1     140.143 145.577 157.919  1.00  0.00     0.010 C 
ATOM      8  C   UNL     1     140.045 146.553 158.836  1.00  0.00     0.025 C 
BRANCH   8   9
ATOM      9  C   UNL     1     140.866 147.778 158.884  1.00  0.00     0.064 C 
ATOM     10  O   UNL     1     141.836 147.890 159.679  1.00  0.00    -0.545 OA
ATOM     11  O   UNL     1     140.520 148.857 158.082  1.00  0.00    -0.545 OA
ENDBRANCH   8   9
ENDBRANCH   1   7
BRANCH   4  12
ATOM     12  O   UNL     1     144.332 144.644 155.540  1.00  0.00    -0.504 OA
ATOM     13  H   UNL     1     144.565 143.750 155.133  1.00  0.00     0.293 HD
ENDBRANCH   4  12
BRANCH   6  14
ATOM     14  O   UNL     1     143.269 146.015 153.186  1.00  0.00    -0.504 OA
ATOM     15  H   UNL     1     143.202 145.376 152.406  1.00  0.00     0.293 HD
ENDBRANCH   6  14
TORSDOF 4
ENDMDL
MODEL 5
REMARK VINA RESULT:    -4.037      2.996      5.032
REMARK INTER + INTRA:          -4.957
REMARK INTER:                  -4.742
REMARK INTRA:                  -0.215
REMARK UNBOUND:                -0.212
REMARK SMILES O=C([O-])C=Cc1ccc(O)c(O)c1
REMARK SMILES IDX 6 1 13 2 7 3 11 4 8 5 9 6 5 7 4 8 2 9 1 10 3 11 12 12 10 14
REMARK H PARENT 12 13 10 15
REMARK Flexibility Score: inf
ROOT
ATOM      1  C   UNL     1     140.674 145.826 157.655  1.00  0.00    -0.022 A 
ATOM      2  C   UNL     1     140.607 147.163 158.078  1.00  0.00     0.058 A 
ATOM      3  C   UNL     1     139.654 144.940 158.019  1.00  0.00     0.012 A 
ATOM      4  C   UNL     1     139.509 147.629 158.811  1.00  0.00     0.157 A 
ATOM      5  C   UNL     1     138.554 145.395 158.749  1.00  0.00     0.051 A 
ATOM      6  C   UNL     1     138.464 146.734 159.147  1.00  0.00     0.157 A 
ENDROOT
BRANCH   1   7
ATOM      7  C   UNL     1     141.853 145.310 156.927  1.00  0.00     0.010 C 
ATOM      8  C   UNL     1     142.155 145.581 155.647  1.00  0.00     0.025 C 
BRANCH   8   9
ATOM      9  C   UNL     1     141.287 146.288 154.686  1.00  0.00     0.064 C 
ATOM     10  O   UNL     1     140.601 145.664 153.834  1.00  0.00    -0.545 OA
ATOM     11  O   UNL     1     141.278 147.677 154.676  1.00  0.00    -0.545 OA
ENDBRANCH   8   9
ENDBRANCH   1   7
BRANCH   4  12
ATOM     12  O   UNL     1     139.500 148.973 159.190  1.00  0.00    -0.504 OA
ATOM     13  H   UNL     1     140.074 149.685 158.762  1.00  0.00     0.293 HD
ENDBRANCH   4  12
BRANCH   6  14
ATOM     14  O   UNL     1     137.335 147.128 159.867  1.00  0.00    -0.504 OA
ATOM     15  H   UNL     1     137.367 147.524 160.796  1.00  0.00     0.293 HD
ENDBRANCH   6  14
TORSDOF 4
ENDMDL
MODEL 6
REMARK VINA RESULT:    -3.987      2.956      4.370
REMARK INTER + INTRA:          -4.898
REMARK INTER:                  -4.655
REMARK INTRA:                  -0.243
REMARK UNBOUND:                -0.212
REMARK SMILES O=C([O-])C=Cc1ccc(O)c(O)c1
REMARK SMILES IDX 6 1 13 2 7 3 11 4 8 5 9 6 5 7 4 8 2 9 1 10 3 11 12 12 10 14
REMARK H PARENT 12 13 10 15
REMARK Flexibility Score: inf
ROOT
ATOM      1  C   UNL     1     133.927 145.286 158.422  1.00  0.00    -0.022 A 
ATOM      2  C   UNL     1     134.806 145.099 159.500  1.00  0.00     0.058 A 
ATOM      3  C   UNL     1     134.254 146.212 157.424  1.00  0.00     0.012 A 
ATOM      4  C   UNL     1     136.024 145.786 159.560  1.00  0.00     0.157 A 
ATOM      5  C   UNL     1     135.467 146.901 157.474  1.00  0.00     0.051 A 
ATOM      6  C   UNL     1     136.363 146.696 158.530  1.00  0.00     0.157 A 
ENDROOT
BRANCH   1   7
ATOM      7  C   UNL     1     132.615 144.606 158.375  1.00  0.00     0.010 C 
ATOM      8  C   UNL     1     132.411 143.338 157.984  1.00  0.00     0.025 C 
BRANCH   8   9
ATOM      9  C   UNL     1     133.416 142.453 157.366  1.00  0.00     0.064 C 
ATOM     10  O   UNL     1     133.388 142.182 156.136  1.00  0.00    -0.545 OA
ATOM     11  O   UNL     1     134.373 141.850 158.171  1.00  0.00    -0.545 OA
ENDBRANCH   8   9
ENDBRANCH   1   7
BRANCH   4  12
ATOM     12  O   UNL     1     136.857 145.544 160.655  1.00  0.00    -0.504 OA
ATOM     13  H   UNL     1     137.856 145.692 160.649  1.00  0.00     0.293 HD
ENDBRANCH   4  12
BRANCH   6  14
ATOM     14  O   UNL     1     137.563 147.410 158.517  1.00  0.00    -0.504 OA
ATOM     15  H   UNL     1     138.428 147.054 158.136  1.00  0.00     0.293 HD
ENDBRANCH   6  14
TORSDOF 4
ENDMDL
MODEL 7
REMARK VINA RESULT:    -3.925      1.847      5.295
REMARK INTER + INTRA:          -4.825
REMARK INTER:                  -4.551
REMARK INTRA:                  -0.274
REMARK UNBOUND:                -0.212
REMARK SMILES O=C([O-])C=Cc1ccc(O)c(O)c1
REMARK SMILES IDX 6 1 13 2 7 3 11 4 8 5 9 6 5 7 4 8 2 9 1 10 3 11 12 12 10 14
REMARK H PARENT 12 13 10 15
REMARK Flexibility Score: inf
ROOT
ATOM      1  C   UNL     1     136.311 146.446 158.574  1.00  0.00    -0.022 A 
ATOM      2  C   UNL     1     136.161 145.129 159.038  1.00  0.00     0.058 A 
ATOM      3  C   UNL     1     135.215 147.314 158.612  1.00  0.00     0.012 A 
ATOM      4  C   UNL     1     134.947 144.695 159.584  1.00  0.00     0.157 A 
ATOM      5  C   UNL     1     134.000 146.891 159.156  1.00  0.00     0.051 A 
ATOM      6  C   UNL     1     133.852 145.590 159.650  1.00  0.00     0.157 A 
ENDROOT
BRANCH   1   7
ATOM      7  C   UNL     1     137.571 146.899 157.948  1.00  0.00     0.010 C 
ATOM      8  C   UNL     1     138.636 147.384 158.606  1.00  0.00     0.025 C 
BRANCH   8   9
ATOM      9  C   UNL     1     138.684 147.718 160.042  1.00  0.00     0.064 C 
ATOM     10  O   UNL     1     138.623 148.911 160.443  1.00  0.00    -0.545 OA
ATOM     11  O   UNL     1     138.868 146.701 160.969  1.00  0.00    -0.545 OA
ENDBRANCH   8   9
ENDBRANCH   1   7
BRANCH   4  12
ATOM     12  O   UNL     1     134.870 143.376 160.037  1.00  0.00    -0.504 OA
ATOM     13  H   UNL     1     134.021 142.828 160.041  1.00  0.00     0.293 HD
ENDBRANCH   4  12
BRANCH   6  14
ATOM     14  O   UNL     1     132.615 145.232 160.188  1.00  0.00    -0.504 OA
ATOM     15  H   UNL     1     131.806 144.989 159.633  1.00  0.00     0.293 HD
ENDBRANCH   6  14
TORSDOF 4
ENDMDL
MODEL 8
REMARK VINA RESULT:    -3.923      3.468      5.513
REMARK INTER + INTRA:          -4.823
REMARK INTER:                  -4.673
REMARK INTRA:                  -0.149
REMARK UNBOUND:                -0.212
REMARK SMILES O=C([O-])C=Cc1ccc(O)c(O)c1
REMARK SMILES IDX 6 1 13 2 7 3 11 4 8 5 9 6 5 7 4 8 2 9 1 10 3 11 12 12 10 14
REMARK H PARENT 12 13 10 15
REMARK Flexibility Score: inf
ROOT
ATOM      1  C   UNL     1     140.528 145.862 157.129  1.00  0.00    -0.022 A 
ATOM      2  C   UNL     1     140.815 146.178 155.791  1.00  0.00     0.058 A 
ATOM      3  C   UNL     1     141.456 145.125 157.873  1.00  0.00     0.012 A 
ATOM      4  C   UNL     1     142.037 145.811 155.214  1.00  0.00     0.157 A 
ATOM      5  C   UNL     1     142.678 144.756 157.307  1.00  0.00     0.051 A 
ATOM      6  C   UNL     1     142.985 145.095 155.984  1.00  0.00     0.157 A 
ENDROOT
BRANCH   1   7
ATOM      7  C   UNL     1     139.221 146.197 157.732  1.00  0.00     0.010 C 
ATOM      8  C   UNL     1     138.946 147.319 158.418  1.00  0.00     0.025 C 
BRANCH   8   9
ATOM      9  C   UNL     1     139.930 148.331 158.847  1.00  0.00     0.064 C 
ATOM     10  O   UNL     1     140.616 148.978 158.012  1.00  0.00    -0.545 OA
ATOM     11  O   UNL     1     140.152 148.527 160.203  1.00  0.00    -0.545 OA
ENDBRANCH   8   9
ENDBRANCH   1   7
BRANCH   4  12
ATOM     12  O   UNL     1     142.263 146.168 153.883  1.00  0.00    -0.504 OA
ATOM     13  H   UNL     1     142.885 146.909 153.594  1.00  0.00     0.293 HD
ENDBRANCH   4  12
BRANCH   6  14
ATOM     14  O   UNL     1     144.226 144.704 155.480  1.00  0.00    -0.504 OA
ATOM     15  H   UNL     1     144.767 143.932 155.845  1.00  0.00     0.293 HD
ENDBRANCH   6  14
TORSDOF 4
ENDMDL
MODEL 9
REMARK VINA RESULT:    -3.828      1.619      2.828
REMARK INTER + INTRA:          -4.712
REMARK INTER:                  -4.638
REMARK INTRA:                  -0.074
REMARK UNBOUND:                -0.212
REMARK SMILES O=C([O-])C=Cc1ccc(O)c(O)c1
REMARK SMILES IDX 6 1 13 2 7 3 11 4 8 5 9 6 5 7 4 8 2 9 1 10 3 11 12 12 10 14
REMARK H PARENT 12 13 10 15
REMARK Flexibility Score: inf
ROOT
ATOM      1  C   UNL     1     138.078 147.227 159.866  1.00  0.00    -0.022 A 
ATOM      2  C   UNL     1     138.593 148.472 160.262  1.00  0.00     0.058 A 
ATOM      3  C   UNL     1     137.910 146.219 160.823  1.00  0.00     0.012 A 
ATOM      4  C   UNL     1     138.888 148.731 161.606  1.00  0.00     0.157 A 
ATOM      5  C   UNL     1     138.200 146.469 162.166  1.00  0.00     0.051 A 
ATOM      6  C   UNL     1     138.684 147.718 162.573  1.00  0.00     0.157 A 
ENDROOT
BRANCH   1   7
ATOM      7  C   UNL     1     137.813 146.924 158.444  1.00  0.00     0.010 C 
ATOM      8  C   UNL     1     136.611 146.627 157.924  1.00  0.00     0.025 C 
BRANCH   8   9
ATOM      9  C   UNL     1     135.377 146.375 158.691  1.00  0.00     0.064 C 
ATOM     10  O   UNL     1     135.042 145.211 159.038  1.00  0.00    -0.545 OA
ATOM     11  O   UNL     1     134.529 147.438 158.978  1.00  0.00    -0.545 OA
ENDBRANCH   8   9
ENDBRANCH   1   7
BRANCH   4  12
ATOM     12  O   UNL     1     139.386 149.994 161.933  1.00  0.00    -0.504 OA
ATOM     13  H   UNL     1     138.826 150.834 161.954  1.00  0.00     0.293 HD
ENDBRANCH   4  12
BRANCH   6  14
ATOM     14  O   UNL     1     138.947 147.906 163.931  1.00  0.00    -0.504 OA
ATOM     15  H   UNL     1     139.238 147.169 164.558  1.00  0.00     0.293 HD
ENDBRANCH   6  14
TORSDOF 4
ENDMDL
