MODEL 1
REMARK VINA RESULT:    -5.219      0.000      0.000
REMARK INTER + INTRA:          -9.717
REMARK INTER:                  -8.880
REMARK INTRA:                  -0.837
REMARK UNBOUND:                -0.837
REMARK SMILES CCCCCCCCCCCCCC(=O)[O-]
REMARK SMILES IDX 8 1 9 2 10 3 11 4 12 5 13 6 14 7 15 8 16 9 7 10 6 11 5 12
REMARK SMILES IDX 4 13 3 14 2 15 1 16
REMARK H PARENT
REMARK Flexibility Score: inf
ROOT
ATOM      1  C   UNL     1       2.622  43.313   9.282  1.00  0.00     0.000 C 
ENDROOT
BRANCH   1   2
ATOM      2  C   UNL     1       4.009  43.852   9.668  1.00  0.00     0.000 C 
BRANCH   2   3
ATOM      3  C   UNL     1       4.187  45.339   9.313  1.00  0.00     0.000 C 
BRANCH   3   4
ATOM      4  C   UNL     1       4.450  46.214  10.550  1.00  0.00     0.000 C 
BRANCH   4   5
ATOM      5  C   UNL     1       4.179  47.705  10.285  1.00  0.00     0.006 C 
BRANCH   5   6
ATOM      6  C   UNL     1       5.016  48.247   9.119  1.00  0.00     0.053 C 
BRANCH   6   7
ATOM      7  C   UNL     1       6.405  48.607   9.551  1.00  0.00     0.041 C 
ATOM      8  O   UNL     1       6.639  49.732  10.067  1.00  0.00    -0.550 OA
ATOM      9  O   UNL     1       7.437  47.688   9.409  1.00  0.00    -0.550 OA
ENDBRANCH   6   7
ENDBRANCH   5   6
ENDBRANCH   4   5
ENDBRANCH   3   4
ENDBRANCH   2   3
ENDBRANCH   1   2
BRANCH   1  10
ATOM     10  C   UNL     1       1.549  43.651  10.332  1.00  0.00     0.000 C 
BRANCH  10  11
ATOM     11  C   UNL     1       2.075  43.546  11.772  1.00  0.00    -0.000 C 
BRANCH  11  12
ATOM     12  C   UNL     1       1.780  42.182  12.416  1.00  0.00    -0.000 C 
BRANCH  12  13
ATOM     13  C   UNL     1       2.888  41.171  12.091  1.00  0.00    -0.000 C 
BRANCH  13  14
ATOM     14  C   UNL     1       2.577  39.799  12.702  1.00  0.00    -0.000 C 
BRANCH  14  15
ATOM     15  C   UNL     1       3.863  38.999  12.940  1.00  0.00    -0.003 C 
ATOM     16  C   UNL     1       5.020  39.918  13.324  1.00  0.00     0.004 C 
ENDBRANCH  14  15
ENDBRANCH  13  14
ENDBRANCH  12  13
ENDBRANCH  11  12
ENDBRANCH  10  11
ENDBRANCH   1  10
TORSDOF 12
ENDMDL
MODEL 2
REMARK VINA RESULT:    -5.176      3.594      7.317
REMARK INTER + INTRA:          -9.644
REMARK INTER:                  -8.114
REMARK INTRA:                  -1.530
REMARK UNBOUND:                -0.837
REMARK SMILES CCCCCCCCCCCCCC(=O)[O-]
REMARK SMILES IDX 8 1 9 2 10 3 11 4 12 5 13 6 14 7 15 8 16 9 7 10 6 11 5 12
REMARK SMILES IDX 4 13 3 14 2 15 1 16
REMARK H PARENT
REMARK Flexibility Score: inf
ROOT
ATOM      1  C   UNL     1       2.290  47.271   8.195  1.00  0.00     0.000 C 
ENDROOT
BRANCH   1   2
ATOM      2  C   UNL     1       2.669  46.840   9.621  1.00  0.00     0.000 C 
BRANCH   2   3
ATOM      3  C   UNL     1       4.112  46.312   9.716  1.00  0.00     0.000 C 
BRANCH   3   4
ATOM      4  C   UNL     1       4.188  44.912  10.347  1.00  0.00     0.000 C 
BRANCH   4   5
ATOM      5  C   UNL     1       4.027  43.787   9.310  1.00  0.00     0.006 C 
BRANCH   5   6
ATOM      6  C   UNL     1       2.624  43.166   9.344  1.00  0.00     0.053 C 
BRANCH   6   7
ATOM      7  C   UNL     1       2.201  42.825  10.740  1.00  0.00     0.041 C 
ATOM      8  O   UNL     1       2.769  41.891  11.367  1.00  0.00    -0.550 OA
ATOM      9  O   UNL     1       1.196  43.557  11.360  1.00  0.00    -0.550 OA
ENDBRANCH   6   7
ENDBRANCH   5   6
ENDBRANCH   4   5
ENDBRANCH   3   4
ENDBRANCH   2   3
ENDBRANCH   1   2
BRANCH   1  10
ATOM     10  C   UNL     1       3.412  48.064   7.502  1.00  0.00     0.000 C 
BRANCH  10  11
ATOM     11  C   UNL     1       3.192  49.583   7.570  1.00  0.00    -0.000 C 
BRANCH  11  12
ATOM     12  C   UNL     1       4.389  50.331   8.179  1.00  0.00    -0.000 C 
BRANCH  12  13
ATOM     13  C   UNL     1       4.433  50.149   9.701  1.00  0.00    -0.000 C 
BRANCH  13  14
ATOM     14  C   UNL     1       5.827  49.704  10.162  1.00  0.00    -0.000 C 
BRANCH  14  15
ATOM     15  C   UNL     1       6.619  49.090   9.003  1.00  0.00    -0.003 C 
ATOM     16  C   UNL     1       7.209  47.738   9.396  1.00  0.00     0.004 C 
ENDBRANCH  14  15
ENDBRANCH  13  14
ENDBRANCH  12  13
ENDBRANCH  11  12
ENDBRANCH  10  11
ENDBRANCH   1  10
TORSDOF 12
ENDMDL
MODEL 3
REMARK VINA RESULT:    -5.155      3.590      7.062
REMARK INTER + INTRA:          -9.608
REMARK INTER:                  -7.653
REMARK INTRA:                  -1.955
REMARK UNBOUND:                -0.837
REMARK SMILES CCCCCCCCCCCCCC(=O)[O-]
REMARK SMILES IDX 8 1 9 2 10 3 11 4 12 5 13 6 14 7 15 8 16 9 7 10 6 11 5 12
REMARK SMILES IDX 4 13 3 14 2 15 1 16
REMARK H PARENT
REMARK Flexibility Score: inf
ROOT
ATOM      1  C   UNL     1       4.420  46.106   9.345  1.00  0.00     0.000 C 
ENDROOT
BRANCH   1   2
ATOM      2  C   UNL     1       4.173  46.092  10.862  1.00  0.00     0.000 C 
BRANCH   2   3
ATOM      3  C   UNL     1       4.140  44.668  11.444  1.00  0.00     0.000 C 
BRANCH   3   4
ATOM      4  C   UNL     1       4.078  43.586  10.353  1.00  0.00     0.000 C 
BRANCH   4   5
ATOM      5  C   UNL     1       2.710  42.884  10.295  1.00  0.00     0.006 C 
BRANCH   5   6
ATOM      6  C   UNL     1       1.922  43.256   9.032  1.00  0.00     0.053 C 
BRANCH   6   7
ATOM      7  C   UNL     1       0.895  44.311   9.307  1.00  0.00     0.041 C 
ATOM      8  O   UNL     1       0.257  44.840   8.358  1.00  0.00    -0.550 OA
ATOM      9  O   UNL     1       0.622  44.691  10.615  1.00  0.00    -0.550 OA
ENDBRANCH   6   7
ENDBRANCH   5   6
ENDBRANCH   4   5
ENDBRANCH   3   4
ENDBRANCH   2   3
ENDBRANCH   1   2
BRANCH   1  10
ATOM     10  C   UNL     1       3.387  46.962   8.590  1.00  0.00     0.000 C 
BRANCH  10  11
ATOM     11  C   UNL     1       2.370  47.628   9.529  1.00  0.00    -0.000 C 
BRANCH  11  12
ATOM     12  C   UNL     1       2.388  49.162   9.435  1.00  0.00    -0.000 C 
BRANCH  12  13
ATOM     13  C   UNL     1       3.215  49.772  10.575  1.00  0.00    -0.000 C 
BRANCH  13  14
ATOM     14  C   UNL     1       4.415  50.555  10.027  1.00  0.00    -0.000 C 
BRANCH  14  15
ATOM     15  C   UNL     1       5.728  49.815  10.307  1.00  0.00    -0.003 C 
ATOM     16  C   UNL     1       6.346  49.284   9.017  1.00  0.00     0.004 C 
ENDBRANCH  14  15
ENDBRANCH  13  14
ENDBRANCH  12  13
ENDBRANCH  11  12
ENDBRANCH  10  11
ENDBRANCH   1  10
TORSDOF 12
ENDMDL
MODEL 4
REMARK VINA RESULT:    -5.142      3.548      7.664
REMARK INTER + INTRA:          -9.587
REMARK INTER:                  -8.607
REMARK INTRA:                  -0.980
REMARK UNBOUND:                -0.837
REMARK SMILES CCCCCCCCCCCCCC(=O)[O-]
REMARK SMILES IDX 8 1 9 2 10 3 11 4 12 5 13 6 14 7 15 8 16 9 7 10 6 11 5 12
REMARK SMILES IDX 4 13 3 14 2 15 1 16
REMARK H PARENT
REMARK Flexibility Score: inf
ROOT
ATOM      1  C   UNL     1       4.006  46.226  10.547  1.00  0.00     0.000 C 
ENDROOT
BRANCH   1   2
ATOM      2  C   UNL     1       3.848  44.716  10.788  1.00  0.00     0.000 C 
BRANCH   2   3
ATOM      3  C   UNL     1       2.580  44.141  10.133  1.00  0.00     0.000 C 
BRANCH   3   4
ATOM      4  C   UNL     1       2.048  42.899  10.867  1.00  0.00     0.000 C 
BRANCH   4   5
ATOM      5  C   UNL     1       3.146  42.162  11.654  1.00  0.00     0.006 C 
BRANCH   5   6
ATOM      6  C   UNL     1       2.616  40.895  12.337  1.00  0.00     0.053 C 
BRANCH   6   7
ATOM      7  C   UNL     1       3.720  39.937  12.667  1.00  0.00     0.041 C 
ATOM      8  O   UNL     1       3.493  38.699  12.719  1.00  0.00    -0.550 OA
ATOM      9  O   UNL     1       5.007  40.410  12.891  1.00  0.00    -0.550 OA
ENDBRANCH   6   7
ENDBRANCH   5   6
ENDBRANCH   4   5
ENDBRANCH   3   4
ENDBRANCH   2   3
ENDBRANCH   1   2
BRANCH   1  10
ATOM     10  C   UNL     1       2.771  46.844   9.866  1.00  0.00     0.000 C 
BRANCH  10  11
ATOM     11  C   UNL     1       2.733  48.376   9.987  1.00  0.00    -0.000 C 
BRANCH  11  12
ATOM     12  C   UNL     1       3.872  48.933  10.855  1.00  0.00    -0.000 C 
BRANCH  12  13
ATOM     13  C   UNL     1       4.575  50.102  10.153  1.00  0.00    -0.000 C 
BRANCH  13  14
ATOM     14  C   UNL     1       6.085  49.857  10.053  1.00  0.00    -0.000 C 
BRANCH  14  15
ATOM     15  C   UNL     1       6.412  48.899   8.902  1.00  0.00    -0.003 C 
ATOM     16  C   UNL     1       7.138  47.656   9.409  1.00  0.00     0.004 C 
ENDBRANCH  14  15
ENDBRANCH  13  14
ENDBRANCH  12  13
ENDBRANCH  11  12
ENDBRANCH  10  11
ENDBRANCH   1  10
TORSDOF 12
ENDMDL
MODEL 5
REMARK VINA RESULT:    -5.113      3.405      7.686
REMARK INTER + INTRA:          -9.537
REMARK INTER:                  -8.161
REMARK INTRA:                  -1.376
REMARK UNBOUND:                -0.837
REMARK SMILES CCCCCCCCCCCCCC(=O)[O-]
REMARK SMILES IDX 8 1 9 2 10 3 11 4 12 5 13 6 14 7 15 8 16 9 7 10 6 11 5 12
REMARK SMILES IDX 4 13 3 14 2 15 1 16
REMARK H PARENT
REMARK Flexibility Score: inf
ROOT
ATOM      1  C   UNL     1       4.936  46.750   9.155  1.00  0.00     0.000 C 
ENDROOT
BRANCH   1   2
ATOM      2  C   UNL     1       4.258  46.372  10.481  1.00  0.00     0.000 C 
BRANCH   2   3
ATOM      3  C   UNL     1       4.383  44.873  10.804  1.00  0.00     0.000 C 
BRANCH   3   4
ATOM      4  C   UNL     1       4.109  43.980   9.583  1.00  0.00     0.000 C 
BRANCH   4   5
ATOM      5  C   UNL     1       2.712  43.336   9.623  1.00  0.00     0.006 C 
BRANCH   5   6
ATOM      6  C   UNL     1       2.533  42.420  10.841  1.00  0.00     0.053 C 
BRANCH   6   7
ATOM      7  C   UNL     1       1.475  42.931  11.771  1.00  0.00     0.041 C 
ATOM      8  O   UNL     1       1.104  42.235  12.754  1.00  0.00    -0.550 OA
ATOM      9  O   UNL     1       0.919  44.187  11.568  1.00  0.00    -0.550 OA
ENDBRANCH   6   7
ENDBRANCH   5   6
ENDBRANCH   4   5
ENDBRANCH   3   4
ENDBRANCH   2   3
ENDBRANCH   1   2
BRANCH   1  10
ATOM     10  C   UNL     1       6.306  47.419   9.365  1.00  0.00     0.000 C 
BRANCH  10  11
ATOM     11  C   UNL     1       6.305  48.906   8.975  1.00  0.00    -0.000 C 
BRANCH  11  12
ATOM     12  C   UNL     1       5.774  49.815  10.094  1.00  0.00    -0.000 C 
BRANCH  12  13
ATOM     13  C   UNL     1       4.520  50.572   9.637  1.00  0.00    -0.000 C 
BRANCH  13  14
ATOM     14  C   UNL     1       3.263  50.017  10.317  1.00  0.00    -0.000 C 
BRANCH  14  15
ATOM     15  C   UNL     1       2.323  49.371   9.292  1.00  0.00    -0.003 C 
ATOM     16  C   UNL     1       2.777  49.669   7.866  1.00  0.00     0.004 C 
ENDBRANCH  14  15
ENDBRANCH  13  14
ENDBRANCH  12  13
ENDBRANCH  11  12
ENDBRANCH  10  11
ENDBRANCH   1  10
TORSDOF 12
ENDMDL
MODEL 6
REMARK VINA RESULT:    -5.053      3.225      7.192
REMARK INTER + INTRA:          -9.436
REMARK INTER:                  -7.748
REMARK INTRA:                  -1.687
REMARK UNBOUND:                -0.837
REMARK SMILES CCCCCCCCCCCCCC(=O)[O-]
REMARK SMILES IDX 8 1 9 2 10 3 11 4 12 5 13 6 14 7 15 8 16 9 7 10 6 11 5 12
REMARK SMILES IDX 4 13 3 14 2 15 1 16
REMARK H PARENT
REMARK Flexibility Score: inf
ROOT
ATOM      1  C   UNL     1       6.393  49.331   8.965  1.00  0.00     0.000 C 
ENDROOT
BRANCH   1   2
ATOM      2  C   UNL     1       6.579  47.857   9.358  1.00  0.00     0.000 C 
BRANCH   2   3
ATOM      3  C   UNL     1       5.349  46.994   9.023  1.00  0.00     0.000 C 
BRANCH   3   4
ATOM      4  C   UNL     1       4.883  46.142  10.215  1.00  0.00     0.000 C 
BRANCH   4   5
ATOM      5  C   UNL     1       4.063  44.915   9.778  1.00  0.00     0.006 C 
BRANCH   5   6
ATOM      6  C   UNL     1       2.969  44.560  10.793  1.00  0.00     0.053 C 
BRANCH   6   7
ATOM      7  C   UNL     1       3.474  43.628  11.852  1.00  0.00     0.041 C 
ATOM      8  O   UNL     1       4.154  44.069  12.815  1.00  0.00    -0.550 OA
ATOM      9  O   UNL     1       3.169  42.274  11.788  1.00  0.00    -0.550 OA
ENDBRANCH   6   7
ENDBRANCH   5   6
ENDBRANCH   4   5
ENDBRANCH   3   4
ENDBRANCH   2   3
ENDBRANCH   1   2
BRANCH   1  10
ATOM     10  C   UNL     1       5.995  50.213  10.163  1.00  0.00     0.000 C 
BRANCH  10  11
ATOM     11  C   UNL     1       4.510  50.606  10.141  1.00  0.00    -0.000 C 
BRANCH  11  12
ATOM     12  C   UNL     1       3.614  49.590  10.867  1.00  0.00    -0.000 C 
BRANCH  12  13
ATOM     13  C   UNL     1       2.441  49.158   9.977  1.00  0.00    -0.000 C 
BRANCH  13  14
ATOM     14  C   UNL     1       2.686  49.551   8.514  1.00  0.00    -0.000 C 
BRANCH  14  15
ATOM     15  C   UNL     1       1.813  48.719   7.568  1.00  0.00    -0.003 C 
ATOM     16  C   UNL     1       1.700  47.275   8.050  1.00  0.00     0.004 C 
ENDBRANCH  14  15
ENDBRANCH  13  14
ENDBRANCH  12  13
ENDBRANCH  11  12
ENDBRANCH  10  11
ENDBRANCH   1  10
TORSDOF 12
ENDMDL
MODEL 7
REMARK VINA RESULT:    -5.012      2.490      4.333
REMARK INTER + INTRA:          -9.366
REMARK INTER:                  -8.129
REMARK INTRA:                  -1.237
REMARK UNBOUND:                -0.837
REMARK SMILES CCCCCCCCCCCCCC(=O)[O-]
REMARK SMILES IDX 8 1 9 2 10 3 11 4 12 5 13 6 14 7 15 8 16 9 7 10 6 11 5 12
REMARK SMILES IDX 4 13 3 14 2 15 1 16
REMARK H PARENT
REMARK Flexibility Score: inf
ROOT
ATOM      1  C   UNL     1       6.118  47.379   9.346  1.00  0.00     0.000 C 
ENDROOT
BRANCH   1   2
ATOM      2  C   UNL     1       6.296  48.894   9.540  1.00  0.00     0.000 C 
BRANCH   2   3
ATOM      3  C   UNL     1       5.245  49.498  10.487  1.00  0.00     0.000 C 
BRANCH   3   4
ATOM      4  C   UNL     1       4.298  50.475   9.772  1.00  0.00     0.000 C 
BRANCH   4   5
ATOM      5  C   UNL     1       2.830  50.016   9.819  1.00  0.00     0.006 C 
BRANCH   5   6
ATOM      6  C   UNL     1       2.197  49.961   8.423  1.00  0.00     0.053 C 
BRANCH   6   7
ATOM      7  C   UNL     1       2.481  48.662   7.733  1.00  0.00     0.041 C 
ATOM      8  O   UNL     1       1.623  47.739   7.736  1.00  0.00    -0.550 OA
ATOM      9  O   UNL     1       3.684  48.480   7.063  1.00  0.00    -0.550 OA
ENDBRANCH   6   7
ENDBRANCH   5   6
ENDBRANCH   4   5
ENDBRANCH   3   4
ENDBRANCH   2   3
ENDBRANCH   1   2
BRANCH   1  10
ATOM     10  C   UNL     1       4.852  46.843  10.038  1.00  0.00     0.000 C 
BRANCH  10  11
ATOM     11  C   UNL     1       4.218  45.664   9.283  1.00  0.00    -0.000 C 
BRANCH  11  12
ATOM     12  C   UNL     1       4.198  44.370  10.110  1.00  0.00    -0.000 C 
BRANCH  12  13
ATOM     13  C   UNL     1       4.093  44.678  11.610  1.00  0.00    -0.000 C 
BRANCH  13  14
ATOM     14  C   UNL     1       3.001  43.828  12.271  1.00  0.00    -0.000 C 
BRANCH  14  15
ATOM     15  C   UNL     1       2.521  42.719  11.329  1.00  0.00    -0.003 C 
ATOM     16  C   UNL     1       2.797  41.338  11.918  1.00  0.00     0.004 C 
ENDBRANCH  14  15
ENDBRANCH  13  14
ENDBRANCH  12  13
ENDBRANCH  11  12
ENDBRANCH  10  11
ENDBRANCH   1  10
TORSDOF 12
ENDMDL
MODEL 8
REMARK VINA RESULT:    -5.009      2.499      3.946
REMARK INTER + INTRA:          -9.361
REMARK INTER:                  -7.671
REMARK INTRA:                  -1.690
REMARK UNBOUND:                -0.837
REMARK SMILES CCCCCCCCCCCCCC(=O)[O-]
REMARK SMILES IDX 8 1 9 2 10 3 11 4 12 5 13 6 14 7 15 8 16 9 7 10 6 11 5 12
REMARK SMILES IDX 4 13 3 14 2 15 1 16
REMARK H PARENT
REMARK Flexibility Score: inf
ROOT
ATOM      1  C   UNL     1       4.117  47.226  10.559  1.00  0.00     0.000 C 
ENDROOT
BRANCH   1   2
ATOM      2  C   UNL     1       5.028  46.553   9.519  1.00  0.00     0.000 C 
BRANCH   2   3
ATOM      3  C   UNL     1       6.260  47.407   9.171  1.00  0.00     0.000 C 
BRANCH   3   4
ATOM      4  C   UNL     1       6.128  48.860   9.655  1.00  0.00     0.000 C 
BRANCH   4   5
ATOM      5  C   UNL     1       5.824  49.839   8.508  1.00  0.00     0.006 C 
BRANCH   5   6
ATOM      6  C   UNL     1       4.391  50.383   8.577  1.00  0.00     0.053 C 
BRANCH   6   7
ATOM      7  C   UNL     1       3.527  49.817   7.491  1.00  0.00     0.041 C 
ATOM      8  O   UNL     1       3.769  48.675   7.017  1.00  0.00    -0.550 OA
ATOM      9  O   UNL     1       2.439  50.541   7.021  1.00  0.00    -0.550 OA
ENDBRANCH   6   7
ENDBRANCH   5   6
ENDBRANCH   4   5
ENDBRANCH   3   4
ENDBRANCH   2   3
ENDBRANCH   1   2
BRANCH   1  10
ATOM     10  C   UNL     1       2.645  47.266  10.112  1.00  0.00     0.000 C 
BRANCH  10  11
ATOM     11  C   UNL     1       2.336  46.253   8.999  1.00  0.00    -0.000 C 
BRANCH  11  12
ATOM     12  C   UNL     1       1.264  45.229   9.405  1.00  0.00    -0.000 C 
BRANCH  12  13
ATOM     13  C   UNL     1       1.619  44.565  10.742  1.00  0.00    -0.000 C 
BRANCH  13  14
ATOM     14  C   UNL     1       2.286  43.202  10.520  1.00  0.00    -0.000 C 
BRANCH  14  15
ATOM     15  C   UNL     1       3.161  42.816  11.718  1.00  0.00    -0.003 C 
ATOM     16  C   UNL     1       3.882  44.034  12.288  1.00  0.00     0.004 C 
ENDBRANCH  14  15
ENDBRANCH  13  14
ENDBRANCH  12  13
ENDBRANCH  11  12
ENDBRANCH  10  11
ENDBRANCH   1  10
TORSDOF 12
ENDMDL
MODEL 9
REMARK VINA RESULT:    -5.004      3.937      7.226
REMARK INTER + INTRA:          -9.351
REMARK INTER:                  -7.733
REMARK INTRA:                  -1.618
REMARK UNBOUND:                -0.837
REMARK SMILES CCCCCCCCCCCCCC(=O)[O-]
REMARK SMILES IDX 8 1 9 2 10 3 11 4 12 5 13 6 14 7 15 8 16 9 7 10 6 11 5 12
REMARK SMILES IDX 4 13 3 14 2 15 1 16
REMARK H PARENT
REMARK Flexibility Score: inf
ROOT
ATOM      1  C   UNL     1       4.302  45.036  10.766  1.00  0.00     0.000 C 
ENDROOT
BRANCH   1   2
ATOM      2  C   UNL     1       3.999  44.181   9.525  1.00  0.00     0.000 C 
BRANCH   2   3
ATOM      3  C   UNL     1       2.954  43.086   9.800  1.00  0.00     0.000 C 
BRANCH   3   4
ATOM      4  C   UNL     1       2.071  43.405  11.017  1.00  0.00     0.000 C 
BRANCH   4   5
ATOM      5  C   UNL     1       1.931  42.208  11.975  1.00  0.00     0.006 C 
BRANCH   5   6
ATOM      6  C   UNL     1       3.190  41.331  11.990  1.00  0.00     0.053 C 
BRANCH   6   7
ATOM      7  C   UNL     1       2.932  39.998  12.625  1.00  0.00     0.041 C 
ATOM      8  O   UNL     1       1.789  39.720  13.076  1.00  0.00    -0.550 OA
ATOM      9  O   UNL     1       3.947  39.053  12.693  1.00  0.00    -0.550 OA
ENDBRANCH   6   7
ENDBRANCH   5   6
ENDBRANCH   4   5
ENDBRANCH   3   4
ENDBRANCH   2   3
ENDBRANCH   1   2
BRANCH   1  10
ATOM     10  C   UNL     1       4.381  46.538  10.439  1.00  0.00     0.000 C 
BRANCH  10  11
ATOM     11  C   UNL     1       4.929  46.809   9.030  1.00  0.00    -0.000 C 
BRANCH  11  12
ATOM     12  C   UNL     1       3.982  47.668   8.178  1.00  0.00    -0.000 C 
BRANCH  12  13
ATOM     13  C   UNL     1       2.655  47.911   8.909  1.00  0.00    -0.000 C 
BRANCH  13  14
ATOM     14  C   UNL     1       1.478  47.319   8.124  1.00  0.00    -0.000 C 
BRANCH  14  15
ATOM     15  C   UNL     1       0.745  46.256   8.951  1.00  0.00    -0.003 C 
ATOM     16  C   UNL     1       0.399  45.038   8.099  1.00  0.00     0.004 C 
ENDBRANCH  14  15
ENDBRANCH  13  14
ENDBRANCH  12  13
ENDBRANCH  11  12
ENDBRANCH  10  11
ENDBRANCH   1  10
TORSDOF 12
ENDMDL
