MODEL 1
REMARK VINA RESULT:    -4.187      0.000      0.000
REMARK INTER + INTRA:         -10.097
REMARK INTER:                  -7.614
REMARK INTRA:                  -2.483
REMARK UNBOUND:                -2.483
REMARK SMILES CCCCCCCCCCCCCCCC(=O)[O-]
REMARK SMILES IDX 9 1 10 2 11 3 12 4 13 5 14 6 15 7 16 8 17 9 18 10 8 11 7 12
REMARK SMILES IDX 6 13 5 14 4 15 3 16 2 17 1 18
REMARK H PARENT
REMARK Flexibility Score: inf
ROOT
ATOM      1  C   UNL     1     -14.795   6.999  31.091  1.00  0.00     0.000 C 
ENDROOT
BRANCH   1   2
ATOM      2  C   UNL     1     -14.448   6.686  29.626  1.00  0.00     0.000 C 
BRANCH   2   3
ATOM      3  C   UNL     1     -13.271   7.522  29.103  1.00  0.00     0.000 C 
BRANCH   3   4
ATOM      4  C   UNL     1     -13.485   7.912  27.635  1.00  0.00     0.000 C 
BRANCH   4   5
ATOM      5  C   UNL     1     -12.985   9.337  27.366  1.00  0.00     0.000 C 
BRANCH   5   6
ATOM      6  C   UNL     1     -13.403   9.812  25.968  1.00  0.00     0.006 C 
BRANCH   6   7
ATOM      7  C   UNL     1     -14.885  10.195  25.939  1.00  0.00     0.053 C 
BRANCH   7   8
ATOM      8  C   UNL     1     -15.053  11.603  25.459  1.00  0.00     0.041 C 
ATOM      9  O   UNL     1     -15.850  12.381  26.045  1.00  0.00    -0.550 OA
ATOM     10  O   UNL     1     -14.292  12.069  24.395  1.00  0.00    -0.550 OA
ENDBRANCH   7   8
ENDBRANCH   6   7
ENDBRANCH   5   6
ENDBRANCH   4   5
ENDBRANCH   3   4
ENDBRANCH   2   3
ENDBRANCH   1   2
BRANCH   1  11
ATOM     11  C   UNL     1     -14.009   8.202  31.640  1.00  0.00     0.000 C 
BRANCH  11  12
ATOM     12  C   UNL     1     -14.873   9.114  32.526  1.00  0.00    -0.000 C 
BRANCH  12  13
ATOM     13  C   UNL     1     -15.042  10.524  31.933  1.00  0.00    -0.000 C 
BRANCH  13  14
ATOM     14  C   UNL     1     -14.737  10.579  30.424  1.00  0.00    -0.000 C 
BRANCH  14  15
ATOM     15  C   UNL     1     -15.952  10.871  29.524  1.00  0.00    -0.000 C 
BRANCH  15  16
ATOM     16  C   UNL     1     -16.703   9.600  29.099  1.00  0.00    -0.000 C 
BRANCH  16  17
ATOM     17  C   UNL     1     -17.819   9.264  30.096  1.00  0.00    -0.003 C 
ATOM     18  C   UNL     1     -18.262   7.810  29.956  1.00  0.00     0.004 C 
ENDBRANCH  16  17
ENDBRANCH  15  16
ENDBRANCH  14  15
ENDBRANCH  13  14
ENDBRANCH  12  13
ENDBRANCH  11  12
ENDBRANCH   1  11
TORSDOF 14
ENDMDL
MODEL 2
REMARK VINA RESULT:    -4.166      3.309      5.159
REMARK INTER + INTRA:         -10.058
REMARK INTER:                  -7.591
REMARK INTRA:                  -2.467
REMARK UNBOUND:                -2.483
REMARK SMILES CCCCCCCCCCCCCCCC(=O)[O-]
REMARK SMILES IDX 9 1 10 2 11 3 12 4 13 5 14 6 15 7 16 8 17 9 18 10 8 11 7 12
REMARK SMILES IDX 6 13 5 14 4 15 3 16 2 17 1 18
REMARK H PARENT
REMARK Flexibility Score: inf
ROOT
ATOM      1  C   UNL     1     -16.883   8.481  31.850  1.00  0.00     0.000 C 
ENDROOT
BRANCH   1   2
ATOM      2  C   UNL     1     -15.848   9.413  32.500  1.00  0.00     0.000 C 
BRANCH   2   3
ATOM      3  C   UNL     1     -14.405   9.064  32.108  1.00  0.00     0.000 C 
BRANCH   3   4
ATOM      4  C   UNL     1     -14.353   7.750  31.319  1.00  0.00     0.000 C 
BRANCH   4   5
ATOM      5  C   UNL     1     -13.797   7.975  29.908  1.00  0.00     0.000 C 
BRANCH   5   6
ATOM      6  C   UNL     1     -14.360   6.943  28.923  1.00  0.00     0.006 C 
BRANCH   6   7
ATOM      7  C   UNL     1     -14.882   5.707  29.661  1.00  0.00     0.053 C 
BRANCH   7   8
ATOM      8  C   UNL     1     -14.391   4.457  29.000  1.00  0.00     0.041 C 
ATOM      9  O   UNL     1     -15.144   3.452  28.908  1.00  0.00    -0.550 OA
ATOM     10  O   UNL     1     -13.120   4.419  28.443  1.00  0.00    -0.550 OA
ENDBRANCH   7   8
ENDBRANCH   6   7
ENDBRANCH   5   6
ENDBRANCH   4   5
ENDBRANCH   3   4
ENDBRANCH   2   3
ENDBRANCH   1   2
BRANCH   1  11
ATOM     11  C   UNL     1     -17.738   9.197  30.790  1.00  0.00     0.000 C 
BRANCH  11  12
ATOM     12  C   UNL     1     -17.657   8.519  29.413  1.00  0.00    -0.000 C 
BRANCH  12  13
ATOM     13  C   UNL     1     -17.127   9.465  28.321  1.00  0.00    -0.000 C 
BRANCH  13  14
ATOM     14  C   UNL     1     -17.479  10.941  28.585  1.00  0.00    -0.000 C 
BRANCH  14  15
ATOM     15  C   UNL     1     -16.284  11.912  28.550  1.00  0.00    -0.000 C 
BRANCH  15  16
ATOM     16  C   UNL     1     -15.092  11.428  29.387  1.00  0.00    -0.000 C 
BRANCH  16  17
ATOM     17  C   UNL     1     -13.843  11.255  28.514  1.00  0.00    -0.003 C 
ATOM     18  C   UNL     1     -13.949  12.075  27.231  1.00  0.00     0.004 C 
ENDBRANCH  16  17
ENDBRANCH  15  16
ENDBRANCH  14  15
ENDBRANCH  13  14
ENDBRANCH  12  13
ENDBRANCH  11  12
ENDBRANCH   1  11
TORSDOF 14
ENDMDL
MODEL 3
REMARK VINA RESULT:    -4.162      4.222      6.578
REMARK INTER + INTRA:         -10.051
REMARK INTER:                  -8.108
REMARK INTRA:                  -1.943
REMARK UNBOUND:                -2.483
REMARK SMILES CCCCCCCCCCCCCCCC(=O)[O-]
REMARK SMILES IDX 9 1 10 2 11 3 12 4 13 5 14 6 15 7 16 8 17 9 18 10 8 11 7 12
REMARK SMILES IDX 6 13 5 14 4 15 3 16 2 17 1 18
REMARK H PARENT
REMARK Flexibility Score: inf
ROOT
ATOM      1  C   UNL     1     -13.224   4.078  28.462  1.00  0.00     0.000 C 
ENDROOT
BRANCH   1   2
ATOM      2  C   UNL     1     -14.214   5.066  27.823  1.00  0.00     0.000 C 
BRANCH   2   3
ATOM      3  C   UNL     1     -14.514   6.273  28.724  1.00  0.00     0.000 C 
BRANCH   3   4
ATOM      4  C   UNL     1     -15.454   5.881  29.871  1.00  0.00     0.000 C 
BRANCH   4   5
ATOM      5  C   UNL     1     -14.898   6.347  31.222  1.00  0.00     0.000 C 
BRANCH   5   6
ATOM      6  C   UNL     1     -14.190   7.702  31.089  1.00  0.00     0.006 C 
BRANCH   6   7
ATOM      7  C   UNL     1     -14.589   8.644  32.227  1.00  0.00     0.053 C 
BRANCH   7   8
ATOM      8  C   UNL     1     -15.978   9.161  32.016  1.00  0.00     0.041 C 
ATOM      9  O   UNL     1     -16.747   9.329  32.999  1.00  0.00    -0.550 OA
ATOM     10  O   UNL     1     -16.406   9.503  30.740  1.00  0.00    -0.550 OA
ENDBRANCH   7   8
ENDBRANCH   6   7
ENDBRANCH   5   6
ENDBRANCH   4   5
ENDBRANCH   3   4
ENDBRANCH   2   3
ENDBRANCH   1   2
BRANCH   1  11
ATOM     11  C   UNL     1     -13.760   2.637  28.486  1.00  0.00     0.000 C 
BRANCH  11  12
ATOM     12  C   UNL     1     -15.240   2.553  28.078  1.00  0.00    -0.000 C 
BRANCH  12  13
ATOM     13  C   UNL     1     -16.159   2.206  29.262  1.00  0.00    -0.000 C 
BRANCH  13  14
ATOM     14  C   UNL     1     -15.379   1.866  30.546  1.00  0.00    -0.000 C 
BRANCH  14  15
ATOM     15  C   UNL     1     -15.938   2.498  31.835  1.00  0.00    -0.000 C 
BRANCH  15  16
ATOM     16  C   UNL     1     -17.264   3.240  31.613  1.00  0.00    -0.000 C 
BRANCH  16  17
ATOM     17  C   UNL     1     -18.353   2.713  32.555  1.00  0.00    -0.003 C 
ATOM     18  C   UNL     1     -18.637   1.236  32.296  1.00  0.00     0.004 C 
ENDBRANCH  16  17
ENDBRANCH  15  16
ENDBRANCH  14  15
ENDBRANCH  13  14
ENDBRANCH  12  13
ENDBRANCH  11  12
ENDBRANCH   1  11
TORSDOF 14
ENDMDL
MODEL 4
REMARK VINA RESULT:    -4.155      4.101      5.597
REMARK INTER + INTRA:         -10.038
REMARK INTER:                  -8.196
REMARK INTRA:                  -1.842
REMARK UNBOUND:                -2.483
REMARK SMILES CCCCCCCCCCCCCCCC(=O)[O-]
REMARK SMILES IDX 9 1 10 2 11 3 12 4 13 5 14 6 15 7 16 8 17 9 18 10 8 11 7 12
REMARK SMILES IDX 6 13 5 14 4 15 3 16 2 17 1 18
REMARK H PARENT
REMARK Flexibility Score: inf
ROOT
ATOM      1  C   UNL     1     -13.691   9.974  28.155  1.00  0.00     0.000 C 
ENDROOT
BRANCH   1   2
ATOM      2  C   UNL     1     -13.099   8.569  28.353  1.00  0.00     0.000 C 
BRANCH   2   3
ATOM      3  C   UNL     1     -13.618   7.879  29.622  1.00  0.00     0.000 C 
BRANCH   3   4
ATOM      4  C   UNL     1     -14.430   6.625  29.273  1.00  0.00     0.000 C 
BRANCH   4   5
ATOM      5  C   UNL     1     -14.025   6.072  27.902  1.00  0.00     0.000 C 
BRANCH   5   6
ATOM      6  C   UNL     1     -14.467   4.611  27.745  1.00  0.00     0.006 C 
BRANCH   6   7
ATOM      7  C   UNL     1     -13.545   3.671  28.526  1.00  0.00     0.053 C 
BRANCH   7   8
ATOM      8  C   UNL     1     -14.135   2.298  28.596  1.00  0.00     0.041 C 
ATOM      9  O   UNL     1     -14.503   1.822  29.702  1.00  0.00    -0.550 OA
ATOM     10  O   UNL     1     -14.322   1.562  27.433  1.00  0.00    -0.550 OA
ENDBRANCH   7   8
ENDBRANCH   6   7
ENDBRANCH   5   6
ENDBRANCH   4   5
ENDBRANCH   3   4
ENDBRANCH   2   3
ENDBRANCH   1   2
BRANCH   1  11
ATOM     11  C   UNL     1     -14.478  10.462  29.383  1.00  0.00     0.000 C 
BRANCH  11  12
ATOM     12  C   UNL     1     -15.542  11.510  29.021  1.00  0.00    -0.000 C 
BRANCH  12  13
ATOM     13  C   UNL     1     -16.961  10.915  28.968  1.00  0.00    -0.000 C 
BRANCH  13  14
ATOM     14  C   UNL     1     -16.991   9.409  29.287  1.00  0.00    -0.000 C 
BRANCH  14  15
ATOM     15  C   UNL     1     -17.824   9.020  30.522  1.00  0.00    -0.000 C 
BRANCH  15  16
ATOM     16  C   UNL     1     -16.997   8.311  31.605  1.00  0.00    -0.000 C 
BRANCH  16  17
ATOM     17  C   UNL     1     -16.481   9.313  32.645  1.00  0.00    -0.003 C 
ATOM     18  C   UNL     1     -14.968   9.201  32.815  1.00  0.00     0.004 C 
ENDBRANCH  16  17
ENDBRANCH  15  16
ENDBRANCH  14  15
ENDBRANCH  13  14
ENDBRANCH  12  13
ENDBRANCH  11  12
ENDBRANCH   1  11
TORSDOF 14
ENDMDL
MODEL 5
REMARK VINA RESULT:    -4.107      3.100      5.383
REMARK INTER + INTRA:          -9.951
REMARK INTER:                  -7.280
REMARK INTRA:                  -2.671
REMARK UNBOUND:                -2.483
REMARK SMILES CCCCCCCCCCCCCCCC(=O)[O-]
REMARK SMILES IDX 9 1 10 2 11 3 12 4 13 5 14 6 15 7 16 8 17 9 18 10 8 11 7 12
REMARK SMILES IDX 6 13 5 14 4 15 3 16 2 17 1 18
REMARK H PARENT
REMARK Flexibility Score: inf
ROOT
ATOM      1  C   UNL     1     -14.330  11.314  28.539  1.00  0.00     0.000 C 
ENDROOT
BRANCH   1   2
ATOM      2  C   UNL     1     -14.803  11.504  29.990  1.00  0.00     0.000 C 
BRANCH   2   3
ATOM      3  C   UNL     1     -15.333  10.206  30.617  1.00  0.00     0.000 C 
BRANCH   3   4
ATOM      4  C   UNL     1     -14.649   9.926  31.960  1.00  0.00     0.000 C 
BRANCH   4   5
ATOM      5  C   UNL     1     -14.072   8.506  31.999  1.00  0.00     0.000 C 
BRANCH   5   6
ATOM      6  C   UNL     1     -14.486   7.709  30.756  1.00  0.00     0.006 C 
BRANCH   6   7
ATOM      7  C   UNL     1     -15.044   6.337  31.144  1.00  0.00     0.053 C 
BRANCH   7   8
ATOM      8  C   UNL     1     -16.476   6.217  30.726  1.00  0.00     0.041 C 
ATOM      9  O   UNL     1     -16.854   5.233  30.037  1.00  0.00    -0.550 OA
ATOM     10  O   UNL     1     -17.402   7.166  31.139  1.00  0.00    -0.550 OA
ENDBRANCH   7   8
ENDBRANCH   6   7
ENDBRANCH   5   6
ENDBRANCH   4   5
ENDBRANCH   3   4
ENDBRANCH   2   3
ENDBRANCH   1   2
BRANCH   1  11
ATOM     11  C   UNL     1     -13.251  10.225  28.408  1.00  0.00     0.000 C 
BRANCH  11  12
ATOM     12  C   UNL     1     -13.518   9.272  27.231  1.00  0.00    -0.000 C 
BRANCH  12  13
ATOM     13  C   UNL     1     -14.981   9.318  26.756  1.00  0.00    -0.000 C 
BRANCH  13  14
ATOM     14  C   UNL     1     -15.838   8.182  27.345  1.00  0.00    -0.000 C 
BRANCH  14  15
ATOM     15  C   UNL     1     -17.212   8.615  27.888  1.00  0.00    -0.000 C 
BRANCH  15  16
ATOM     16  C   UNL     1     -17.722   9.920  27.259  1.00  0.00    -0.000 C 
BRANCH  16  17
ATOM     17  C   UNL     1     -18.085  10.945  28.340  1.00  0.00    -0.003 C 
ATOM     18  C   UNL     1     -17.960  12.371  27.811  1.00  0.00     0.004 C 
ENDBRANCH  16  17
ENDBRANCH  15  16
ENDBRANCH  14  15
ENDBRANCH  13  14
ENDBRANCH  12  13
ENDBRANCH  11  12
ENDBRANCH   1  11
TORSDOF 14
ENDMDL
MODEL 6
REMARK VINA RESULT:    -4.086     16.092     18.141
REMARK INTER + INTRA:          -9.913
REMARK INTER:                  -8.661
REMARK INTRA:                  -1.252
REMARK UNBOUND:                -2.483
REMARK SMILES CCCCCCCCCCCCCCCC(=O)[O-]
REMARK SMILES IDX 9 1 10 2 11 3 12 4 13 5 14 6 15 7 16 8 17 9 18 10 8 11 7 12
REMARK SMILES IDX 6 13 5 14 4 15 3 16 2 17 1 18
REMARK H PARENT
REMARK Flexibility Score: inf
ROOT
ATOM      1  C   UNL     1     -16.616  -4.656  22.496  1.00  0.00     0.000 C 
ENDROOT
BRANCH   1   2
ATOM      2  C   UNL     1     -18.089  -4.470  22.098  1.00  0.00     0.000 C 
BRANCH   2   3
ATOM      3  C   UNL     1     -18.831  -5.804  21.929  1.00  0.00     0.000 C 
BRANCH   3   4
ATOM      4  C   UNL     1     -19.981  -5.924  22.938  1.00  0.00     0.000 C 
BRANCH   4   5
ATOM      5  C   UNL     1     -20.242  -4.584  23.637  1.00  0.00     0.000 C 
BRANCH   5   6
ATOM      6  C   UNL     1     -21.467  -4.673  24.556  1.00  0.00     0.006 C 
BRANCH   6   7
ATOM      7  C   UNL     1     -21.919  -6.125  24.730  1.00  0.00     0.053 C 
BRANCH   7   8
ATOM      8  C   UNL     1     -22.802  -6.259  25.931  1.00  0.00     0.041 C 
ATOM      9  O   UNL     1     -22.591  -5.554  26.953  1.00  0.00    -0.550 OA
ATOM     10  O   UNL     1     -23.887  -7.125  25.903  1.00  0.00    -0.550 OA
ENDBRANCH   7   8
ENDBRANCH   6   7
ENDBRANCH   5   6
ENDBRANCH   4   5
ENDBRANCH   3   4
ENDBRANCH   2   3
ENDBRANCH   1   2
BRANCH   1  11
ATOM     11  C   UNL     1     -16.176  -6.130  22.464  1.00  0.00     0.000 C 
BRANCH  11  12
ATOM     12  C   UNL     1     -15.074  -6.392  21.425  1.00  0.00    -0.000 C 
BRANCH  12  13
ATOM     13  C   UNL     1     -15.643  -6.718  20.033  1.00  0.00    -0.000 C 
BRANCH  13  14
ATOM     14  C   UNL     1     -15.219  -5.698  18.959  1.00  0.00    -0.000 C 
BRANCH  14  15
ATOM     15  C   UNL     1     -16.261  -4.608  18.647  1.00  0.00    -0.000 C 
BRANCH  15  16
ATOM     16  C   UNL     1     -16.490  -4.411  17.141  1.00  0.00    -0.000 C 
BRANCH  16  17
ATOM     17  C   UNL     1     -15.252  -3.801  16.473  1.00  0.00    -0.003 C 
ATOM     18  C   UNL     1     -14.714  -4.712  15.373  1.00  0.00     0.004 C 
ENDBRANCH  16  17
ENDBRANCH  15  16
ENDBRANCH  14  15
ENDBRANCH  13  14
ENDBRANCH  12  13
ENDBRANCH  11  12
ENDBRANCH   1  11
TORSDOF 14
ENDMDL
MODEL 7
REMARK VINA RESULT:    -4.085     14.875     16.674
REMARK INTER + INTRA:          -9.912
REMARK INTER:                  -7.979
REMARK INTRA:                  -1.933
REMARK UNBOUND:                -2.483
REMARK SMILES CCCCCCCCCCCCCCCC(=O)[O-]
REMARK SMILES IDX 9 1 10 2 11 3 12 4 13 5 14 6 15 7 16 8 17 9 18 10 8 11 7 12
REMARK SMILES IDX 6 13 5 14 4 15 3 16 2 17 1 18
REMARK H PARENT
REMARK Flexibility Score: inf
ROOT
ATOM      1  C   UNL     1     -17.185  -3.805  22.529  1.00  0.00     0.000 C 
ENDROOT
BRANCH   1   2
ATOM      2  C   UNL     1     -16.355  -2.831  21.676  1.00  0.00     0.000 C 
BRANCH   2   3
ATOM      3  C   UNL     1     -16.486  -3.101  20.170  1.00  0.00     0.000 C 
BRANCH   3   4
ATOM      4  C   UNL     1     -15.124  -2.997  19.473  1.00  0.00     0.000 C 
BRANCH   4   5
ATOM      5  C   UNL     1     -15.267  -2.389  18.072  1.00  0.00     0.000 C 
BRANCH   5   6
ATOM      6  C   UNL     1     -14.827  -0.920  18.062  1.00  0.00     0.006 C 
BRANCH   6   7
ATOM      7  C   UNL     1     -16.025   0.010  17.854  1.00  0.00     0.053 C 
BRANCH   7   8
ATOM      8  C   UNL     1     -15.987   0.614  16.486  1.00  0.00     0.041 C 
ATOM      9  O   UNL     1     -15.031   0.359  15.707  1.00  0.00    -0.550 OA
ATOM     10  O   UNL     1     -17.032   1.420  16.052  1.00  0.00    -0.550 OA
ENDBRANCH   7   8
ENDBRANCH   6   7
ENDBRANCH   5   6
ENDBRANCH   4   5
ENDBRANCH   3   4
ENDBRANCH   2   3
ENDBRANCH   1   2
BRANCH   1  11
ATOM     11  C   UNL     1     -17.160  -5.241  21.978  1.00  0.00     0.000 C 
BRANCH  11  12
ATOM     12  C   UNL     1     -15.911  -6.020  22.422  1.00  0.00    -0.000 C 
BRANCH  12  13
ATOM     13  C   UNL     1     -15.006  -6.407  21.239  1.00  0.00    -0.000 C 
BRANCH  13  14
ATOM     14  C   UNL     1     -15.801  -6.745  19.963  1.00  0.00    -0.000 C 
BRANCH  14  15
ATOM     15  C   UNL     1     -15.005  -6.633  18.650  1.00  0.00    -0.000 C 
BRANCH  15  16
ATOM     16  C   UNL     1     -15.896  -6.350  17.431  1.00  0.00    -0.000 C 
BRANCH  16  17
ATOM     17  C   UNL     1     -15.111  -5.616  16.336  1.00  0.00    -0.003 C 
ATOM     18  C   UNL     1     -13.637  -5.485  16.710  1.00  0.00     0.004 C 
ENDBRANCH  16  17
ENDBRANCH  15  16
ENDBRANCH  14  15
ENDBRANCH  13  14
ENDBRANCH  12  13
ENDBRANCH  11  12
ENDBRANCH   1  11
TORSDOF 14
ENDMDL
MODEL 8
REMARK VINA RESULT:    -4.079     15.014     16.680
REMARK INTER + INTRA:          -9.901
REMARK INTER:                  -7.936
REMARK INTRA:                  -1.964
REMARK UNBOUND:                -2.483
REMARK SMILES CCCCCCCCCCCCCCCC(=O)[O-]
REMARK SMILES IDX 9 1 10 2 11 3 12 4 13 5 14 6 15 7 16 8 17 9 18 10 8 11 7 12
REMARK SMILES IDX 6 13 5 14 4 15 3 16 2 17 1 18
REMARK H PARENT
REMARK Flexibility Score: inf
ROOT
ATOM      1  C   UNL     1     -16.977  -6.013  18.338  1.00  0.00     0.000 C 
ENDROOT
BRANCH   1   2
ATOM      2  C   UNL     1     -16.912  -5.366  16.945  1.00  0.00     0.000 C 
BRANCH   2   3
ATOM      3  C   UNL     1     -15.509  -5.431  16.324  1.00  0.00     0.000 C 
BRANCH   3   4
ATOM      4  C   UNL     1     -14.950  -4.023  16.083  1.00  0.00     0.000 C 
BRANCH   4   5
ATOM      5  C   UNL     1     -13.960  -3.627  17.186  1.00  0.00     0.000 C 
BRANCH   5   6
ATOM      6  C   UNL     1     -14.431  -2.365  17.921  1.00  0.00     0.006 C 
BRANCH   6   7
ATOM      7  C   UNL     1     -15.082  -1.376  16.951  1.00  0.00     0.053 C 
BRANCH   7   8
ATOM      8  C   UNL     1     -14.856   0.031  17.409  1.00  0.00     0.041 C 
ATOM      9  O   UNL     1     -14.916   0.315  18.634  1.00  0.00    -0.550 OA
ATOM     10  O   UNL     1     -14.531   1.018  16.488  1.00  0.00    -0.550 OA
ENDBRANCH   7   8
ENDBRANCH   6   7
ENDBRANCH   5   6
ENDBRANCH   4   5
ENDBRANCH   3   4
ENDBRANCH   2   3
ENDBRANCH   1   2
BRANCH   1  11
ATOM     11  C   UNL     1     -15.606  -6.518  18.819  1.00  0.00     0.000 C 
BRANCH  11  12
ATOM     12  C   UNL     1     -15.107  -5.766  20.064  1.00  0.00    -0.000 C 
BRANCH  12  13
ATOM     13  C   UNL     1     -15.111  -6.647  21.325  1.00  0.00    -0.000 C 
BRANCH  13  14
ATOM     14  C   UNL     1     -16.050  -6.114  22.425  1.00  0.00    -0.000 C 
BRANCH  14  15
ATOM     15  C   UNL     1     -17.007  -4.993  21.978  1.00  0.00    -0.000 C 
BRANCH  15  16
ATOM     16  C   UNL     1     -16.722  -3.651  22.668  1.00  0.00    -0.000 C 
BRANCH  16  17
ATOM     17  C   UNL     1     -16.670  -2.508  21.646  1.00  0.00    -0.003 C 
ATOM     18  C   UNL     1     -17.331  -2.915  20.332  1.00  0.00     0.004 C 
ENDBRANCH  16  17
ENDBRANCH  15  16
ENDBRANCH  14  15
ENDBRANCH  13  14
ENDBRANCH  12  13
ENDBRANCH  11  12
ENDBRANCH   1  11
TORSDOF 14
ENDMDL
MODEL 9
REMARK VINA RESULT:    -4.067      4.916      6.322
REMARK INTER + INTRA:          -9.878
REMARK INTER:                  -8.078
REMARK INTRA:                  -1.800
REMARK UNBOUND:                -2.483
REMARK SMILES CCCCCCCCCCCCCCCC(=O)[O-]
REMARK SMILES IDX 9 1 10 2 11 3 12 4 13 5 14 6 15 7 16 8 17 9 18 10 8 11 7 12
REMARK SMILES IDX 6 13 5 14 4 15 3 16 2 17 1 18
REMARK H PARENT
REMARK Flexibility Score: inf
ROOT
ATOM      1  C   UNL     1     -14.683   8.230  28.612  1.00  0.00     0.000 C 
ENDROOT
BRANCH   1   2
ATOM      2  C   UNL     1     -13.967   6.887  28.833  1.00  0.00     0.000 C 
BRANCH   2   3
ATOM      3  C   UNL     1     -14.704   5.978  29.826  1.00  0.00     0.000 C 
BRANCH   3   4
ATOM      4  C   UNL     1     -14.885   4.568  29.250  1.00  0.00     0.000 C 
BRANCH   4   5
ATOM      5  C   UNL     1     -13.621   4.108  28.513  1.00  0.00     0.000 C 
BRANCH   5   6
ATOM      6  C   UNL     1     -13.502   2.579  28.524  1.00  0.00     0.006 C 
BRANCH   6   7
ATOM      7  C   UNL     1     -14.867   1.924  28.756  1.00  0.00     0.053 C 
BRANCH   7   8
ATOM      8  C   UNL     1     -14.759   0.841  29.783  1.00  0.00     0.041 C 
ATOM      9  O   UNL     1     -14.719  -0.367  29.427  1.00  0.00    -0.550 OA
ATOM     10  O   UNL     1     -14.655   1.167  31.129  1.00  0.00    -0.550 OA
ENDBRANCH   7   8
ENDBRANCH   6   7
ENDBRANCH   5   6
ENDBRANCH   4   5
ENDBRANCH   3   4
ENDBRANCH   2   3
ENDBRANCH   1   2
BRANCH   1  11
ATOM     11  C   UNL     1     -13.969   9.401  29.309  1.00  0.00     0.000 C 
BRANCH  11  12
ATOM     12  C   UNL     1     -14.937  10.530  29.699  1.00  0.00    -0.000 C 
BRANCH  12  13
ATOM     13  C   UNL     1     -15.008  10.746  31.221  1.00  0.00    -0.000 C 
BRANCH  13  14
ATOM     14  C   UNL     1     -14.379   9.588  32.020  1.00  0.00    -0.000 C 
BRANCH  14  15
ATOM     15  C   UNL     1     -15.386   8.650  32.711  1.00  0.00    -0.000 C 
BRANCH  15  16
ATOM     16  C   UNL     1     -16.845   8.972  32.359  1.00  0.00    -0.000 C 
BRANCH  16  17
ATOM     17  C   UNL     1     -17.392   7.981  31.324  1.00  0.00    -0.003 C 
ATOM     18  C   UNL     1     -18.135   8.707  30.205  1.00  0.00     0.004 C 
ENDBRANCH  16  17
ENDBRANCH  15  16
ENDBRANCH  14  15
ENDBRANCH  13  14
ENDBRANCH  12  13
ENDBRANCH  11  12
ENDBRANCH   1  11
TORSDOF 14
ENDMDL
