MODEL 1
REMARK VINA RESULT:    -4.738      0.000      0.000
REMARK INTER + INTRA:         -10.821
REMARK INTER:                  -9.170
REMARK INTRA:                  -1.651
REMARK UNBOUND:                -1.651
REMARK SMILES CCCCCCCCCCCCCCCCCC(=O)[O-]
REMARK SMILES IDX 10 1 11 2 12 3 13 4 14 5 15 6 16 7 17 8 18 9 19 10 20 11
REMARK SMILES IDX 9 12 8 13 7 14 6 15 5 16 4 17 3 18 2 19 1 20
REMARK H PARENT
REMARK Flexibility Score: inf
ROOT
ATOM      1  C   UNL     1      -8.171  -4.110  -9.674  1.00  0.00     0.000 C 
ENDROOT
BRANCH   1   2
ATOM      2  C   UNL     1      -9.620  -4.554  -9.934  1.00  0.00     0.000 C 
BRANCH   2   3
ATOM      3  C   UNL     1     -10.349  -4.992  -8.652  1.00  0.00     0.000 C 
BRANCH   3   4
ATOM      4  C   UNL     1     -10.982  -3.821  -7.869  1.00  0.00     0.000 C 
BRANCH   4   5
ATOM      5  C   UNL     1     -10.398  -3.686  -6.452  1.00  0.00     0.000 C 
BRANCH   5   6
ATOM      6  C   UNL     1     -10.566  -4.978  -5.622  1.00  0.00     0.000 C 
BRANCH   6   7
ATOM      7  C   UNL     1     -10.166  -4.816  -4.143  1.00  0.00     0.006 C 
BRANCH   7   8
ATOM      8  C   UNL     1      -9.125  -3.715  -3.894  1.00  0.00     0.053 C 
BRANCH   8   9
ATOM      9  C   UNL     1      -8.926  -3.457  -2.431  1.00  0.00     0.041 C 
ATOM     10  O   UNL     1      -8.481  -4.365  -1.681  1.00  0.00    -0.550 OA
ATOM     11  O   UNL     1      -9.213  -2.206  -1.901  1.00  0.00    -0.550 OA
ENDBRANCH   8   9
ENDBRANCH   7   8
ENDBRANCH   6   7
ENDBRANCH   5   6
ENDBRANCH   4   5
ENDBRANCH   3   4
ENDBRANCH   2   3
ENDBRANCH   1   2
BRANCH   1  12
ATOM     12  C   UNL     1      -7.295  -5.248  -9.125  1.00  0.00     0.000 C 
BRANCH  12  13
ATOM     13  C   UNL     1      -6.772  -4.956  -7.707  1.00  0.00    -0.000 C 
BRANCH  13  14
ATOM     14  C   UNL     1      -7.227  -6.004  -6.676  1.00  0.00    -0.000 C 
BRANCH  14  15
ATOM     15  C   UNL     1      -6.223  -6.280  -5.539  1.00  0.00    -0.000 C 
BRANCH  15  16
ATOM     16  C   UNL     1      -4.848  -6.810  -5.993  1.00  0.00    -0.000 C 
BRANCH  16  17
ATOM     17  C   UNL     1      -3.673  -5.840  -5.769  1.00  0.00    -0.000 C 
BRANCH  17  18
ATOM     18  C   UNL     1      -4.067  -4.370  -5.975  1.00  0.00    -0.000 C 
BRANCH  18  19
ATOM     19  C   UNL     1      -2.910  -3.435  -5.603  1.00  0.00    -0.003 C 
ATOM     20  C   UNL     1      -3.233  -1.988  -5.963  1.00  0.00     0.004 C 
ENDBRANCH  18  19
ENDBRANCH  17  18
ENDBRANCH  16  17
ENDBRANCH  15  16
ENDBRANCH  14  15
ENDBRANCH  13  14
ENDBRANCH  12  13
ENDBRANCH   1  12
TORSDOF 16
ENDMDL
MODEL 2
REMARK VINA RESULT:    -4.716      1.194      1.833
REMARK INTER + INTRA:         -10.779
REMARK INTER:                  -9.049
REMARK INTRA:                  -1.730
REMARK UNBOUND:                -1.651
REMARK SMILES CCCCCCCCCCCCCCCCCC(=O)[O-]
REMARK SMILES IDX 10 1 11 2 12 3 13 4 14 5 15 6 16 7 17 8 18 9 19 10 20 11
REMARK SMILES IDX 9 12 8 13 7 14 6 15 5 16 4 17 3 18 2 19 1 20
REMARK H PARENT
REMARK Flexibility Score: inf
ROOT
ATOM      1  C   UNL     1      -8.453  -5.077  -7.327  1.00  0.00     0.000 C 
ENDROOT
BRANCH   1   2
ATOM      2  C   UNL     1      -9.854  -5.130  -7.960  1.00  0.00     0.000 C 
BRANCH   2   3
ATOM      3  C   UNL     1     -10.960  -5.435  -6.936  1.00  0.00     0.000 C 
BRANCH   3   4
ATOM      4  C   UNL     1     -10.431  -6.009  -5.604  1.00  0.00     0.000 C 
BRANCH   4   5
ATOM      5  C   UNL     1     -11.055  -5.312  -4.382  1.00  0.00     0.000 C 
BRANCH   5   6
ATOM      6  C   UNL     1     -10.834  -3.783  -4.402  1.00  0.00     0.000 C 
BRANCH   6   7
ATOM      7  C   UNL     1      -9.381  -3.367  -4.100  1.00  0.00     0.006 C 
BRANCH   7   8
ATOM      8  C   UNL     1      -8.845  -3.893  -2.761  1.00  0.00     0.053 C 
BRANCH   8   9
ATOM      9  C   UNL     1      -9.199  -2.985  -1.624  1.00  0.00     0.041 C 
ATOM     10  O   UNL     1      -8.765  -1.803  -1.596  1.00  0.00    -0.550 OA
ATOM     11  O   UNL     1     -10.026  -3.437  -0.605  1.00  0.00    -0.550 OA
ENDBRANCH   8   9
ENDBRANCH   7   8
ENDBRANCH   6   7
ENDBRANCH   5   6
ENDBRANCH   4   5
ENDBRANCH   3   4
ENDBRANCH   2   3
ENDBRANCH   1   2
BRANCH   1  12
ATOM     12  C   UNL     1      -7.397  -4.497  -8.281  1.00  0.00     0.000 C 
BRANCH  12  13
ATOM     13  C   UNL     1      -6.862  -5.545  -9.273  1.00  0.00    -0.000 C 
BRANCH  13  14
ATOM     14  C   UNL     1      -6.432  -6.852  -8.584  1.00  0.00    -0.000 C 
BRANCH  14  15
ATOM     15  C   UNL     1      -5.052  -6.806  -7.900  1.00  0.00    -0.000 C 
BRANCH  15  16
ATOM     16  C   UNL     1      -5.085  -6.753  -6.359  1.00  0.00    -0.000 C 
BRANCH  16  17
ATOM     17  C   UNL     1      -4.037  -5.823  -5.720  1.00  0.00    -0.000 C 
BRANCH  17  18
ATOM     18  C   UNL     1      -4.285  -4.340  -6.033  1.00  0.00    -0.000 C 
BRANCH  18  19
ATOM     19  C   UNL     1      -3.067  -3.489  -5.658  1.00  0.00    -0.003 C 
ATOM     20  C   UNL     1      -3.287  -2.022  -6.017  1.00  0.00     0.004 C 
ENDBRANCH  18  19
ENDBRANCH  17  18
ENDBRANCH  16  17
ENDBRANCH  15  16
ENDBRANCH  14  15
ENDBRANCH  13  14
ENDBRANCH  12  13
ENDBRANCH   1  12
TORSDOF 16
ENDMDL
MODEL 3
REMARK VINA RESULT:    -4.575      1.839      2.827
REMARK INTER + INTRA:         -10.506
REMARK INTER:                  -9.024
REMARK INTRA:                  -1.482
REMARK UNBOUND:                -1.651
REMARK SMILES CCCCCCCCCCCCCCCCCC(=O)[O-]
REMARK SMILES IDX 10 1 11 2 12 3 13 4 14 5 15 6 16 7 17 8 18 9 19 10 20 11
REMARK SMILES IDX 9 12 8 13 7 14 6 15 5 16 4 17 3 18 2 19 1 20
REMARK H PARENT
REMARK Flexibility Score: inf
ROOT
ATOM      1  C   UNL     1      -8.238  -4.613  -5.335  1.00  0.00     0.000 C 
ENDROOT
BRANCH   1   2
ATOM      2  C   UNL     1      -9.654  -4.168  -5.736  1.00  0.00     0.000 C 
BRANCH   2   3
ATOM      3  C   UNL     1     -10.746  -5.120  -5.218  1.00  0.00     0.000 C 
BRANCH   3   4
ATOM      4  C   UNL     1     -11.111  -4.898  -3.734  1.00  0.00     0.000 C 
BRANCH   4   5
ATOM      5  C   UNL     1     -11.030  -3.415  -3.332  1.00  0.00     0.000 C 
BRANCH   5   6
ATOM      6  C   UNL     1     -11.080  -3.218  -1.801  1.00  0.00     0.000 C 
BRANCH   6   7
ATOM      7  C   UNL     1      -9.732  -3.482  -1.102  1.00  0.00     0.006 C 
BRANCH   7   8
ATOM      8  C   UNL     1      -8.506  -3.222  -1.990  1.00  0.00     0.053 C 
BRANCH   8   9
ATOM      9  C   UNL     1      -8.030  -1.806  -1.882  1.00  0.00     0.041 C 
ATOM     10  O   UNL     1      -8.497  -1.045  -0.993  1.00  0.00    -0.550 OA
ATOM     11  O   UNL     1      -7.055  -1.333  -2.749  1.00  0.00    -0.550 OA
ENDBRANCH   8   9
ENDBRANCH   7   8
ENDBRANCH   6   7
ENDBRANCH   5   6
ENDBRANCH   4   5
ENDBRANCH   3   4
ENDBRANCH   2   3
ENDBRANCH   1   2
BRANCH   1  12
ATOM     12  C   UNL     1      -7.866  -5.988  -5.913  1.00  0.00     0.000 C 
BRANCH  12  13
ATOM     13  C   UNL     1      -7.566  -5.931  -7.421  1.00  0.00    -0.000 C 
BRANCH  13  14
ATOM     14  C   UNL     1      -6.057  -5.931  -7.729  1.00  0.00    -0.000 C 
BRANCH  14  15
ATOM     15  C   UNL     1      -5.187  -6.717  -6.729  1.00  0.00    -0.000 C 
BRANCH  15  16
ATOM     16  C   UNL     1      -4.200  -5.865  -5.906  1.00  0.00    -0.000 C 
BRANCH  16  17
ATOM     17  C   UNL     1      -4.402  -4.343  -6.025  1.00  0.00    -0.000 C 
BRANCH  17  18
ATOM     18  C   UNL     1      -3.143  -3.544  -5.660  1.00  0.00    -0.000 C 
BRANCH  18  19
ATOM     19  C   UNL     1      -3.237  -2.105  -6.180  1.00  0.00    -0.003 C 
ATOM     20  C   UNL     1      -2.871  -1.100  -5.092  1.00  0.00     0.004 C 
ENDBRANCH  18  19
ENDBRANCH  17  18
ENDBRANCH  16  17
ENDBRANCH  15  16
ENDBRANCH  14  15
ENDBRANCH  13  14
ENDBRANCH  12  13
ENDBRANCH   1  12
TORSDOF 16
ENDMDL
MODEL 4
REMARK VINA RESULT:    -4.569      2.721      5.800
REMARK INTER + INTRA:         -10.493
REMARK INTER:                  -8.974
REMARK INTRA:                  -1.519
REMARK UNBOUND:                -1.651
REMARK SMILES CCCCCCCCCCCCCCCCCC(=O)[O-]
REMARK SMILES IDX 10 1 11 2 12 3 13 4 14 5 15 6 16 7 17 8 18 9 19 10 20 11
REMARK SMILES IDX 9 12 8 13 7 14 6 15 5 16 4 17 3 18 2 19 1 20
REMARK H PARENT
REMARK Flexibility Score: inf
ROOT
ATOM      1  C   UNL     1      -9.303  -4.377  -5.157  1.00  0.00     0.000 C 
ENDROOT
BRANCH   1   2
ATOM      2  C   UNL     1      -9.870  -5.759  -5.521  1.00  0.00     0.000 C 
BRANCH   2   3
ATOM      3  C   UNL     1     -10.222  -5.885  -7.013  1.00  0.00     0.000 C 
BRANCH   3   4
ATOM      4  C   UNL     1      -9.611  -4.771  -7.891  1.00  0.00     0.000 C 
BRANCH   4   5
ATOM      5  C   UNL     1      -8.568  -5.317  -8.881  1.00  0.00     0.000 C 
BRANCH   5   6
ATOM      6  C   UNL     1      -7.177  -4.675  -8.682  1.00  0.00     0.000 C 
BRANCH   6   7
ATOM      7  C   UNL     1      -6.179  -5.586  -7.942  1.00  0.00     0.006 C 
BRANCH   7   8
ATOM      8  C   UNL     1      -6.004  -5.245  -6.455  1.00  0.00     0.053 C 
BRANCH   8   9
ATOM      9  C   UNL     1      -5.772  -6.472  -5.626  1.00  0.00     0.041 C 
ATOM     10  O   UNL     1      -6.577  -6.780  -4.708  1.00  0.00    -0.550 OA
ATOM     11  O   UNL     1      -4.677  -7.286  -5.882  1.00  0.00    -0.550 OA
ENDBRANCH   8   9
ENDBRANCH   7   8
ENDBRANCH   6   7
ENDBRANCH   5   6
ENDBRANCH   4   5
ENDBRANCH   3   4
ENDBRANCH   2   3
ENDBRANCH   1   2
BRANCH   1  12
ATOM     12  C   UNL     1     -10.335  -3.485  -4.448  1.00  0.00     0.000 C 
BRANCH  12  13
ATOM     13  C   UNL     1     -10.885  -4.130  -3.164  1.00  0.00    -0.000 C 
BRANCH  13  14
ATOM     14  C   UNL     1     -11.018  -3.127  -2.003  1.00  0.00    -0.000 C 
BRANCH  14  15
ATOM     15  C   UNL     1      -9.822  -3.089  -1.032  1.00  0.00    -0.000 C 
BRANCH  15  16
ATOM     16  C   UNL     1      -8.435  -3.212  -1.694  1.00  0.00    -0.000 C 
BRANCH  16  17
ATOM     17  C   UNL     1      -7.650  -1.892  -1.805  1.00  0.00    -0.000 C 
BRANCH  17  18
ATOM     18  C   UNL     1      -8.315  -0.737  -1.041  1.00  0.00    -0.000 C 
BRANCH  18  19
ATOM     19  C   UNL     1      -7.527   0.565  -1.223  1.00  0.00    -0.003 C 
ATOM     20  C   UNL     1      -8.328   1.767  -0.730  1.00  0.00     0.004 C 
ENDBRANCH  18  19
ENDBRANCH  17  18
ENDBRANCH  16  17
ENDBRANCH  15  16
ENDBRANCH  14  15
ENDBRANCH  13  14
ENDBRANCH  12  13
ENDBRANCH   1  12
TORSDOF 16
ENDMDL
MODEL 5
REMARK VINA RESULT:    -4.448      2.599      6.086
REMARK INTER + INTRA:         -10.260
REMARK INTER:                  -8.574
REMARK INTRA:                  -1.686
REMARK UNBOUND:                -1.651
REMARK SMILES CCCCCCCCCCCCCCCCCC(=O)[O-]
REMARK SMILES IDX 10 1 11 2 12 3 13 4 14 5 15 6 16 7 17 8 18 9 19 10 20 11
REMARK SMILES IDX 9 12 8 13 7 14 6 15 5 16 4 17 3 18 2 19 1 20
REMARK H PARENT
REMARK Flexibility Score: inf
ROOT
ATOM      1  C   UNL     1      -7.328  -4.919  -7.489  1.00  0.00     0.000 C 
ENDROOT
BRANCH   1   2
ATOM      2  C   UNL     1      -6.302  -5.521  -8.463  1.00  0.00     0.000 C 
BRANCH   2   3
ATOM      3  C   UNL     1      -5.521  -6.699  -7.856  1.00  0.00     0.000 C 
BRANCH   3   4
ATOM      4  C   UNL     1      -5.963  -7.061  -6.421  1.00  0.00     0.000 C 
BRANCH   4   5
ATOM      5  C   UNL     1      -4.981  -6.534  -5.360  1.00  0.00     0.000 C 
BRANCH   5   6
ATOM      6  C   UNL     1      -3.593  -6.207  -5.956  1.00  0.00     0.000 C 
BRANCH   6   7
ATOM      7  C   UNL     1      -3.103  -4.784  -5.628  1.00  0.00     0.006 C 
BRANCH   7   8
ATOM      8  C   UNL     1      -4.111  -3.679  -5.974  1.00  0.00     0.053 C 
BRANCH   8   9
ATOM      9  C   UNL     1      -3.504  -2.315  -5.860  1.00  0.00     0.041 C 
ATOM     10  O   UNL     1      -3.276  -1.632  -6.894  1.00  0.00    -0.550 OA
ATOM     11  O   UNL     1      -3.209  -1.788  -4.610  1.00  0.00    -0.550 OA
ENDBRANCH   8   9
ENDBRANCH   7   8
ENDBRANCH   6   7
ENDBRANCH   5   6
ENDBRANCH   4   5
ENDBRANCH   3   4
ENDBRANCH   2   3
ENDBRANCH   1   2
BRANCH   1  12
ATOM     12  C   UNL     1      -8.725  -4.780  -8.115  1.00  0.00     0.000 C 
BRANCH  12  13
ATOM     13  C   UNL     1      -9.798  -5.562  -7.338  1.00  0.00    -0.000 C 
BRANCH  13  14
ATOM     14  C   UNL     1      -9.465  -5.707  -5.842  1.00  0.00    -0.000 C 
BRANCH  14  15
ATOM     15  C   UNL     1     -10.652  -5.488  -4.884  1.00  0.00    -0.000 C 
BRANCH  15  16
ATOM     16  C   UNL     1     -10.615  -4.170  -4.084  1.00  0.00    -0.000 C 
BRANCH  16  17
ATOM     17  C   UNL     1      -9.230  -3.786  -3.530  1.00  0.00    -0.000 C 
BRANCH  17  18
ATOM     18  C   UNL     1      -9.240  -3.543  -2.015  1.00  0.00    -0.000 C 
BRANCH  18  19
ATOM     19  C   UNL     1     -10.675  -3.453  -1.483  1.00  0.00    -0.003 C 
ATOM     20  C   UNL     1     -10.698  -3.442   0.043  1.00  0.00     0.004 C 
ENDBRANCH  18  19
ENDBRANCH  17  18
ENDBRANCH  16  17
ENDBRANCH  15  16
ENDBRANCH  14  15
ENDBRANCH  13  14
ENDBRANCH  12  13
ENDBRANCH   1  12
TORSDOF 16
ENDMDL
MODEL 6
REMARK VINA RESULT:    -4.443      2.726      5.961
REMARK INTER + INTRA:         -10.250
REMARK INTER:                  -8.674
REMARK INTRA:                  -1.576
REMARK UNBOUND:                -1.651
REMARK SMILES CCCCCCCCCCCCCCCCCC(=O)[O-]
REMARK SMILES IDX 10 1 11 2 12 3 13 4 14 5 15 6 16 7 17 8 18 9 19 10 20 11
REMARK SMILES IDX 9 12 8 13 7 14 6 15 5 16 4 17 3 18 2 19 1 20
REMARK H PARENT
REMARK Flexibility Score: inf
ROOT
ATOM      1  C   UNL     1      -8.397  -5.508  -5.981  1.00  0.00     0.000 C 
ENDROOT
BRANCH   1   2
ATOM      2  C   UNL     1      -8.741  -5.029  -7.402  1.00  0.00     0.000 C 
BRANCH   2   3
ATOM      3  C   UNL     1      -7.524  -5.030  -8.343  1.00  0.00     0.000 C 
BRANCH   3   4
ATOM      4  C   UNL     1      -7.140  -6.435  -8.857  1.00  0.00     0.000 C 
BRANCH   4   5
ATOM      5  C   UNL     1      -5.690  -6.808  -8.500  1.00  0.00     0.000 C 
BRANCH   5   6
ATOM      6  C   UNL     1      -5.463  -6.887  -6.974  1.00  0.00     0.000 C 
BRANCH   6   7
ATOM      7  C   UNL     1      -4.198  -6.146  -6.501  1.00  0.00     0.006 C 
BRANCH   7   8
ATOM      8  C   UNL     1      -4.477  -4.782  -5.852  1.00  0.00     0.053 C 
BRANCH   8   9
ATOM      9  C   UNL     1      -3.233  -3.955  -5.739  1.00  0.00     0.041 C 
ATOM     10  O   UNL     1      -3.271  -2.717  -5.970  1.00  0.00    -0.550 OA
ATOM     11  O   UNL     1      -2.038  -4.547  -5.356  1.00  0.00    -0.550 OA
ENDBRANCH   8   9
ENDBRANCH   7   8
ENDBRANCH   6   7
ENDBRANCH   5   6
ENDBRANCH   4   5
ENDBRANCH   3   4
ENDBRANCH   2   3
ENDBRANCH   1   2
BRANCH   1  12
ATOM     12  C   UNL     1      -8.974  -4.588  -4.893  1.00  0.00     0.000 C 
BRANCH  12  13
ATOM     13  C   UNL     1      -9.933  -3.530  -5.467  1.00  0.00    -0.000 C 
BRANCH  13  14
ATOM     14  C   UNL     1     -11.122  -3.236  -4.535  1.00  0.00    -0.000 C 
BRANCH  14  15
ATOM     15  C   UNL     1     -11.056  -3.919  -3.155  1.00  0.00    -0.000 C 
BRANCH  15  16
ATOM     16  C   UNL     1     -10.940  -2.960  -1.952  1.00  0.00    -0.000 C 
BRANCH  16  17
ATOM     17  C   UNL     1      -9.942  -3.401  -0.866  1.00  0.00    -0.000 C 
BRANCH  17  18
ATOM     18  C   UNL     1      -8.491  -3.432  -1.366  1.00  0.00    -0.000 C 
BRANCH  18  19
ATOM     19  C   UNL     1      -8.195  -2.228  -2.267  1.00  0.00    -0.003 C 
ATOM     20  C   UNL     1      -7.511  -1.109  -1.487  1.00  0.00     0.004 C 
ENDBRANCH  18  19
ENDBRANCH  17  18
ENDBRANCH  16  17
ENDBRANCH  15  16
ENDBRANCH  14  15
ENDBRANCH  13  14
ENDBRANCH  12  13
ENDBRANCH   1  12
TORSDOF 16
ENDMDL
MODEL 7
REMARK VINA RESULT:    -4.322      1.739      3.414
REMARK INTER + INTRA:         -10.015
REMARK INTER:                  -8.039
REMARK INTRA:                  -1.976
REMARK UNBOUND:                -1.651
REMARK SMILES CCCCCCCCCCCCCCCCCC(=O)[O-]
REMARK SMILES IDX 10 1 11 2 12 3 13 4 14 5 15 6 16 7 17 8 18 9 19 10 20 11
REMARK SMILES IDX 9 12 8 13 7 14 6 15 5 16 4 17 3 18 2 19 1 20
REMARK H PARENT
REMARK Flexibility Score: inf
ROOT
ATOM      1  C   UNL     1      -8.646  -5.638  -5.041  1.00  0.00     0.000 C 
ENDROOT
BRANCH   1   2
ATOM      2  C   UNL     1     -10.133  -6.006  -5.174  1.00  0.00     0.000 C 
BRANCH   2   3
ATOM      3  C   UNL     1     -11.030  -5.230  -4.194  1.00  0.00     0.000 C 
BRANCH   3   4
ATOM      4  C   UNL     1     -11.117  -3.718  -4.498  1.00  0.00     0.000 C 
BRANCH   4   5
ATOM      5  C   UNL     1     -11.124  -2.867  -3.216  1.00  0.00     0.000 C 
BRANCH   5   6
ATOM      6  C   UNL     1     -10.967  -3.724  -1.940  1.00  0.00     0.000 C 
BRANCH   6   7
ATOM      7  C   UNL     1      -9.674  -3.428  -1.156  1.00  0.00     0.006 C 
BRANCH   7   8
ATOM      8  C   UNL     1      -8.439  -3.213  -2.043  1.00  0.00     0.053 C 
BRANCH   8   9
ATOM      9  C   UNL     1      -7.926  -1.808  -1.953  1.00  0.00     0.041 C 
ATOM     10  O   UNL     1      -7.099  -1.379  -2.800  1.00  0.00    -0.550 OA
ATOM     11  O   UNL     1      -8.380  -0.966  -0.947  1.00  0.00    -0.550 OA
ENDBRANCH   8   9
ENDBRANCH   7   8
ENDBRANCH   6   7
ENDBRANCH   5   6
ENDBRANCH   4   5
ENDBRANCH   3   4
ENDBRANCH   2   3
ENDBRANCH   1   2
BRANCH   1  12
ATOM     12  C   UNL     1      -8.156  -4.743  -6.190  1.00  0.00     0.000 C 
BRANCH  12  13
ATOM     13  C   UNL     1      -9.198  -4.606  -7.315  1.00  0.00    -0.000 C 
BRANCH  13  14
ATOM     14  C   UNL     1      -8.564  -4.607  -8.718  1.00  0.00    -0.000 C 
BRANCH  14  15
ATOM     15  C   UNL     1      -7.034  -4.789  -8.743  1.00  0.00    -0.000 C 
BRANCH  15  16
ATOM     16  C   UNL     1      -6.549  -6.242  -8.920  1.00  0.00    -0.000 C 
BRANCH  16  17
ATOM     17  C   UNL     1      -5.295  -6.610  -8.106  1.00  0.00    -0.000 C 
BRANCH  17  18
ATOM     18  C   UNL     1      -5.627  -7.113  -6.693  1.00  0.00    -0.000 C 
BRANCH  18  19
ATOM     19  C   UNL     1      -4.689  -6.488  -5.654  1.00  0.00    -0.003 C 
ATOM     20  C   UNL     1      -4.330  -5.053  -6.028  1.00  0.00     0.004 C 
ENDBRANCH  18  19
ENDBRANCH  17  18
ENDBRANCH  16  17
ENDBRANCH  15  16
ENDBRANCH  14  15
ENDBRANCH  13  14
ENDBRANCH  12  13
ENDBRANCH   1  12
TORSDOF 16
ENDMDL
MODEL 8
REMARK VINA RESULT:    -4.297      2.898      5.345
REMARK INTER + INTRA:          -9.966
REMARK INTER:                  -8.156
REMARK INTRA:                  -1.810
REMARK UNBOUND:                -1.651
REMARK SMILES CCCCCCCCCCCCCCCCCC(=O)[O-]
REMARK SMILES IDX 10 1 11 2 12 3 13 4 14 5 15 6 16 7 17 8 18 9 19 10 20 11
REMARK SMILES IDX 9 12 8 13 7 14 6 15 5 16 4 17 3 18 2 19 1 20
REMARK H PARENT
REMARK Flexibility Score: inf
ROOT
ATOM      1  C   UNL     1     -10.658  -6.377  -8.010  1.00  0.00     0.000 C 
ENDROOT
BRANCH   1   2
ATOM      2  C   UNL     1     -10.879  -5.330  -9.115  1.00  0.00     0.000 C 
BRANCH   2   3
ATOM      3  C   UNL     1     -10.104  -4.025  -8.864  1.00  0.00     0.000 C 
BRANCH   3   4
ATOM      4  C   UNL     1      -8.791  -3.918  -9.670  1.00  0.00     0.000 C 
BRANCH   4   5
ATOM      5  C   UNL     1      -7.596  -4.531  -8.919  1.00  0.00     0.000 C 
BRANCH   5   6
ATOM      6  C   UNL     1      -7.232  -5.938  -9.443  1.00  0.00     0.000 C 
BRANCH   6   7
ATOM      7  C   UNL     1      -6.369  -6.755  -8.462  1.00  0.00     0.006 C 
BRANCH   7   8
ATOM      8  C   UNL     1      -5.632  -5.904  -7.418  1.00  0.00     0.053 C 
BRANCH   8   9
ATOM      9  C   UNL     1      -5.039  -6.746  -6.331  1.00  0.00     0.041 C 
ATOM     10  O   UNL     1      -5.525  -7.878  -6.068  1.00  0.00    -0.550 OA
ATOM     11  O   UNL     1      -3.937  -6.290  -5.621  1.00  0.00    -0.550 OA
ENDBRANCH   8   9
ENDBRANCH   7   8
ENDBRANCH   6   7
ENDBRANCH   5   6
ENDBRANCH   4   5
ENDBRANCH   3   4
ENDBRANCH   2   3
ENDBRANCH   1   2
BRANCH   1  12
ATOM     12  C   UNL     1     -10.768  -5.776  -6.599  1.00  0.00     0.000 C 
BRANCH  12  13
ATOM     13  C   UNL     1      -9.467  -5.928  -5.792  1.00  0.00    -0.000 C 
BRANCH  13  14
ATOM     14  C   UNL     1      -8.948  -4.588  -5.239  1.00  0.00    -0.000 C 
BRANCH  14  15
ATOM     15  C   UNL     1      -9.967  -3.433  -5.265  1.00  0.00    -0.000 C 
BRANCH  15  16
ATOM     16  C   UNL     1     -10.752  -3.221  -3.954  1.00  0.00    -0.000 C 
BRANCH  16  17
ATOM     17  C   UNL     1     -10.283  -4.087  -2.771  1.00  0.00    -0.000 C 
BRANCH  17  18
ATOM     18  C   UNL     1      -8.873  -3.721  -2.286  1.00  0.00    -0.000 C 
BRANCH  18  19
ATOM     19  C   UNL     1      -8.906  -2.478  -1.391  1.00  0.00    -0.003 C 
ATOM     20  C   UNL     1      -7.707  -1.573  -1.659  1.00  0.00     0.004 C 
ENDBRANCH  18  19
ENDBRANCH  17  18
ENDBRANCH  16  17
ENDBRANCH  15  16
ENDBRANCH  14  15
ENDBRANCH  13  14
ENDBRANCH  12  13
ENDBRANCH   1  12
TORSDOF 16
ENDMDL
MODEL 9
REMARK VINA RESULT:    -4.230      1.813      4.613
REMARK INTER + INTRA:          -9.839
REMARK INTER:                  -7.526
REMARK INTRA:                  -2.313
REMARK UNBOUND:                -1.651
REMARK SMILES CCCCCCCCCCCCCCCCCC(=O)[O-]
REMARK SMILES IDX 10 1 11 2 12 3 13 4 14 5 15 6 16 7 17 8 18 9 19 10 20 11
REMARK SMILES IDX 9 12 8 13 7 14 6 15 5 16 4 17 3 18 2 19 1 20
REMARK H PARENT
REMARK Flexibility Score: inf
ROOT
ATOM      1  C   UNL     1      -7.326  -5.880  -4.740  1.00  0.00     0.000 C 
ENDROOT
BRANCH   1   2
ATOM      2  C   UNL     1      -8.677  -5.639  -5.433  1.00  0.00     0.000 C 
BRANCH   2   3
ATOM      3  C   UNL     1      -9.224  -4.221  -5.197  1.00  0.00     0.000 C 
BRANCH   3   4
ATOM      4  C   UNL     1     -10.725  -4.188  -4.836  1.00  0.00     0.000 C 
BRANCH   4   5
ATOM      5  C   UNL     1     -10.973  -4.495  -3.349  1.00  0.00     0.000 C 
BRANCH   5   6
ATOM      6  C   UNL     1     -10.915  -3.226  -2.470  1.00  0.00     0.000 C 
BRANCH   6   7
ATOM      7  C   UNL     1      -9.985  -3.366  -1.249  1.00  0.00     0.006 C 
BRANCH   7   8
ATOM      8  C   UNL     1      -8.489  -3.343  -1.596  1.00  0.00     0.053 C 
BRANCH   8   9
ATOM      9  C   UNL     1      -8.023  -1.968  -1.965  1.00  0.00     0.041 C 
ATOM     10  O   UNL     1      -7.429  -1.769  -3.057  1.00  0.00    -0.550 OA
ATOM     11  O   UNL     1      -8.265  -0.901  -1.110  1.00  0.00    -0.550 OA
ENDBRANCH   8   9
ENDBRANCH   7   8
ENDBRANCH   6   7
ENDBRANCH   5   6
ENDBRANCH   4   5
ENDBRANCH   3   4
ENDBRANCH   2   3
ENDBRANCH   1   2
BRANCH   1  12
ATOM     12  C   UNL     1      -6.479  -6.946  -5.455  1.00  0.00     0.000 C 
BRANCH  12  13
ATOM     13  C   UNL     1      -5.203  -6.359  -6.084  1.00  0.00    -0.000 C 
BRANCH  13  14
ATOM     14  C   UNL     1      -5.493  -5.172  -7.020  1.00  0.00    -0.000 C 
BRANCH  14  15
ATOM     15  C   UNL     1      -6.302  -5.519  -8.285  1.00  0.00    -0.000 C 
BRANCH  15  16
ATOM     16  C   UNL     1      -7.380  -4.489  -8.678  1.00  0.00    -0.000 C 
BRANCH  16  17
ATOM     17  C   UNL     1      -8.694  -5.095  -9.203  1.00  0.00    -0.000 C 
BRANCH  17  18
ATOM     18  C   UNL     1      -9.896  -4.156  -9.028  1.00  0.00    -0.000 C 
BRANCH  18  19
ATOM     19  C   UNL     1     -11.061  -4.879  -8.342  1.00  0.00    -0.003 C 
ATOM     20  C   UNL     1     -10.872  -6.393  -8.383  1.00  0.00     0.004 C 
ENDBRANCH  18  19
ENDBRANCH  17  18
ENDBRANCH  16  17
ENDBRANCH  15  16
ENDBRANCH  14  15
ENDBRANCH  13  14
ENDBRANCH  12  13
ENDBRANCH   1  12
TORSDOF 16
ENDMDL
