MODEL 1
REMARK VINA RESULT:    -4.569      0.000      0.000
REMARK INTER + INTRA:         -13.984
REMARK INTER:                 -10.445
REMARK INTRA:                  -3.539
REMARK UNBOUND:                -3.539
REMARK SMILES CCCCCCCCCCCCCCCCCCCCCCCC(=O)[O-]
REMARK SMILES IDX 13 1 14 2 15 3 16 4 17 5 18 6 19 7 20 8 21 9 22 10 23 11
REMARK SMILES IDX 24 12 25 13 26 14 12 15 11 16 10 17 9 18 8 19 7 20 6 21 5 22
REMARK SMILES IDX 4 23 3 24 2 25 1 26
REMARK H PARENT
REMARK Flexibility Score: inf
ROOT
ATOM      1  C   UNL     1      13.483  34.293  68.424  1.00  0.00     0.000 C 
ENDROOT
BRANCH   1   2
ATOM      2  C   UNL     1      14.209  34.479  67.083  1.00  0.00     0.000 C 
BRANCH   2   3
ATOM      3  C   UNL     1      15.650  33.945  67.112  1.00  0.00     0.000 C 
BRANCH   3   4
ATOM      4  C   UNL     1      16.664  34.947  66.530  1.00  0.00     0.000 C 
BRANCH   4   5
ATOM      5  C   UNL     1      18.049  34.317  66.306  1.00  0.00     0.000 C 
BRANCH   5   6
ATOM      6  C   UNL     1      18.144  32.891  66.878  1.00  0.00     0.000 C 
BRANCH   6   7
ATOM      7  C   UNL     1      19.392  32.137  66.387  1.00  0.00     0.000 C 
BRANCH   7   8
ATOM      8  C   UNL     1      19.098  30.870  65.561  1.00  0.00     0.000 C 
BRANCH   8   9
ATOM      9  C   UNL     1      18.775  31.154  64.077  1.00  0.00     0.000 C 
BRANCH   9  10
ATOM     10  C   UNL     1      17.335  30.763  63.710  1.00  0.00     0.006 C 
BRANCH  10  11
ATOM     11  C   UNL     1      17.139  30.737  62.193  1.00  0.00     0.053 C 
BRANCH  11  12
ATOM     12  C   UNL     1      15.981  29.861  61.831  1.00  0.00     0.041 C 
ATOM     13  O   UNL     1      15.722  29.623  60.622  1.00  0.00    -0.550 OA
ATOM     14  O   UNL     1      15.227  29.259  62.829  1.00  0.00    -0.550 OA
ENDBRANCH  11  12
ENDBRANCH  10  11
ENDBRANCH   9  10
ENDBRANCH   8   9
ENDBRANCH   7   8
ENDBRANCH   6   7
ENDBRANCH   5   6
ENDBRANCH   4   5
ENDBRANCH   3   4
ENDBRANCH   2   3
ENDBRANCH   1   2
BRANCH   1  15
ATOM     15  C   UNL     1      12.601  33.035  68.398  1.00  0.00     0.000 C 
BRANCH  15  16
ATOM     16  C   UNL     1      12.073  32.708  66.993  1.00  0.00     0.000 C 
BRANCH  16  17
ATOM     17  C   UNL     1      12.458  31.292  66.531  1.00  0.00     0.000 C 
BRANCH  17  18
ATOM     18  C   UNL     1      13.590  31.297  65.490  1.00  0.00    -0.000 C 
BRANCH  18  19
ATOM     19  C   UNL     1      14.920  30.777  66.056  1.00  0.00    -0.000 C 
BRANCH  19  20
ATOM     20  C   UNL     1      14.683  29.859  67.263  1.00  0.00    -0.000 C 
BRANCH  20  21
ATOM     21  C   UNL     1      15.687  30.159  68.386  1.00  0.00    -0.000 C 
BRANCH  21  22
ATOM     22  C   UNL     1      15.008  30.596  69.697  1.00  0.00    -0.000 C 
BRANCH  22  23
ATOM     23  C   UNL     1      15.964  31.134  70.777  1.00  0.00    -0.000 C 
BRANCH  23  24
ATOM     24  C   UNL     1      17.168  30.213  71.024  1.00  0.00    -0.000 C 
BRANCH  24  25
ATOM     25  C   UNL     1      18.486  30.974  70.844  1.00  0.00    -0.003 C 
ATOM     26  C   UNL     1      19.255  30.466  69.628  1.00  0.00     0.004 C 
ENDBRANCH  24  25
ENDBRANCH  23  24
ENDBRANCH  22  23
ENDBRANCH  21  22
ENDBRANCH  20  21
ENDBRANCH  19  20
ENDBRANCH  18  19
ENDBRANCH  17  18
ENDBRANCH  16  17
ENDBRANCH  15  16
ENDBRANCH   1  15
TORSDOF 22
ENDMDL
MODEL 2
REMARK VINA RESULT:    -4.508      4.039      5.279
REMARK INTER + INTRA:         -13.844
REMARK INTER:                 -10.982
REMARK INTRA:                  -2.862
REMARK UNBOUND:                -3.539
REMARK SMILES CCCCCCCCCCCCCCCCCCCCCCCC(=O)[O-]
REMARK SMILES IDX 13 1 14 2 15 3 16 4 17 5 18 6 19 7 20 8 21 9 22 10 23 11
REMARK SMILES IDX 24 12 25 13 26 14 12 15 11 16 10 17 9 18 8 19 7 20 6 21 5 22
REMARK SMILES IDX 4 23 3 24 2 25 1 26
REMARK H PARENT
REMARK Flexibility Score: inf
ROOT
ATOM      1  C   UNL     1      13.902  35.619  67.745  1.00  0.00     0.000 C 
ENDROOT
BRANCH   1   2
ATOM      2  C   UNL     1      14.872  36.229  66.722  1.00  0.00     0.000 C 
BRANCH   2   3
ATOM      3  C   UNL     1      16.078  35.321  66.436  1.00  0.00     0.000 C 
BRANCH   3   4
ATOM      4  C   UNL     1      17.281  36.096  65.868  1.00  0.00     0.000 C 
BRANCH   4   5
ATOM      5  C   UNL     1      18.457  35.174  65.508  1.00  0.00     0.000 C 
BRANCH   5   6
ATOM      6  C   UNL     1      18.511  33.917  66.396  1.00  0.00     0.000 C 
BRANCH   6   7
ATOM      7  C   UNL     1      19.928  33.612  66.907  1.00  0.00     0.000 C 
BRANCH   7   8
ATOM      8  C   UNL     1      21.031  34.526  66.340  1.00  0.00     0.000 C 
BRANCH   8   9
ATOM      9  C   UNL     1      21.718  35.410  67.405  1.00  0.00     0.000 C 
BRANCH   9  10
ATOM     10  C   UNL     1      22.260  36.719  66.813  1.00  0.00     0.006 C 
BRANCH  10  11
ATOM     11  C   UNL     1      21.891  37.917  67.690  1.00  0.00     0.053 C 
BRANCH  11  12
ATOM     12  C   UNL     1      20.964  38.836  66.958  1.00  0.00     0.041 C 
ATOM     13  O   UNL     1      21.009  40.077  67.166  1.00  0.00    -0.550 OA
ATOM     14  O   UNL     1      20.095  38.328  66.002  1.00  0.00    -0.550 OA
ENDBRANCH  11  12
ENDBRANCH  10  11
ENDBRANCH   9  10
ENDBRANCH   8   9
ENDBRANCH   7   8
ENDBRANCH   6   7
ENDBRANCH   5   6
ENDBRANCH   4   5
ENDBRANCH   3   4
ENDBRANCH   2   3
ENDBRANCH   1   2
BRANCH   1  15
ATOM     15  C   UNL     1      14.098  34.098  67.845  1.00  0.00     0.000 C 
BRANCH  15  16
ATOM     16  C   UNL     1      12.771  33.337  67.989  1.00  0.00     0.000 C 
BRANCH  16  17
ATOM     17  C   UNL     1      12.749  32.029  67.179  1.00  0.00     0.000 C 
BRANCH  17  18
ATOM     18  C   UNL     1      13.474  32.158  65.829  1.00  0.00    -0.000 C 
BRANCH  18  19
ATOM     19  C   UNL     1      14.462  31.010  65.574  1.00  0.00    -0.000 C 
BRANCH  19  20
ATOM     20  C   UNL     1      15.020  30.460  66.893  1.00  0.00    -0.000 C 
BRANCH  20  21
ATOM     21  C   UNL     1      16.442  30.982  67.147  1.00  0.00    -0.000 C 
BRANCH  21  22
ATOM     22  C   UNL     1      16.645  31.494  68.585  1.00  0.00    -0.000 C 
BRANCH  22  23
ATOM     23  C   UNL     1      15.517  31.135  69.569  1.00  0.00    -0.000 C 
BRANCH  23  24
ATOM     24  C   UNL     1      16.039  30.639  70.925  1.00  0.00    -0.000 C 
BRANCH  24  25
ATOM     25  C   UNL     1      15.730  29.150  71.119  1.00  0.00    -0.003 C 
ATOM     26  C   UNL     1      16.189  28.666  72.492  1.00  0.00     0.004 C 
ENDBRANCH  24  25
ENDBRANCH  23  24
ENDBRANCH  22  23
ENDBRANCH  21  22
ENDBRANCH  20  21
ENDBRANCH  19  20
ENDBRANCH  18  19
ENDBRANCH  17  18
ENDBRANCH  16  17
ENDBRANCH  15  16
ENDBRANCH   1  15
TORSDOF 22
ENDMDL
MODEL 3
REMARK VINA RESULT:    -4.505      2.535      5.154
REMARK INTER + INTRA:         -13.837
REMARK INTER:                  -9.974
REMARK INTRA:                  -3.863
REMARK UNBOUND:                -3.539
REMARK SMILES CCCCCCCCCCCCCCCCCCCCCCCC(=O)[O-]
REMARK SMILES IDX 13 1 14 2 15 3 16 4 17 5 18 6 19 7 20 8 21 9 22 10 23 11
REMARK SMILES IDX 24 12 25 13 26 14 12 15 11 16 10 17 9 18 8 19 7 20 6 21 5 22
REMARK SMILES IDX 4 23 3 24 2 25 1 26
REMARK H PARENT
REMARK Flexibility Score: inf
ROOT
ATOM      1  C   UNL     1      15.676  31.614  69.683  1.00  0.00     0.000 C 
ENDROOT
BRANCH   1   2
ATOM      2  C   UNL     1      15.536  30.320  70.498  1.00  0.00     0.000 C 
BRANCH   2   3
ATOM      3  C   UNL     1      16.716  30.092  71.456  1.00  0.00     0.000 C 
BRANCH   3   4
ATOM      4  C   UNL     1      17.987  29.621  70.727  1.00  0.00     0.000 C 
BRANCH   4   5
ATOM      5  C   UNL     1      19.052  30.726  70.631  1.00  0.00     0.000 C 
BRANCH   5   6
ATOM      6  C   UNL     1      19.877  30.635  69.335  1.00  0.00     0.000 C 
BRANCH   6   7
ATOM      7  C   UNL     1      19.144  29.875  68.217  1.00  0.00     0.000 C 
BRANCH   7   8
ATOM      8  C   UNL     1      19.652  30.173  66.793  1.00  0.00     0.000 C 
BRANCH   8   9
ATOM      9  C   UNL     1      18.738  31.126  65.991  1.00  0.00     0.000 C 
BRANCH   9  10
ATOM     10  C   UNL     1      18.701  32.539  66.592  1.00  0.00     0.006 C 
BRANCH  10  11
ATOM     11  C   UNL     1      19.836  33.405  66.040  1.00  0.00     0.053 C 
BRANCH  11  12
ATOM     12  C   UNL     1      19.344  34.787  65.749  1.00  0.00     0.041 C 
ATOM     13  O   UNL     1      20.152  35.754  65.724  1.00  0.00    -0.550 OA
ATOM     14  O   UNL     1      18.006  34.999  65.442  1.00  0.00    -0.550 OA
ENDBRANCH  11  12
ENDBRANCH  10  11
ENDBRANCH   9  10
ENDBRANCH   8   9
ENDBRANCH   7   8
ENDBRANCH   6   7
ENDBRANCH   5   6
ENDBRANCH   4   5
ENDBRANCH   3   4
ENDBRANCH   2   3
ENDBRANCH   1   2
BRANCH   1  15
ATOM     15  C   UNL     1      15.804  31.304  68.183  1.00  0.00     0.000 C 
BRANCH  15  16
ATOM     16  C   UNL     1      15.514  29.832  67.853  1.00  0.00     0.000 C 
BRANCH  16  17
ATOM     17  C   UNL     1      14.514  29.671  66.695  1.00  0.00     0.000 C 
BRANCH  17  18
ATOM     18  C   UNL     1      14.532  30.868  65.729  1.00  0.00    -0.000 C 
BRANCH  18  19
ATOM     19  C   UNL     1      13.196  31.624  65.696  1.00  0.00    -0.000 C 
BRANCH  19  20
ATOM     20  C   UNL     1      12.292  31.195  66.860  1.00  0.00    -0.000 C 
BRANCH  20  21
ATOM     21  C   UNL     1      12.192  32.306  67.916  1.00  0.00    -0.000 C 
BRANCH  21  22
ATOM     22  C   UNL     1      12.637  33.681  67.383  1.00  0.00    -0.000 C 
BRANCH  22  23
ATOM     23  C   UNL     1      13.819  34.318  68.136  1.00  0.00    -0.000 C 
BRANCH  23  24
ATOM     24  C   UNL     1      14.971  34.728  67.206  1.00  0.00    -0.000 C 
BRANCH  24  25
ATOM     25  C   UNL     1      15.340  36.202  67.408  1.00  0.00    -0.003 C 
ATOM     26  C   UNL     1      14.170  37.116  67.060  1.00  0.00     0.004 C 
ENDBRANCH  24  25
ENDBRANCH  23  24
ENDBRANCH  22  23
ENDBRANCH  21  22
ENDBRANCH  20  21
ENDBRANCH  19  20
ENDBRANCH  18  19
ENDBRANCH  17  18
ENDBRANCH  16  17
ENDBRANCH  15  16
ENDBRANCH   1  15
TORSDOF 22
ENDMDL
MODEL 4
REMARK VINA RESULT:    -4.477      3.998      5.514
REMARK INTER + INTRA:         -13.774
REMARK INTER:                 -10.727
REMARK INTRA:                  -3.046
REMARK UNBOUND:                -3.539
REMARK SMILES CCCCCCCCCCCCCCCCCCCCCCCC(=O)[O-]
REMARK SMILES IDX 13 1 14 2 15 3 16 4 17 5 18 6 19 7 20 8 21 9 22 10 23 11
REMARK SMILES IDX 24 12 25 13 26 14 12 15 11 16 10 17 9 18 8 19 7 20 6 21 5 22
REMARK SMILES IDX 4 23 3 24 2 25 1 26
REMARK H PARENT
REMARK Flexibility Score: inf
ROOT
ATOM      1  C   UNL     1      13.733  35.377  67.873  1.00  0.00     0.000 C 
ENDROOT
BRANCH   1   2
ATOM      2  C   UNL     1      14.612  36.423  67.173  1.00  0.00     0.000 C 
BRANCH   2   3
ATOM      3  C   UNL     1      15.274  35.880  65.896  1.00  0.00     0.000 C 
BRANCH   3   4
ATOM      4  C   UNL     1      16.795  36.114  65.873  1.00  0.00     0.000 C 
BRANCH   4   5
ATOM      5  C   UNL     1      17.588  34.863  66.285  1.00  0.00     0.000 C 
BRANCH   5   6
ATOM      6  C   UNL     1      18.968  34.794  65.607  1.00  0.00     0.000 C 
BRANCH   6   7
ATOM      7  C   UNL     1      20.124  34.736  66.620  1.00  0.00     0.000 C 
BRANCH   7   8
ATOM      8  C   UNL     1      21.528  34.630  65.993  1.00  0.00     0.000 C 
BRANCH   8   9
ATOM      9  C   UNL     1      22.441  35.837  66.300  1.00  0.00     0.000 C 
BRANCH   9  10
ATOM     10  C   UNL     1      21.791  36.822  67.284  1.00  0.00     0.006 C 
BRANCH  10  11
ATOM     11  C   UNL     1      22.093  38.271  66.895  1.00  0.00     0.053 C 
BRANCH  11  12
ATOM     12  C   UNL     1      21.032  38.799  65.981  1.00  0.00     0.041 C 
ATOM     13  O   UNL     1      19.967  38.149  65.807  1.00  0.00    -0.550 OA
ATOM     14  O   UNL     1      21.193  40.036  65.371  1.00  0.00    -0.550 OA
ENDBRANCH  11  12
ENDBRANCH  10  11
ENDBRANCH   9  10
ENDBRANCH   8   9
ENDBRANCH   7   8
ENDBRANCH   6   7
ENDBRANCH   5   6
ENDBRANCH   4   5
ENDBRANCH   3   4
ENDBRANCH   2   3
ENDBRANCH   1   2
BRANCH   1  15
ATOM     15  C   UNL     1      13.845  34.012  67.176  1.00  0.00     0.000 C 
BRANCH  15  16
ATOM     16  C   UNL     1      13.936  32.843  68.169  1.00  0.00     0.000 C 
BRANCH  16  17
ATOM     17  C   UNL     1      15.387  32.411  68.442  1.00  0.00     0.000 C 
BRANCH  17  18
ATOM     18  C   UNL     1      15.665  30.965  68.001  1.00  0.00    -0.000 C 
BRANCH  18  19
ATOM     19  C   UNL     1      15.631  29.970  69.170  1.00  0.00    -0.000 C 
BRANCH  19  20
ATOM     20  C   UNL     1      15.963  30.668  70.496  1.00  0.00    -0.000 C 
BRANCH  20  21
ATOM     21  C   UNL     1      17.288  30.148  71.073  1.00  0.00    -0.000 C 
BRANCH  21  22
ATOM     22  C   UNL     1      18.449  31.144  70.899  1.00  0.00    -0.000 C 
BRANCH  22  23
ATOM     23  C   UNL     1      19.556  30.690  69.932  1.00  0.00    -0.000 C 
BRANCH  23  24
ATOM     24  C   UNL     1      19.504  31.413  68.578  1.00  0.00    -0.000 C 
BRANCH  24  25
ATOM     25  C   UNL     1      19.287  30.417  67.433  1.00  0.00    -0.003 C 
ATOM     26  C   UNL     1      19.252  31.128  66.083  1.00  0.00     0.004 C 
ENDBRANCH  24  25
ENDBRANCH  23  24
ENDBRANCH  22  23
ENDBRANCH  21  22
ENDBRANCH  20  21
ENDBRANCH  19  20
ENDBRANCH  18  19
ENDBRANCH  17  18
ENDBRANCH  16  17
ENDBRANCH  15  16
ENDBRANCH   1  15
TORSDOF 22
ENDMDL
MODEL 5
REMARK VINA RESULT:    -4.439      2.685      6.781
REMARK INTER + INTRA:         -13.686
REMARK INTER:                 -10.414
REMARK INTRA:                  -3.272
REMARK UNBOUND:                -3.539
REMARK SMILES CCCCCCCCCCCCCCCCCCCCCCCC(=O)[O-]
REMARK SMILES IDX 13 1 14 2 15 3 16 4 17 5 18 6 19 7 20 8 21 9 22 10 23 11
REMARK SMILES IDX 24 12 25 13 26 14 12 15 11 16 10 17 9 18 8 19 7 20 6 21 5 22
REMARK SMILES IDX 4 23 3 24 2 25 1 26
REMARK H PARENT
REMARK Flexibility Score: inf
ROOT
ATOM      1  C   UNL     1      15.588  31.035  69.342  1.00  0.00     0.000 C 
ENDROOT
BRANCH   1   2
ATOM      2  C   UNL     1      15.778  29.763  68.502  1.00  0.00     0.000 C 
BRANCH   2   3
ATOM      3  C   UNL     1      14.512  29.376  67.720  1.00  0.00     0.000 C 
BRANCH   3   4
ATOM      4  C   UNL     1      13.229  29.537  68.555  1.00  0.00     0.000 C 
BRANCH   4   5
ATOM      5  C   UNL     1      11.969  29.640  67.680  1.00  0.00     0.000 C 
BRANCH   5   6
ATOM      6  C   UNL     1      11.304  31.026  67.770  1.00  0.00     0.000 C 
BRANCH   6   7
ATOM      7  C   UNL     1      11.940  31.921  68.846  1.00  0.00     0.000 C 
BRANCH   7   8
ATOM      8  C   UNL     1      12.624  33.193  68.308  1.00  0.00     0.000 C 
BRANCH   8   9
ATOM      9  C   UNL     1      13.479  32.954  67.044  1.00  0.00     0.000 C 
BRANCH   9  10
ATOM     10  C   UNL     1      14.513  34.068  66.822  1.00  0.00     0.006 C 
BRANCH  10  11
ATOM     11  C   UNL     1      14.118  35.345  67.567  1.00  0.00     0.053 C 
BRANCH  11  12
ATOM     12  C   UNL     1      14.362  36.547  66.710  1.00  0.00     0.041 C 
ATOM     13  O   UNL     1      13.916  37.673  67.058  1.00  0.00    -0.550 OA
ATOM     14  O   UNL     1      15.133  36.436  65.561  1.00  0.00    -0.550 OA
ENDBRANCH  11  12
ENDBRANCH  10  11
ENDBRANCH   9  10
ENDBRANCH   8   9
ENDBRANCH   7   8
ENDBRANCH   6   7
ENDBRANCH   5   6
ENDBRANCH   4   5
ENDBRANCH   3   4
ENDBRANCH   2   3
ENDBRANCH   1   2
BRANCH   1  15
ATOM     15  C   UNL     1      16.053  30.809  70.789  1.00  0.00     0.000 C 
BRANCH  15  16
ATOM     16  C   UNL     1      17.406  30.086  70.872  1.00  0.00     0.000 C 
BRANCH  16  17
ATOM     17  C   UNL     1      18.595  31.060  70.929  1.00  0.00     0.000 C 
BRANCH  17  18
ATOM     18  C   UNL     1      19.764  30.619  70.032  1.00  0.00    -0.000 C 
BRANCH  18  19
ATOM     19  C   UNL     1      19.379  29.483  69.072  1.00  0.00    -0.000 C 
BRANCH  19  20
ATOM     20  C   UNL     1      19.781  29.822  67.630  1.00  0.00    -0.000 C 
BRANCH  20  21
ATOM     21  C   UNL     1      18.630  30.519  66.889  1.00  0.00    -0.000 C 
BRANCH  21  22
ATOM     22  C   UNL     1      19.039  31.041  65.500  1.00  0.00    -0.000 C 
BRANCH  22  23
ATOM     23  C   UNL     1      17.975  30.870  64.401  1.00  0.00    -0.000 C 
BRANCH  23  24
ATOM     24  C   UNL     1      16.549  30.753  64.960  1.00  0.00    -0.000 C 
BRANCH  24  25
ATOM     25  C   UNL     1      15.615  30.088  63.942  1.00  0.00    -0.003 C 
ATOM     26  C   UNL     1      16.220  30.110  62.541  1.00  0.00     0.004 C 
ENDBRANCH  24  25
ENDBRANCH  23  24
ENDBRANCH  22  23
ENDBRANCH  21  22
ENDBRANCH  20  21
ENDBRANCH  19  20
ENDBRANCH  18  19
ENDBRANCH  17  18
ENDBRANCH  16  17
ENDBRANCH  15  16
ENDBRANCH   1  15
TORSDOF 22
ENDMDL
MODEL 6
REMARK VINA RESULT:    -4.434      3.775      6.553
REMARK INTER + INTRA:         -13.676
REMARK INTER:                 -10.741
REMARK INTRA:                  -2.935
REMARK UNBOUND:                -3.539
REMARK SMILES CCCCCCCCCCCCCCCCCCCCCCCC(=O)[O-]
REMARK SMILES IDX 13 1 14 2 15 3 16 4 17 5 18 6 19 7 20 8 21 9 22 10 23 11
REMARK SMILES IDX 24 12 25 13 26 14 12 15 11 16 10 17 9 18 8 19 7 20 6 21 5 22
REMARK SMILES IDX 4 23 3 24 2 25 1 26
REMARK H PARENT
REMARK Flexibility Score: inf
ROOT
ATOM      1  C   UNL     1      19.005  31.203  69.211  1.00  0.00     0.000 C 
ENDROOT
BRANCH   1   2
ATOM      2  C   UNL     1      19.319  30.183  68.107  1.00  0.00     0.000 C 
BRANCH   2   3
ATOM      3  C   UNL     1      18.568  30.477  66.799  1.00  0.00     0.000 C 
BRANCH   3   4
ATOM      4  C   UNL     1      19.396  31.331  65.821  1.00  0.00     0.000 C 
BRANCH   4   5
ATOM      5  C   UNL     1      18.539  32.368  65.077  1.00  0.00     0.000 C 
BRANCH   5   6
ATOM      6  C   UNL     1      18.913  33.814  65.450  1.00  0.00     0.000 C 
BRANCH   6   7
ATOM      7  C   UNL     1      19.943  33.886  66.590  1.00  0.00     0.000 C 
BRANCH   7   8
ATOM      8  C   UNL     1      21.261  34.596  66.226  1.00  0.00     0.000 C 
BRANCH   8   9
ATOM      9  C   UNL     1      21.727  35.625  67.280  1.00  0.00     0.000 C 
BRANCH   9  10
ATOM     10  C   UNL     1      22.243  36.922  66.639  1.00  0.00     0.006 C 
BRANCH  10  11
ATOM     11  C   UNL     1      21.373  38.118  67.032  1.00  0.00     0.053 C 
BRANCH  11  12
ATOM     12  C   UNL     1      20.419  38.455  65.929  1.00  0.00     0.041 C 
ATOM     13  O   UNL     1      19.534  37.629  65.585  1.00  0.00    -0.550 OA
ATOM     14  O   UNL     1      20.469  39.705  65.326  1.00  0.00    -0.550 OA
ENDBRANCH  11  12
ENDBRANCH  10  11
ENDBRANCH   9  10
ENDBRANCH   8   9
ENDBRANCH   7   8
ENDBRANCH   6   7
ENDBRANCH   5   6
ENDBRANCH   4   5
ENDBRANCH   3   4
ENDBRANCH   2   3
ENDBRANCH   1   2
BRANCH   1  15
ATOM     15  C   UNL     1      19.203  30.581  70.603  1.00  0.00     0.000 C 
BRANCH  15  16
ATOM     16  C   UNL     1      17.928  29.914  71.142  1.00  0.00     0.000 C 
BRANCH  16  17
ATOM     17  C   UNL     1      16.765  30.908  71.310  1.00  0.00     0.000 C 
BRANCH  17  18
ATOM     18  C   UNL     1      15.434  30.355  70.774  1.00  0.00    -0.000 C 
BRANCH  18  19
ATOM     19  C   UNL     1      15.580  29.685  69.400  1.00  0.00    -0.000 C 
BRANCH  19  20
ATOM     20  C   UNL     1      14.839  30.483  68.317  1.00  0.00    -0.000 C 
BRANCH  20  21
ATOM     21  C   UNL     1      14.980  31.993  68.557  1.00  0.00    -0.000 C 
BRANCH  21  22
ATOM     22  C   UNL     1      15.755  32.708  67.434  1.00  0.00    -0.000 C 
BRANCH  22  23
ATOM     23  C   UNL     1      15.030  33.915  66.811  1.00  0.00    -0.000 C 
BRANCH  23  24
ATOM     24  C   UNL     1      13.946  34.503  67.727  1.00  0.00    -0.000 C 
BRANCH  24  25
ATOM     25  C   UNL     1      13.905  36.031  67.617  1.00  0.00    -0.003 C 
ATOM     26  C   UNL     1      15.302  36.607  67.403  1.00  0.00     0.004 C 
ENDBRANCH  24  25
ENDBRANCH  23  24
ENDBRANCH  22  23
ENDBRANCH  21  22
ENDBRANCH  20  21
ENDBRANCH  19  20
ENDBRANCH  18  19
ENDBRANCH  17  18
ENDBRANCH  16  17
ENDBRANCH  15  16
ENDBRANCH   1  15
TORSDOF 22
ENDMDL
MODEL 7
REMARK VINA RESULT:    -4.434      3.789      6.554
REMARK INTER + INTRA:         -13.675
REMARK INTER:                 -10.034
REMARK INTRA:                  -3.641
REMARK UNBOUND:                -3.539
REMARK SMILES CCCCCCCCCCCCCCCCCCCCCCCC(=O)[O-]
REMARK SMILES IDX 13 1 14 2 15 3 16 4 17 5 18 6 19 7 20 8 21 9 22 10 23 11
REMARK SMILES IDX 24 12 25 13 26 14 12 15 11 16 10 17 9 18 8 19 7 20 6 21 5 22
REMARK SMILES IDX 4 23 3 24 2 25 1 26
REMARK H PARENT
REMARK Flexibility Score: inf
ROOT
ATOM      1  C   UNL     1      19.742  30.123  66.483  1.00  0.00     0.000 C 
ENDROOT
BRANCH   1   2
ATOM      2  C   UNL     1      18.714  30.888  65.638  1.00  0.00     0.000 C 
BRANCH   2   3
ATOM      3  C   UNL     1      17.282  30.750  66.180  1.00  0.00     0.000 C 
BRANCH   3   4
ATOM      4  C   UNL     1      16.574  32.108  66.335  1.00  0.00     0.000 C 
BRANCH   4   5
ATOM      5  C   UNL     1      17.431  33.134  67.094  1.00  0.00     0.000 C 
BRANCH   5   6
ATOM      6  C   UNL     1      17.640  34.431  66.292  1.00  0.00     0.000 C 
BRANCH   6   7
ATOM      7  C   UNL     1      19.114  34.670  65.922  1.00  0.00     0.000 C 
BRANCH   7   8
ATOM      8  C   UNL     1      20.130  33.895  66.783  1.00  0.00     0.000 C 
BRANCH   8   9
ATOM      9  C   UNL     1      21.232  34.785  67.400  1.00  0.00     0.000 C 
BRANCH   9  10
ATOM     10  C   UNL     1      21.928  35.661  66.348  1.00  0.00     0.006 C 
BRANCH  10  11
ATOM     11  C   UNL     1      22.364  37.001  66.945  1.00  0.00     0.053 C 
BRANCH  11  12
ATOM     12  C   UNL     1      21.301  38.035  66.741  1.00  0.00     0.041 C 
ATOM     13  O   UNL     1      21.231  39.030  67.510  1.00  0.00    -0.550 OA
ATOM     14  O   UNL     1      20.429  37.932  65.665  1.00  0.00    -0.550 OA
ENDBRANCH  11  12
ENDBRANCH  10  11
ENDBRANCH   9  10
ENDBRANCH   8   9
ENDBRANCH   7   8
ENDBRANCH   6   7
ENDBRANCH   5   6
ENDBRANCH   4   5
ENDBRANCH   3   4
ENDBRANCH   2   3
ENDBRANCH   1   2
BRANCH   1  15
ATOM     15  C   UNL     1      19.215  29.889  67.908  1.00  0.00     0.000 C 
BRANCH  15  16
ATOM     16  C   UNL     1      19.891  30.797  68.948  1.00  0.00     0.000 C 
BRANCH  16  17
ATOM     17  C   UNL     1      19.095  30.885  70.261  1.00  0.00     0.000 C 
BRANCH  17  18
ATOM     18  C   UNL     1      17.580  31.009  70.027  1.00  0.00    -0.000 C 
BRANCH  18  19
ATOM     19  C   UNL     1      16.761  30.071  70.926  1.00  0.00    -0.000 C 
BRANCH  19  20
ATOM     20  C   UNL     1      15.264  30.400  70.846  1.00  0.00    -0.000 C 
BRANCH  20  21
ATOM     21  C   UNL     1      14.968  31.324  69.656  1.00  0.00    -0.000 C 
BRANCH  21  22
ATOM     22  C   UNL     1      14.095  30.656  68.579  1.00  0.00    -0.000 C 
BRANCH  22  23
ATOM     23  C   UNL     1      12.744  31.345  68.317  1.00  0.00    -0.000 C 
BRANCH  23  24
ATOM     24  C   UNL     1      12.785  32.861  68.563  1.00  0.00    -0.000 C 
BRANCH  24  25
ATOM     25  C   UNL     1      13.340  33.599  67.340  1.00  0.00    -0.003 C 
ATOM     26  C   UNL     1      14.051  34.886  67.748  1.00  0.00     0.004 C 
ENDBRANCH  24  25
ENDBRANCH  23  24
ENDBRANCH  22  23
ENDBRANCH  21  22
ENDBRANCH  20  21
ENDBRANCH  19  20
ENDBRANCH  18  19
ENDBRANCH  17  18
ENDBRANCH  16  17
ENDBRANCH  15  16
ENDBRANCH   1  15
TORSDOF 22
ENDMDL
MODEL 8
REMARK VINA RESULT:    -4.425      2.632      5.662
REMARK INTER + INTRA:         -13.655
REMARK INTER:                 -10.133
REMARK INTRA:                  -3.522
REMARK UNBOUND:                -3.539
REMARK SMILES CCCCCCCCCCCCCCCCCCCCCCCC(=O)[O-]
REMARK SMILES IDX 13 1 14 2 15 3 16 4 17 5 18 6 19 7 20 8 21 9 22 10 23 11
REMARK SMILES IDX 24 12 25 13 26 14 12 15 11 16 10 17 9 18 8 19 7 20 6 21 5 22
REMARK SMILES IDX 4 23 3 24 2 25 1 26
REMARK H PARENT
REMARK Flexibility Score: inf
ROOT
ATOM      1  C   UNL     1      14.383  29.895  68.700  1.00  0.00     0.000 C 
ENDROOT
BRANCH   1   2
ATOM      2  C   UNL     1      13.334  30.915  68.236  1.00  0.00     0.000 C 
BRANCH   2   3
ATOM      3  C   UNL     1      13.245  31.019  66.705  1.00  0.00     0.000 C 
BRANCH   3   4
ATOM      4  C   UNL     1      13.749  32.374  66.174  1.00  0.00     0.000 C 
BRANCH   4   5
ATOM      5  C   UNL     1      14.305  33.272  67.291  1.00  0.00     0.000 C 
BRANCH   5   6
ATOM      6  C   UNL     1      13.376  34.459  67.606  1.00  0.00     0.000 C 
BRANCH   6   7
ATOM      7  C   UNL     1      14.137  35.789  67.740  1.00  0.00     0.000 C 
BRANCH   7   8
ATOM      8  C   UNL     1      15.630  35.720  67.365  1.00  0.00     0.000 C 
BRANCH   8   9
ATOM      9  C   UNL     1      15.926  36.131  65.906  1.00  0.00     0.000 C 
BRANCH   9  10
ATOM     10  C   UNL     1      17.423  36.048  65.571  1.00  0.00     0.006 C 
BRANCH  10  11
ATOM     11  C   UNL     1      18.023  34.723  66.046  1.00  0.00     0.053 C 
BRANCH  11  12
ATOM     12  C   UNL     1      19.518  34.778  65.995  1.00  0.00     0.041 C 
ATOM     13  O   UNL     1      20.190  33.713  66.014  1.00  0.00    -0.550 OA
ATOM     14  O   UNL     1      20.164  36.000  65.862  1.00  0.00    -0.550 OA
ENDBRANCH  11  12
ENDBRANCH  10  11
ENDBRANCH   9  10
ENDBRANCH   8   9
ENDBRANCH   7   8
ENDBRANCH   6   7
ENDBRANCH   5   6
ENDBRANCH   4   5
ENDBRANCH   3   4
ENDBRANCH   2   3
ENDBRANCH   1   2
BRANCH   1  15
ATOM     15  C   UNL     1      14.734  30.106  70.182  1.00  0.00     0.000 C 
BRANCH  15  16
ATOM     16  C   UNL     1      15.758  31.231  70.396  1.00  0.00     0.000 C 
BRANCH  16  17
ATOM     17  C   UNL     1      16.968  30.778  71.231  1.00  0.00     0.000 C 
BRANCH  17  18
ATOM     18  C   UNL     1      17.347  29.310  70.973  1.00  0.00    -0.000 C 
BRANCH  18  19
ATOM     19  C   UNL     1      18.819  29.139  70.571  1.00  0.00    -0.000 C 
BRANCH  19  20
ATOM     20  C   UNL     1      19.557  30.485  70.597  1.00  0.00    -0.000 C 
BRANCH  20  21
ATOM     21  C   UNL     1      20.197  30.786  69.234  1.00  0.00    -0.000 C 
BRANCH  21  22
ATOM     22  C   UNL     1      19.226  31.469  68.253  1.00  0.00    -0.000 C 
BRANCH  22  23
ATOM     23  C   UNL     1      18.439  30.509  67.344  1.00  0.00    -0.000 C 
BRANCH  23  24
ATOM     24  C   UNL     1      17.168  31.144  66.759  1.00  0.00    -0.000 C 
BRANCH  24  25
ATOM     25  C   UNL     1      17.072  30.887  65.250  1.00  0.00    -0.003 C 
ATOM     26  C   UNL     1      18.435  31.028  64.579  1.00  0.00     0.004 C 
ENDBRANCH  24  25
ENDBRANCH  23  24
ENDBRANCH  22  23
ENDBRANCH  21  22
ENDBRANCH  20  21
ENDBRANCH  19  20
ENDBRANCH  18  19
ENDBRANCH  17  18
ENDBRANCH  16  17
ENDBRANCH  15  16
ENDBRANCH   1  15
TORSDOF 22
ENDMDL
MODEL 9
REMARK VINA RESULT:    -4.360      2.513      5.096
REMARK INTER + INTRA:         -13.506
REMARK INTER:                 -10.374
REMARK INTRA:                  -3.132
REMARK UNBOUND:                -3.539
REMARK SMILES CCCCCCCCCCCCCCCCCCCCCCCC(=O)[O-]
REMARK SMILES IDX 13 1 14 2 15 3 16 4 17 5 18 6 19 7 20 8 21 9 22 10 23 11
REMARK SMILES IDX 24 12 25 13 26 14 12 15 11 16 10 17 9 18 8 19 7 20 6 21 5 22
REMARK SMILES IDX 4 23 3 24 2 25 1 26
REMARK H PARENT
REMARK Flexibility Score: inf
ROOT
ATOM      1  C   UNL     1      18.992  32.822  66.009  1.00  0.00     0.000 C 
ENDROOT
BRANCH   1   2
ATOM      2  C   UNL     1      18.671  34.278  65.643  1.00  0.00     0.000 C 
BRANCH   2   3
ATOM      3  C   UNL     1      17.442  34.819  66.392  1.00  0.00     0.000 C 
BRANCH   3   4
ATOM      4  C   UNL     1      16.851  36.076  65.727  1.00  0.00     0.000 C 
BRANCH   4   5
ATOM      5  C   UNL     1      15.318  36.131  65.835  1.00  0.00     0.000 C 
BRANCH   5   6
ATOM      6  C   UNL     1      14.843  36.518  67.247  1.00  0.00     0.000 C 
BRANCH   6   7
ATOM      7  C   UNL     1      13.741  35.587  67.779  1.00  0.00     0.000 C 
BRANCH   7   8
ATOM      8  C   UNL     1      14.098  34.088  67.764  1.00  0.00     0.000 C 
BRANCH   8   9
ATOM      9  C   UNL     1      13.001  33.179  68.363  1.00  0.00     0.000 C 
BRANCH   9  10
ATOM     10  C   UNL     1      12.020  32.672  67.296  1.00  0.00     0.006 C 
BRANCH  10  11
ATOM     11  C   UNL     1      11.139  31.547  67.845  1.00  0.00     0.053 C 
BRANCH  11  12
ATOM     12  C   UNL     1      10.076  31.185  66.855  1.00  0.00     0.041 C 
ATOM     13  O   UNL     1       9.557  30.038  66.876  1.00  0.00    -0.550 OA
ATOM     14  O   UNL     1       9.615  32.135  65.953  1.00  0.00    -0.550 OA
ENDBRANCH  11  12
ENDBRANCH  10  11
ENDBRANCH   9  10
ENDBRANCH   8   9
ENDBRANCH   7   8
ENDBRANCH   6   7
ENDBRANCH   5   6
ENDBRANCH   4   5
ENDBRANCH   3   4
ENDBRANCH   2   3
ENDBRANCH   1   2
BRANCH   1  15
ATOM     15  C   UNL     1      18.942  31.921  64.765  1.00  0.00     0.000 C 
BRANCH  15  16
ATOM     16  C   UNL     1      17.854  30.840  64.858  1.00  0.00     0.000 C 
BRANCH  16  17
ATOM     17  C   UNL     1      16.886  31.075  66.030  1.00  0.00     0.000 C 
BRANCH  17  18
ATOM     18  C   UNL     1      15.425  30.771  65.659  1.00  0.00    -0.000 C 
BRANCH  18  19
ATOM     19  C   UNL     1      14.614  30.219  66.841  1.00  0.00    -0.000 C 
BRANCH  19  20
ATOM     20  C   UNL     1      15.536  29.813  67.999  1.00  0.00    -0.000 C 
BRANCH  20  21
ATOM     21  C   UNL     1      14.880  30.117  69.354  1.00  0.00    -0.000 C 
BRANCH  21  22
ATOM     22  C   UNL     1      15.702  31.096  70.212  1.00  0.00    -0.000 C 
BRANCH  22  23
ATOM     23  C   UNL     1      16.692  30.433  71.187  1.00  0.00    -0.000 C 
BRANCH  23  24
ATOM     24  C   UNL     1      18.113  31.009  71.084  1.00  0.00    -0.000 C 
BRANCH  24  25
ATOM     25  C   UNL     1      19.021  30.083  70.267  1.00  0.00    -0.003 C 
ATOM     26  C   UNL     1      19.297  30.661  68.882  1.00  0.00     0.004 C 
ENDBRANCH  24  25
ENDBRANCH  23  24
ENDBRANCH  22  23
ENDBRANCH  21  22
ENDBRANCH  20  21
ENDBRANCH  19  20
ENDBRANCH  18  19
ENDBRANCH  17  18
ENDBRANCH  16  17
ENDBRANCH  15  16
ENDBRANCH   1  15
TORSDOF 22
ENDMDL
