MODEL 1
REMARK VINA RESULT:    -4.429      0.000      0.000
REMARK INTER + INTRA:         -16.698
REMARK INTER:                 -11.678
REMARK INTRA:                  -5.020
REMARK UNBOUND:                -5.020
REMARK SMILES CCCCCCCCCCCCCCCCCCCCCCCCCCCCCC(=O)[O-]
REMARK SMILES IDX 16 1 17 2 18 3 19 4 20 5 21 6 22 7 23 8 24 9 25 10 26 11
REMARK SMILES IDX 27 12 28 13 29 14 30 15 31 16 32 17 15 18 14 19 13 20 12 21
REMARK SMILES IDX 11 22 10 23 9 24 8 25 7 26 6 27 5 28 4 29 3 30 2 31 1 32
REMARK H PARENT
REMARK Flexibility Score: inf
ROOT
ATOM      1  C   UNL     1      -9.066  -3.446   5.777  1.00  0.00     0.000 C 
ENDROOT
BRANCH   1   2
ATOM      2  C   UNL     1      -8.620  -3.292   4.313  1.00  0.00     0.000 C 
BRANCH   2   3
ATOM      3  C   UNL     1      -9.767  -3.503   3.310  1.00  0.00     0.000 C 
BRANCH   3   4
ATOM      4  C   UNL     1     -10.202  -2.234   2.555  1.00  0.00     0.000 C 
BRANCH   4   5
ATOM      5  C   UNL     1      -9.021  -1.322   2.181  1.00  0.00     0.000 C 
BRANCH   5   6
ATOM      6  C   UNL     1      -9.111   0.069   2.855  1.00  0.00     0.000 C 
BRANCH   6   7
ATOM      7  C   UNL     1     -10.127   0.128   4.011  1.00  0.00     0.000 C 
BRANCH   7   8
ATOM      8  C   UNL     1     -10.939   1.435   4.088  1.00  0.00     0.000 C 
BRANCH   8   9
ATOM      9  C   UNL     1     -11.684   1.784   2.782  1.00  0.00     0.000 C 
BRANCH   9  10
ATOM     10  C   UNL     1     -12.816   0.795   2.461  1.00  0.00     0.000 C 
BRANCH  10  11
ATOM     11  C   UNL     1     -14.152   1.197   3.119  1.00  0.00     0.000 C 
BRANCH  11  12
ATOM     12  C   UNL     1     -14.469   2.698   3.001  1.00  0.00     0.000 C 
BRANCH  12  13
ATOM     13  C   UNL     1     -15.304   3.225   4.177  1.00  0.00     0.006 C 
BRANCH  13  14
ATOM     14  C   UNL     1     -16.753   3.486   3.749  1.00  0.00     0.053 C 
BRANCH  14  15
ATOM     15  C   UNL     1     -17.589   2.253   3.897  1.00  0.00     0.041 C 
ATOM     16  O   UNL     1     -18.115   1.973   5.006  1.00  0.00    -0.550 OA
ATOM     17  O   UNL     1     -17.757   1.393   2.820  1.00  0.00    -0.550 OA
ENDBRANCH  14  15
ENDBRANCH  13  14
ENDBRANCH  12  13
ENDBRANCH  11  12
ENDBRANCH  10  11
ENDBRANCH   9  10
ENDBRANCH   8   9
ENDBRANCH   7   8
ENDBRANCH   6   7
ENDBRANCH   5   6
ENDBRANCH   4   5
ENDBRANCH   3   4
ENDBRANCH   2   3
ENDBRANCH   1   2
BRANCH   1  18
ATOM     18  C   UNL     1      -8.310  -4.564   6.509  1.00  0.00     0.000 C 
BRANCH  18  19
ATOM     19  C   UNL     1      -9.230  -5.730   6.914  1.00  0.00     0.000 C 
BRANCH  19  20
ATOM     20  C   UNL     1      -9.223  -6.880   5.889  1.00  0.00     0.000 C 
BRANCH  20  21
ATOM     21  C   UNL     1     -10.480  -6.971   5.004  1.00  0.00     0.000 C 
BRANCH  21  22
ATOM     22  C   UNL     1     -11.660  -6.151   5.549  1.00  0.00     0.000 C 
BRANCH  22  23
ATOM     23  C   UNL     1     -13.002  -6.796   5.181  1.00  0.00     0.000 C 
BRANCH  23  24
ATOM     24  C   UNL     1     -13.471  -6.318   3.800  1.00  0.00    -0.000 C 
BRANCH  24  25
ATOM     25  C   UNL     1     -13.234  -4.817   3.574  1.00  0.00    -0.000 C 
BRANCH  25  26
ATOM     26  C   UNL     1     -14.391  -3.923   4.070  1.00  0.00    -0.000 C 
BRANCH  26  27
ATOM     27  C   UNL     1     -13.982  -2.444   4.166  1.00  0.00    -0.000 C 
BRANCH  27  28
ATOM     28  C   UNL     1     -12.747  -2.227   5.062  1.00  0.00    -0.000 C 
BRANCH  28  29
ATOM     29  C   UNL     1     -13.064  -2.229   6.570  1.00  0.00    -0.000 C 
BRANCH  29  30
ATOM     30  C   UNL     1     -14.396  -1.527   6.888  1.00  0.00    -0.000 C 
BRANCH  30  31
ATOM     31  C   UNL     1     -14.201  -0.197   7.630  1.00  0.00    -0.003 C 
ATOM     32  C   UNL     1     -13.642   0.906   6.730  1.00  0.00     0.004 C 
ENDBRANCH  30  31
ENDBRANCH  29  30
ENDBRANCH  28  29
ENDBRANCH  27  28
ENDBRANCH  26  27
ENDBRANCH  25  26
ENDBRANCH  24  25
ENDBRANCH  23  24
ENDBRANCH  22  23
ENDBRANCH  21  22
ENDBRANCH  20  21
ENDBRANCH  19  20
ENDBRANCH  18  19
ENDBRANCH   1  18
TORSDOF 28
ENDMDL
MODEL 2
REMARK VINA RESULT:    -4.379      2.169      7.673
REMARK INTER + INTRA:         -16.568
REMARK INTER:                 -12.029
REMARK INTRA:                  -4.539
REMARK UNBOUND:                -5.020
REMARK SMILES CCCCCCCCCCCCCCCCCCCCCCCCCCCCCC(=O)[O-]
REMARK SMILES IDX 16 1 17 2 18 3 19 4 20 5 21 6 22 7 23 8 24 9 25 10 26 11
REMARK SMILES IDX 27 12 28 13 29 14 30 15 31 16 32 17 15 18 14 19 13 20 12 21
REMARK SMILES IDX 11 22 10 23 9 24 8 25 7 26 6 27 5 28 4 29 3 30 2 31 1 32
REMARK H PARENT
REMARK Flexibility Score: inf
ROOT
ATOM      1  C   UNL     1     -14.581   3.787   3.451  1.00  0.00     0.000 C 
ENDROOT
BRANCH   1   2
ATOM      2  C   UNL     1     -16.046   3.733   2.986  1.00  0.00     0.000 C 
BRANCH   2   3
ATOM      3  C   UNL     1     -17.046   3.710   4.155  1.00  0.00     0.000 C 
BRANCH   3   4
ATOM      4  C   UNL     1     -17.975   2.483   4.183  1.00  0.00     0.000 C 
BRANCH   4   5
ATOM      5  C   UNL     1     -17.446   1.310   3.339  1.00  0.00     0.000 C 
BRANCH   5   6
ATOM      6  C   UNL     1     -16.843   0.180   4.209  1.00  0.00     0.000 C 
BRANCH   6   7
ATOM      7  C   UNL     1     -15.331   0.336   4.455  1.00  0.00     0.000 C 
BRANCH   7   8
ATOM      8  C   UNL     1     -14.959   0.883   5.847  1.00  0.00     0.000 C 
BRANCH   8   9
ATOM      9  C   UNL     1     -13.621   0.340   6.392  1.00  0.00     0.000 C 
BRANCH   9  10
ATOM     10  C   UNL     1     -13.803  -0.886   7.301  1.00  0.00     0.000 C 
BRANCH  10  11
ATOM     11  C   UNL     1     -13.348  -2.194   6.621  1.00  0.00     0.000 C 
BRANCH  11  12
ATOM     12  C   UNL     1     -12.651  -1.974   5.267  1.00  0.00     0.000 C 
BRANCH  12  13
ATOM     13  C   UNL     1     -13.299  -2.773   4.127  1.00  0.00     0.006 C 
BRANCH  13  14
ATOM     14  C   UNL     1     -12.994  -4.270   4.263  1.00  0.00     0.053 C 
BRANCH  14  15
ATOM     15  C   UNL     1     -14.071  -5.098   3.636  1.00  0.00     0.041 C 
ATOM     16  O   UNL     1     -13.804  -6.234   3.163  1.00  0.00    -0.550 OA
ATOM     17  O   UNL     1     -15.365  -4.602   3.539  1.00  0.00    -0.550 OA
ENDBRANCH  14  15
ENDBRANCH  13  14
ENDBRANCH  12  13
ENDBRANCH  11  12
ENDBRANCH  10  11
ENDBRANCH   9  10
ENDBRANCH   8   9
ENDBRANCH   7   8
ENDBRANCH   6   7
ENDBRANCH   5   6
ENDBRANCH   4   5
ENDBRANCH   3   4
ENDBRANCH   2   3
ENDBRANCH   1   2
BRANCH   1  18
ATOM     18  C   UNL     1     -13.595   3.404   2.337  1.00  0.00     0.000 C 
BRANCH  18  19
ATOM     19  C   UNL     1     -12.767   2.156   2.688  1.00  0.00     0.000 C 
BRANCH  19  20
ATOM     20  C   UNL     1     -11.848   2.371   3.905  1.00  0.00     0.000 C 
BRANCH  20  21
ATOM     21  C   UNL     1     -10.907   1.196   4.228  1.00  0.00     0.000 C 
BRANCH  21  22
ATOM     22  C   UNL     1     -10.644   0.287   3.017  1.00  0.00     0.000 C 
BRANCH  22  23
ATOM     23  C   UNL     1      -9.148   0.229   2.681  1.00  0.00     0.000 C 
BRANCH  23  24
ATOM     24  C   UNL     1      -8.635  -1.216   2.747  1.00  0.00    -0.000 C 
BRANCH  24  25
ATOM     25  C   UNL     1      -9.761  -2.244   2.928  1.00  0.00    -0.000 C 
BRANCH  25  26
ATOM     26  C   UNL     1      -9.337  -3.499   3.720  1.00  0.00    -0.000 C 
BRANCH  26  27
ATOM     27  C   UNL     1      -9.298  -3.242   5.236  1.00  0.00    -0.000 C 
BRANCH  27  28
ATOM     28  C   UNL     1      -8.655  -4.404   6.017  1.00  0.00    -0.000 C 
BRANCH  28  29
ATOM     29  C   UNL     1      -9.442  -5.726   5.928  1.00  0.00    -0.000 C 
BRANCH  29  30
ATOM     30  C   UNL     1      -9.554  -6.432   7.289  1.00  0.00    -0.000 C 
BRANCH  30  31
ATOM     31  C   UNL     1      -9.032  -7.876   7.251  1.00  0.00    -0.003 C 
ATOM     32  C   UNL     1      -8.351  -8.223   5.926  1.00  0.00     0.004 C 
ENDBRANCH  30  31
ENDBRANCH  29  30
ENDBRANCH  28  29
ENDBRANCH  27  28
ENDBRANCH  26  27
ENDBRANCH  25  26
ENDBRANCH  24  25
ENDBRANCH  23  24
ENDBRANCH  22  23
ENDBRANCH  21  22
ENDBRANCH  20  21
ENDBRANCH  19  20
ENDBRANCH  18  19
ENDBRANCH   1  18
TORSDOF 28
ENDMDL
MODEL 3
REMARK VINA RESULT:    -4.319      2.131      6.561
REMARK INTER + INTRA:         -16.410
REMARK INTER:                 -11.584
REMARK INTRA:                  -4.826
REMARK UNBOUND:                -5.020
REMARK SMILES CCCCCCCCCCCCCCCCCCCCCCCCCCCCCC(=O)[O-]
REMARK SMILES IDX 16 1 17 2 18 3 19 4 20 5 21 6 22 7 23 8 24 9 25 10 26 11
REMARK SMILES IDX 27 12 28 13 29 14 30 15 31 16 32 17 15 18 14 19 13 20 12 21
REMARK SMILES IDX 11 22 10 23 9 24 8 25 7 26 6 27 5 28 4 29 3 30 2 31 1 32
REMARK H PARENT
REMARK Flexibility Score: inf
ROOT
ATOM      1  C   UNL     1      -9.927   0.476   3.347  1.00  0.00     0.000 C 
ENDROOT
BRANCH   1   2
ATOM      2  C   UNL     1      -9.009  -0.673   2.897  1.00  0.00     0.000 C 
BRANCH   2   3
ATOM      3  C   UNL     1      -9.776  -1.830   2.236  1.00  0.00     0.000 C 
BRANCH   3   4
ATOM      4  C   UNL     1      -9.760  -3.149   3.029  1.00  0.00     0.000 C 
BRANCH   4   5
ATOM      5  C   UNL     1      -8.696  -3.169   4.140  1.00  0.00     0.000 C 
BRANCH   5   6
ATOM      6  C   UNL     1      -9.307  -3.411   5.542  1.00  0.00     0.000 C 
BRANCH   6   7
ATOM      7  C   UNL     1      -8.441  -4.309   6.444  1.00  0.00     0.000 C 
BRANCH   7   8
ATOM      8  C   UNL     1      -9.048  -5.692   6.749  1.00  0.00     0.000 C 
BRANCH   8   9
ATOM      9  C   UNL     1      -9.087  -6.638   5.531  1.00  0.00     0.000 C 
BRANCH   9  10
ATOM     10  C   UNL     1     -10.483  -7.229   5.280  1.00  0.00     0.000 C 
BRANCH  10  11
ATOM     11  C   UNL     1     -11.508  -6.156   4.854  1.00  0.00     0.000 C 
BRANCH  11  12
ATOM     12  C   UNL     1     -12.712  -6.043   5.804  1.00  0.00     0.000 C 
BRANCH  12  13
ATOM     13  C   UNL     1     -14.043  -6.397   5.125  1.00  0.00     0.006 C 
BRANCH  13  14
ATOM     14  C   UNL     1     -13.921  -6.308   3.599  1.00  0.00     0.053 C 
BRANCH  14  15
ATOM     15  C   UNL     1     -15.189  -5.801   2.986  1.00  0.00     0.041 C 
ATOM     16  O   UNL     1     -15.662  -6.354   1.959  1.00  0.00    -0.550 OA
ATOM     17  O   UNL     1     -15.829  -4.693   3.526  1.00  0.00    -0.550 OA
ENDBRANCH  14  15
ENDBRANCH  13  14
ENDBRANCH  12  13
ENDBRANCH  11  12
ENDBRANCH  10  11
ENDBRANCH   9  10
ENDBRANCH   8   9
ENDBRANCH   7   8
ENDBRANCH   6   7
ENDBRANCH   5   6
ENDBRANCH   4   5
ENDBRANCH   3   4
ENDBRANCH   2   3
ENDBRANCH   1   2
BRANCH   1  18
ATOM     18  C   UNL     1     -10.929   0.890   2.260  1.00  0.00     0.000 C 
BRANCH  18  19
ATOM     19  C   UNL     1     -12.383   0.883   2.767  1.00  0.00     0.000 C 
BRANCH  19  20
ATOM     20  C   UNL     1     -12.563   0.053   4.052  1.00  0.00     0.000 C 
BRANCH  20  21
ATOM     21  C   UNL     1     -13.160  -1.351   3.843  1.00  0.00     0.000 C 
BRANCH  21  22
ATOM     22  C   UNL     1     -12.764  -2.342   4.949  1.00  0.00     0.000 C 
BRANCH  22  23
ATOM     23  C   UNL     1     -13.974  -2.722   5.813  1.00  0.00     0.000 C 
BRANCH  23  24
ATOM     24  C   UNL     1     -13.720  -2.372   7.285  1.00  0.00    -0.000 C 
BRANCH  24  25
ATOM     25  C   UNL     1     -14.415  -1.073   7.720  1.00  0.00    -0.000 C 
BRANCH  25  26
ATOM     26  C   UNL     1     -15.767  -0.826   7.018  1.00  0.00    -0.000 C 
BRANCH  26  27
ATOM     27  C   UNL     1     -15.736   0.422   6.119  1.00  0.00    -0.000 C 
BRANCH  27  28
ATOM     28  C   UNL     1     -16.594   0.260   4.850  1.00  0.00    -0.000 C 
BRANCH  28  29
ATOM     29  C   UNL     1     -16.167   1.177   3.688  1.00  0.00    -0.000 C 
BRANCH  29  30
ATOM     30  C   UNL     1     -17.208   2.270   3.394  1.00  0.00    -0.000 C 
BRANCH  30  31
ATOM     31  C   UNL     1     -16.843   3.620   4.029  1.00  0.00    -0.003 C 
ATOM     32  C   UNL     1     -16.484   4.684   2.990  1.00  0.00     0.004 C 
ENDBRANCH  30  31
ENDBRANCH  29  30
ENDBRANCH  28  29
ENDBRANCH  27  28
ENDBRANCH  26  27
ENDBRANCH  25  26
ENDBRANCH  24  25
ENDBRANCH  23  24
ENDBRANCH  22  23
ENDBRANCH  21  22
ENDBRANCH  20  21
ENDBRANCH  19  20
ENDBRANCH  18  19
ENDBRANCH   1  18
TORSDOF 28
ENDMDL
MODEL 4
REMARK VINA RESULT:    -4.248      2.614      6.811
REMARK INTER + INTRA:         -16.222
REMARK INTER:                 -10.821
REMARK INTRA:                  -5.401
REMARK UNBOUND:                -5.020
REMARK SMILES CCCCCCCCCCCCCCCCCCCCCCCCCCCCCC(=O)[O-]
REMARK SMILES IDX 16 1 17 2 18 3 19 4 20 5 21 6 22 7 23 8 24 9 25 10 26 11
REMARK SMILES IDX 27 12 28 13 29 14 30 15 31 16 32 17 15 18 14 19 13 20 12 21
REMARK SMILES IDX 11 22 10 23 9 24 8 25 7 26 6 27 5 28 4 29 3 30 2 31 1 32
REMARK H PARENT
REMARK Flexibility Score: inf
ROOT
ATOM      1  C   UNL     1     -10.539   1.211   3.731  1.00  0.00     0.000 C 
ENDROOT
BRANCH   1   2
ATOM      2  C   UNL     1     -10.596   0.835   2.240  1.00  0.00     0.000 C 
BRANCH   2   3
ATOM      3  C   UNL     1      -9.994  -0.549   1.947  1.00  0.00     0.000 C 
BRANCH   3   4
ATOM      4  C   UNL     1     -11.019  -1.695   1.875  1.00  0.00     0.000 C 
BRANCH   4   5
ATOM      5  C   UNL     1     -10.719  -2.833   2.866  1.00  0.00     0.000 C 
BRANCH   5   6
ATOM      6  C   UNL     1      -9.710  -2.412   3.963  1.00  0.00     0.000 C 
BRANCH   6   7
ATOM      7  C   UNL     1      -8.717  -3.524   4.344  1.00  0.00     0.000 C 
BRANCH   7   8
ATOM      8  C   UNL     1      -8.527  -3.727   5.860  1.00  0.00     0.000 C 
BRANCH   8   9
ATOM      9  C   UNL     1      -8.907  -5.140   6.352  1.00  0.00     0.000 C 
BRANCH   9  10
ATOM     10  C   UNL     1      -9.710  -5.936   5.311  1.00  0.00     0.000 C 
BRANCH  10  11
ATOM     11  C   UNL     1     -11.181  -6.136   5.732  1.00  0.00     0.000 C 
BRANCH  11  12
ATOM     12  C   UNL     1     -12.007  -4.838   5.722  1.00  0.00     0.000 C 
BRANCH  12  13
ATOM     13  C   UNL     1     -13.411  -5.030   5.132  1.00  0.00     0.006 C 
BRANCH  13  14
ATOM     14  C   UNL     1     -13.341  -5.310   3.626  1.00  0.00     0.053 C 
BRANCH  14  15
ATOM     15  C   UNL     1     -14.212  -6.469   3.253  1.00  0.00     0.041 C 
ATOM     16  O   UNL     1     -14.101  -7.567   3.859  1.00  0.00    -0.550 OA
ATOM     17  O   UNL     1     -15.121  -6.349   2.210  1.00  0.00    -0.550 OA
ENDBRANCH  14  15
ENDBRANCH  13  14
ENDBRANCH  12  13
ENDBRANCH  11  12
ENDBRANCH  10  11
ENDBRANCH   9  10
ENDBRANCH   8   9
ENDBRANCH   7   8
ENDBRANCH   6   7
ENDBRANCH   5   6
ENDBRANCH   4   5
ENDBRANCH   3   4
ENDBRANCH   2   3
ENDBRANCH   1   2
BRANCH   1  18
ATOM     18  C   UNL     1     -11.425   2.419   4.069  1.00  0.00     0.000 C 
BRANCH  18  19
ATOM     19  C   UNL     1     -12.824   2.318   3.433  1.00  0.00     0.000 C 
BRANCH  19  20
ATOM     20  C   UNL     1     -13.956   2.311   4.478  1.00  0.00     0.000 C 
BRANCH  20  21
ATOM     21  C   UNL     1     -15.311   2.841   3.975  1.00  0.00     0.000 C 
BRANCH  21  22
ATOM     22  C   UNL     1     -16.341   1.725   3.736  1.00  0.00     0.000 C 
BRANCH  22  23
ATOM     23  C   UNL     1     -17.107   1.393   5.023  1.00  0.00     0.000 C 
BRANCH  23  24
ATOM     24  C   UNL     1     -16.804  -0.041   5.478  1.00  0.00    -0.000 C 
BRANCH  24  25
ATOM     25  C   UNL     1     -16.447  -0.976   4.313  1.00  0.00    -0.000 C 
BRANCH  25  26
ATOM     26  C   UNL     1     -15.236  -1.890   4.598  1.00  0.00    -0.000 C 
BRANCH  26  27
ATOM     27  C   UNL     1     -13.899  -1.204   4.264  1.00  0.00    -0.000 C 
BRANCH  27  28
ATOM     28  C   UNL     1     -12.894  -1.266   5.429  1.00  0.00    -0.000 C 
BRANCH  28  29
ATOM     29  C   UNL     1     -13.554  -1.276   6.822  1.00  0.00    -0.000 C 
BRANCH  29  30
ATOM     30  C   UNL     1     -13.750   0.141   7.386  1.00  0.00    -0.000 C 
BRANCH  30  31
ATOM     31  C   UNL     1     -13.466   0.222   8.893  1.00  0.00    -0.003 C 
ATOM     32  C   UNL     1     -14.668   0.721   9.696  1.00  0.00     0.004 C 
ENDBRANCH  30  31
ENDBRANCH  29  30
ENDBRANCH  28  29
ENDBRANCH  27  28
ENDBRANCH  26  27
ENDBRANCH  25  26
ENDBRANCH  24  25
ENDBRANCH  23  24
ENDBRANCH  22  23
ENDBRANCH  21  22
ENDBRANCH  20  21
ENDBRANCH  19  20
ENDBRANCH  18  19
ENDBRANCH   1  18
TORSDOF 28
ENDMDL
MODEL 5
REMARK VINA RESULT:    -4.237      1.752      4.657
REMARK INTER + INTRA:         -16.192
REMARK INTER:                 -10.631
REMARK INTRA:                  -5.560
REMARK UNBOUND:                -5.020
REMARK SMILES CCCCCCCCCCCCCCCCCCCCCCCCCCCCCC(=O)[O-]
REMARK SMILES IDX 16 1 17 2 18 3 19 4 20 5 21 6 22 7 23 8 24 9 25 10 26 11
REMARK SMILES IDX 27 12 28 13 29 14 30 15 31 16 32 17 15 18 14 19 13 20 12 21
REMARK SMILES IDX 11 22 10 23 9 24 8 25 7 26 6 27 5 28 4 29 3 30 2 31 1 32
REMARK H PARENT
REMARK Flexibility Score: inf
ROOT
ATOM      1  C   UNL     1     -11.826  -5.542   6.205  1.00  0.00     0.000 C 
ENDROOT
BRANCH   1   2
ATOM      2  C   UNL     1     -10.613  -6.227   6.857  1.00  0.00     0.000 C 
BRANCH   2   3
ATOM      3  C   UNL     1      -9.293  -5.932   6.125  1.00  0.00     0.000 C 
BRANCH   3   4
ATOM      4  C   UNL     1      -8.618  -4.608   6.524  1.00  0.00     0.000 C 
BRANCH   4   5
ATOM      5  C   UNL     1      -8.645  -3.557   5.400  1.00  0.00     0.000 C 
BRANCH   5   6
ATOM      6  C   UNL     1      -9.084  -4.155   4.041  1.00  0.00     0.000 C 
BRANCH   6   7
ATOM      7  C   UNL     1      -9.402  -3.091   2.975  1.00  0.00     0.000 C 
BRANCH   7   8
ATOM      8  C   UNL     1      -8.964  -1.660   3.344  1.00  0.00     0.000 C 
BRANCH   8   9
ATOM      9  C   UNL     1      -8.791  -0.728   2.126  1.00  0.00     0.000 C 
BRANCH   9  10
ATOM     10  C   UNL     1      -9.868   0.366   2.057  1.00  0.00     0.000 C 
BRANCH  10  11
ATOM     11  C   UNL     1     -10.076   1.073   3.413  1.00  0.00     0.000 C 
BRANCH  11  12
ATOM     12  C   UNL     1     -11.064   2.251   3.348  1.00  0.00     0.000 C 
BRANCH  12  13
ATOM     13  C   UNL     1     -12.100   2.098   2.225  1.00  0.00     0.006 C 
BRANCH  13  14
ATOM     14  C   UNL     1     -13.050   3.301   2.187  1.00  0.00     0.053 C 
BRANCH  14  15
ATOM     15  C   UNL     1     -14.190   3.117   3.139  1.00  0.00     0.041 C 
ATOM     16  O   UNL     1     -14.924   2.098   3.060  1.00  0.00    -0.550 OA
ATOM     17  O   UNL     1     -14.466   4.091   4.090  1.00  0.00    -0.550 OA
ENDBRANCH  14  15
ENDBRANCH  13  14
ENDBRANCH  12  13
ENDBRANCH  11  12
ENDBRANCH  10  11
ENDBRANCH   9  10
ENDBRANCH   8   9
ENDBRANCH   7   8
ENDBRANCH   6   7
ENDBRANCH   5   6
ENDBRANCH   4   5
ENDBRANCH   3   4
ENDBRANCH   2   3
ENDBRANCH   1   2
BRANCH   1  18
ATOM     18  C   UNL     1     -12.164  -6.129   4.827  1.00  0.00     0.000 C 
BRANCH  18  19
ATOM     19  C   UNL     1     -12.659  -5.059   3.837  1.00  0.00     0.000 C 
BRANCH  19  20
ATOM     20  C   UNL     1     -12.647  -3.640   4.436  1.00  0.00     0.000 C 
BRANCH  20  21
ATOM     21  C   UNL     1     -12.858  -2.502   3.420  1.00  0.00     0.000 C 
BRANCH  21  22
ATOM     22  C   UNL     1     -12.753  -1.106   4.053  1.00  0.00     0.000 C 
BRANCH  22  23
ATOM     23  C   UNL     1     -12.335  -1.193   5.527  1.00  0.00     0.000 C 
BRANCH  23  24
ATOM     24  C   UNL     1     -13.359  -0.482   6.423  1.00  0.00    -0.000 C 
BRANCH  24  25
ATOM     25  C   UNL     1     -14.634  -0.077   5.669  1.00  0.00    -0.000 C 
BRANCH  25  26
ATOM     26  C   UNL     1     -15.887  -0.873   6.093  1.00  0.00    -0.000 C 
BRANCH  26  27
ATOM     27  C   UNL     1     -16.064  -2.159   5.268  1.00  0.00    -0.000 C 
BRANCH  27  28
ATOM     28  C   UNL     1     -15.941  -3.434   6.123  1.00  0.00    -0.000 C 
BRANCH  28  29
ATOM     29  C   UNL     1     -16.027  -4.740   5.310  1.00  0.00    -0.000 C 
BRANCH  29  30
ATOM     30  C   UNL     1     -16.373  -4.487   3.833  1.00  0.00    -0.000 C 
BRANCH  30  31
ATOM     31  C   UNL     1     -16.808  -5.765   3.101  1.00  0.00    -0.003 C 
ATOM     32  C   UNL     1     -15.664  -6.418   2.321  1.00  0.00     0.004 C 
ENDBRANCH  30  31
ENDBRANCH  29  30
ENDBRANCH  28  29
ENDBRANCH  27  28
ENDBRANCH  26  27
ENDBRANCH  25  26
ENDBRANCH  24  25
ENDBRANCH  23  24
ENDBRANCH  22  23
ENDBRANCH  21  22
ENDBRANCH  20  21
ENDBRANCH  19  20
ENDBRANCH  18  19
ENDBRANCH   1  18
TORSDOF 28
ENDMDL
MODEL 6
REMARK VINA RESULT:    -4.233      1.483      5.610
REMARK INTER + INTRA:         -16.181
REMARK INTER:                 -11.210
REMARK INTRA:                  -4.971
REMARK UNBOUND:                -5.020
REMARK SMILES CCCCCCCCCCCCCCCCCCCCCCCCCCCCCC(=O)[O-]
REMARK SMILES IDX 16 1 17 2 18 3 19 4 20 5 21 6 22 7 23 8 24 9 25 10 26 11
REMARK SMILES IDX 27 12 28 13 29 14 30 15 31 16 32 17 15 18 14 19 13 20 12 21
REMARK SMILES IDX 11 22 10 23 9 24 8 25 7 26 6 27 5 28 4 29 3 30 2 31 1 32
REMARK H PARENT
REMARK Flexibility Score: inf
ROOT
ATOM      1  C   UNL     1      -8.495  -4.417   6.496  1.00  0.00     0.000 C 
ENDROOT
BRANCH   1   2
ATOM      2  C   UNL     1      -9.257  -5.695   6.885  1.00  0.00     0.000 C 
BRANCH   2   3
ATOM      3  C   UNL     1      -8.999  -6.865   5.920  1.00  0.00     0.000 C 
BRANCH   3   4
ATOM      4  C   UNL     1     -10.162  -7.178   4.962  1.00  0.00     0.000 C 
BRANCH   4   5
ATOM      5  C   UNL     1     -11.441  -6.387   5.290  1.00  0.00     0.000 C 
BRANCH   5   6
ATOM      6  C   UNL     1     -12.729  -7.170   4.936  1.00  0.00     0.000 C 
BRANCH   6   7
ATOM      7  C   UNL     1     -13.687  -6.392   4.015  1.00  0.00     0.000 C 
BRANCH   7   8
ATOM      8  C   UNL     1     -13.169  -5.013   3.566  1.00  0.00     0.000 C 
BRANCH   8   9
ATOM      9  C   UNL     1     -13.965  -3.827   4.151  1.00  0.00     0.000 C 
BRANCH   9  10
ATOM     10  C   UNL     1     -13.258  -2.478   3.949  1.00  0.00     0.000 C 
BRANCH  10  11
ATOM     11  C   UNL     1     -12.588  -1.966   5.242  1.00  0.00     0.000 C 
BRANCH  11  12
ATOM     12  C   UNL     1     -13.085  -2.673   6.514  1.00  0.00     0.000 C 
BRANCH  12  13
ATOM     13  C   UNL     1     -13.935  -1.761   7.410  1.00  0.00     0.006 C 
BRANCH  13  14
ATOM     14  C   UNL     1     -13.486  -0.300   7.290  1.00  0.00     0.053 C 
BRANCH  14  15
ATOM     15  C   UNL     1     -14.414   0.612   8.030  1.00  0.00     0.041 C 
ATOM     16  O   UNL     1     -13.978   1.670   8.555  1.00  0.00    -0.550 OA
ATOM     17  O   UNL     1     -15.753   0.275   8.175  1.00  0.00    -0.550 OA
ENDBRANCH  14  15
ENDBRANCH  13  14
ENDBRANCH  12  13
ENDBRANCH  11  12
ENDBRANCH  10  11
ENDBRANCH   9  10
ENDBRANCH   8   9
ENDBRANCH   7   8
ENDBRANCH   6   7
ENDBRANCH   5   6
ENDBRANCH   4   5
ENDBRANCH   3   4
ENDBRANCH   2   3
ENDBRANCH   1   2
BRANCH   1  18
ATOM     18  C   UNL     1      -9.312  -3.502   5.572  1.00  0.00     0.000 C 
BRANCH  18  19
ATOM     19  C   UNL     1      -8.763  -3.476   4.134  1.00  0.00     0.000 C 
BRANCH  19  20
ATOM     20  C   UNL     1      -9.871  -3.333   3.074  1.00  0.00     0.000 C 
BRANCH  20  21
ATOM     21  C   UNL     1      -9.861  -2.004   2.296  1.00  0.00     0.000 C 
BRANCH  21  22
ATOM     22  C   UNL     1      -9.010  -0.918   2.974  1.00  0.00     0.000 C 
BRANCH  22  23
ATOM     23  C   UNL     1      -9.637   0.471   2.794  1.00  0.00     0.000 C 
BRANCH  23  24
ATOM     24  C   UNL     1     -10.121   1.024   4.142  1.00  0.00    -0.000 C 
BRANCH  24  25
ATOM     25  C   UNL     1     -11.605   1.417   4.129  1.00  0.00    -0.000 C 
BRANCH  25  26
ATOM     26  C   UNL     1     -12.391   0.841   2.932  1.00  0.00    -0.000 C 
BRANCH  26  27
ATOM     27  C   UNL     1     -13.814   1.419   2.839  1.00  0.00    -0.000 C 
BRANCH  27  28
ATOM     28  C   UNL     1     -14.499   1.533   4.213  1.00  0.00    -0.000 C 
BRANCH  28  29
ATOM     29  C   UNL     1     -15.638   0.517   4.427  1.00  0.00    -0.000 C 
BRANCH  29  30
ATOM     30  C   UNL     1     -16.812   0.744   3.460  1.00  0.00    -0.000 C 
BRANCH  30  31
ATOM     31  C   UNL     1     -17.259   2.212   3.408  1.00  0.00    -0.003 C 
ATOM     32  C   UNL     1     -17.995   2.652   4.674  1.00  0.00     0.004 C 
ENDBRANCH  30  31
ENDBRANCH  29  30
ENDBRANCH  28  29
ENDBRANCH  27  28
ENDBRANCH  26  27
ENDBRANCH  25  26
ENDBRANCH  24  25
ENDBRANCH  23  24
ENDBRANCH  22  23
ENDBRANCH  21  22
ENDBRANCH  20  21
ENDBRANCH  19  20
ENDBRANCH  18  19
ENDBRANCH   1  18
TORSDOF 28
ENDMDL
MODEL 7
REMARK VINA RESULT:    -4.230      1.532      2.800
REMARK INTER + INTRA:         -16.175
REMARK INTER:                 -10.594
REMARK INTRA:                  -5.580
REMARK UNBOUND:                -5.020
REMARK SMILES CCCCCCCCCCCCCCCCCCCCCCCCCCCCCC(=O)[O-]
REMARK SMILES IDX 16 1 17 2 18 3 19 4 20 5 21 6 22 7 23 8 24 9 25 10 26 11
REMARK SMILES IDX 27 12 28 13 29 14 30 15 31 16 32 17 15 18 14 19 13 20 12 21
REMARK SMILES IDX 11 22 10 23 9 24 8 25 7 26 6 27 5 28 4 29 3 30 2 31 1 32
REMARK H PARENT
REMARK Flexibility Score: inf
ROOT
ATOM      1  C   UNL     1      -9.159  -5.500   6.864  1.00  0.00     0.000 C 
ENDROOT
BRANCH   1   2
ATOM      2  C   UNL     1      -8.287  -4.323   6.394  1.00  0.00     0.000 C 
BRANCH   2   3
ATOM      3  C   UNL     1      -9.087  -3.250   5.636  1.00  0.00     0.000 C 
BRANCH   3   4
ATOM      4  C   UNL     1      -8.775  -3.159   4.132  1.00  0.00     0.000 C 
BRANCH   4   5
ATOM      5  C   UNL     1      -9.991  -3.480   3.245  1.00  0.00     0.000 C 
BRANCH   5   6
ATOM      6  C   UNL     1      -9.975  -2.696   1.910  1.00  0.00     0.000 C 
BRANCH   6   7
ATOM      7  C   UNL     1     -10.738  -1.361   1.972  1.00  0.00     0.000 C 
BRANCH   7   8
ATOM      8  C   UNL     1      -9.854  -0.126   2.234  1.00  0.00     0.000 C 
BRANCH   8   9
ATOM      9  C   UNL     1     -10.083   0.522   3.616  1.00  0.00     0.000 C 
BRANCH   9  10
ATOM     10  C   UNL     1     -10.708   1.923   3.520  1.00  0.00     0.000 C 
BRANCH  10  11
ATOM     11  C   UNL     1     -11.579   2.093   2.257  1.00  0.00     0.000 C 
BRANCH  11  12
ATOM     12  C   UNL     1     -12.838   2.946   2.488  1.00  0.00     0.000 C 
BRANCH  12  13
ATOM     13  C   UNL     1     -13.971   2.164   3.168  1.00  0.00     0.006 C 
BRANCH  13  14
ATOM     14  C   UNL     1     -14.197   2.659   4.601  1.00  0.00     0.053 C 
BRANCH  14  15
ATOM     15  C   UNL     1     -14.355   1.512   5.549  1.00  0.00     0.041 C 
ATOM     16  O   UNL     1     -13.450   1.250   6.385  1.00  0.00    -0.550 OA
ATOM     17  O   UNL     1     -15.485   0.707   5.487  1.00  0.00    -0.550 OA
ENDBRANCH  14  15
ENDBRANCH  13  14
ENDBRANCH  12  13
ENDBRANCH  11  12
ENDBRANCH  10  11
ENDBRANCH   9  10
ENDBRANCH   8   9
ENDBRANCH   7   8
ENDBRANCH   6   7
ENDBRANCH   5   6
ENDBRANCH   4   5
ENDBRANCH   3   4
ENDBRANCH   2   3
ENDBRANCH   1   2
BRANCH   1  18
ATOM     18  C   UNL     1      -9.063  -6.714   5.928  1.00  0.00     0.000 C 
BRANCH  18  19
ATOM     19  C   UNL     1     -10.290  -6.846   5.009  1.00  0.00     0.000 C 
BRANCH  19  20
ATOM     20  C   UNL     1     -11.513  -6.066   5.528  1.00  0.00     0.000 C 
BRANCH  20  21
ATOM     21  C   UNL     1     -12.837  -6.374   4.806  1.00  0.00     0.000 C 
BRANCH  21  22
ATOM     22  C   UNL     1     -13.067  -5.489   3.570  1.00  0.00     0.000 C 
BRANCH  22  23
ATOM     23  C   UNL     1     -14.419  -5.794   2.912  1.00  0.00     0.000 C 
BRANCH  23  24
ATOM     24  C   UNL     1     -15.530  -5.870   3.968  1.00  0.00    -0.000 C 
BRANCH  24  25
ATOM     25  C   UNL     1     -16.207  -4.515   4.223  1.00  0.00    -0.000 C 
BRANCH  25  26
ATOM     26  C   UNL     1     -16.553  -4.262   5.706  1.00  0.00    -0.000 C 
BRANCH  26  27
ATOM     27  C   UNL     1     -15.295  -4.135   6.582  1.00  0.00    -0.000 C 
BRANCH  27  28
ATOM     28  C   UNL     1     -15.208  -2.776   7.302  1.00  0.00    -0.000 C 
BRANCH  28  29
ATOM     29  C   UNL     1     -13.798  -2.155   7.293  1.00  0.00    -0.000 C 
BRANCH  29  30
ATOM     30  C   UNL     1     -12.874  -2.819   6.259  1.00  0.00    -0.000 C 
BRANCH  30  31
ATOM     31  C   UNL     1     -12.519  -1.883   5.095  1.00  0.00    -0.003 C 
ATOM     32  C   UNL     1     -13.611  -1.831   4.024  1.00  0.00     0.004 C 
ENDBRANCH  30  31
ENDBRANCH  29  30
ENDBRANCH  28  29
ENDBRANCH  27  28
ENDBRANCH  26  27
ENDBRANCH  25  26
ENDBRANCH  24  25
ENDBRANCH  23  24
ENDBRANCH  22  23
ENDBRANCH  21  22
ENDBRANCH  20  21
ENDBRANCH  19  20
ENDBRANCH  18  19
ENDBRANCH   1  18
TORSDOF 28
ENDMDL
MODEL 8
REMARK VINA RESULT:    -4.207      2.521      6.806
REMARK INTER + INTRA:         -16.113
REMARK INTER:                 -11.309
REMARK INTRA:                  -4.804
REMARK UNBOUND:                -5.020
REMARK SMILES CCCCCCCCCCCCCCCCCCCCCCCCCCCCCC(=O)[O-]
REMARK SMILES IDX 16 1 17 2 18 3 19 4 20 5 21 6 22 7 23 8 24 9 25 10 26 11
REMARK SMILES IDX 27 12 28 13 29 14 30 15 31 16 32 17 15 18 14 19 13 20 12 21
REMARK SMILES IDX 11 22 10 23 9 24 8 25 7 26 6 27 5 28 4 29 3 30 2 31 1 32
REMARK H PARENT
REMARK Flexibility Score: inf
ROOT
ATOM      1  C   UNL     1     -10.787   1.009   4.196  1.00  0.00     0.000 C 
ENDROOT
BRANCH   1   2
ATOM      2  C   UNL     1     -10.539   0.780   2.695  1.00  0.00     0.000 C 
BRANCH   2   3
ATOM      3  C   UNL     1      -9.066   0.479   2.369  1.00  0.00     0.000 C 
BRANCH   3   4
ATOM      4  C   UNL     1      -8.642  -0.982   2.597  1.00  0.00     0.000 C 
BRANCH   4   5
ATOM      5  C   UNL     1      -9.720  -1.994   2.173  1.00  0.00     0.000 C 
BRANCH   5   6
ATOM      6  C   UNL     1      -9.879  -3.151   3.190  1.00  0.00     0.000 C 
BRANCH   6   7
ATOM      7  C   UNL     1      -8.727  -3.238   4.207  1.00  0.00     0.000 C 
BRANCH   7   8
ATOM      8  C   UNL     1      -9.165  -3.549   5.651  1.00  0.00     0.000 C 
BRANCH   8   9
ATOM      9  C   UNL     1      -8.983  -5.028   6.052  1.00  0.00     0.000 C 
BRANCH   9  10
ATOM     10  C   UNL     1     -10.316  -5.732   6.350  1.00  0.00     0.000 C 
BRANCH  10  11
ATOM     11  C   UNL     1     -11.103  -6.070   5.067  1.00  0.00     0.000 C 
BRANCH  11  12
ATOM     12  C   UNL     1     -12.369  -5.216   4.878  1.00  0.00     0.000 C 
BRANCH  12  13
ATOM     13  C   UNL     1     -13.119  -5.541   3.579  1.00  0.00     0.006 C 
BRANCH  13  14
ATOM     14  C   UNL     1     -14.606  -5.187   3.699  1.00  0.00     0.053 C 
BRANCH  14  15
ATOM     15  C   UNL     1     -15.457  -6.417   3.656  1.00  0.00     0.041 C 
ATOM     16  O   UNL     1     -16.236  -6.684   4.608  1.00  0.00    -0.550 OA
ATOM     17  O   UNL     1     -15.364  -7.291   2.580  1.00  0.00    -0.550 OA
ENDBRANCH  14  15
ENDBRANCH  13  14
ENDBRANCH  12  13
ENDBRANCH  11  12
ENDBRANCH  10  11
ENDBRANCH   9  10
ENDBRANCH   8   9
ENDBRANCH   7   8
ENDBRANCH   6   7
ENDBRANCH   5   6
ENDBRANCH   4   5
ENDBRANCH   3   4
ENDBRANCH   2   3
ENDBRANCH   1   2
BRANCH   1  18
ATOM     18  C   UNL     1     -11.508  -0.173   4.861  1.00  0.00     0.000 C 
BRANCH  18  19
ATOM     19  C   UNL     1     -12.675  -0.704   4.009  1.00  0.00     0.000 C 
BRANCH  19  20
ATOM     20  C   UNL     1     -13.512  -1.770   4.742  1.00  0.00     0.000 C 
BRANCH  20  21
ATOM     21  C   UNL     1     -15.033  -1.531   4.721  1.00  0.00     0.000 C 
BRANCH  21  22
ATOM     22  C   UNL     1     -15.526  -0.698   5.915  1.00  0.00     0.000 C 
BRANCH  22  23
ATOM     23  C   UNL     1     -16.549   0.356   5.473  1.00  0.00     0.000 C 
BRANCH  23  24
ATOM     24  C   UNL     1     -17.020   0.084   4.038  1.00  0.00    -0.000 C 
BRANCH  24  25
ATOM     25  C   UNL     1     -17.333   1.369   3.256  1.00  0.00    -0.000 C 
BRANCH  25  26
ATOM     26  C   UNL     1     -17.666   2.578   4.155  1.00  0.00    -0.000 C 
BRANCH  26  27
ATOM     27  C   UNL     1     -16.983   3.869   3.668  1.00  0.00    -0.000 C 
BRANCH  27  28
ATOM     28  C   UNL     1     -16.052   4.483   4.730  1.00  0.00    -0.000 C 
BRANCH  28  29
ATOM     29  C   UNL     1     -14.568   4.513   4.314  1.00  0.00    -0.000 C 
BRANCH  29  30
ATOM     30  C   UNL     1     -13.938   3.110   4.294  1.00  0.00    -0.000 C 
BRANCH  30  31
ATOM     31  C   UNL     1     -13.900   2.499   2.886  1.00  0.00    -0.003 C 
ATOM     32  C   UNL     1     -13.170   3.386   1.875  1.00  0.00     0.004 C 
ENDBRANCH  30  31
ENDBRANCH  29  30
ENDBRANCH  28  29
ENDBRANCH  27  28
ENDBRANCH  26  27
ENDBRANCH  25  26
ENDBRANCH  24  25
ENDBRANCH  23  24
ENDBRANCH  22  23
ENDBRANCH  21  22
ENDBRANCH  20  21
ENDBRANCH  19  20
ENDBRANCH  18  19
ENDBRANCH   1  18
TORSDOF 28
ENDMDL
MODEL 9
REMARK VINA RESULT:    -4.126      1.978      4.712
REMARK INTER + INTRA:         -15.900
REMARK INTER:                 -10.098
REMARK INTRA:                  -5.802
REMARK UNBOUND:                -5.020
REMARK SMILES CCCCCCCCCCCCCCCCCCCCCCCCCCCCCC(=O)[O-]
REMARK SMILES IDX 16 1 17 2 18 3 19 4 20 5 21 6 22 7 23 8 24 9 25 10 26 11
REMARK SMILES IDX 27 12 28 13 29 14 30 15 31 16 32 17 15 18 14 19 13 20 12 21
REMARK SMILES IDX 11 22 10 23 9 24 8 25 7 26 6 27 5 28 4 29 3 30 2 31 1 32
REMARK H PARENT
REMARK Flexibility Score: inf
ROOT
ATOM      1  C   UNL     1     -12.445  -6.872   7.189  1.00  0.00     0.000 C 
ENDROOT
BRANCH   1   2
ATOM      2  C   UNL     1     -10.955  -6.495   7.172  1.00  0.00     0.000 C 
BRANCH   2   3
ATOM      3  C   UNL     1     -10.215  -7.026   5.932  1.00  0.00     0.000 C 
BRANCH   3   4
ATOM      4  C   UNL     1      -9.378  -5.975   5.182  1.00  0.00     0.000 C 
BRANCH   4   5
ATOM      5  C   UNL     1      -9.010  -4.764   6.057  1.00  0.00     0.000 C 
BRANCH   5   6
ATOM      6  C   UNL     1      -8.795  -3.476   5.225  1.00  0.00     0.000 C 
BRANCH   6   7
ATOM      7  C   UNL     1      -9.001  -3.680   3.713  1.00  0.00     0.000 C 
BRANCH   7   8
ATOM      8  C   UNL     1      -9.549  -2.448   2.966  1.00  0.00     0.000 C 
BRANCH   8   9
ATOM      9  C   UNL     1      -8.627  -1.213   3.042  1.00  0.00     0.000 C 
BRANCH   9  10
ATOM     10  C   UNL     1      -8.997  -0.131   2.014  1.00  0.00     0.000 C 
BRANCH  10  11
ATOM     11  C   UNL     1     -10.252   0.667   2.426  1.00  0.00     0.000 C 
BRANCH  11  12
ATOM     12  C   UNL     1     -10.406   0.829   3.949  1.00  0.00     0.000 C 
BRANCH  12  13
ATOM     13  C   UNL     1     -11.718   0.238   4.481  1.00  0.00     0.006 C 
BRANCH  13  14
ATOM     14  C   UNL     1     -12.686   1.346   4.910  1.00  0.00     0.053 C 
BRANCH  14  15
ATOM     15  C   UNL     1     -14.102   0.862   4.894  1.00  0.00     0.041 C 
ATOM     16  O   UNL     1     -14.986   1.460   5.562  1.00  0.00    -0.550 OA
ATOM     17  O   UNL     1     -14.441  -0.274   4.170  1.00  0.00    -0.550 OA
ENDBRANCH  14  15
ENDBRANCH  13  14
ENDBRANCH  12  13
ENDBRANCH  11  12
ENDBRANCH  10  11
ENDBRANCH   9  10
ENDBRANCH   8   9
ENDBRANCH   7   8
ENDBRANCH   6   7
ENDBRANCH   5   6
ENDBRANCH   4   5
ENDBRANCH   3   4
ENDBRANCH   2   3
ENDBRANCH   1   2
BRANCH   1  18
ATOM     18  C   UNL     1     -12.861  -7.691   5.959  1.00  0.00     0.000 C 
BRANCH  18  19
ATOM     19  C   UNL     1     -14.097  -7.106   5.252  1.00  0.00     0.000 C 
BRANCH  19  20
ATOM     20  C   UNL     1     -13.866  -6.864   3.748  1.00  0.00     0.000 C 
BRANCH  20  21
ATOM     21  C   UNL     1     -13.777  -5.384   3.333  1.00  0.00     0.000 C 
BRANCH  21  22
ATOM     22  C   UNL     1     -12.453  -4.723   3.749  1.00  0.00     0.000 C 
BRANCH  22  23
ATOM     23  C   UNL     1     -12.694  -3.345   4.380  1.00  0.00     0.000 C 
BRANCH  23  24
ATOM     24  C   UNL     1     -12.440  -3.391   5.893  1.00  0.00    -0.000 C 
BRANCH  24  25
ATOM     25  C   UNL     1     -13.492  -2.616   6.700  1.00  0.00    -0.000 C 
BRANCH  25  26
ATOM     26  C   UNL     1     -14.489  -3.521   7.453  1.00  0.00    -0.000 C 
BRANCH  26  27
ATOM     27  C   UNL     1     -15.524  -4.158   6.510  1.00  0.00    -0.000 C 
BRANCH  27  28
ATOM     28  C   UNL     1     -16.304  -3.111   5.693  1.00  0.00    -0.000 C 
BRANCH  28  29
ATOM     29  C   UNL     1     -16.568  -3.529   4.233  1.00  0.00    -0.000 C 
BRANCH  29  30
ATOM     30  C   UNL     1     -17.600  -4.665   4.129  1.00  0.00    -0.000 C 
BRANCH  30  31
ATOM     31  C   UNL     1     -17.307  -5.624   2.966  1.00  0.00    -0.003 C 
ATOM     32  C   UNL     1     -17.679  -7.073   3.286  1.00  0.00     0.004 C 
ENDBRANCH  30  31
ENDBRANCH  29  30
ENDBRANCH  28  29
ENDBRANCH  27  28
ENDBRANCH  26  27
ENDBRANCH  25  26
ENDBRANCH  24  25
ENDBRANCH  23  24
ENDBRANCH  22  23
ENDBRANCH  21  22
ENDBRANCH  20  21
ENDBRANCH  19  20
ENDBRANCH  18  19
ENDBRANCH   1  18
TORSDOF 28
ENDMDL
