MODEL 1
REMARK VINA RESULT:    -8.433      0.000      0.000
REMARK INTER + INTRA:         -10.191
REMARK INTER:                  -9.912
REMARK INTRA:                  -0.279
REMARK UNBOUND:                -0.279
REMARK SMILES O=c1cc(-c2ccc(O)c(O)c2)oc2cc(O)cc(O)c12
REMARK SMILES IDX 4 1 3 2 2 3 1 4 21 5 19 6 18 7 16 8 15 9 14 10 13 11 5 12
REMARK SMILES IDX 6 13 7 14 8 15 12 16 10 17 9 18 11 20 20 22 17 24
REMARK H PARENT 9 19 11 21 20 23 17 25
REMARK Flexibility Score: inf
ROOT
ATOM      1  C   UNL     1      17.200  26.175   0.626  1.00  0.00     0.138 A 
ATOM      2  C   UNL     1      15.797  26.223   0.570  1.00  0.00     0.100 A 
ATOM      3  C   UNL     1      15.069  25.034   0.522  1.00  0.00     0.197 A 
ATOM      4  O   UNL     1      13.811  25.089   0.471  1.00  0.00    -0.289 OA
ATOM      5  C   UNL     1      15.752  23.801   0.524  1.00  0.00     0.107 A 
ATOM      6  C   UNL     1      15.091  22.550   0.477  1.00  0.00     0.134 A 
ATOM      7  C   UNL     1      15.844  21.367   0.478  1.00  0.00     0.093 A 
ATOM      8  C   UNL     1      17.243  21.411   0.523  1.00  0.00     0.123 A 
ATOM      9  C   UNL     1      17.898  22.643   0.570  1.00  0.00     0.094 A 
ATOM     10  C   UNL     1      17.166  23.834   0.570  1.00  0.00     0.146 A 
ATOM     11  O   UNL     1      17.814  24.993   0.617  1.00  0.00    -0.456 OA
ENDROOT
BRANCH   1  12
ATOM     12  C   UNL     1      18.025  27.408   0.678  1.00  0.00     0.021 A 
ATOM     13  C   UNL     1      17.830  28.326   1.724  1.00  0.00     0.016 A 
ATOM     14  C   UNL     1      18.589  29.498   1.793  1.00  0.00     0.051 A 
ATOM     15  C   UNL     1      19.547  29.776   0.810  1.00  0.00     0.157 A 
ATOM     16  C   UNL     1      18.981  27.702  -0.314  1.00  0.00     0.062 A 
ATOM     17  C   UNL     1      19.741  28.879  -0.246  1.00  0.00     0.158 A 
BRANCH  15  18
ATOM     18  O   UNL     1      20.306  30.944   0.875  1.00  0.00    -0.504 OA
ATOM     19  H   UNL     1      20.125  31.728   0.259  1.00  0.00     0.293 HD
ENDBRANCH  15  18
BRANCH  17  20
ATOM     20  O   UNL     1      20.687  29.165  -1.228  1.00  0.00    -0.504 OA
ATOM     21  H   UNL     1      20.451  29.706  -2.052  1.00  0.00     0.293 HD
ENDBRANCH  17  20
ENDBRANCH   1  12
BRANCH   6  22
ATOM     22  O   UNL     1      13.699  22.475   0.431  1.00  0.00    -0.507 OA
ATOM     23  H   UNL     1      13.114  23.188   0.851  1.00  0.00     0.293 HD
ENDBRANCH   6  22
BRANCH   8  24
ATOM     24  O   UNL     1      17.991  20.236   0.524  1.00  0.00    -0.508 OA
ATOM     25  H   UNL     1      18.192  19.736  -0.335  1.00  0.00     0.293 HD
ENDBRANCH   8  24
TORSDOF 5
ENDMDL
MODEL 2
REMARK VINA RESULT:    -8.192      1.621      7.328
REMARK INTER + INTRA:          -9.908
REMARK INTER:                  -9.634
REMARK INTRA:                  -0.274
REMARK UNBOUND:                -0.279
REMARK SMILES O=c1cc(-c2ccc(O)c(O)c2)oc2cc(O)cc(O)c12
REMARK SMILES IDX 4 1 3 2 2 3 1 4 21 5 19 6 18 7 16 8 15 9 14 10 13 11 5 12
REMARK SMILES IDX 6 13 7 14 8 15 12 16 10 17 9 18 11 20 20 22 17 24
REMARK H PARENT 9 19 11 21 20 23 17 25
REMARK Flexibility Score: inf
ROOT
ATOM      1  C   UNL     1      17.063  25.595   0.170  1.00  0.00     0.138 A 
ATOM      2  C   UNL     1      18.346  25.569  -0.403  1.00  0.00     0.100 A 
ATOM      3  C   UNL     1      19.116  26.732  -0.417  1.00  0.00     0.197 A 
ATOM      4  O   UNL     1      20.264  26.699  -0.933  1.00  0.00    -0.289 OA
ATOM      5  C   UNL     1      18.594  27.918   0.138  1.00  0.00     0.107 A 
ATOM      6  C   UNL     1      19.307  29.141   0.165  1.00  0.00     0.134 A 
ATOM      7  C   UNL     1      18.715  30.278   0.732  1.00  0.00     0.093 A 
ATOM      8  C   UNL     1      17.424  30.218   1.270  1.00  0.00     0.123 A 
ATOM      9  C   UNL     1      16.717  29.014   1.246  1.00  0.00     0.094 A 
ATOM     10  C   UNL     1      17.290  27.868   0.686  1.00  0.00     0.146 A 
ATOM     11  O   UNL     1      16.596  26.734   0.677  1.00  0.00    -0.456 OA
ENDROOT
BRANCH   1  12
ATOM     12  C   UNL     1      16.200  24.388   0.212  1.00  0.00     0.021 A 
ATOM     13  C   UNL     1      16.613  23.268   0.953  1.00  0.00     0.016 A 
ATOM     14  C   UNL     1      15.823  22.116   1.003  1.00  0.00     0.051 A 
ATOM     15  C   UNL     1      14.610  22.063   0.304  1.00  0.00     0.157 A 
ATOM     16  C   UNL     1      14.985  24.321  -0.499  1.00  0.00     0.062 A 
ATOM     17  C   UNL     1      14.193  23.165  -0.450  1.00  0.00     0.158 A 
BRANCH  15  18
ATOM     18  O   UNL     1      13.818  20.916   0.352  1.00  0.00    -0.504 OA
ATOM     19  H   UNL     1      14.139  20.069   0.806  1.00  0.00     0.293 HD
ENDBRANCH  15  18
BRANCH  17  20
ATOM     20  O   UNL     1      12.991  23.103  -1.153  1.00  0.00    -0.504 OA
ATOM     21  H   UNL     1      12.423  23.928  -1.308  1.00  0.00     0.293 HD
ENDBRANCH  17  20
ENDBRANCH   1  12
BRANCH   6  22
ATOM     22  O   UNL     1      20.595  29.231  -0.364  1.00  0.00    -0.507 OA
ATOM     23  H   UNL     1      20.992  28.488  -0.928  1.00  0.00     0.293 HD
ENDBRANCH   6  22
BRANCH   8  24
ATOM     24  O   UNL     1      16.835  31.347   1.833  1.00  0.00    -0.508 OA
ATOM     25  H   UNL     1      16.979  32.271   1.441  1.00  0.00     0.293 HD
ENDBRANCH   8  24
TORSDOF 5
ENDMDL
MODEL 3
REMARK VINA RESULT:    -7.546      1.511      2.981
REMARK INTER + INTRA:          -9.149
REMARK INTER:                  -8.852
REMARK INTRA:                  -0.297
REMARK UNBOUND:                -0.279
REMARK SMILES O=c1cc(-c2ccc(O)c(O)c2)oc2cc(O)cc(O)c12
REMARK SMILES IDX 4 1 3 2 2 3 1 4 21 5 19 6 18 7 16 8 15 9 14 10 13 11 5 12
REMARK SMILES IDX 6 13 7 14 8 15 12 16 10 17 9 18 11 20 20 22 17 24
REMARK H PARENT 9 19 11 21 20 23 17 25
REMARK Flexibility Score: inf
ROOT
ATOM      1  C   UNL     1      17.316  26.805   0.846  1.00  0.00     0.138 A 
ATOM      2  C   UNL     1      18.471  26.009   0.921  1.00  0.00     0.100 A 
ATOM      3  C   UNL     1      18.360  24.623   0.810  1.00  0.00     0.197 A 
ATOM      4  O   UNL     1      19.402  23.918   0.879  1.00  0.00    -0.289 OA
ATOM      5  C   UNL     1      17.089  24.040   0.631  1.00  0.00     0.107 A 
ATOM      6  C   UNL     1      16.887  22.644   0.509  1.00  0.00     0.134 A 
ATOM      7  C   UNL     1      15.589  22.142   0.338  1.00  0.00     0.093 A 
ATOM      8  C   UNL     1      14.490  23.008   0.287  1.00  0.00     0.123 A 
ATOM      9  C   UNL     1      14.685  24.386   0.407  1.00  0.00     0.094 A 
ATOM     10  C   UNL     1      15.971  24.906   0.577  1.00  0.00     0.146 A 
ATOM     11  O   UNL     1      16.129  26.222   0.687  1.00  0.00    -0.456 OA
ENDROOT
BRANCH   1  12
ATOM     12  C   UNL     1      17.374  28.284   0.959  1.00  0.00     0.021 A 
ATOM     13  C   UNL     1      16.206  29.039   0.760  1.00  0.00     0.016 A 
ATOM     14  C   UNL     1      16.235  30.433   0.853  1.00  0.00     0.051 A 
ATOM     15  C   UNL     1      17.436  31.095   1.136  1.00  0.00     0.157 A 
ATOM     16  C   UNL     1      18.581  28.960   1.229  1.00  0.00     0.062 A 
ATOM     17  C   UNL     1      18.610  30.358   1.321  1.00  0.00     0.158 A 
BRANCH  15  18
ATOM     18  O   UNL     1      17.469  32.486   1.229  1.00  0.00    -0.504 OA
ATOM     19  H   UNL     1      16.765  33.065   0.786  1.00  0.00     0.293 HD
ENDBRANCH  15  18
BRANCH  17  20
ATOM     20  O   UNL     1      19.806  31.022   1.591  1.00  0.00    -0.504 OA
ATOM     21  H   UNL     1      20.038  31.901   1.143  1.00  0.00     0.293 HD
ENDBRANCH  17  20
ENDBRANCH   1  12
BRANCH   6  22
ATOM     22  O   UNL     1      17.964  21.757   0.557  1.00  0.00    -0.507 OA
ATOM     23  H   UNL     1      17.833  20.772   0.755  1.00  0.00     0.293 HD
ENDBRANCH   6  22
BRANCH   8  24
ATOM     24  O   UNL     1      13.200  22.511   0.117  1.00  0.00    -0.508 OA
ATOM     25  H   UNL     1      12.886  21.678   0.603  1.00  0.00     0.293 HD
ENDBRANCH   8  24
TORSDOF 5
ENDMDL
MODEL 4
REMARK VINA RESULT:    -7.306      1.577      6.827
REMARK INTER + INTRA:          -8.866
REMARK INTER:                  -8.561
REMARK INTRA:                  -0.306
REMARK UNBOUND:                -0.279
REMARK SMILES O=c1cc(-c2ccc(O)c(O)c2)oc2cc(O)cc(O)c12
REMARK SMILES IDX 4 1 3 2 2 3 1 4 21 5 19 6 18 7 16 8 15 9 14 10 13 11 5 12
REMARK SMILES IDX 6 13 7 14 8 15 12 16 10 17 9 18 11 20 20 22 17 24
REMARK H PARENT 9 19 11 21 20 23 17 25
REMARK Flexibility Score: inf
ROOT
ATOM      1  C   UNL     1      16.253  25.454   0.614  1.00  0.00     0.138 A 
ATOM      2  C   UNL     1      15.323  26.385   1.108  1.00  0.00     0.100 A 
ATOM      3  C   UNL     1      15.675  27.732   1.184  1.00  0.00     0.197 A 
ATOM      4  O   UNL     1      14.834  28.559   1.629  1.00  0.00    -0.289 OA
ATOM      5  C   UNL     1      16.958  28.141   0.771  1.00  0.00     0.107 A 
ATOM      6  C   UNL     1      17.395  29.486   0.814  1.00  0.00     0.134 A 
ATOM      7  C   UNL     1      18.692  29.810   0.388  1.00  0.00     0.093 A 
ATOM      8  C   UNL     1      19.559  28.815  -0.079  1.00  0.00     0.123 A 
ATOM      9  C   UNL     1      19.132  27.487  -0.124  1.00  0.00     0.094 A 
ATOM     10  C   UNL     1      17.843  27.143   0.295  1.00  0.00     0.146 A 
ATOM     11  O   UNL     1      17.461  25.871   0.240  1.00  0.00    -0.456 OA
ENDROOT
BRANCH   1  12
ATOM     12  C   UNL     1      15.934  24.008   0.511  1.00  0.00     0.021 A 
ATOM     13  C   UNL     1      14.605  23.607   0.290  1.00  0.00     0.016 A 
ATOM     14  C   UNL     1      14.277  22.251   0.197  1.00  0.00     0.051 A 
ATOM     15  C   UNL     1      15.271  21.275   0.333  1.00  0.00     0.157 A 
ATOM     16  C   UNL     1      16.926  23.017   0.661  1.00  0.00     0.062 A 
ATOM     17  C   UNL     1      16.596  21.658   0.568  1.00  0.00     0.158 A 
BRANCH  15  18
ATOM     18  O   UNL     1      14.948  19.921   0.240  1.00  0.00    -0.504 OA
ATOM     19  H   UNL     1      15.665  19.207   0.188  1.00  0.00     0.293 HD
ENDBRANCH  15  18
BRANCH  17  20
ATOM     20  O   UNL     1      17.580  20.682   0.715  1.00  0.00    -0.504 OA
ATOM     21  H   UNL     1      17.390  19.799   1.174  1.00  0.00     0.293 HD
ENDBRANCH  17  20
ENDBRANCH   1  12
BRANCH   6  22
ATOM     22  O   UNL     1      16.553  30.499   1.276  1.00  0.00    -0.507 OA
ATOM     23  H   UNL     1      15.770  30.831   0.726  1.00  0.00     0.293 HD
ENDBRANCH   6  22
BRANCH   8  24
ATOM     24  O   UNL     1      20.847  29.136  -0.502  1.00  0.00    -0.508 OA
ATOM     25  H   UNL     1      21.663  28.696  -0.092  1.00  0.00     0.293 HD
ENDBRANCH   8  24
TORSDOF 5
ENDMDL
MODEL 5
REMARK VINA RESULT:    -6.971      4.182      6.185
REMARK INTER + INTRA:          -8.473
REMARK INTER:                  -8.207
REMARK INTRA:                  -0.266
REMARK UNBOUND:                -0.279
REMARK SMILES O=c1cc(-c2ccc(O)c(O)c2)oc2cc(O)cc(O)c12
REMARK SMILES IDX 4 1 3 2 2 3 1 4 21 5 19 6 18 7 16 8 15 9 14 10 13 11 5 12
REMARK SMILES IDX 6 13 7 14 8 15 12 16 10 17 9 18 11 20 20 22 17 24
REMARK H PARENT 9 19 11 21 20 23 17 25
REMARK Flexibility Score: inf
ROOT
ATOM      1  C   UNL     1      18.146  26.202  -2.835  1.00  0.00     0.138 A 
ATOM      2  C   UNL     1      18.578  25.164  -1.992  1.00  0.00     0.100 A 
ATOM      3  C   UNL     1      18.219  25.178  -0.644  1.00  0.00     0.197 A 
ATOM      4  O   UNL     1      18.614  24.244   0.103  1.00  0.00    -0.289 OA
ATOM      5  C   UNL     1      17.433  26.235  -0.145  1.00  0.00     0.107 A 
ATOM      6  C   UNL     1      17.024  26.327   1.207  1.00  0.00     0.134 A 
ATOM      7  C   UNL     1      16.245  27.415   1.626  1.00  0.00     0.093 A 
ATOM      8  C   UNL     1      15.868  28.413   0.720  1.00  0.00     0.123 A 
ATOM      9  C   UNL     1      16.268  28.327  -0.615  1.00  0.00     0.094 A 
ATOM     10  C   UNL     1      17.045  27.250  -1.053  1.00  0.00     0.146 A 
ATOM     11  O   UNL     1      17.411  27.192  -2.329  1.00  0.00    -0.456 OA
ENDROOT
BRANCH   1  12
ATOM     12  C   UNL     1      18.498  26.239  -4.276  1.00  0.00     0.021 A 
ATOM     13  C   UNL     1      17.737  25.494  -5.193  1.00  0.00     0.016 A 
ATOM     14  C   UNL     1      18.052  25.506  -6.555  1.00  0.00     0.051 A 
ATOM     15  C   UNL     1      19.140  26.255  -7.020  1.00  0.00     0.157 A 
ATOM     16  C   UNL     1      19.599  26.979  -4.751  1.00  0.00     0.062 A 
ATOM     17  C   UNL     1      19.916  26.990  -6.117  1.00  0.00     0.158 A 
BRANCH  15  18
ATOM     18  O   UNL     1      19.457  26.270  -8.378  1.00  0.00    -0.504 OA
ATOM     19  H   UNL     1      18.798  26.601  -9.073  1.00  0.00     0.293 HD
ENDBRANCH  15  18
BRANCH  17  20
ATOM     20  O   UNL     1      21.004  27.725  -6.583  1.00  0.00    -0.504 OA
ATOM     21  H   UNL     1      21.941  27.569  -6.229  1.00  0.00     0.293 HD
ENDBRANCH  17  20
ENDBRANCH   1  12
BRANCH   6  22
ATOM     22  O   UNL     1      17.386  25.347   2.133  1.00  0.00    -0.507 OA
ATOM     23  H   UNL     1      17.884  24.509   1.853  1.00  0.00     0.293 HD
ENDBRANCH   6  22
BRANCH   8  24
ATOM     24  O   UNL     1      15.094  29.494   1.135  1.00  0.00    -0.508 OA
ATOM     25  H   UNL     1      14.114  29.385   1.369  1.00  0.00     0.293 HD
ENDBRANCH   8  24
TORSDOF 5
ENDMDL
MODEL 6
REMARK VINA RESULT:    -6.888      4.914      6.700
REMARK INTER + INTRA:          -8.376
REMARK INTER:                  -8.082
REMARK INTRA:                  -0.294
REMARK UNBOUND:                -0.279
REMARK SMILES O=c1cc(-c2ccc(O)c(O)c2)oc2cc(O)cc(O)c12
REMARK SMILES IDX 4 1 3 2 2 3 1 4 21 5 19 6 18 7 16 8 15 9 14 10 13 11 5 12
REMARK SMILES IDX 6 13 7 14 8 15 12 16 10 17 9 18 11 20 20 22 17 24
REMARK H PARENT 9 19 11 21 20 23 17 25
REMARK Flexibility Score: inf
ROOT
ATOM      1  C   UNL     1      17.141  26.615  -2.636  1.00  0.00     0.138 A 
ATOM      2  C   UNL     1      18.354  26.398  -3.310  1.00  0.00     0.100 A 
ATOM      3  C   UNL     1      18.375  26.397  -4.705  1.00  0.00     0.197 A 
ATOM      4  O   UNL     1      19.468  26.200  -5.301  1.00  0.00    -0.289 OA
ATOM      5  C   UNL     1      17.178  26.608  -5.418  1.00  0.00     0.107 A 
ATOM      6  C   UNL     1      17.110  26.623  -6.832  1.00  0.00     0.134 A 
ATOM      7  C   UNL     1      15.877  26.835  -7.466  1.00  0.00     0.093 A 
ATOM      8  C   UNL     1      14.712  27.031  -6.714  1.00  0.00     0.123 A 
ATOM      9  C   UNL     1      14.775  27.017  -5.320  1.00  0.00     0.094 A 
ATOM     10  C   UNL     1      15.994  26.808  -4.668  1.00  0.00     0.146 A 
ATOM     11  O   UNL     1      16.026  26.801  -3.339  1.00  0.00    -0.456 OA
ENDROOT
BRANCH   1  12
ATOM     12  C   UNL     1      17.060  26.626  -1.154  1.00  0.00     0.021 A 
ATOM     13  C   UNL     1      17.734  25.636  -0.417  1.00  0.00     0.016 A 
ATOM     14  C   UNL     1      17.668  25.618   0.979  1.00  0.00     0.051 A 
ATOM     15  C   UNL     1      16.918  26.585   1.660  1.00  0.00     0.157 A 
ATOM     16  C   UNL     1      16.297  27.586  -0.460  1.00  0.00     0.062 A 
ATOM     17  C   UNL     1      16.230  27.567   0.940  1.00  0.00     0.158 A 
BRANCH  15  18
ATOM     18  O   UNL     1      16.850  26.572   3.053  1.00  0.00    -0.504 OA
ATOM     19  H   UNL     1      16.792  27.430   3.590  1.00  0.00     0.293 HD
ENDBRANCH  15  18
BRANCH  17  20
ATOM     20  O   UNL     1      15.476  28.521   1.622  1.00  0.00    -0.504 OA
ATOM     21  H   UNL     1      15.176  29.380   1.176  1.00  0.00     0.293 HD
ENDBRANCH  17  20
ENDBRANCH   1  12
BRANCH   6  22
ATOM     22  O   UNL     1      18.254  26.429  -7.607  1.00  0.00    -0.507 OA
ATOM     23  H   UNL     1      18.609  25.502  -7.810  1.00  0.00     0.293 HD
ENDBRANCH   6  22
BRANCH   8  24
ATOM     24  O   UNL     1      13.487  27.241  -7.344  1.00  0.00    -0.508 OA
ATOM     25  H   UNL     1      12.627  27.319  -6.814  1.00  0.00     0.293 HD
ENDBRANCH   8  24
TORSDOF 5
ENDMDL
MODEL 7
REMARK VINA RESULT:    -6.813      4.781      6.342
REMARK INTER + INTRA:          -8.286
REMARK INTER:                  -8.009
REMARK INTRA:                  -0.277
REMARK UNBOUND:                -0.279
REMARK SMILES O=c1cc(-c2ccc(O)c(O)c2)oc2cc(O)cc(O)c12
REMARK SMILES IDX 4 1 3 2 2 3 1 4 21 5 19 6 18 7 16 8 15 9 14 10 13 11 5 12
REMARK SMILES IDX 6 13 7 14 8 15 12 16 10 17 9 18 11 20 20 22 17 24
REMARK H PARENT 9 19 11 21 20 23 17 25
REMARK Flexibility Score: inf
ROOT
ATOM      1  C   UNL     1      16.995  26.696  -2.685  1.00  0.00     0.138 A 
ATOM      2  C   UNL     1      15.859  26.941  -3.475  1.00  0.00     0.100 A 
ATOM      3  C   UNL     1      15.977  26.946  -4.865  1.00  0.00     0.197 A 
ATOM      4  O   UNL     1      14.953  27.168  -5.565  1.00  0.00    -0.289 OA
ATOM      5  C   UNL     1      17.234  26.712  -5.458  1.00  0.00     0.107 A 
ATOM      6  C   UNL     1      17.441  26.699  -6.858  1.00  0.00     0.134 A 
ATOM      7  C   UNL     1      18.725  26.462  -7.368  1.00  0.00     0.093 A 
ATOM      8  C   UNL     1      19.806  26.239  -6.507  1.00  0.00     0.123 A 
ATOM      9  C   UNL     1      19.606  26.250  -5.125  1.00  0.00     0.094 A 
ATOM     10  C   UNL     1      18.333  26.484  -4.596  1.00  0.00     0.146 A 
ATOM     11  O   UNL     1      18.170  26.487  -3.276  1.00  0.00    -0.456 OA
ENDROOT
BRANCH   1  12
ATOM     12  C   UNL     1      16.930  26.679  -1.203  1.00  0.00     0.021 A 
ATOM     13  C   UNL     1      17.566  25.646  -0.494  1.00  0.00     0.016 A 
ATOM     14  C   UNL     1      17.514  25.602   0.902  1.00  0.00     0.051 A 
ATOM     15  C   UNL     1      16.814  26.587   1.611  1.00  0.00     0.157 A 
ATOM     16  C   UNL     1      16.217  27.657  -0.481  1.00  0.00     0.062 A 
ATOM     17  C   UNL     1      16.163  27.613   0.919  1.00  0.00     0.158 A 
BRANCH  15  18
ATOM     18  O   UNL     1      16.760  26.547   3.004  1.00  0.00    -0.504 OA
ATOM     19  H   UNL     1      16.449  25.719   3.500  1.00  0.00     0.293 HD
ENDBRANCH  15  18
BRANCH  17  20
ATOM     20  O   UNL     1      15.458  28.584   1.629  1.00  0.00    -0.504 OA
ATOM     21  H   UNL     1      15.782  28.926   2.526  1.00  0.00     0.293 HD
ENDBRANCH  17  20
ENDBRANCH   1  12
BRANCH   6  22
ATOM     22  O   UNL     1      16.383  26.919  -7.741  1.00  0.00    -0.507 OA
ATOM     23  H   UNL     1      15.418  26.893  -7.432  1.00  0.00     0.293 HD
ENDBRANCH   6  22
BRANCH   8  24
ATOM     24  O   UNL     1      21.082  26.004  -7.013  1.00  0.00    -0.508 OA
ATOM     25  H   UNL     1      21.220  25.583  -7.925  1.00  0.00     0.293 HD
ENDBRANCH   8  24
TORSDOF 5
ENDMDL
MODEL 8
REMARK VINA RESULT:    -6.740      4.724      6.027
REMARK INTER + INTRA:          -8.201
REMARK INTER:                  -7.937
REMARK INTRA:                  -0.264
REMARK UNBOUND:                -0.279
REMARK SMILES O=c1cc(-c2ccc(O)c(O)c2)oc2cc(O)cc(O)c12
REMARK SMILES IDX 4 1 3 2 2 3 1 4 21 5 19 6 18 7 16 8 15 9 14 10 13 11 5 12
REMARK SMILES IDX 6 13 7 14 8 15 12 16 10 17 9 18 11 20 20 22 17 24
REMARK H PARENT 9 19 11 21 20 23 17 25
REMARK Flexibility Score: inf
ROOT
ATOM      1  C   UNL     1      16.320  27.016  -3.008  1.00  0.00     0.138 A 
ATOM      2  C   UNL     1      15.875  27.997  -2.106  1.00  0.00     0.100 A 
ATOM      3  C   UNL     1      16.156  27.858  -0.747  1.00  0.00     0.197 A 
ATOM      4  O   UNL     1      15.751  28.743   0.055  1.00  0.00    -0.289 OA
ATOM      5  C   UNL     1      16.876  26.734  -0.296  1.00  0.00     0.107 A 
ATOM      6  C   UNL     1      17.204  26.517   1.064  1.00  0.00     0.134 A 
ATOM      7  C   UNL     1      17.921  25.369   1.431  1.00  0.00     0.093 A 
ATOM      8  C   UNL     1      18.315  24.435   0.466  1.00  0.00     0.123 A 
ATOM      9  C   UNL     1      17.994  24.645  -0.877  1.00  0.00     0.094 A 
ATOM     10  C   UNL     1      17.281  25.783  -1.264  1.00  0.00     0.146 A 
ATOM     11  O   UNL     1      16.990  25.960  -2.549  1.00  0.00    -0.456 OA
ENDROOT
BRANCH   1  12
ATOM     12  C   UNL     1      16.049  27.110  -4.464  1.00  0.00     0.021 A 
ATOM     13  C   UNL     1      16.973  27.765  -5.298  1.00  0.00     0.016 A 
ATOM     14  C   UNL     1      16.739  27.874  -6.671  1.00  0.00     0.051 A 
ATOM     15  C   UNL     1      15.572  27.340  -7.232  1.00  0.00     0.157 A 
ATOM     16  C   UNL     1      14.871  26.588  -5.035  1.00  0.00     0.062 A 
ATOM     17  C   UNL     1      14.636  26.699  -6.413  1.00  0.00     0.158 A 
BRANCH  15  18
ATOM     18  O   UNL     1      15.335  27.447  -8.602  1.00  0.00    -0.504 OA
ATOM     19  H   UNL     1      15.963  27.959  -9.211  1.00  0.00     0.293 HD
ENDBRANCH  15  18
BRANCH  17  20
ATOM     20  O   UNL     1      13.471  26.179  -6.973  1.00  0.00    -0.504 OA
ATOM     21  H   UNL     1      13.493  25.606  -7.809  1.00  0.00     0.293 HD
ENDBRANCH  17  20
ENDBRANCH   1  12
BRANCH   6  22
ATOM     22  O   UNL     1      16.823  27.431   2.047  1.00  0.00    -0.507 OA
ATOM     23  H   UNL     1      15.952  27.333   2.556  1.00  0.00     0.293 HD
ENDBRANCH   6  22
BRANCH   8  24
ATOM     24  O   UNL     1      19.027  23.294   0.830  1.00  0.00    -0.508 OA
ATOM     25  H   UNL     1      18.606  22.373   0.792  1.00  0.00     0.293 HD
ENDBRANCH   8  24
TORSDOF 5
ENDMDL
