MODEL 1
REMARK VINA RESULT:     7.388      0.000      0.000
REMARK INTER + INTRA:           8.651
REMARK INTER:                   8.036
REMARK INTRA:                   0.615
REMARK UNBOUND:                 0.615
REMARK SMILES C[C@H]1[C@@H](C)CC[C@]2(C(=O)[O-])CC[C@@]3(C)C(=CC[C@H]4[C@@]5(C)CC[C@@H](O)C(C)(C)[C@H]5CC[C@]43C)[C@@H]12
REMARK SMILES IDX 7 1 6 2 11 3 33 4 5 5 12 6 15 7 2 8 3 9 13 10 16 11 1 12
REMARK SMILES IDX 4 13 14 14 31 15 17 16 18 17 30 18 32 19 19 20 29 21 28 22
REMARK SMILES IDX 21 23 20 24 25 25 22 26 23 27 26 28 27 29 8 30 9 31 10 32
REMARK SMILES IDX 24 33
REMARK H PARENT 24 34
REMARK Flexibility Score: inf
ROOT
ATOM      1  C   UNL     1     -44.600 -29.057  -0.335  1.00  0.00     0.017 C 
ATOM      2  C   UNL     1     -43.707 -29.897   0.633  1.00  0.00     0.014 C 
ATOM      3  C   UNL     1     -45.793 -29.960  -0.803  1.00  0.00     0.014 C 
ATOM      4  C   UNL     1     -43.713 -28.632  -1.557  1.00  0.00     0.030 C 
ATOM      5  C   UNL     1     -42.441 -29.150   1.082  1.00  0.00     0.004 C 
ATOM      6  C   UNL     1     -45.960 -30.116  -2.335  1.00  0.00     0.013 C 
ATOM      7  C   UNL     1     -44.541 -28.064  -2.727  1.00  0.00    -0.063 C 
ATOM      8  C   UNL     1     -42.397 -27.879  -1.143  1.00  0.00    -0.003 C 
ATOM      9  C   UNL     1     -41.586 -28.746  -0.131  1.00  0.00    -0.011 C 
ATOM     10  C   UNL     1     -45.827 -28.783  -3.159  1.00  0.00    -0.006 C 
ATOM     11  C   UNL     1     -44.037 -27.094  -3.519  1.00  0.00    -0.027 C 
ATOM     12  C   UNL     1     -42.618 -26.423  -0.653  1.00  0.00     0.008 C 
ATOM     13  C   UNL     1     -40.267 -28.085   0.304  1.00  0.00     0.008 C 
ATOM     14  C   UNL     1     -47.034 -27.868  -2.779  1.00  0.00     0.017 C 
ATOM     15  C   UNL     1     -45.790 -29.048  -4.751  1.00  0.00    -0.020 C 
ATOM     16  C   UNL     1     -44.474 -26.830  -4.927  1.00  0.00     0.032 C 
ATOM     17  C   UNL     1     -45.661 -27.668  -5.509  1.00  0.00     0.006 C 
ATOM     18  C   UNL     1     -44.573 -29.956  -5.154  1.00  0.00     0.008 C 
ATOM     19  C   UNL     1     -47.104 -29.780  -5.185  1.00  0.00     0.012 C 
ATOM     20  C   UNL     1     -45.639 -27.779  -7.121  1.00  0.00    -0.025 C 
ATOM     21  C   UNL     1     -43.878 -29.617  -6.500  1.00  0.00     0.005 C 
ATOM     22  C   UNL     1     -44.847 -29.086  -7.598  1.00  0.00     0.003 C 
ATOM     23  C   UNL     1     -45.055 -26.452  -7.745  1.00  0.00     0.010 C 
ATOM     24  C   UNL     1     -47.124 -27.846  -7.632  1.00  0.00     0.012 C 
ATOM     25  C   UNL     1     -44.250 -29.059  -9.085  1.00  0.00    -0.006 C 
ATOM     26  C   UNL     1     -44.712 -26.530  -9.232  1.00  0.00     0.033 C 
ATOM     27  C   UNL     1     -43.710 -27.653  -9.509  1.00  0.00     0.120 C 
ATOM     28  C   UNL     1     -45.360 -29.482 -10.091  1.00  0.00     0.014 C 
ATOM     29  C   UNL     1     -43.108 -30.093  -9.291  1.00  0.00     0.014 C 
ENDROOT
BRANCH   1  30
ATOM     30  C   UNL     1     -45.169 -27.856   0.420  1.00  0.00     0.048 C 
ATOM     31  O   UNL     1     -45.457 -26.790  -0.181  1.00  0.00    -0.550 OA
ATOM     32  O   UNL     1     -45.472 -27.948   1.773  1.00  0.00    -0.550 OA
ENDBRANCH   1  30
BRANCH  27  33
ATOM     33  O   UNL     1     -42.449 -27.350  -8.957  1.00  0.00    -0.393 OA
ATOM     34  H   UNL     1     -42.419 -27.700  -8.031  1.00  0.00     0.210 HD
ENDBRANCH  27  33
TORSDOF 2
ENDMDL
