MODEL 1
REMARK VINA RESULT:    -5.162      0.000      0.000
REMARK INTER + INTRA:         -12.932
REMARK INTER:                 -11.198
REMARK INTRA:                  -1.735
REMARK UNBOUND:                -1.735
REMARK SMILES CCCCCCCCCCCCCCCCCCCCCC(=O)[O-]
REMARK SMILES IDX 12 1 11 2 10 3 9 4 8 5 7 6 6 7 5 8 4 9 3 10 2 11 1 12 13 13
REMARK SMILES IDX 14 14 15 15 16 16 17 17 18 18 19 19 20 20 21 21 22 22 23 23
REMARK SMILES IDX 24 24
REMARK H PARENT
REMARK Flexibility Score: inf
ROOT
ATOM      1  C   UNL     1      22.120  12.286  49.768  1.00  0.00     0.000 C 
ENDROOT
BRANCH   1   2
ATOM      2  C   UNL     1      21.098  11.421  49.000  1.00  0.00     0.000 C 
BRANCH   2   3
ATOM      3  C   UNL     1      20.581  10.186  49.757  1.00  0.00     0.000 C 
BRANCH   3   4
ATOM      4  C   UNL     1      19.209  10.422  50.411  1.00  0.00    -0.000 C 
BRANCH   4   5
ATOM      5  C   UNL     1      18.093   9.599  49.748  1.00  0.00    -0.000 C 
BRANCH   5   6
ATOM      6  C   UNL     1      18.538   8.163  49.419  1.00  0.00    -0.000 C 
BRANCH   6   7
ATOM      7  C   UNL     1      17.385   7.149  49.508  1.00  0.00    -0.000 C 
BRANCH   7   8
ATOM      8  C   UNL     1      16.109   7.759  50.114  1.00  0.00    -0.000 C 
BRANCH   8   9
ATOM      9  C   UNL     1      14.821   7.224  49.461  1.00  0.00    -0.000 C 
BRANCH   9  10
ATOM     10  C   UNL     1      14.860   7.116  47.923  1.00  0.00    -0.000 C 
BRANCH  10  11
ATOM     11  C   UNL     1      15.120   8.441  47.184  1.00  0.00    -0.003 C 
ATOM     12  C   UNL     1      15.844   8.248  45.852  1.00  0.00     0.004 C 
ENDBRANCH  10  11
ENDBRANCH   9  10
ENDBRANCH   8   9
ENDBRANCH   7   8
ENDBRANCH   6   7
ENDBRANCH   5   6
ENDBRANCH   4   5
ENDBRANCH   3   4
ENDBRANCH   2   3
ENDBRANCH   1   2
BRANCH   1  13
ATOM     13  C   UNL     1      23.561  12.268  49.216  1.00  0.00     0.000 C 
BRANCH  13  14
ATOM     14  C   UNL     1      23.795  13.194  48.001  1.00  0.00     0.000 C 
BRANCH  14  15
ATOM     15  C   UNL     1      24.790  12.628  46.974  1.00  0.00     0.000 C 
BRANCH  15  16
ATOM     16  C   UNL     1      25.861  13.647  46.551  1.00  0.00     0.000 C 
BRANCH  16  17
ATOM     17  C   UNL     1      26.426  14.433  47.743  1.00  0.00     0.000 C 
BRANCH  17  18
ATOM     18  C   UNL     1      27.247  13.548  48.697  1.00  0.00     0.000 C 
BRANCH  18  19
ATOM     19  C   UNL     1      27.328  14.119  50.124  1.00  0.00     0.000 C 
BRANCH  19  20
ATOM     20  C   UNL     1      25.975  14.537  50.738  1.00  0.00     0.006 C 
BRANCH  20  21
ATOM     21  C   UNL     1      25.983  14.665  52.270  1.00  0.00     0.053 C 
BRANCH  21  22
ATOM     22  C   UNL     1      25.037  13.701  52.917  1.00  0.00     0.041 C 
ATOM     23  O   UNL     1      23.821  13.692  52.592  1.00  0.00    -0.550 OA
ATOM     24  O   UNL     1      25.495  12.828  53.896  1.00  0.00    -0.550 OA
ENDBRANCH  21  22
ENDBRANCH  20  21
ENDBRANCH  19  20
ENDBRANCH  18  19
ENDBRANCH  17  18
ENDBRANCH  16  17
ENDBRANCH  15  16
ENDBRANCH  14  15
ENDBRANCH  13  14
ENDBRANCH   1  13
TORSDOF 20
ENDMDL
MODEL 2
REMARK VINA RESULT:    -5.159      2.879      4.125
REMARK INTER + INTRA:         -12.926
REMARK INTER:                 -11.313
REMARK INTRA:                  -1.613
REMARK UNBOUND:                -1.735
REMARK SMILES CCCCCCCCCCCCCCCCCCCCCC(=O)[O-]
REMARK SMILES IDX 12 1 11 2 10 3 9 4 8 5 7 6 6 7 5 8 4 9 3 10 2 11 1 12 13 13
REMARK SMILES IDX 14 14 15 15 16 16 17 17 18 18 19 19 20 20 21 21 22 22 23 23
REMARK SMILES IDX 24 24
REMARK H PARENT
REMARK Flexibility Score: inf
ROOT
ATOM      1  C   UNL     1      21.530  11.500  49.725  1.00  0.00     0.000 C 
ENDROOT
BRANCH   1   2
ATOM      2  C   UNL     1      20.573  10.402  49.212  1.00  0.00     0.000 C 
BRANCH   2   3
ATOM      3  C   UNL     1      19.873   9.576  50.306  1.00  0.00     0.000 C 
BRANCH   3   4
ATOM      4  C   UNL     1      18.439  10.056  50.585  1.00  0.00    -0.000 C 
BRANCH   4   5
ATOM      5  C   UNL     1      17.388   9.247  49.808  1.00  0.00    -0.000 C 
BRANCH   5   6
ATOM      6  C   UNL     1      17.860   7.815  49.496  1.00  0.00    -0.000 C 
BRANCH   6   7
ATOM      7  C   UNL     1      16.745   6.770  49.673  1.00  0.00    -0.000 C 
BRANCH   7   8
ATOM      8  C   UNL     1      15.343   7.403  49.693  1.00  0.00    -0.000 C 
BRANCH   8   9
ATOM      9  C   UNL     1      14.348   6.680  48.766  1.00  0.00    -0.000 C 
BRANCH   9  10
ATOM     10  C   UNL     1      14.017   7.419  47.454  1.00  0.00    -0.000 C 
BRANCH  10  11
ATOM     11  C   UNL     1      15.012   8.525  47.061  1.00  0.00    -0.003 C 
ATOM     12  C   UNL     1      15.973   8.095  45.952  1.00  0.00     0.004 C 
ENDBRANCH  10  11
ENDBRANCH   9  10
ENDBRANCH   8   9
ENDBRANCH   7   8
ENDBRANCH   6   7
ENDBRANCH   5   6
ENDBRANCH   4   5
ENDBRANCH   3   4
ENDBRANCH   2   3
ENDBRANCH   1   2
BRANCH   1  13
ATOM     13  C   UNL     1      22.155  12.402  48.641  1.00  0.00     0.000 C 
BRANCH  13  14
ATOM     14  C   UNL     1      23.690  12.554  48.737  1.00  0.00     0.000 C 
BRANCH  14  15
ATOM     15  C   UNL     1      24.351  13.010  47.425  1.00  0.00     0.000 C 
BRANCH  15  16
ATOM     16  C   UNL     1      25.853  13.299  47.579  1.00  0.00     0.000 C 
BRANCH  16  17
ATOM     17  C   UNL     1      26.292  14.549  46.803  1.00  0.00     0.000 C 
BRANCH  17  18
ATOM     18  C   UNL     1      27.215  14.213  45.619  1.00  0.00     0.000 C 
BRANCH  18  19
ATOM     19  C   UNL     1      26.503  13.421  44.508  1.00  0.00     0.000 C 
BRANCH  19  20
ATOM     20  C   UNL     1      26.900  11.933  44.410  1.00  0.00     0.006 C 
BRANCH  20  21
ATOM     21  C   UNL     1      25.732  10.949  44.587  1.00  0.00     0.053 C 
BRANCH  21  22
ATOM     22  C   UNL     1      26.120   9.763  45.414  1.00  0.00     0.041 C 
ATOM     23  O   UNL     1      26.166   9.854  46.669  1.00  0.00    -0.550 OA
ATOM     24  O   UNL     1      26.455   8.563  44.799  1.00  0.00    -0.550 OA
ENDBRANCH  21  22
ENDBRANCH  20  21
ENDBRANCH  19  20
ENDBRANCH  18  19
ENDBRANCH  17  18
ENDBRANCH  16  17
ENDBRANCH  15  16
ENDBRANCH  14  15
ENDBRANCH  13  14
ENDBRANCH   1  13
TORSDOF 20
ENDMDL
MODEL 3
REMARK VINA RESULT:    -5.012      3.777     10.268
REMARK INTER + INTRA:         -12.607
REMARK INTER:                 -10.615
REMARK INTRA:                  -1.992
REMARK UNBOUND:                -1.735
REMARK SMILES CCCCCCCCCCCCCCCCCCCCCC(=O)[O-]
REMARK SMILES IDX 12 1 11 2 10 3 9 4 8 5 7 6 6 7 5 8 4 9 3 10 2 11 1 12 13 13
REMARK SMILES IDX 14 14 15 15 16 16 17 17 18 18 19 19 20 20 21 21 22 22 23 23
REMARK SMILES IDX 24 24
REMARK H PARENT
REMARK Flexibility Score: inf
ROOT
ATOM      1  C   UNL     1      22.905  13.530  49.015  1.00  0.00     0.000 C 
ENDROOT
BRANCH   1   2
ATOM      2  C   UNL     1      22.847  13.853  50.524  1.00  0.00     0.000 C 
BRANCH   2   3
ATOM      3  C   UNL     1      24.175  13.688  51.283  1.00  0.00     0.000 C 
BRANCH   3   4
ATOM      4  C   UNL     1      25.177  14.814  50.979  1.00  0.00    -0.000 C 
BRANCH   4   5
ATOM      5  C   UNL     1      26.636  14.364  51.152  1.00  0.00    -0.000 C 
BRANCH   5   6
ATOM      6  C   UNL     1      27.389  14.278  49.812  1.00  0.00    -0.000 C 
BRANCH   6   7
ATOM      7  C   UNL     1      26.925  15.339  48.800  1.00  0.00    -0.000 C 
BRANCH   7   8
ATOM      8  C   UNL     1      27.717  15.283  47.483  1.00  0.00    -0.000 C 
BRANCH   8   9
ATOM      9  C   UNL     1      26.898  14.697  46.317  1.00  0.00    -0.000 C 
BRANCH   9  10
ATOM     10  C   UNL     1      25.524  14.115  46.706  1.00  0.00    -0.000 C 
BRANCH  10  11
ATOM     11  C   UNL     1      25.345  12.615  46.409  1.00  0.00    -0.003 C 
ATOM     12  C   UNL     1      25.785  11.723  47.570  1.00  0.00     0.004 C 
ENDBRANCH  10  11
ENDBRANCH   9  10
ENDBRANCH   8   9
ENDBRANCH   7   8
ENDBRANCH   6   7
ENDBRANCH   5   6
ENDBRANCH   4   5
ENDBRANCH   3   4
ENDBRANCH   2   3
ENDBRANCH   1   2
BRANCH   1  13
ATOM     13  C   UNL     1      22.132  12.272  48.570  1.00  0.00     0.000 C 
BRANCH  13  14
ATOM     14  C   UNL     1      21.488  11.471  49.724  1.00  0.00     0.000 C 
BRANCH  14  15
ATOM     15  C   UNL     1      20.351  10.540  49.273  1.00  0.00     0.000 C 
BRANCH  15  16
ATOM     16  C   UNL     1      20.139   9.348  50.222  1.00  0.00     0.000 C 
BRANCH  16  17
ATOM     17  C   UNL     1      19.098   9.644  51.311  1.00  0.00     0.000 C 
BRANCH  17  18
ATOM     18  C   UNL     1      17.662   9.674  50.761  1.00  0.00     0.000 C 
BRANCH  18  19
ATOM     19  C   UNL     1      17.197   8.310  50.220  1.00  0.00     0.000 C 
BRANCH  19  20
ATOM     20  C   UNL     1      16.883   8.280  48.709  1.00  0.00     0.006 C 
BRANCH  20  21
ATOM     21  C   UNL     1      15.522   7.660  48.353  1.00  0.00     0.053 C 
BRANCH  21  22
ATOM     22  C   UNL     1      15.127   7.951  46.938  1.00  0.00     0.041 C 
ATOM     23  O   UNL     1      13.920   8.151  46.647  1.00  0.00    -0.550 OA
ATOM     24  O   UNL     1      16.090   7.975  45.938  1.00  0.00    -0.550 OA
ENDBRANCH  21  22
ENDBRANCH  20  21
ENDBRANCH  19  20
ENDBRANCH  18  19
ENDBRANCH  17  18
ENDBRANCH  16  17
ENDBRANCH  15  16
ENDBRANCH  14  15
ENDBRANCH  13  14
ENDBRANCH   1  13
TORSDOF 20
ENDMDL
MODEL 4
REMARK VINA RESULT:    -5.004     10.145     14.440
REMARK INTER + INTRA:         -12.589
REMARK INTER:                 -10.026
REMARK INTRA:                  -2.562
REMARK UNBOUND:                -1.735
REMARK SMILES CCCCCCCCCCCCCCCCCCCCCC(=O)[O-]
REMARK SMILES IDX 12 1 11 2 10 3 9 4 8 5 7 6 6 7 5 8 4 9 3 10 2 11 1 12 13 13
REMARK SMILES IDX 14 14 15 15 16 16 17 17 18 18 19 19 20 20 21 21 22 22 23 23
REMARK SMILES IDX 24 24
REMARK H PARENT
REMARK Flexibility Score: inf
ROOT
ATOM      1  C   UNL     1      19.922   0.491  47.620  1.00  0.00     0.000 C 
ENDROOT
BRANCH   1   2
ATOM      2  C   UNL     1      21.276   0.768  48.309  1.00  0.00     0.000 C 
BRANCH   2   3
ATOM      3  C   UNL     1      22.468  -0.038  47.765  1.00  0.00     0.000 C 
BRANCH   3   4
ATOM      4  C   UNL     1      23.693   0.012  48.695  1.00  0.00    -0.000 C 
BRANCH   4   5
ATOM      5  C   UNL     1      24.425   1.361  48.629  1.00  0.00    -0.000 C 
BRANCH   5   6
ATOM      6  C   UNL     1      25.697   1.299  47.763  1.00  0.00    -0.000 C 
BRANCH   6   7
ATOM      7  C   UNL     1      25.855   2.527  46.850  1.00  0.00    -0.000 C 
BRANCH   7   8
ATOM      8  C   UNL     1      24.824   3.626  47.159  1.00  0.00    -0.000 C 
BRANCH   8   9
ATOM      9  C   UNL     1      23.922   3.955  45.954  1.00  0.00    -0.000 C 
BRANCH   9  10
ATOM     10  C   UNL     1      22.640   3.106  45.842  1.00  0.00    -0.000 C 
BRANCH  10  11
ATOM     11  C   UNL     1      22.698   1.974  44.799  1.00  0.00    -0.003 C 
ATOM     12  C   UNL     1      23.267   2.432  43.456  1.00  0.00     0.004 C 
ENDBRANCH  10  11
ENDBRANCH   9  10
ENDBRANCH   8   9
ENDBRANCH   7   8
ENDBRANCH   6   7
ENDBRANCH   5   6
ENDBRANCH   4   5
ENDBRANCH   3   4
ENDBRANCH   2   3
ENDBRANCH   1   2
BRANCH   1  13
ATOM     13  C   UNL     1      19.816  -0.852  46.869  1.00  0.00     0.000 C 
BRANCH  13  14
ATOM     14  C   UNL     1      19.490  -0.722  45.364  1.00  0.00     0.000 C 
BRANCH  14  15
ATOM     15  C   UNL     1      18.377  -1.670  44.887  1.00  0.00     0.000 C 
BRANCH  15  16
ATOM     16  C   UNL     1      17.580  -2.291  46.046  1.00  0.00     0.000 C 
BRANCH  16  17
ATOM     17  C   UNL     1      16.249  -1.568  46.297  1.00  0.00     0.000 C 
BRANCH  17  18
ATOM     18  C   UNL     1      16.149  -0.995  47.721  1.00  0.00     0.000 C 
BRANCH  18  19
ATOM     19  C   UNL     1      15.874   0.520  47.741  1.00  0.00     0.000 C 
BRANCH  19  20
ATOM     20  C   UNL     1      14.654   0.952  48.582  1.00  0.00     0.006 C 
BRANCH  20  21
ATOM     21  C   UNL     1      13.602   1.763  47.809  1.00  0.00     0.053 C 
BRANCH  21  22
ATOM     22  C   UNL     1      13.138   1.050  46.577  1.00  0.00     0.041 C 
ATOM     23  O   UNL     1      13.130   1.643  45.467  1.00  0.00    -0.550 OA
ATOM     24  O   UNL     1      12.690  -0.263  46.660  1.00  0.00    -0.550 OA
ENDBRANCH  21  22
ENDBRANCH  20  21
ENDBRANCH  19  20
ENDBRANCH  18  19
ENDBRANCH  17  18
ENDBRANCH  16  17
ENDBRANCH  15  16
ENDBRANCH  14  15
ENDBRANCH  13  14
ENDBRANCH   1  13
TORSDOF 20
ENDMDL
MODEL 5
REMARK VINA RESULT:    -4.998      3.781     10.601
REMARK INTER + INTRA:         -12.576
REMARK INTER:                 -10.838
REMARK INTRA:                  -1.738
REMARK UNBOUND:                -1.735
REMARK SMILES CCCCCCCCCCCCCCCCCCCCCC(=O)[O-]
REMARK SMILES IDX 12 1 11 2 10 3 9 4 8 5 7 6 6 7 5 8 4 9 3 10 2 11 1 12 13 13
REMARK SMILES IDX 14 14 15 15 16 16 17 17 18 18 19 19 20 20 21 21 22 22 23 23
REMARK SMILES IDX 24 24
REMARK H PARENT
REMARK Flexibility Score: inf
ROOT
ATOM      1  C   UNL     1      22.069  12.265  49.565  1.00  0.00     0.000 C 
ENDROOT
BRANCH   1   2
ATOM      2  C   UNL     1      23.601  12.342  49.384  1.00  0.00     0.000 C 
BRANCH   2   3
ATOM      3  C   UNL     1      24.079  13.081  48.122  1.00  0.00     0.000 C 
BRANCH   3   4
ATOM      4  C   UNL     1      25.535  12.747  47.754  1.00  0.00    -0.000 C 
BRANCH   4   5
ATOM      5  C   UNL     1      26.395  14.006  47.560  1.00  0.00    -0.000 C 
BRANCH   5   6
ATOM      6  C   UNL     1      26.537  14.826  48.855  1.00  0.00    -0.000 C 
BRANCH   6   7
ATOM      7  C   UNL     1      27.175  14.023  50.000  1.00  0.00    -0.000 C 
BRANCH   7   8
ATOM      8  C   UNL     1      26.791  14.569  51.387  1.00  0.00    -0.000 C 
BRANCH   8   9
ATOM      9  C   UNL     1      25.270  14.731  51.565  1.00  0.00    -0.000 C 
BRANCH   9  10
ATOM     10  C   UNL     1      24.608  13.717  52.519  1.00  0.00    -0.000 C 
BRANCH  10  11
ATOM     11  C   UNL     1      25.129  13.750  53.967  1.00  0.00    -0.003 C 
ATOM     12  C   UNL     1      26.078  12.594  54.284  1.00  0.00     0.004 C 
ENDBRANCH  10  11
ENDBRANCH   9  10
ENDBRANCH   8   9
ENDBRANCH   7   8
ENDBRANCH   6   7
ENDBRANCH   5   6
ENDBRANCH   4   5
ENDBRANCH   3   4
ENDBRANCH   2   3
ENDBRANCH   1   2
BRANCH   1  13
ATOM     13  C   UNL     1      21.379  11.049  48.915  1.00  0.00     0.000 C 
BRANCH  13  14
ATOM     14  C   UNL     1      20.197  10.470  49.725  1.00  0.00     0.000 C 
BRANCH  14  15
ATOM     15  C   UNL     1      19.888   8.998  49.406  1.00  0.00     0.000 C 
BRANCH  15  16
ATOM     16  C   UNL     1      19.402   8.208  50.632  1.00  0.00     0.000 C 
BRANCH  16  17
ATOM     17  C   UNL     1      18.034   8.689  51.136  1.00  0.00     0.000 C 
BRANCH  17  18
ATOM     18  C   UNL     1      16.922   8.504  50.090  1.00  0.00     0.000 C 
BRANCH  18  19
ATOM     19  C   UNL     1      16.323   7.086  50.093  1.00  0.00     0.000 C 
BRANCH  19  20
ATOM     20  C   UNL     1      16.130   6.454  48.699  1.00  0.00     0.006 C 
BRANCH  20  21
ATOM     21  C   UNL     1      16.719   7.276  47.540  1.00  0.00     0.053 C 
BRANCH  21  22
ATOM     22  C   UNL     1      15.651   7.834  46.650  1.00  0.00     0.041 C 
ATOM     23  O   UNL     1      15.959   8.378  45.558  1.00  0.00    -0.550 OA
ATOM     24  O   UNL     1      14.319   7.774  47.039  1.00  0.00    -0.550 OA
ENDBRANCH  21  22
ENDBRANCH  20  21
ENDBRANCH  19  20
ENDBRANCH  18  19
ENDBRANCH  17  18
ENDBRANCH  16  17
ENDBRANCH  15  16
ENDBRANCH  14  15
ENDBRANCH  13  14
ENDBRANCH   1  13
TORSDOF 20
ENDMDL
MODEL 6
REMARK VINA RESULT:    -4.990      3.761     10.751
REMARK INTER + INTRA:         -12.559
REMARK INTER:                 -11.065
REMARK INTRA:                  -1.495
REMARK UNBOUND:                -1.735
REMARK SMILES CCCCCCCCCCCCCCCCCCCCCC(=O)[O-]
REMARK SMILES IDX 12 1 11 2 10 3 9 4 8 5 7 6 6 7 5 8 4 9 3 10 2 11 1 12 13 13
REMARK SMILES IDX 14 14 15 15 16 16 17 17 18 18 19 19 20 20 21 21 22 22 23 23
REMARK SMILES IDX 24 24
REMARK H PARENT
REMARK Flexibility Score: inf
ROOT
ATOM      1  C   UNL     1      21.207  10.632  49.515  1.00  0.00     0.000 C 
ENDROOT
BRANCH   1   2
ATOM      2  C   UNL     1      21.649  12.083  49.222  1.00  0.00     0.000 C 
BRANCH   2   3
ATOM      3  C   UNL     1      23.106  12.245  48.757  1.00  0.00     0.000 C 
BRANCH   3   4
ATOM      4  C   UNL     1      23.648  13.666  48.988  1.00  0.00    -0.000 C 
BRANCH   4   5
ATOM      5  C   UNL     1      25.176  13.694  49.145  1.00  0.00    -0.000 C 
BRANCH   5   6
ATOM      6  C   UNL     1      25.909  13.413  47.821  1.00  0.00    -0.000 C 
BRANCH   6   7
ATOM      7  C   UNL     1      25.474  14.358  46.689  1.00  0.00    -0.000 C 
BRANCH   7   8
ATOM      8  C   UNL     1      26.599  14.615  45.671  1.00  0.00    -0.000 C 
BRANCH   8   9
ATOM      9  C   UNL     1      26.580  13.621  44.495  1.00  0.00    -0.000 C 
BRANCH   9  10
ATOM     10  C   UNL     1      27.533  12.417  44.636  1.00  0.00    -0.000 C 
BRANCH  10  11
ATOM     11  C   UNL     1      26.846  11.039  44.634  1.00  0.00    -0.003 C 
ATOM     12  C   UNL     1      25.323  11.134  44.715  1.00  0.00     0.004 C 
ENDBRANCH  10  11
ENDBRANCH   9  10
ENDBRANCH   8   9
ENDBRANCH   7   8
ENDBRANCH   6   7
ENDBRANCH   5   6
ENDBRANCH   4   5
ENDBRANCH   3   4
ENDBRANCH   2   3
ENDBRANCH   1   2
BRANCH   1  13
ATOM     13  C   UNL     1      19.685  10.387  49.533  1.00  0.00     0.000 C 
BRANCH  13  14
ATOM     14  C   UNL     1      19.097  10.094  50.932  1.00  0.00     0.000 C 
BRANCH  14  15
ATOM     15  C   UNL     1      17.622   9.660  50.907  1.00  0.00     0.000 C 
BRANCH  15  16
ATOM     16  C   UNL     1      17.240   8.908  49.620  1.00  0.00     0.000 C 
BRANCH  16  17
ATOM     17  C   UNL     1      17.558   7.408  49.701  1.00  0.00     0.000 C 
BRANCH  17  18
ATOM     18  C   UNL     1      16.293   6.545  49.852  1.00  0.00     0.000 C 
BRANCH  18  19
ATOM     19  C   UNL     1      15.005   7.296  49.469  1.00  0.00     0.000 C 
BRANCH  19  20
ATOM     20  C   UNL     1      14.486   7.016  48.043  1.00  0.00     0.006 C 
BRANCH  20  21
ATOM     21  C   UNL     1      14.613   8.203  47.074  1.00  0.00     0.053 C 
BRANCH  21  22
ATOM     22  C   UNL     1      15.704   7.993  46.071  1.00  0.00     0.041 C 
ATOM     23  O   UNL     1      15.570   8.412  44.892  1.00  0.00    -0.550 OA
ATOM     24  O   UNL     1      16.860   7.312  46.432  1.00  0.00    -0.550 OA
ENDBRANCH  21  22
ENDBRANCH  20  21
ENDBRANCH  19  20
ENDBRANCH  18  19
ENDBRANCH  17  18
ENDBRANCH  16  17
ENDBRANCH  15  16
ENDBRANCH  14  15
ENDBRANCH  13  14
ENDBRANCH   1  13
TORSDOF 20
ENDMDL
MODEL 7
REMARK VINA RESULT:    -4.962     11.018     15.725
REMARK INTER + INTRA:         -12.498
REMARK INTER:                 -10.381
REMARK INTRA:                  -2.117
REMARK UNBOUND:                -1.735
REMARK SMILES CCCCCCCCCCCCCCCCCCCCCC(=O)[O-]
REMARK SMILES IDX 12 1 11 2 10 3 9 4 8 5 7 6 6 7 5 8 4 9 3 10 2 11 1 12 13 13
REMARK SMILES IDX 14 14 15 15 16 16 17 17 18 18 19 19 20 20 21 21 22 22 23 23
REMARK SMILES IDX 24 24
REMARK H PARENT
REMARK Flexibility Score: inf
ROOT
ATOM      1  C   UNL     1      16.310  -2.191  45.526  1.00  0.00     0.000 C 
ENDROOT
BRANCH   1   2
ATOM      2  C   UNL     1      17.551  -3.076  45.775  1.00  0.00     0.000 C 
BRANCH   2   3
ATOM      3  C   UNL     1      18.907  -2.384  45.556  1.00  0.00     0.000 C 
BRANCH   3   4
ATOM      4  C   UNL     1      19.423  -1.675  46.820  1.00  0.00    -0.000 C 
BRANCH   4   5
ATOM      5  C   UNL     1      20.246  -0.419  46.494  1.00  0.00    -0.000 C 
BRANCH   5   6
ATOM      6  C   UNL     1      20.214   0.618  47.632  1.00  0.00    -0.000 C 
BRANCH   6   7
ATOM      7  C   UNL     1      21.588   0.817  48.293  1.00  0.00    -0.000 C 
BRANCH   7   8
ATOM      8  C   UNL     1      22.689  -0.029  47.630  1.00  0.00    -0.000 C 
BRANCH   8   9
ATOM      9  C   UNL     1      23.881  -0.299  48.567  1.00  0.00    -0.000 C 
BRANCH   9  10
ATOM     10  C   UNL     1      24.723   0.940  48.934  1.00  0.00    -0.000 C 
BRANCH  10  11
ATOM     11  C   UNL     1      26.042   1.084  48.154  1.00  0.00    -0.003 C 
ATOM     12  C   UNL     1      26.285   2.507  47.652  1.00  0.00     0.004 C 
ENDBRANCH  10  11
ENDBRANCH   9  10
ENDBRANCH   8   9
ENDBRANCH   7   8
ENDBRANCH   6   7
ENDBRANCH   5   6
ENDBRANCH   4   5
ENDBRANCH   3   4
ENDBRANCH   2   3
ENDBRANCH   1   2
BRANCH   1  13
ATOM     13  C   UNL     1      15.295  -2.121  46.684  1.00  0.00     0.000 C 
BRANCH  13  14
ATOM     14  C   UNL     1      15.750  -1.266  47.888  1.00  0.00     0.000 C 
BRANCH  14  15
ATOM     15  C   UNL     1      16.428   0.056  47.489  1.00  0.00     0.000 C 
BRANCH  15  16
ATOM     16  C   UNL     1      15.537   1.285  47.735  1.00  0.00     0.000 C 
BRANCH  16  17
ATOM     17  C   UNL     1      14.310   0.957  48.597  1.00  0.00     0.000 C 
BRANCH  17  18
ATOM     18  C   UNL     1      12.985   1.212  47.859  1.00  0.00     0.000 C 
BRANCH  18  19
ATOM     19  C   UNL     1      13.178   1.486  46.356  1.00  0.00     0.000 C 
BRANCH  19  20
ATOM     20  C   UNL     1      12.758   0.332  45.422  1.00  0.00     0.006 C 
BRANCH  20  21
ATOM     21  C   UNL     1      12.440   0.761  43.981  1.00  0.00     0.053 C 
BRANCH  21  22
ATOM     22  C   UNL     1      11.397   1.835  43.934  1.00  0.00     0.041 C 
ATOM     23  O   UNL     1      11.657   2.946  43.404  1.00  0.00    -0.550 OA
ATOM     24  O   UNL     1      10.147   1.617  44.499  1.00  0.00    -0.550 OA
ENDBRANCH  21  22
ENDBRANCH  20  21
ENDBRANCH  19  20
ENDBRANCH  18  19
ENDBRANCH  17  18
ENDBRANCH  16  17
ENDBRANCH  15  16
ENDBRANCH  14  15
ENDBRANCH  13  14
ENDBRANCH   1  13
TORSDOF 20
ENDMDL
MODEL 8
REMARK VINA RESULT:    -4.928      9.987     11.800
REMARK INTER + INTRA:         -12.424
REMARK INTER:                  -9.097
REMARK INTRA:                  -3.327
REMARK UNBOUND:                -1.735
REMARK SMILES CCCCCCCCCCCCCCCCCCCCCC(=O)[O-]
REMARK SMILES IDX 12 1 11 2 10 3 9 4 8 5 7 6 6 7 5 8 4 9 3 10 2 11 1 12 13 13
REMARK SMILES IDX 14 14 15 15 16 16 17 17 18 18 19 19 20 20 21 21 22 22 23 23
REMARK SMILES IDX 24 24
REMARK H PARENT
REMARK Flexibility Score: inf
ROOT
ATOM      1  C   UNL     1      25.132   2.955  47.680  1.00  0.00     0.000 C 
ENDROOT
BRANCH   1   2
ATOM      2  C   UNL     1      26.389   2.064  47.789  1.00  0.00     0.000 C 
BRANCH   2   3
ATOM      3  C   UNL     1      26.587   1.062  46.638  1.00  0.00     0.000 C 
BRANCH   3   4
ATOM      4  C   UNL     1      27.464  -0.136  47.040  1.00  0.00    -0.000 C 
BRANCH   4   5
ATOM      5  C   UNL     1      27.317  -0.500  48.526  1.00  0.00    -0.000 C 
BRANCH   5   6
ATOM      6  C   UNL     1      26.928  -1.974  48.735  1.00  0.00    -0.000 C 
BRANCH   6   7
ATOM      7  C   UNL     1      25.575  -2.136  49.448  1.00  0.00    -0.000 C 
BRANCH   7   8
ATOM      8  C   UNL     1      24.595  -0.997  49.117  1.00  0.00    -0.000 C 
BRANCH   8   9
ATOM      9  C   UNL     1      23.797  -1.252  47.824  1.00  0.00    -0.000 C 
BRANCH   9  10
ATOM     10  C   UNL     1      23.034  -0.032  47.271  1.00  0.00    -0.000 C 
BRANCH  10  11
ATOM     11  C   UNL     1      22.261   0.784  48.324  1.00  0.00    -0.003 C 
ATOM     12  C   UNL     1      20.750   0.774  48.093  1.00  0.00     0.004 C 
ENDBRANCH  10  11
ENDBRANCH   9  10
ENDBRANCH   8   9
ENDBRANCH   7   8
ENDBRANCH   6   7
ENDBRANCH   5   6
ENDBRANCH   4   5
ENDBRANCH   3   4
ENDBRANCH   2   3
ENDBRANCH   1   2
BRANCH   1  13
ATOM     13  C   UNL     1      25.254   4.173  46.743  1.00  0.00     0.000 C 
BRANCH  13  14
ATOM     14  C   UNL     1      24.030   4.406  45.828  1.00  0.00     0.000 C 
BRANCH  14  15
ATOM     15  C   UNL     1      23.016   3.251  45.844  1.00  0.00     0.000 C 
BRANCH  15  16
ATOM     16  C   UNL     1      22.883   2.550  44.482  1.00  0.00     0.000 C 
BRANCH  16  17
ATOM     17  C   UNL     1      24.206   1.928  44.011  1.00  0.00     0.000 C 
BRANCH  17  18
ATOM     18  C   UNL     1      24.583   2.354  42.582  1.00  0.00     0.000 C 
BRANCH  18  19
ATOM     19  C   UNL     1      23.844   3.623  42.120  1.00  0.00     0.000 C 
BRANCH  19  20
ATOM     20  C   UNL     1      24.714   4.895  42.046  1.00  0.00     0.006 C 
BRANCH  20  21
ATOM     21  C   UNL     1      23.936   6.210  42.220  1.00  0.00     0.053 C 
BRANCH  21  22
ATOM     22  C   UNL     1      24.764   7.266  42.885  1.00  0.00     0.041 C 
ATOM     23  O   UNL     1      24.857   8.412  42.375  1.00  0.00    -0.550 OA
ATOM     24  O   UNL     1      25.452   6.976  44.057  1.00  0.00    -0.550 OA
ENDBRANCH  21  22
ENDBRANCH  20  21
ENDBRANCH  19  20
ENDBRANCH  18  19
ENDBRANCH  17  18
ENDBRANCH  16  17
ENDBRANCH  15  16
ENDBRANCH  14  15
ENDBRANCH  13  14
ENDBRANCH   1  13
TORSDOF 20
ENDMDL
MODEL 9
REMARK VINA RESULT:    -4.861     10.237     14.802
REMARK INTER + INTRA:         -12.279
REMARK INTER:                 -10.261
REMARK INTRA:                  -2.018
REMARK UNBOUND:                -1.735
REMARK SMILES CCCCCCCCCCCCCCCCCCCCCC(=O)[O-]
REMARK SMILES IDX 12 1 11 2 10 3 9 4 8 5 7 6 6 7 5 8 4 9 3 10 2 11 1 12 13 13
REMARK SMILES IDX 14 14 15 15 16 16 17 17 18 18 19 19 20 20 21 21 22 22 23 23
REMARK SMILES IDX 24 24
REMARK H PARENT
REMARK Flexibility Score: inf
ROOT
ATOM      1  C   UNL     1      20.985   0.144  47.431  1.00  0.00     0.000 C 
ENDROOT
BRANCH   1   2
ATOM      2  C   UNL     1      22.006   0.972  48.241  1.00  0.00     0.000 C 
BRANCH   2   3
ATOM      3  C   UNL     1      23.303   0.234  48.615  1.00  0.00     0.000 C 
BRANCH   3   4
ATOM      4  C   UNL     1      24.545   0.836  47.935  1.00  0.00    -0.000 C 
BRANCH   4   5
ATOM      5  C   UNL     1      24.753   2.315  48.296  1.00  0.00    -0.000 C 
BRANCH   5   6
ATOM      6  C   UNL     1      25.377   3.121  47.143  1.00  0.00    -0.000 C 
BRANCH   6   7
ATOM      7  C   UNL     1      24.432   4.203  46.595  1.00  0.00    -0.000 C 
BRANCH   7   8
ATOM      8  C   UNL     1      23.823   3.819  45.235  1.00  0.00    -0.000 C 
BRANCH   8   9
ATOM      9  C   UNL     1      22.607   2.882  45.368  1.00  0.00    -0.000 C 
BRANCH   9  10
ATOM     10  C   UNL     1      22.495   1.793  44.281  1.00  0.00    -0.000 C 
BRANCH  10  11
ATOM     11  C   UNL     1      23.261   0.492  44.583  1.00  0.00    -0.003 C 
ATOM     12  C   UNL     1      23.147  -0.540  43.461  1.00  0.00     0.004 C 
ENDBRANCH  10  11
ENDBRANCH   9  10
ENDBRANCH   8   9
ENDBRANCH   7   8
ENDBRANCH   6   7
ENDBRANCH   5   6
ENDBRANCH   4   5
ENDBRANCH   3   4
ENDBRANCH   2   3
ENDBRANCH   1   2
BRANCH   1  13
ATOM     13  C   UNL     1      19.513   0.282  47.869  1.00  0.00     0.000 C 
BRANCH  13  14
ATOM     14  C   UNL     1      18.686  -1.019  47.766  1.00  0.00     0.000 C 
BRANCH  14  15
ATOM     15  C   UNL     1      17.190  -0.784  47.495  1.00  0.00     0.000 C 
BRANCH  15  16
ATOM     16  C   UNL     1      16.877   0.662  47.073  1.00  0.00     0.000 C 
BRANCH  16  17
ATOM     17  C   UNL     1      15.440   1.075  47.418  1.00  0.00     0.000 C 
BRANCH  17  18
ATOM     18  C   UNL     1      14.498  -0.132  47.565  1.00  0.00     0.000 C 
BRANCH  18  19
ATOM     19  C   UNL     1      13.244  -0.027  46.679  1.00  0.00     0.000 C 
BRANCH  19  20
ATOM     20  C   UNL     1      13.101   1.299  45.903  1.00  0.00     0.006 C 
BRANCH  20  21
ATOM     21  C   UNL     1      12.686   1.137  44.432  1.00  0.00     0.053 C 
BRANCH  21  22
ATOM     22  C   UNL     1      11.342   1.740  44.160  1.00  0.00     0.041 C 
ATOM     23  O   UNL     1      11.249   2.944  43.806  1.00  0.00    -0.550 OA
ATOM     24  O   UNL     1      10.191   0.979  44.321  1.00  0.00    -0.550 OA
ENDBRANCH  21  22
ENDBRANCH  20  21
ENDBRANCH  19  20
ENDBRANCH  18  19
ENDBRANCH  17  18
ENDBRANCH  16  17
ENDBRANCH  15  16
ENDBRANCH  14  15
ENDBRANCH  13  14
ENDBRANCH   1  13
TORSDOF 20
ENDMDL
