MODEL 1
REMARK VINA RESULT:    -5.106      0.000      0.000
REMARK INTER + INTRA:          -6.554
REMARK INTER:                  -6.150
REMARK INTRA:                  -0.404
REMARK UNBOUND:                -0.404
REMARK SMILES O=c1c(O)c(-c2ccc(O)cc2O)oc2cc(O)cc(O)c12
REMARK SMILES IDX 5 1 3 2 2 3 1 4 22 5 20 6 19 7 17 8 16 9 15 10 14 11 6 12
REMARK SMILES IDX 8 13 7 14 9 15 11 16 12 17 10 18 13 20 4 22 21 24 18 26
REMARK H PARENT 10 19 13 21 4 23 21 25 18 27
REMARK Flexibility Score: inf
ROOT
ATOM      1  C   UNL     1      -5.999  -5.284  -1.165  1.00  0.00     0.184 A 
ATOM      2  C   UNL     1      -6.661  -5.522   0.048  1.00  0.00     0.208 A 
ATOM      3  C   UNL     1      -7.650  -6.517   0.100  1.00  0.00     0.238 A 
ATOM      4  O   UNL     1      -8.283  -6.684   1.176  1.00  0.00    -0.285 OA
ATOM      5  C   UNL     1      -7.941  -7.281  -1.056  1.00  0.00     0.111 A 
ATOM      6  C   UNL     1      -8.896  -8.342  -1.107  1.00  0.00     0.134 A 
ATOM      7  C   UNL     1      -9.190  -8.946  -2.335  1.00  0.00     0.093 A 
ATOM      8  C   UNL     1      -8.520  -8.575  -3.500  1.00  0.00     0.123 A 
ATOM      9  C   UNL     1      -7.544  -7.579  -3.451  1.00  0.00     0.094 A 
ATOM     10  C   UNL     1      -7.254  -6.931  -2.248  1.00  0.00     0.146 A 
ATOM     11  O   UNL     1      -6.327  -5.980  -2.247  1.00  0.00    -0.451 OA
ENDROOT
BRANCH   1  12
ATOM     12  C   UNL     1      -4.933  -4.266  -1.274  1.00  0.00     0.063 A 
ATOM     13  C   UNL     1      -2.610  -3.634  -0.919  1.00  0.00     0.047 A 
ATOM     14  C   UNL     1      -3.649  -4.556  -0.780  1.00  0.00     0.020 A 
ATOM     15  C   UNL     1      -2.833  -2.414  -1.559  1.00  0.00     0.119 A 
ATOM     16  C   UNL     1      -4.107  -2.114  -2.057  1.00  0.00     0.093 A 
ATOM     17  C   UNL     1      -5.161  -3.025  -1.914  1.00  0.00     0.130 A 
BRANCH  15  18
ATOM     18  O   UNL     1      -1.785  -1.506  -1.695  1.00  0.00    -0.508 OA
ATOM     19  H   UNL     1      -1.469  -0.940  -0.915  1.00  0.00     0.293 HD
ENDBRANCH  15  18
BRANCH  17  20
ATOM     20  O   UNL     1      -6.420  -2.659  -2.398  1.00  0.00    -0.507 OA
ATOM     21  H   UNL     1      -6.928  -1.853  -2.060  1.00  0.00     0.293 HD
ENDBRANCH  17  20
ENDBRANCH   1  12
BRANCH   2  22
ATOM     22  O   UNL     1      -6.349  -4.756   1.175  1.00  0.00    -0.502 OA
ATOM     23  H   UNL     1      -6.423  -5.120   2.117  1.00  0.00     0.293 HD
ENDBRANCH   2  22
BRANCH   6  24
ATOM     24  O   UNL     1      -9.558  -8.852   0.014  1.00  0.00    -0.507 OA
ATOM     25  H   UNL     1     -10.531  -8.701   0.227  1.00  0.00     0.293 HD
ENDBRANCH   6  24
BRANCH   8  26
ATOM     26  O   UNL     1      -8.828  -9.209  -4.702  1.00  0.00    -0.508 OA
ATOM     27  H   UNL     1      -8.635  -8.773  -5.596  1.00  0.00     0.293 HD
ENDBRANCH   8  26
TORSDOF 6
ENDMDL
MODEL 2
REMARK VINA RESULT:    -5.087      2.839      6.226
REMARK INTER + INTRA:          -6.532
REMARK INTER:                  -6.273
REMARK INTRA:                  -0.259
REMARK UNBOUND:                -0.404
REMARK SMILES O=c1c(O)c(-c2ccc(O)cc2O)oc2cc(O)cc(O)c12
REMARK SMILES IDX 5 1 3 2 2 3 1 4 22 5 20 6 19 7 17 8 16 9 15 10 14 11 6 12
REMARK SMILES IDX 8 13 7 14 9 15 11 16 12 17 10 18 13 20 4 22 21 24 18 26
REMARK H PARENT 10 19 13 21 4 23 21 25 18 27
REMARK Flexibility Score: inf
ROOT
ATOM      1  C   UNL     1      -8.412  -7.550  -4.008  1.00  0.00     0.184 A 
ATOM      2  C   UNL     1      -9.277  -8.486  -3.420  1.00  0.00     0.208 A 
ATOM      3  C   UNL     1      -9.388  -8.526  -2.022  1.00  0.00     0.238 A 
ATOM      4  O   UNL     1     -10.119  -9.408  -1.499  1.00  0.00    -0.285 OA
ATOM      5  C   UNL     1      -8.656  -7.607  -1.231  1.00  0.00     0.111 A 
ATOM      6  C   UNL     1      -8.722  -7.531   0.194  1.00  0.00     0.134 A 
ATOM      7  C   UNL     1      -7.861  -6.666   0.879  1.00  0.00     0.093 A 
ATOM      8  C   UNL     1      -6.982  -5.830   0.191  1.00  0.00     0.123 A 
ATOM      9  C   UNL     1      -6.949  -5.855  -1.204  1.00  0.00     0.094 A 
ATOM     10  C   UNL     1      -7.770  -6.733  -1.915  1.00  0.00     0.146 A 
ATOM     11  O   UNL     1      -7.699  -6.736  -3.241  1.00  0.00    -0.451 OA
ENDROOT
BRANCH   1  12
ATOM     12  C   UNL     1      -8.272  -7.446  -5.476  1.00  0.00     0.063 A 
ATOM     13  C   UNL     1      -8.456  -6.105  -7.498  1.00  0.00     0.047 A 
ATOM     14  C   UNL     1      -8.629  -6.249  -6.120  1.00  0.00     0.020 A 
ATOM     15  C   UNL     1      -7.916  -7.149  -8.252  1.00  0.00     0.119 A 
ATOM     16  C   UNL     1      -7.555  -8.346  -7.622  1.00  0.00     0.093 A 
ATOM     17  C   UNL     1      -7.735  -8.508  -6.242  1.00  0.00     0.130 A 
BRANCH  15  18
ATOM     18  O   UNL     1      -7.743  -6.988  -9.624  1.00  0.00    -0.508 OA
ATOM     19  H   UNL     1      -8.516  -7.094 -10.272  1.00  0.00     0.293 HD
ENDBRANCH  15  18
BRANCH  17  20
ATOM     20  O   UNL     1      -7.391  -9.736  -5.671  1.00  0.00    -0.507 OA
ATOM     21  H   UNL     1      -6.880 -10.453  -6.169  1.00  0.00     0.293 HD
ENDBRANCH  17  20
ENDBRANCH   1  12
BRANCH   2  22
ATOM     22  O   UNL     1      -9.991  -9.377  -4.226  1.00  0.00    -0.502 OA
ATOM     23  H   UNL     1      -9.536 -10.079  -4.797  1.00  0.00     0.293 HD
ENDBRANCH   2  22
BRANCH   6  24
ATOM     24  O   UNL     1      -9.628  -8.257   0.973  1.00  0.00    -0.507 OA
ATOM     25  H   UNL     1      -9.761  -9.254   0.922  1.00  0.00     0.293 HD
ENDBRANCH   6  24
BRANCH   8  26
ATOM     26  O   UNL     1      -6.150  -4.970   0.906  1.00  0.00    -0.508 OA
ATOM     27  H   UNL     1      -6.521  -4.313   1.582  1.00  0.00     0.293 HD
ENDBRANCH   8  26
TORSDOF 6
ENDMDL
MODEL 3
REMARK VINA RESULT:    -4.937      1.439      6.904
REMARK INTER + INTRA:          -6.351
REMARK INTER:                  -5.950
REMARK INTRA:                  -0.401
REMARK UNBOUND:                -0.404
REMARK SMILES O=c1c(O)c(-c2ccc(O)cc2O)oc2cc(O)cc(O)c12
REMARK SMILES IDX 5 1 3 2 2 3 1 4 22 5 20 6 19 7 17 8 16 9 15 10 14 11 6 12
REMARK SMILES IDX 8 13 7 14 9 15 11 16 12 17 10 18 13 20 4 22 21 24 18 26
REMARK H PARENT 10 19 13 21 4 23 21 25 18 27
REMARK Flexibility Score: inf
ROOT
ATOM      1  C   UNL     1      -6.249  -5.241  -1.499  1.00  0.00     0.184 A 
ATOM      2  C   UNL     1      -6.757  -4.139  -2.204  1.00  0.00     0.208 A 
ATOM      3  C   UNL     1      -5.957  -2.994  -2.345  1.00  0.00     0.238 A 
ATOM      4  O   UNL     1      -6.442  -1.987  -2.926  1.00  0.00    -0.285 OA
ATOM      5  C   UNL     1      -4.648  -2.979  -1.805  1.00  0.00     0.111 A 
ATOM      6  C   UNL     1      -3.736  -1.887  -1.923  1.00  0.00     0.134 A 
ATOM      7  C   UNL     1      -2.512  -1.934  -1.244  1.00  0.00     0.093 A 
ATOM      8  C   UNL     1      -2.141  -3.057  -0.505  1.00  0.00     0.123 A 
ATOM      9  C   UNL     1      -3.001  -4.153  -0.430  1.00  0.00     0.094 A 
ATOM     10  C   UNL     1      -4.244  -4.122  -1.066  1.00  0.00     0.146 A 
ATOM     11  O   UNL     1      -5.039  -5.181  -0.959  1.00  0.00    -0.451 OA
ENDROOT
BRANCH   1  12
ATOM     12  C   UNL     1      -7.036  -6.482  -1.339  1.00  0.00     0.063 A 
ATOM     13  C   UNL     1      -7.876  -8.556  -2.295  1.00  0.00     0.047 A 
ATOM     14  C   UNL     1      -7.184  -7.351  -2.434  1.00  0.00     0.020 A 
ATOM     15  C   UNL     1      -8.423  -8.915  -1.062  1.00  0.00     0.119 A 
ATOM     16  C   UNL     1      -8.281  -8.058   0.037  1.00  0.00     0.093 A 
ATOM     17  C   UNL     1      -7.600  -6.841  -0.091  1.00  0.00     0.130 A 
BRANCH  15  18
ATOM     18  O   UNL     1      -9.106 -10.123  -0.937  1.00  0.00    -0.508 OA
ATOM     19  H   UNL     1      -8.611 -11.006  -0.866  1.00  0.00     0.293 HD
ENDBRANCH  15  18
BRANCH  17  20
ATOM     20  O   UNL     1      -7.519  -6.009   1.027  1.00  0.00    -0.507 OA
ATOM     21  H   UNL     1      -6.688  -5.485   1.267  1.00  0.00     0.293 HD
ENDBRANCH  17  20
ENDBRANCH   1  12
BRANCH   2  22
ATOM     22  O   UNL     1      -8.051  -4.184  -2.731  1.00  0.00    -0.502 OA
ATOM     23  H   UNL     1      -8.255  -3.937  -3.691  1.00  0.00     0.293 HD
ENDBRANCH   2  22
BRANCH   6  24
ATOM     24  O   UNL     1      -3.969  -0.755  -2.710  1.00  0.00    -0.507 OA
ATOM     25  H   UNL     1      -4.587  -0.724  -3.506  1.00  0.00     0.293 HD
ENDBRANCH   6  24
BRANCH   8  26
ATOM     26  O   UNL     1      -0.909  -3.075   0.146  1.00  0.00    -0.508 OA
ATOM     27  H   UNL     1      -0.074  -3.424  -0.310  1.00  0.00     0.293 HD
ENDBRANCH   8  26
TORSDOF 6
ENDMDL
MODEL 4
REMARK VINA RESULT:    -4.776     12.831     15.098
REMARK INTER + INTRA:          -6.157
REMARK INTER:                  -5.748
REMARK INTRA:                  -0.409
REMARK UNBOUND:                -0.404
REMARK SMILES O=c1c(O)c(-c2ccc(O)cc2O)oc2cc(O)cc(O)c12
REMARK SMILES IDX 5 1 3 2 2 3 1 4 22 5 20 6 19 7 17 8 16 9 15 10 14 11 6 12
REMARK SMILES IDX 8 13 7 14 9 15 11 16 12 17 10 18 13 20 4 22 21 24 18 26
REMARK H PARENT 10 19 13 21 4 23 21 25 18 27
REMARK Flexibility Score: inf
ROOT
ATOM      1  C   UNL     1       6.593  -3.841  -5.080  1.00  0.00     0.184 A 
ATOM      2  C   UNL     1       5.609  -3.225  -5.867  1.00  0.00     0.208 A 
ATOM      3  C   UNL     1       5.419  -1.838  -5.758  1.00  0.00     0.238 A 
ATOM      4  O   UNL     1       4.494  -1.301  -6.422  1.00  0.00    -0.285 OA
ATOM      5  C   UNL     1       6.236  -1.083  -4.882  1.00  0.00     0.111 A 
ATOM      6  C   UNL     1       6.158   0.334  -4.721  1.00  0.00     0.134 A 
ATOM      7  C   UNL     1       6.933   0.959  -3.736  1.00  0.00     0.093 A 
ATOM      8  C   UNL     1       7.828   0.232  -2.953  1.00  0.00     0.123 A 
ATOM      9  C   UNL     1       7.954  -1.145  -3.142  1.00  0.00     0.094 A 
ATOM     10  C   UNL     1       7.169  -1.804  -4.090  1.00  0.00     0.146 A 
ATOM     11  O   UNL     1       7.310  -3.117  -4.230  1.00  0.00    -0.451 OA
ENDROOT
BRANCH   1  12
ATOM     12  C   UNL     1       6.854  -5.293  -5.170  1.00  0.00     0.063 A 
ATOM     13  C   UNL     1       8.195  -7.118  -6.059  1.00  0.00     0.047 A 
ATOM     14  C   UNL     1       7.892  -5.757  -5.997  1.00  0.00     0.020 A 
ATOM     15  C   UNL     1       7.475  -8.035  -5.292  1.00  0.00     0.119 A 
ATOM     16  C   UNL     1       6.440  -7.586  -4.463  1.00  0.00     0.093 A 
ATOM     17  C   UNL     1       6.117  -6.224  -4.400  1.00  0.00     0.130 A 
BRANCH  15  18
ATOM     18  O   UNL     1       7.793  -9.390  -5.360  1.00  0.00    -0.508 OA
ATOM     19  H   UNL     1       8.283  -9.857  -4.605  1.00  0.00     0.293 HD
ENDBRANCH  15  18
BRANCH  17  20
ATOM     20  O   UNL     1       5.052  -5.835  -3.584  1.00  0.00    -0.507 OA
ATOM     21  H   UNL     1       4.615  -6.454  -2.914  1.00  0.00     0.293 HD
ENDBRANCH  17  20
ENDBRANCH   1  12
BRANCH   2  22
ATOM     22  O   UNL     1       4.820  -3.995  -6.727  1.00  0.00    -0.502 OA
ATOM     23  H   UNL     1       5.218  -4.581  -7.451  1.00  0.00     0.293 HD
ENDBRANCH   2  22
BRANCH   6  24
ATOM     24  O   UNL     1       5.363   1.168  -5.513  1.00  0.00    -0.507 OA
ATOM     25  H   UNL     1       5.405   2.175  -5.511  1.00  0.00     0.293 HD
ENDBRANCH   6  24
BRANCH   8  26
ATOM     26  O   UNL     1       8.594   0.891  -1.993  1.00  0.00    -0.508 OA
ATOM     27  H   UNL     1       9.313   0.408  -1.467  1.00  0.00     0.293 HD
ENDBRANCH   8  26
TORSDOF 6
ENDMDL
MODEL 5
REMARK VINA RESULT:    -4.735      4.538      7.963
REMARK INTER + INTRA:          -6.108
REMARK INTER:                  -5.744
REMARK INTRA:                  -0.364
REMARK UNBOUND:                -0.404
REMARK SMILES O=c1c(O)c(-c2ccc(O)cc2O)oc2cc(O)cc(O)c12
REMARK SMILES IDX 5 1 3 2 2 3 1 4 22 5 20 6 19 7 17 8 16 9 15 10 14 11 6 12
REMARK SMILES IDX 8 13 7 14 9 15 11 16 12 17 10 18 13 20 4 22 21 24 18 26
REMARK H PARENT 10 19 13 21 4 23 21 25 18 27
REMARK Flexibility Score: inf
ROOT
ATOM      1  C   UNL     1      -0.826  -4.719  -0.887  1.00  0.00     0.184 A 
ATOM      2  C   UNL     1      -0.425  -5.116   0.397  1.00  0.00     0.208 A 
ATOM      3  C   UNL     1       0.782  -5.818   0.547  1.00  0.00     0.238 A 
ATOM      4  O   UNL     1       1.106  -6.224   1.694  1.00  0.00    -0.285 OA
ATOM      5  C   UNL     1       1.585  -6.086  -0.588  1.00  0.00     0.111 A 
ATOM      6  C   UNL     1       2.846  -6.756  -0.549  1.00  0.00     0.134 A 
ATOM      7  C   UNL     1       3.495  -7.076  -1.748  1.00  0.00     0.093 A 
ATOM      8  C   UNL     1       2.962  -6.695  -2.979  1.00  0.00     0.123 A 
ATOM      9  C   UNL     1       1.759  -5.991  -3.026  1.00  0.00     0.094 A 
ATOM     10  C   UNL     1       1.069  -5.689  -1.850  1.00  0.00     0.146 A 
ATOM     11  O   UNL     1      -0.080  -5.028  -1.939  1.00  0.00    -0.451 OA
ENDROOT
BRANCH   1  12
ATOM     12  C   UNL     1      -2.074  -3.957  -1.102  1.00  0.00     0.063 A 
ATOM     13  C   UNL     1      -4.506  -3.883  -1.054  1.00  0.00     0.047 A 
ATOM     14  C   UNL     1      -3.313  -4.594  -0.911  1.00  0.00     0.020 A 
ATOM     15  C   UNL     1      -4.481  -2.526  -1.383  1.00  0.00     0.119 A 
ATOM     16  C   UNL     1      -3.254  -1.880  -1.574  1.00  0.00     0.093 A 
ATOM     17  C   UNL     1      -2.050  -2.584  -1.445  1.00  0.00     0.130 A 
BRANCH  15  18
ATOM     18  O   UNL     1      -5.680  -1.829  -1.516  1.00  0.00    -0.508 OA
ATOM     19  H   UNL     1      -5.822  -1.158  -2.264  1.00  0.00     0.293 HD
ENDBRANCH  15  18
BRANCH  17  20
ATOM     20  O   UNL     1      -0.856  -1.899  -1.682  1.00  0.00    -0.507 OA
ATOM     21  H   UNL     1      -0.228  -1.611  -0.943  1.00  0.00     0.293 HD
ENDBRANCH  17  20
ENDBRANCH   1  12
BRANCH   2  22
ATOM     22  O   UNL     1      -1.235  -4.832   1.500  1.00  0.00    -0.502 OA
ATOM     23  H   UNL     1      -1.473  -5.531   2.194  1.00  0.00     0.293 HD
ENDBRANCH   2  22
BRANCH   6  24
ATOM     24  O   UNL     1       3.511  -7.100   0.632  1.00  0.00    -0.507 OA
ATOM     25  H   UNL     1       3.176  -6.899   1.561  1.00  0.00     0.293 HD
ENDBRANCH   6  24
BRANCH   8  26
ATOM     26  O   UNL     1       3.643  -7.018  -4.151  1.00  0.00    -0.508 OA
ATOM     27  H   UNL     1       4.639  -6.855  -4.248  1.00  0.00     0.293 HD
ENDBRANCH   8  26
TORSDOF 6
ENDMDL
MODEL 6
REMARK VINA RESULT:    -4.666      1.964      7.228
REMARK INTER + INTRA:          -6.024
REMARK INTER:                  -5.615
REMARK INTRA:                  -0.410
REMARK UNBOUND:                -0.404
REMARK SMILES O=c1c(O)c(-c2ccc(O)cc2O)oc2cc(O)cc(O)c12
REMARK SMILES IDX 5 1 3 2 2 3 1 4 22 5 20 6 19 7 17 8 16 9 15 10 14 11 6 12
REMARK SMILES IDX 8 13 7 14 9 15 11 16 12 17 10 18 13 20 4 22 21 24 18 26
REMARK H PARENT 10 19 13 21 4 23 21 25 18 27
REMARK Flexibility Score: inf
ROOT
ATOM      1  C   UNL     1      -4.391  -4.486  -1.116  1.00  0.00     0.184 A 
ATOM      2  C   UNL     1      -4.351  -3.133  -1.484  1.00  0.00     0.208 A 
ATOM      3  C   UNL     1      -3.110  -2.479  -1.543  1.00  0.00     0.238 A 
ATOM      4  O   UNL     1      -3.088  -1.250  -1.815  1.00  0.00    -0.285 OA
ATOM      5  C   UNL     1      -1.923  -3.197  -1.261  1.00  0.00     0.111 A 
ATOM      6  C   UNL     1      -0.607  -2.646  -1.328  1.00  0.00     0.134 A 
ATOM      7  C   UNL     1       0.485  -3.415  -0.909  1.00  0.00     0.093 A 
ATOM      8  C   UNL     1       0.318  -4.734  -0.486  1.00  0.00     0.123 A 
ATOM      9  C   UNL     1      -0.956  -5.301  -0.471  1.00  0.00     0.094 A 
ATOM     10  C   UNL     1      -2.070  -4.548  -0.848  1.00  0.00     0.146 A 
ATOM     11  O   UNL     1      -3.268  -5.121  -0.807  1.00  0.00    -0.451 OA
ENDROOT
BRANCH   1  12
ATOM     12  C   UNL     1      -5.666  -5.232  -1.060  1.00  0.00     0.063 A 
ATOM     13  C   UNL     1      -7.236  -6.759  -2.121  1.00  0.00     0.047 A 
ATOM     14  C   UNL     1      -6.064  -6.001  -2.167  1.00  0.00     0.020 A 
ATOM     15  C   UNL     1      -8.023  -6.767  -0.968  1.00  0.00     0.119 A 
ATOM     16  C   UNL     1      -7.636  -6.007   0.142  1.00  0.00     0.093 A 
ATOM     17  C   UNL     1      -6.469  -5.233   0.105  1.00  0.00     0.130 A 
BRANCH  15  18
ATOM     18  O   UNL     1      -9.186  -7.533  -0.935  1.00  0.00    -0.508 OA
ATOM     19  H   UNL     1      -9.859  -7.507  -1.693  1.00  0.00     0.293 HD
ENDBRANCH  15  18
BRANCH  17  20
ATOM     20  O   UNL     1      -6.150  -4.465   1.227  1.00  0.00    -0.507 OA
ATOM     21  H   UNL     1      -6.844  -4.132   1.884  1.00  0.00     0.293 HD
ENDBRANCH  17  20
ENDBRANCH   1  12
BRANCH   2  22
ATOM     22  O   UNL     1      -5.539  -2.451  -1.762  1.00  0.00    -0.502 OA
ATOM     23  H   UNL     1      -5.871  -1.682  -1.192  1.00  0.00     0.293 HD
ENDBRANCH   2  22
BRANCH   6  24
ATOM     24  O   UNL     1      -0.319  -1.370  -1.821  1.00  0.00    -0.507 OA
ATOM     25  H   UNL     1       0.309  -1.176  -2.585  1.00  0.00     0.293 HD
ENDBRANCH   6  24
BRANCH   8  26
ATOM     26  O   UNL     1       1.431  -5.474  -0.090  1.00  0.00    -0.508 OA
ATOM     27  H   UNL     1       2.365  -5.232  -0.398  1.00  0.00     0.293 HD
ENDBRANCH   8  26
TORSDOF 6
ENDMDL
MODEL 7
REMARK VINA RESULT:    -4.649      1.982      3.469
REMARK INTER + INTRA:          -6.005
REMARK INTER:                  -5.603
REMARK INTRA:                  -0.402
REMARK UNBOUND:                -0.404
REMARK SMILES O=c1c(O)c(-c2ccc(O)cc2O)oc2cc(O)cc(O)c12
REMARK SMILES IDX 5 1 3 2 2 3 1 4 22 5 20 6 19 7 17 8 16 9 15 10 14 11 6 12
REMARK SMILES IDX 8 13 7 14 9 15 11 16 12 17 10 18 13 20 4 22 21 24 18 26
REMARK H PARENT 10 19 13 21 4 23 21 25 18 27
REMARK Flexibility Score: inf
ROOT
ATOM      1  C   UNL     1      -4.810  -4.468  -1.316  1.00  0.00     0.184 A 
ATOM      2  C   UNL     1      -5.310  -3.443  -2.132  1.00  0.00     0.208 A 
ATOM      3  C   UNL     1      -6.356  -3.732  -3.024  1.00  0.00     0.238 A 
ATOM      4  O   UNL     1      -6.759  -2.823  -3.796  1.00  0.00    -0.285 OA
ATOM      5  C   UNL     1      -6.907  -5.036  -3.064  1.00  0.00     0.111 A 
ATOM      6  C   UNL     1      -7.995  -5.431  -3.900  1.00  0.00     0.134 A 
ATOM      7  C   UNL     1      -8.376  -6.777  -3.945  1.00  0.00     0.093 A 
ATOM      8  C   UNL     1      -7.753  -7.730  -3.140  1.00  0.00     0.123 A 
ATOM      9  C   UNL     1      -6.727  -7.346  -2.277  1.00  0.00     0.094 A 
ATOM     10  C   UNL     1      -6.299  -6.017  -2.235  1.00  0.00     0.146 A 
ATOM     11  O   UNL     1      -5.310  -5.694  -1.410  1.00  0.00    -0.451 OA
ENDROOT
BRANCH   1  12
ATOM     12  C   UNL     1      -3.726  -4.218  -0.342  1.00  0.00     0.063 A 
ATOM     13  C   UNL     1      -1.345  -4.136   0.151  1.00  0.00     0.047 A 
ATOM     14  C   UNL     1      -2.390  -4.417  -0.731  1.00  0.00     0.020 A 
ATOM     15  C   UNL     1      -1.616  -3.645   1.430  1.00  0.00     0.119 A 
ATOM     16  C   UNL     1      -2.943  -3.440   1.828  1.00  0.00     0.093 A 
ATOM     17  C   UNL     1      -4.001  -3.729   0.957  1.00  0.00     0.130 A 
BRANCH  15  18
ATOM     18  O   UNL     1      -0.563  -3.363   2.296  1.00  0.00    -0.508 OA
ATOM     19  H   UNL     1       0.384  -3.667   2.097  1.00  0.00     0.293 HD
ENDBRANCH  15  18
BRANCH  17  20
ATOM     20  O   UNL     1      -5.306  -3.541   1.419  1.00  0.00    -0.507 OA
ATOM     21  H   UNL     1      -5.760  -2.637   1.439  1.00  0.00     0.293 HD
ENDBRANCH  17  20
ENDBRANCH   1  12
BRANCH   2  22
ATOM     22  O   UNL     1      -4.751  -2.164  -2.068  1.00  0.00    -0.502 OA
ATOM     23  H   UNL     1      -5.314  -1.323  -2.097  1.00  0.00     0.293 HD
ENDBRANCH   2  22
BRANCH   6  24
ATOM     24  O   UNL     1      -8.745  -4.543  -4.676  1.00  0.00    -0.507 OA
ATOM     25  H   UNL     1      -9.584  -4.075  -4.369  1.00  0.00     0.293 HD
ENDBRANCH   6  24
BRANCH   8  26
ATOM     26  O   UNL     1      -8.170  -9.059  -3.201  1.00  0.00    -0.508 OA
ATOM     27  H   UNL     1      -8.827  -9.440  -2.531  1.00  0.00     0.293 HD
ENDBRANCH   8  26
TORSDOF 6
ENDMDL
MODEL 8
REMARK VINA RESULT:    -4.588      2.665      4.410
REMARK INTER + INTRA:          -5.931
REMARK INTER:                  -5.587
REMARK INTRA:                  -0.344
REMARK UNBOUND:                -0.404
REMARK SMILES O=c1c(O)c(-c2ccc(O)cc2O)oc2cc(O)cc(O)c12
REMARK SMILES IDX 5 1 3 2 2 3 1 4 22 5 20 6 19 7 17 8 16 9 15 10 14 11 6 12
REMARK SMILES IDX 8 13 7 14 9 15 11 16 12 17 10 18 13 20 4 22 21 24 18 26
REMARK H PARENT 10 19 13 21 4 23 21 25 18 27
REMARK Flexibility Score: inf
ROOT
ATOM      1  C   UNL     1      -6.753  -5.450   1.087  1.00  0.00     0.184 A 
ATOM      2  C   UNL     1      -6.201  -4.905  -0.081  1.00  0.00     0.208 A 
ATOM      3  C   UNL     1      -6.490  -5.506  -1.316  1.00  0.00     0.238 A 
ATOM      4  O   UNL     1      -5.942  -5.048  -2.354  1.00  0.00    -0.285 OA
ATOM      5  C   UNL     1      -7.353  -6.627  -1.368  1.00  0.00     0.111 A 
ATOM      6  C   UNL     1      -7.748  -7.291  -2.569  1.00  0.00     0.134 A 
ATOM      7  C   UNL     1      -8.507  -8.465  -2.490  1.00  0.00     0.093 A 
ATOM      8  C   UNL     1      -8.940  -8.962  -1.262  1.00  0.00     0.123 A 
ATOM      9  C   UNL     1      -8.609  -8.289  -0.086  1.00  0.00     0.094 A 
ATOM     10  C   UNL     1      -7.822  -7.136  -0.128  1.00  0.00     0.146 A 
ATOM     11  O   UNL     1      -7.518  -6.532   1.015  1.00  0.00    -0.451 OA
ENDROOT
BRANCH   1  12
ATOM     12  C   UNL     1      -6.503  -4.846   2.412  1.00  0.00     0.063 A 
ATOM     13  C   UNL     1      -4.926  -4.256   4.170  1.00  0.00     0.047 A 
ATOM     14  C   UNL     1      -5.202  -4.867   2.945  1.00  0.00     0.020 A 
ATOM     15  C   UNL     1      -5.941  -3.608   4.877  1.00  0.00     0.119 A 
ATOM     16  C   UNL     1      -7.241  -3.578   4.356  1.00  0.00     0.093 A 
ATOM     17  C   UNL     1      -7.533  -4.198   3.134  1.00  0.00     0.130 A 
BRANCH  15  18
ATOM     18  O   UNL     1      -5.650  -2.997   6.095  1.00  0.00    -0.508 OA
ATOM     19  H   UNL     1      -5.215  -3.510   6.854  1.00  0.00     0.293 HD
ENDBRANCH  15  18
BRANCH  17  20
ATOM     20  O   UNL     1      -8.853  -4.169   2.679  1.00  0.00    -0.507 OA
ATOM     21  H   UNL     1      -9.209  -3.452   2.059  1.00  0.00     0.293 HD
ENDBRANCH  17  20
ENDBRANCH   1  12
BRANCH   2  22
ATOM     22  O   UNL     1      -5.356  -3.794  -0.001  1.00  0.00    -0.502 OA
ATOM     23  H   UNL     1      -4.414  -3.854   0.367  1.00  0.00     0.293 HD
ENDBRANCH   2  22
BRANCH   6  24
ATOM     24  O   UNL     1      -7.445  -6.829  -3.853  1.00  0.00    -0.507 OA
ATOM     25  H   UNL     1      -6.518  -6.613  -4.184  1.00  0.00     0.293 HD
ENDBRANCH   6  24
BRANCH   8  26
ATOM     26  O   UNL     1      -9.708 -10.125  -1.223  1.00  0.00    -0.508 OA
ATOM     27  H   UNL     1      -9.540 -10.848  -0.532  1.00  0.00     0.293 HD
ENDBRANCH   8  26
TORSDOF 6
ENDMDL
MODEL 9
REMARK VINA RESULT:    -4.503      1.722      6.128
REMARK INTER + INTRA:          -5.829
REMARK INTER:                  -5.493
REMARK INTRA:                  -0.335
REMARK UNBOUND:                -0.404
REMARK SMILES O=c1c(O)c(-c2ccc(O)cc2O)oc2cc(O)cc(O)c12
REMARK SMILES IDX 5 1 3 2 2 3 1 4 22 5 20 6 19 7 17 8 16 9 15 10 14 11 6 12
REMARK SMILES IDX 8 13 7 14 9 15 11 16 12 17 10 18 13 20 4 22 21 24 18 26
REMARK H PARENT 10 19 13 21 4 23 21 25 18 27
REMARK Flexibility Score: inf
ROOT
ATOM      1  C   UNL     1      -7.303  -6.117  -2.203  1.00  0.00     0.184 A 
ATOM      2  C   UNL     1      -8.072  -6.194  -1.033  1.00  0.00     0.208 A 
ATOM      3  C   UNL     1      -7.561  -5.646   0.155  1.00  0.00     0.238 A 
ATOM      4  O   UNL     1      -8.229  -5.772   1.215  1.00  0.00    -0.285 OA
ATOM      5  C   UNL     1      -6.300  -5.002   0.147  1.00  0.00     0.111 A 
ATOM      6  C   UNL     1      -5.702  -4.377   1.283  1.00  0.00     0.134 A 
ATOM      7  C   UNL     1      -4.397  -3.878   1.189  1.00  0.00     0.093 A 
ATOM      8  C   UNL     1      -3.693  -3.924  -0.014  1.00  0.00     0.123 A 
ATOM      9  C   UNL     1      -4.289  -4.481  -1.145  1.00  0.00     0.094 A 
ATOM     10  C   UNL     1      -5.576  -5.019  -1.075  1.00  0.00     0.146 A 
ATOM     11  O   UNL     1      -6.102  -5.553  -2.171  1.00  0.00    -0.451 OA
ENDROOT
BRANCH   1  12
ATOM     12  C   UNL     1      -7.799  -6.654  -3.487  1.00  0.00     0.063 A 
ATOM     13  C   UNL     1      -8.537  -6.250  -5.771  1.00  0.00     0.047 A 
ATOM     14  C   UNL     1      -8.118  -5.766  -4.530  1.00  0.00     0.020 A 
ATOM     15  C   UNL     1      -8.637  -7.625  -5.993  1.00  0.00     0.119 A 
ATOM     16  C   UNL     1      -8.321  -8.519  -4.963  1.00  0.00     0.093 A 
ATOM     17  C   UNL     1      -7.911  -8.048  -3.710  1.00  0.00     0.130 A 
BRANCH  15  18
ATOM     18  O   UNL     1      -9.050  -8.092  -7.239  1.00  0.00    -0.508 OA
ATOM     19  H   UNL     1      -9.595  -7.513  -7.868  1.00  0.00     0.293 HD
ENDBRANCH  15  18
BRANCH  17  20
ATOM     20  O   UNL     1      -7.643  -8.983  -2.707  1.00  0.00    -0.507 OA
ATOM     21  H   UNL     1      -7.408  -9.948  -2.901  1.00  0.00     0.293 HD
ENDBRANCH  17  20
ENDBRANCH   1  12
BRANCH   2  22
ATOM     22  O   UNL     1      -9.315  -6.831  -1.055  1.00  0.00    -0.502 OA
ATOM     23  H   UNL     1      -9.517  -7.607  -1.674  1.00  0.00     0.293 HD
ENDBRANCH   2  22
BRANCH   6  24
ATOM     24  O   UNL     1      -6.351  -4.197   2.508  1.00  0.00    -0.507 OA
ATOM     25  H   UNL     1      -6.696  -4.943   3.092  1.00  0.00     0.293 HD
ENDBRANCH   6  24
BRANCH   8  26
ATOM     26  O   UNL     1      -2.401  -3.404  -0.074  1.00  0.00    -0.508 OA
ATOM     27  H   UNL     1      -1.824  -3.513  -0.900  1.00  0.00     0.293 HD
ENDBRANCH   8  26
TORSDOF 6
ENDMDL
