MODEL 1
REMARK VINA RESULT:    -4.462      0.000      0.000
REMARK INTER + INTRA:         -10.521
REMARK INTER:                  -8.636
REMARK INTRA:                  -1.885
REMARK UNBOUND:                -1.885
REMARK SMILES CCCCCCCCCCCCCCCCCC(=O)[O-]
REMARK SMILES IDX 10 1 11 2 12 3 13 4 14 5 15 6 16 7 17 8 18 9 19 10 20 11
REMARK SMILES IDX 9 12 8 13 7 14 6 15 5 16 4 17 3 18 2 19 1 20
REMARK H PARENT
REMARK Flexibility Score: inf
ROOT
ATOM      1  C   UNL     1      57.982  33.056  78.484  1.00  0.00     0.000 C 
ENDROOT
BRANCH   1   2
ATOM      2  C   UNL     1      57.857  33.508  79.948  1.00  0.00     0.000 C 
BRANCH   2   3
ATOM      3  C   UNL     1      59.107  34.247  80.453  1.00  0.00     0.000 C 
BRANCH   3   4
ATOM      4  C   UNL     1      58.791  35.558  81.206  1.00  0.00     0.000 C 
BRANCH   4   5
ATOM      5  C   UNL     1      58.583  36.742  80.250  1.00  0.00     0.000 C 
BRANCH   5   6
ATOM      6  C   UNL     1      57.096  37.107  80.142  1.00  0.00     0.000 C 
BRANCH   6   7
ATOM      7  C   UNL     1      56.676  37.482  78.710  1.00  0.00     0.006 C 
BRANCH   7   8
ATOM      8  C   UNL     1      57.845  37.846  77.782  1.00  0.00     0.053 C 
BRANCH   8   9
ATOM      9  C   UNL     1      57.554  39.068  76.966  1.00  0.00     0.041 C 
ATOM     10  O   UNL     1      57.662  40.213  77.479  1.00  0.00    -0.550 OA
ATOM     11  O   UNL     1      57.133  38.940  75.649  1.00  0.00    -0.550 OA
ENDBRANCH   8   9
ENDBRANCH   7   8
ENDBRANCH   6   7
ENDBRANCH   5   6
ENDBRANCH   4   5
ENDBRANCH   3   4
ENDBRANCH   2   3
ENDBRANCH   1   2
BRANCH   1  12
ATOM     12  C   UNL     1      57.911  34.228  77.489  1.00  0.00     0.000 C 
BRANCH  12  13
ATOM     13  C   UNL     1      57.555  33.833  76.042  1.00  0.00    -0.000 C 
BRANCH  13  14
ATOM     14  C   UNL     1      58.786  33.602  75.139  1.00  0.00    -0.000 C 
BRANCH  14  15
ATOM     15  C   UNL     1      58.778  32.204  74.495  1.00  0.00    -0.000 C 
BRANCH  15  16
ATOM     16  C   UNL     1      59.751  31.229  75.175  1.00  0.00    -0.000 C 
BRANCH  16  17
ATOM     17  C   UNL     1      59.039  30.241  76.115  1.00  0.00    -0.000 C 
BRANCH  17  18
ATOM     18  C   UNL     1      57.512  30.219  75.917  1.00  0.00    -0.000 C 
BRANCH  18  19
ATOM     19  C   UNL     1      56.990  29.085  75.015  1.00  0.00    -0.003 C 
ATOM     20  C   UNL     1      55.703  29.452  74.277  1.00  0.00     0.004 C 
ENDBRANCH  18  19
ENDBRANCH  17  18
ENDBRANCH  16  17
ENDBRANCH  15  16
ENDBRANCH  14  15
ENDBRANCH  13  14
ENDBRANCH  12  13
ENDBRANCH   1  12
TORSDOF 16
ENDMDL
MODEL 2
REMARK VINA RESULT:    -4.402      3.605      7.799
REMARK INTER + INTRA:         -10.406
REMARK INTER:                  -8.130
REMARK INTRA:                  -2.276
REMARK UNBOUND:                -1.885
REMARK SMILES CCCCCCCCCCCCCCCCCC(=O)[O-]
REMARK SMILES IDX 10 1 11 2 12 3 13 4 14 5 15 6 16 7 17 8 18 9 19 10 20 11
REMARK SMILES IDX 9 12 8 13 7 14 6 15 5 16 4 17 3 18 2 19 1 20
REMARK H PARENT
REMARK Flexibility Score: inf
ROOT
ATOM      1  C   UNL     1      59.026  32.720  75.037  1.00  0.00     0.000 C 
ENDROOT
BRANCH   1   2
ATOM      2  C   UNL     1      58.365  32.296  73.714  1.00  0.00     0.000 C 
BRANCH   2   3
ATOM      3  C   UNL     1      56.830  32.343  73.772  1.00  0.00     0.000 C 
BRANCH   3   4
ATOM      4  C   UNL     1      56.151  31.028  73.330  1.00  0.00     0.000 C 
BRANCH   4   5
ATOM      5  C   UNL     1      55.825  30.113  74.520  1.00  0.00     0.000 C 
BRANCH   5   6
ATOM      6  C   UNL     1      56.763  28.898  74.553  1.00  0.00     0.000 C 
BRANCH   6   7
ATOM      7  C   UNL     1      57.861  29.021  75.624  1.00  0.00     0.006 C 
BRANCH   7   8
ATOM      8  C   UNL     1      59.287  28.800  75.097  1.00  0.00     0.053 C 
BRANCH   8   9
ATOM      9  C   UNL     1      60.313  28.930  76.181  1.00  0.00     0.041 C 
ATOM     10  O   UNL     1      60.566  27.954  76.935  1.00  0.00    -0.550 OA
ATOM     11  O   UNL     1      60.965  30.141  76.379  1.00  0.00    -0.550 OA
ENDBRANCH   8   9
ENDBRANCH   7   8
ENDBRANCH   6   7
ENDBRANCH   5   6
ENDBRANCH   4   5
ENDBRANCH   3   4
ENDBRANCH   2   3
ENDBRANCH   1   2
BRANCH   1  12
ATOM     12  C   UNL     1      58.003  33.006  76.150  1.00  0.00     0.000 C 
BRANCH  12  13
ATOM     13  C   UNL     1      58.159  32.141  77.416  1.00  0.00    -0.000 C 
BRANCH  13  14
ATOM     14  C   UNL     1      57.835  32.890  78.726  1.00  0.00    -0.000 C 
BRANCH  14  15
ATOM     15  C   UNL     1      59.016  33.752  79.209  1.00  0.00    -0.000 C 
BRANCH  15  16
ATOM     16  C   UNL     1      58.619  34.739  80.317  1.00  0.00    -0.000 C 
BRANCH  16  17
ATOM     17  C   UNL     1      58.682  36.205  79.854  1.00  0.00    -0.000 C 
BRANCH  17  18
ATOM     18  C   UNL     1      58.273  36.387  78.382  1.00  0.00    -0.000 C 
BRANCH  18  19
ATOM     19  C   UNL     1      56.756  36.489  78.136  1.00  0.00    -0.003 C 
ATOM     20  C   UNL     1      56.379  36.363  76.660  1.00  0.00     0.004 C 
ENDBRANCH  18  19
ENDBRANCH  17  18
ENDBRANCH  16  17
ENDBRANCH  15  16
ENDBRANCH  14  15
ENDBRANCH  13  14
ENDBRANCH  12  13
ENDBRANCH   1  12
TORSDOF 16
ENDMDL
MODEL 3
REMARK VINA RESULT:    -4.394      1.921      3.724
REMARK INTER + INTRA:         -10.389
REMARK INTER:                  -8.159
REMARK INTRA:                  -2.231
REMARK UNBOUND:                -1.885
REMARK SMILES CCCCCCCCCCCCCCCCCC(=O)[O-]
REMARK SMILES IDX 10 1 11 2 12 3 13 4 14 5 15 6 16 7 17 8 18 9 19 10 20 11
REMARK SMILES IDX 9 12 8 13 7 14 6 15 5 16 4 17 3 18 2 19 1 20
REMARK H PARENT
REMARK Flexibility Score: inf
ROOT
ATOM      1  C   UNL     1      58.734  34.487  74.869  1.00  0.00     0.000 C 
ENDROOT
BRANCH   1   2
ATOM      2  C   UNL     1      58.398  35.303  76.128  1.00  0.00     0.000 C 
BRANCH   2   3
ATOM      3  C   UNL     1      57.357  34.616  77.026  1.00  0.00     0.000 C 
BRANCH   3   4
ATOM      4  C   UNL     1      57.714  33.157  77.385  1.00  0.00     0.000 C 
BRANCH   4   5
ATOM      5  C   UNL     1      58.690  33.071  78.568  1.00  0.00     0.000 C 
BRANCH   5   6
ATOM      6  C   UNL     1      58.080  33.695  79.832  1.00  0.00     0.000 C 
BRANCH   6   7
ATOM      7  C   UNL     1      59.125  34.411  80.707  1.00  0.00     0.006 C 
BRANCH   7   8
ATOM      8  C   UNL     1      58.718  35.825  81.150  1.00  0.00     0.053 C 
BRANCH   8   9
ATOM      9  C   UNL     1      58.340  36.689  79.987  1.00  0.00     0.041 C 
ATOM     10  O   UNL     1      57.132  36.974  79.775  1.00  0.00    -0.550 OA
ATOM     11  O   UNL     1      59.320  37.154  79.119  1.00  0.00    -0.550 OA
ENDBRANCH   8   9
ENDBRANCH   7   8
ENDBRANCH   6   7
ENDBRANCH   5   6
ENDBRANCH   4   5
ENDBRANCH   3   4
ENDBRANCH   2   3
ENDBRANCH   1   2
BRANCH   1  12
ATOM     12  C   UNL     1      57.791  34.791  73.692  1.00  0.00     0.000 C 
BRANCH  12  13
ATOM     13  C   UNL     1      56.688  33.743  73.453  1.00  0.00    -0.000 C 
BRANCH  13  14
ATOM     14  C   UNL     1      57.164  32.285  73.635  1.00  0.00    -0.000 C 
BRANCH  14  15
ATOM     15  C   UNL     1      56.078  31.267  73.242  1.00  0.00    -0.000 C 
BRANCH  15  16
ATOM     16  C   UNL     1      56.134  29.982  74.082  1.00  0.00    -0.000 C 
BRANCH  16  17
ATOM     17  C   UNL     1      56.962  30.151  75.367  1.00  0.00    -0.000 C 
BRANCH  17  18
ATOM     18  C   UNL     1      58.170  29.199  75.432  1.00  0.00    -0.000 C 
BRANCH  18  19
ATOM     19  C   UNL     1      59.411  29.770  76.144  1.00  0.00    -0.003 C 
ATOM     20  C   UNL     1      60.068  30.915  75.374  1.00  0.00     0.004 C 
ENDBRANCH  18  19
ENDBRANCH  17  18
ENDBRANCH  16  17
ENDBRANCH  15  16
ENDBRANCH  14  15
ENDBRANCH  13  14
ENDBRANCH  12  13
ENDBRANCH   1  12
TORSDOF 16
ENDMDL
MODEL 4
REMARK VINA RESULT:    -4.359      3.529      6.334
REMARK INTER + INTRA:         -10.321
REMARK INTER:                  -8.042
REMARK INTRA:                  -2.280
REMARK UNBOUND:                -1.885
REMARK SMILES CCCCCCCCCCCCCCCCCC(=O)[O-]
REMARK SMILES IDX 10 1 11 2 12 3 13 4 14 5 15 6 16 7 17 8 18 9 19 10 20 11
REMARK SMILES IDX 9 12 8 13 7 14 6 15 5 16 4 17 3 18 2 19 1 20
REMARK H PARENT
REMARK Flexibility Score: inf
ROOT
ATOM      1  C   UNL     1      59.123  35.706  81.038  1.00  0.00     0.000 C 
ENDROOT
BRANCH   1   2
ATOM      2  C   UNL     1      58.589  34.287  80.785  1.00  0.00     0.000 C 
BRANCH   2   3
ATOM      3  C   UNL     1      58.905  33.774  79.371  1.00  0.00     0.000 C 
BRANCH   3   4
ATOM      4  C   UNL     1      57.675  33.211  78.626  1.00  0.00     0.000 C 
BRANCH   4   5
ATOM      5  C   UNL     1      57.993  32.852  77.166  1.00  0.00     0.000 C 
BRANCH   5   6
ATOM      6  C   UNL     1      58.658  31.471  77.073  1.00  0.00     0.000 C 
BRANCH   6   7
ATOM      7  C   UNL     1      58.702  30.926  75.634  1.00  0.00     0.006 C 
BRANCH   7   8
ATOM      8  C   UNL     1      57.351  30.959  74.902  1.00  0.00     0.053 C 
BRANCH   8   9
ATOM      9  C   UNL     1      56.636  29.646  74.988  1.00  0.00     0.041 C 
ATOM     10  O   UNL     1      55.457  29.537  74.561  1.00  0.00    -0.550 OA
ATOM     11  O   UNL     1      57.262  28.550  75.568  1.00  0.00    -0.550 OA
ENDBRANCH   8   9
ENDBRANCH   7   8
ENDBRANCH   6   7
ENDBRANCH   5   6
ENDBRANCH   4   5
ENDBRANCH   3   4
ENDBRANCH   2   3
ENDBRANCH   1   2
BRANCH   1  12
ATOM     12  C   UNL     1      58.046  36.790  80.861  1.00  0.00     0.000 C 
BRANCH  12  13
ATOM     13  C   UNL     1      57.961  37.399  79.448  1.00  0.00    -0.000 C 
BRANCH  13  14
ATOM     14  C   UNL     1      56.775  36.870  78.612  1.00  0.00    -0.000 C 
BRANCH  14  15
ATOM     15  C   UNL     1      57.135  36.725  77.122  1.00  0.00    -0.000 C 
BRANCH  15  16
ATOM     16  C   UNL     1      58.649  36.615  76.883  1.00  0.00    -0.000 C 
BRANCH  16  17
ATOM     17  C   UNL     1      58.989  35.966  75.530  1.00  0.00    -0.000 C 
BRANCH  17  18
ATOM     18  C   UNL     1      57.778  35.886  74.583  1.00  0.00    -0.000 C 
BRANCH  18  19
ATOM     19  C   UNL     1      57.571  34.518  73.906  1.00  0.00    -0.003 C 
ATOM     20  C   UNL     1      56.746  34.604  72.623  1.00  0.00     0.004 C 
ENDBRANCH  18  19
ENDBRANCH  17  18
ENDBRANCH  16  17
ENDBRANCH  15  16
ENDBRANCH  14  15
ENDBRANCH  13  14
ENDBRANCH  12  13
ENDBRANCH   1  12
TORSDOF 16
ENDMDL
MODEL 5
REMARK VINA RESULT:    -4.314      3.420      6.842
REMARK INTER + INTRA:         -10.234
REMARK INTER:                  -8.417
REMARK INTRA:                  -1.817
REMARK UNBOUND:                -1.885
REMARK SMILES CCCCCCCCCCCCCCCCCC(=O)[O-]
REMARK SMILES IDX 10 1 11 2 12 3 13 4 14 5 15 6 16 7 17 8 18 9 19 10 20 11
REMARK SMILES IDX 9 12 8 13 7 14 6 15 5 16 4 17 3 18 2 19 1 20
REMARK H PARENT
REMARK Flexibility Score: inf
ROOT
ATOM      1  C   UNL     1      58.834  36.380  80.066  1.00  0.00     0.000 C 
ENDROOT
BRANCH   1   2
ATOM      2  C   UNL     1      58.918  35.293  81.150  1.00  0.00     0.000 C 
BRANCH   2   3
ATOM      3  C   UNL     1      58.414  33.925  80.663  1.00  0.00     0.000 C 
BRANCH   3   4
ATOM      4  C   UNL     1      58.948  33.525  79.271  1.00  0.00     0.000 C 
BRANCH   4   5
ATOM      5  C   UNL     1      57.839  32.984  78.355  1.00  0.00     0.000 C 
BRANCH   5   6
ATOM      6  C   UNL     1      58.403  31.972  77.347  1.00  0.00     0.000 C 
BRANCH   6   7
ATOM      7  C   UNL     1      57.796  32.129  75.941  1.00  0.00     0.006 C 
BRANCH   7   8
ATOM      8  C   UNL     1      57.955  30.894  75.042  1.00  0.00     0.053 C 
BRANCH   8   9
ATOM      9  C   UNL     1      56.783  29.967  75.151  1.00  0.00     0.041 C 
ATOM     10  O   UNL     1      56.691  29.173  76.124  1.00  0.00    -0.550 OA
ATOM     11  O   UNL     1      55.810  29.958  74.159  1.00  0.00    -0.550 OA
ENDBRANCH   8   9
ENDBRANCH   7   8
ENDBRANCH   6   7
ENDBRANCH   5   6
ENDBRANCH   4   5
ENDBRANCH   3   4
ENDBRANCH   2   3
ENDBRANCH   1   2
BRANCH   1  12
ATOM     12  C   UNL     1      57.650  37.340  80.274  1.00  0.00     0.000 C 
BRANCH  12  13
ATOM     13  C   UNL     1      56.537  37.241  79.213  1.00  0.00    -0.000 C 
BRANCH  13  14
ATOM     14  C   UNL     1      56.846  36.240  78.078  1.00  0.00    -0.000 C 
BRANCH  14  15
ATOM     15  C   UNL     1      55.988  36.501  76.826  1.00  0.00    -0.000 C 
BRANCH  15  16
ATOM     16  C   UNL     1      56.645  35.986  75.536  1.00  0.00    -0.000 C 
BRANCH  16  17
ATOM     17  C   UNL     1      57.272  37.114  74.700  1.00  0.00    -0.000 C 
BRANCH  17  18
ATOM     18  C   UNL     1      56.817  38.515  75.147  1.00  0.00    -0.000 C 
BRANCH  18  19
ATOM     19  C   UNL     1      57.957  39.494  75.482  1.00  0.00    -0.003 C 
ATOM     20  C   UNL     1      58.717  39.115  76.753  1.00  0.00     0.004 C 
ENDBRANCH  18  19
ENDBRANCH  17  18
ENDBRANCH  16  17
ENDBRANCH  15  16
ENDBRANCH  14  15
ENDBRANCH  13  14
ENDBRANCH  12  13
ENDBRANCH   1  12
TORSDOF 16
ENDMDL
MODEL 6
REMARK VINA RESULT:    -4.294      3.380      6.895
REMARK INTER + INTRA:         -10.196
REMARK INTER:                  -8.215
REMARK INTRA:                  -1.982
REMARK UNBOUND:                -1.885
REMARK SMILES CCCCCCCCCCCCCCCCCC(=O)[O-]
REMARK SMILES IDX 10 1 11 2 12 3 13 4 14 5 15 6 16 7 17 8 18 9 19 10 20 11
REMARK SMILES IDX 9 12 8 13 7 14 6 15 5 16 4 17 3 18 2 19 1 20
REMARK H PARENT
REMARK Flexibility Score: inf
ROOT
ATOM      1  C   UNL     1      58.466  34.165  80.751  1.00  0.00     0.000 C 
ENDROOT
BRANCH   1   2
ATOM      2  C   UNL     1      59.018  33.822  79.357  1.00  0.00     0.000 C 
BRANCH   2   3
ATOM      3  C   UNL     1      57.994  33.095  78.471  1.00  0.00     0.000 C 
BRANCH   3   4
ATOM      4  C   UNL     1      57.586  33.889  77.212  1.00  0.00     0.000 C 
BRANCH   4   5
ATOM      5  C   UNL     1      58.314  33.395  75.952  1.00  0.00     0.000 C 
BRANCH   5   6
ATOM      6  C   UNL     1      57.354  33.322  74.755  1.00  0.00     0.000 C 
BRANCH   6   7
ATOM      7  C   UNL     1      57.550  32.051  73.909  1.00  0.00     0.006 C 
BRANCH   7   8
ATOM      8  C   UNL     1      57.921  30.801  74.722  1.00  0.00     0.053 C 
BRANCH   8   9
ATOM      9  C   UNL     1      56.727  29.943  75.008  1.00  0.00     0.041 C 
ATOM     10  O   UNL     1      56.644  29.313  76.095  1.00  0.00    -0.550 OA
ATOM     11  O   UNL     1      55.720  29.815  74.059  1.00  0.00    -0.550 OA
ENDBRANCH   8   9
ENDBRANCH   7   8
ENDBRANCH   6   7
ENDBRANCH   5   6
ENDBRANCH   4   5
ENDBRANCH   3   4
ENDBRANCH   2   3
ENDBRANCH   1   2
BRANCH   1  12
ATOM     12  C   UNL     1      58.926  35.543  81.254  1.00  0.00     0.000 C 
BRANCH  12  13
ATOM     13  C   UNL     1      58.550  36.728  80.342  1.00  0.00    -0.000 C 
BRANCH  13  14
ATOM     14  C   UNL     1      57.041  37.053  80.335  1.00  0.00    -0.000 C 
BRANCH  14  15
ATOM     15  C   UNL     1      56.569  37.584  78.969  1.00  0.00    -0.000 C 
BRANCH  15  16
ATOM     16  C   UNL     1      57.589  37.334  77.848  1.00  0.00    -0.000 C 
BRANCH  16  17
ATOM     17  C   UNL     1      57.243  38.090  76.553  1.00  0.00    -0.000 C 
BRANCH  17  18
ATOM     18  C   UNL     1      56.485  37.219  75.535  1.00  0.00    -0.000 C 
BRANCH  18  19
ATOM     19  C   UNL     1      57.250  36.928  74.231  1.00  0.00    -0.003 C 
ATOM     20  C   UNL     1      58.768  36.973  74.405  1.00  0.00     0.004 C 
ENDBRANCH  18  19
ENDBRANCH  17  18
ENDBRANCH  16  17
ENDBRANCH  15  16
ENDBRANCH  14  15
ENDBRANCH  13  14
ENDBRANCH  12  13
ENDBRANCH   1  12
TORSDOF 16
ENDMDL
MODEL 7
REMARK VINA RESULT:    -4.272      3.103      7.507
REMARK INTER + INTRA:         -10.153
REMARK INTER:                  -8.459
REMARK INTRA:                  -1.694
REMARK UNBOUND:                -1.885
REMARK SMILES CCCCCCCCCCCCCCCCCC(=O)[O-]
REMARK SMILES IDX 10 1 11 2 12 3 13 4 14 5 15 6 16 7 17 8 18 9 19 10 20 11
REMARK SMILES IDX 9 12 8 13 7 14 6 15 5 16 4 17 3 18 2 19 1 20
REMARK H PARENT
REMARK Flexibility Score: inf
ROOT
ATOM      1  C   UNL     1      58.263  32.684  78.090  1.00  0.00     0.000 C 
ENDROOT
BRANCH   1   2
ATOM      2  C   UNL     1      57.668  33.162  76.755  1.00  0.00     0.000 C 
BRANCH   2   3
ATOM      3  C   UNL     1      58.738  33.408  75.679  1.00  0.00     0.000 C 
BRANCH   3   4
ATOM      4  C   UNL     1      58.906  32.234  74.690  1.00  0.00     0.000 C 
BRANCH   4   5
ATOM      5  C   UNL     1      59.982  31.237  75.147  1.00  0.00     0.000 C 
BRANCH   5   6
ATOM      6  C   UNL     1      59.420  29.809  75.203  1.00  0.00     0.000 C 
BRANCH   6   7
ATOM      7  C   UNL     1      57.969  29.758  75.714  1.00  0.00     0.006 C 
BRANCH   7   8
ATOM      8  C   UNL     1      57.025  28.902  74.856  1.00  0.00     0.053 C 
BRANCH   8   9
ATOM      9  C   UNL     1      55.840  29.683  74.377  1.00  0.00     0.041 C 
ATOM     10  O   UNL     1      54.679  29.363  74.743  1.00  0.00    -0.550 OA
ATOM     11  O   UNL     1      56.017  30.746  73.499  1.00  0.00    -0.550 OA
ENDBRANCH   8   9
ENDBRANCH   7   8
ENDBRANCH   6   7
ENDBRANCH   5   6
ENDBRANCH   4   5
ENDBRANCH   3   4
ENDBRANCH   2   3
ENDBRANCH   1   2
BRANCH   1  12
ATOM     12  C   UNL     1      57.918  33.616  79.264  1.00  0.00     0.000 C 
BRANCH  12  13
ATOM     13  C   UNL     1      59.131  34.266  79.958  1.00  0.00    -0.000 C 
BRANCH  13  14
ATOM     14  C   UNL     1      58.750  35.314  81.026  1.00  0.00    -0.000 C 
BRANCH  14  15
ATOM     15  C   UNL     1      58.543  36.714  80.417  1.00  0.00    -0.000 C 
BRANCH  15  16
ATOM     16  C   UNL     1      57.123  37.256  80.640  1.00  0.00    -0.000 C 
BRANCH  16  17
ATOM     17  C   UNL     1      56.405  37.594  79.321  1.00  0.00    -0.000 C 
BRANCH  17  18
ATOM     18  C   UNL     1      57.313  37.437  78.088  1.00  0.00    -0.000 C 
BRANCH  18  19
ATOM     19  C   UNL     1      56.834  36.399  77.056  1.00  0.00    -0.003 C 
ATOM     20  C   UNL     1      56.175  37.034  75.831  1.00  0.00     0.004 C 
ENDBRANCH  18  19
ENDBRANCH  17  18
ENDBRANCH  16  17
ENDBRANCH  15  16
ENDBRANCH  14  15
ENDBRANCH  13  14
ENDBRANCH  12  13
ENDBRANCH   1  12
TORSDOF 16
ENDMDL
MODEL 8
REMARK VINA RESULT:    -4.253      2.249      4.407
REMARK INTER + INTRA:         -10.116
REMARK INTER:                  -8.113
REMARK INTRA:                  -2.003
REMARK UNBOUND:                -1.885
REMARK SMILES CCCCCCCCCCCCCCCCCC(=O)[O-]
REMARK SMILES IDX 10 1 11 2 12 3 13 4 14 5 15 6 16 7 17 8 18 9 19 10 20 11
REMARK SMILES IDX 9 12 8 13 7 14 6 15 5 16 4 17 3 18 2 19 1 20
REMARK H PARENT
REMARK Flexibility Score: inf
ROOT
ATOM      1  C   UNL     1      58.317  36.838  80.728  1.00  0.00     0.000 C 
ENDROOT
BRANCH   1   2
ATOM      2  C   UNL     1      58.726  37.358  79.341  1.00  0.00     0.000 C 
BRANCH   2   3
ATOM      3  C   UNL     1      57.520  37.728  78.462  1.00  0.00     0.000 C 
BRANCH   3   4
ATOM      4  C   UNL     1      56.600  36.532  78.133  1.00  0.00     0.000 C 
BRANCH   4   5
ATOM      5  C   UNL     1      56.353  36.386  76.624  1.00  0.00     0.000 C 
BRANCH   5   6
ATOM      6  C   UNL     1      57.447  35.532  75.967  1.00  0.00     0.000 C 
BRANCH   6   7
ATOM      7  C   UNL     1      56.876  34.407  75.086  1.00  0.00     0.006 C 
BRANCH   7   8
ATOM      8  C   UNL     1      57.920  33.700  74.207  1.00  0.00     0.053 C 
BRANCH   8   9
ATOM      9  C   UNL     1      57.791  34.085  72.765  1.00  0.00     0.041 C 
ATOM     10  O   UNL     1      57.227  33.309  71.949  1.00  0.00    -0.550 OA
ATOM     11  O   UNL     1      58.322  35.288  72.317  1.00  0.00    -0.550 OA
ENDBRANCH   8   9
ENDBRANCH   7   8
ENDBRANCH   6   7
ENDBRANCH   5   6
ENDBRANCH   4   5
ENDBRANCH   3   4
ENDBRANCH   2   3
ENDBRANCH   1   2
BRANCH   1  12
ATOM     12  C   UNL     1      59.041  35.538  81.117  1.00  0.00     0.000 C 
BRANCH  12  13
ATOM     13  C   UNL     1      58.402  34.247  80.569  1.00  0.00    -0.000 C 
BRANCH  13  14
ATOM     14  C   UNL     1      58.974  33.799  79.206  1.00  0.00    -0.000 C 
BRANCH  14  15
ATOM     15  C   UNL     1      57.996  32.891  78.437  1.00  0.00    -0.000 C 
BRANCH  15  16
ATOM     16  C   UNL     1      58.697  32.018  77.384  1.00  0.00    -0.000 C 
BRANCH  16  17
ATOM     17  C   UNL     1      57.773  30.932  76.807  1.00  0.00    -0.000 C 
BRANCH  17  18
ATOM     18  C   UNL     1      58.427  30.135  75.664  1.00  0.00    -0.000 C 
BRANCH  18  19
ATOM     19  C   UNL     1      57.485  29.168  74.923  1.00  0.00    -0.003 C 
ATOM     20  C   UNL     1      56.161  29.815  74.520  1.00  0.00     0.004 C 
ENDBRANCH  18  19
ENDBRANCH  17  18
ENDBRANCH  16  17
ENDBRANCH  15  16
ENDBRANCH  14  15
ENDBRANCH  13  14
ENDBRANCH  12  13
ENDBRANCH   1  12
TORSDOF 16
ENDMDL
MODEL 9
REMARK VINA RESULT:    -4.244      3.596      7.463
REMARK INTER + INTRA:         -10.099
REMARK INTER:                  -7.469
REMARK INTRA:                  -2.630
REMARK UNBOUND:                -1.885
REMARK SMILES CCCCCCCCCCCCCCCCCC(=O)[O-]
REMARK SMILES IDX 10 1 11 2 12 3 13 4 14 5 15 6 16 7 17 8 18 9 19 10 20 11
REMARK SMILES IDX 9 12 8 13 7 14 6 15 5 16 4 17 3 18 2 19 1 20
REMARK H PARENT
REMARK Flexibility Score: inf
ROOT
ATOM      1  C   UNL     1      58.343  34.905  75.719  1.00  0.00     0.000 C 
ENDROOT
BRANCH   1   2
ATOM      2  C   UNL     1      56.807  34.949  75.690  1.00  0.00     0.000 C 
BRANCH   2   3
ATOM      3  C   UNL     1      56.253  35.603  74.413  1.00  0.00     0.000 C 
BRANCH   3   4
ATOM      4  C   UNL     1      55.842  34.589  73.324  1.00  0.00     0.000 C 
BRANCH   4   5
ATOM      5  C   UNL     1      56.970  34.333  72.312  1.00  0.00     0.000 C 
BRANCH   5   6
ATOM      6  C   UNL     1      57.334  32.842  72.260  1.00  0.00     0.000 C 
BRANCH   6   7
ATOM      7  C   UNL     1      56.477  31.985  73.209  1.00  0.00     0.006 C 
BRANCH   7   8
ATOM      8  C   UNL     1      57.258  31.353  74.371  1.00  0.00     0.053 C 
BRANCH   8   9
ATOM      9  C   UNL     1      56.676  30.037  74.787  1.00  0.00     0.041 C 
ATOM     10  O   UNL     1      57.171  29.402  75.755  1.00  0.00    -0.550 OA
ATOM     11  O   UNL     1      55.606  29.497  74.084  1.00  0.00    -0.550 OA
ENDBRANCH   8   9
ENDBRANCH   7   8
ENDBRANCH   6   7
ENDBRANCH   5   6
ENDBRANCH   4   5
ENDBRANCH   3   4
ENDBRANCH   2   3
ENDBRANCH   1   2
BRANCH   1  12
ATOM     12  C   UNL     1      58.989  36.143  75.075  1.00  0.00     0.000 C 
BRANCH  12  13
ATOM     13  C   UNL     1      59.633  37.132  76.067  1.00  0.00    -0.000 C 
BRANCH  13  14
ATOM     14  C   UNL     1      58.979  38.531  76.064  1.00  0.00    -0.000 C 
BRANCH  14  15
ATOM     15  C   UNL     1      57.574  38.515  76.696  1.00  0.00    -0.000 C 
BRANCH  15  16
ATOM     16  C   UNL     1      57.606  38.268  78.212  1.00  0.00    -0.000 C 
BRANCH  16  17
ATOM     17  C   UNL     1      56.695  37.105  78.641  1.00  0.00    -0.000 C 
BRANCH  17  18
ATOM     18  C   UNL     1      57.347  36.189  79.692  1.00  0.00    -0.000 C 
BRANCH  18  19
ATOM     19  C   UNL     1      58.753  35.677  79.326  1.00  0.00    -0.003 C 
ATOM     20  C   UNL     1      58.933  34.183  79.589  1.00  0.00     0.004 C 
ENDBRANCH  18  19
ENDBRANCH  17  18
ENDBRANCH  16  17
ENDBRANCH  15  16
ENDBRANCH  14  15
ENDBRANCH  13  14
ENDBRANCH  12  13
ENDBRANCH   1  12
TORSDOF 16
ENDMDL
