MODEL 1
REMARK VINA RESULT:    -4.192      0.000      0.000
REMARK INTER + INTRA:         -14.456
REMARK INTER:                 -10.563
REMARK INTRA:                  -3.893
REMARK UNBOUND:                -3.893
REMARK SMILES CCCCCCCCCCCCCCCCCCCCCCCCCCCC(=O)[O-]
REMARK SMILES IDX 15 1 16 2 17 3 18 4 19 5 20 6 21 7 22 8 23 9 24 10 25 11
REMARK SMILES IDX 26 12 27 13 28 14 29 15 30 16 14 17 13 18 12 19 11 20 10 21
REMARK SMILES IDX 9 22 8 23 7 24 6 25 5 26 4 27 3 28 2 29 1 30
REMARK H PARENT
REMARK Flexibility Score: inf
ROOT
ATOM      1  C   UNL     1      60.803  28.983  13.472  1.00  0.00     0.000 C 
ENDROOT
BRANCH   1   2
ATOM      2  C   UNL     1      60.084  28.244  12.328  1.00  0.00     0.000 C 
BRANCH   2   3
ATOM      3  C   UNL     1      59.642  29.198  11.205  1.00  0.00     0.000 C 
BRANCH   3   4
ATOM      4  C   UNL     1      60.043  28.668   9.815  1.00  0.00     0.000 C 
BRANCH   4   5
ATOM      5  C   UNL     1      61.551  28.394   9.698  1.00  0.00     0.000 C 
BRANCH   5   6
ATOM      6  C   UNL     1      62.373  29.678   9.484  1.00  0.00     0.000 C 
BRANCH   6   7
ATOM      7  C   UNL     1      63.461  29.863  10.564  1.00  0.00     0.000 C 
BRANCH   7   8
ATOM      8  C   UNL     1      64.686  30.661  10.080  1.00  0.00     0.000 C 
BRANCH   8   9
ATOM      9  C   UNL     1      64.816  32.026  10.772  1.00  0.00     0.000 C 
BRANCH   9  10
ATOM     10  C   UNL     1      63.771  32.188  11.886  1.00  0.00     0.000 C 
BRANCH  10  11
ATOM     11  C   UNL     1      64.246  33.126  13.005  1.00  0.00     0.000 C 
BRANCH  11  12
ATOM     12  C   UNL     1      65.316  32.479  13.905  1.00  0.00     0.006 C 
BRANCH  12  13
ATOM     13  C   UNL     1      64.699  31.518  14.930  1.00  0.00     0.053 C 
BRANCH  13  14
ATOM     14  C   UNL     1      64.989  30.087  14.595  1.00  0.00     0.041 C 
ATOM     15  O   UNL     1      64.162  29.408  13.927  1.00  0.00    -0.550 OA
ATOM     16  O   UNL     1      66.192  29.514  14.992  1.00  0.00    -0.550 OA
ENDBRANCH  13  14
ENDBRANCH  12  13
ENDBRANCH  11  12
ENDBRANCH  10  11
ENDBRANCH   9  10
ENDBRANCH   8   9
ENDBRANCH   7   8
ENDBRANCH   6   7
ENDBRANCH   5   6
ENDBRANCH   4   5
ENDBRANCH   3   4
ENDBRANCH   2   3
ENDBRANCH   1   2
BRANCH   1  17
ATOM     17  C   UNL     1      60.815  30.507  13.274  1.00  0.00     0.000 C 
BRANCH  17  18
ATOM     18  C   UNL     1      60.985  31.283  14.588  1.00  0.00     0.000 C 
BRANCH  18  19
ATOM     19  C   UNL     1      60.514  32.735  14.422  1.00  0.00     0.000 C 
BRANCH  19  20
ATOM     20  C   UNL     1      61.466  33.753  15.071  1.00  0.00     0.000 C 
BRANCH  20  21
ATOM     21  C   UNL     1      61.037  34.245  16.465  1.00  0.00     0.000 C 
BRANCH  21  22
ATOM     22  C   UNL     1      62.172  34.944  17.230  1.00  0.00    -0.000 C 
BRANCH  22  23
ATOM     23  C   UNL     1      63.533  34.666  16.580  1.00  0.00    -0.000 C 
BRANCH  23  24
ATOM     24  C   UNL     1      64.630  35.563  17.176  1.00  0.00    -0.000 C 
BRANCH  24  25
ATOM     25  C   UNL     1      65.952  34.783  17.393  1.00  0.00    -0.000 C 
BRANCH  25  26
ATOM     26  C   UNL     1      66.757  35.290  18.608  1.00  0.00    -0.000 C 
BRANCH  26  27
ATOM     27  C   UNL     1      66.420  34.561  19.929  1.00  0.00    -0.000 C 
BRANCH  27  28
ATOM     28  C   UNL     1      65.279  35.211  20.729  1.00  0.00    -0.000 C 
BRANCH  28  29
ATOM     29  C   UNL     1      64.058  34.294  20.885  1.00  0.00    -0.003 C 
ATOM     30  C   UNL     1      64.076  33.567  22.227  1.00  0.00     0.004 C 
ENDBRANCH  28  29
ENDBRANCH  27  28
ENDBRANCH  26  27
ENDBRANCH  25  26
ENDBRANCH  24  25
ENDBRANCH  23  24
ENDBRANCH  22  23
ENDBRANCH  21  22
ENDBRANCH  20  21
ENDBRANCH  19  20
ENDBRANCH  18  19
ENDBRANCH  17  18
ENDBRANCH   1  17
TORSDOF 26
ENDMDL
MODEL 2
REMARK VINA RESULT:    -4.181      2.419      6.464
REMARK INTER + INTRA:         -14.429
REMARK INTER:                 -11.103
REMARK INTRA:                  -3.325
REMARK UNBOUND:                -3.893
REMARK SMILES CCCCCCCCCCCCCCCCCCCCCCCCCCCC(=O)[O-]
REMARK SMILES IDX 15 1 16 2 17 3 18 4 19 5 20 6 21 7 22 8 23 9 24 10 25 11
REMARK SMILES IDX 26 12 27 13 28 14 29 15 30 16 14 17 13 18 12 19 11 20 10 21
REMARK SMILES IDX 9 22 8 23 7 24 6 25 5 26 4 27 3 28 2 29 1 30
REMARK H PARENT
REMARK Flexibility Score: inf
ROOT
ATOM      1  C   UNL     1      63.123  29.113  10.154  1.00  0.00     0.000 C 
ENDROOT
BRANCH   1   2
ATOM      2  C   UNL     1      64.486  29.756   9.837  1.00  0.00     0.000 C 
BRANCH   2   3
ATOM      3  C   UNL     1      64.341  31.184   9.282  1.00  0.00     0.000 C 
BRANCH   3   4
ATOM      4  C   UNL     1      65.508  32.089   9.724  1.00  0.00     0.000 C 
BRANCH   4   5
ATOM      5  C   UNL     1      65.214  32.838  11.033  1.00  0.00     0.000 C 
BRANCH   5   6
ATOM      6  C   UNL     1      66.396  33.709  11.496  1.00  0.00     0.000 C 
BRANCH   6   7
ATOM      7  C   UNL     1      65.978  35.173  11.756  1.00  0.00     0.000 C 
BRANCH   7   8
ATOM      8  C   UNL     1      66.335  35.679  13.166  1.00  0.00     0.000 C 
BRANCH   8   9
ATOM      9  C   UNL     1      66.312  34.562  14.220  1.00  0.00     0.000 C 
BRANCH   9  10
ATOM     10  C   UNL     1      64.911  34.400  14.830  1.00  0.00     0.000 C 
BRANCH  10  11
ATOM     11  C   UNL     1      64.800  35.033  16.224  1.00  0.00     0.000 C 
BRANCH  11  12
ATOM     12  C   UNL     1      65.926  34.579  17.172  1.00  0.00     0.006 C 
BRANCH  12  13
ATOM     13  C   UNL     1      66.003  35.452  18.431  1.00  0.00     0.053 C 
BRANCH  13  14
ATOM     14  C   UNL     1      65.394  34.772  19.619  1.00  0.00     0.041 C 
ATOM     15  O   UNL     1      66.125  34.328  20.545  1.00  0.00    -0.550 OA
ATOM     16  O   UNL     1      64.011  34.661  19.718  1.00  0.00    -0.550 OA
ENDBRANCH  13  14
ENDBRANCH  12  13
ENDBRANCH  11  12
ENDBRANCH  10  11
ENDBRANCH   9  10
ENDBRANCH   8   9
ENDBRANCH   7   8
ENDBRANCH   6   7
ENDBRANCH   5   6
ENDBRANCH   4   5
ENDBRANCH   3   4
ENDBRANCH   2   3
ENDBRANCH   1   2
BRANCH   1  17
ATOM     17  C   UNL     1      62.270  28.887   8.896  1.00  0.00     0.000 C 
BRANCH  17  18
ATOM     18  C   UNL     1      60.762  28.869   9.186  1.00  0.00     0.000 C 
BRANCH  18  19
ATOM     19  C   UNL     1      60.359  30.093  10.021  1.00  0.00     0.000 C 
BRANCH  19  20
ATOM     20  C   UNL     1      59.727  29.717  11.372  1.00  0.00     0.000 C 
BRANCH  20  21
ATOM     21  C   UNL     1      59.749  28.214  11.702  1.00  0.00     0.000 C 
BRANCH  21  22
ATOM     22  C   UNL     1      60.048  27.930  13.183  1.00  0.00    -0.000 C 
BRANCH  22  23
ATOM     23  C   UNL     1      60.934  29.024  13.790  1.00  0.00    -0.000 C 
BRANCH  23  24
ATOM     24  C   UNL     1      62.353  28.982  13.202  1.00  0.00    -0.000 C 
BRANCH  24  25
ATOM     25  C   UNL     1      63.337  29.856  14.020  1.00  0.00    -0.000 C 
BRANCH  25  26
ATOM     26  C   UNL     1      62.814  31.288  14.260  1.00  0.00    -0.000 C 
BRANCH  26  27
ATOM     27  C   UNL     1      62.412  32.032  12.965  1.00  0.00    -0.000 C 
BRANCH  27  28
ATOM     28  C   UNL     1      61.035  32.712  13.035  1.00  0.00    -0.000 C 
BRANCH  28  29
ATOM     29  C   UNL     1      60.406  32.648  14.433  1.00  0.00    -0.003 C 
ATOM     30  C   UNL     1      60.650  33.937  15.214  1.00  0.00     0.004 C 
ENDBRANCH  28  29
ENDBRANCH  27  28
ENDBRANCH  26  27
ENDBRANCH  25  26
ENDBRANCH  24  25
ENDBRANCH  23  24
ENDBRANCH  22  23
ENDBRANCH  21  22
ENDBRANCH  20  21
ENDBRANCH  19  20
ENDBRANCH  18  19
ENDBRANCH  17  18
ENDBRANCH   1  17
TORSDOF 26
ENDMDL
MODEL 3
REMARK VINA RESULT:    -4.147      2.222      6.593
REMARK INTER + INTRA:         -14.343
REMARK INTER:                 -10.346
REMARK INTRA:                  -3.997
REMARK UNBOUND:                -3.893
REMARK SMILES CCCCCCCCCCCCCCCCCCCCCCCCCCCC(=O)[O-]
REMARK SMILES IDX 15 1 16 2 17 3 18 4 19 5 20 6 21 7 22 8 23 9 24 10 25 11
REMARK SMILES IDX 26 12 27 13 28 14 29 15 30 16 14 17 13 18 12 19 11 20 10 21
REMARK SMILES IDX 9 22 8 23 7 24 6 25 5 26 4 27 3 28 2 29 1 30
REMARK H PARENT
REMARK Flexibility Score: inf
ROOT
ATOM      1  C   UNL     1      59.671  29.370  12.276  1.00  0.00     0.000 C 
ENDROOT
BRANCH   1   2
ATOM      2  C   UNL     1      60.039  30.865  12.257  1.00  0.00     0.000 C 
BRANCH   2   3
ATOM      3  C   UNL     1      60.987  31.246  13.408  1.00  0.00     0.000 C 
BRANCH   3   4
ATOM      4  C   UNL     1      61.384  32.734  13.351  1.00  0.00     0.000 C 
BRANCH   4   5
ATOM      5  C   UNL     1      60.592  33.598  14.344  1.00  0.00     0.000 C 
BRANCH   5   6
ATOM      6  C   UNL     1      61.302  33.743  15.703  1.00  0.00     0.000 C 
BRANCH   6   7
ATOM      7  C   UNL     1      62.776  34.178  15.549  1.00  0.00     0.000 C 
BRANCH   7   8
ATOM      8  C   UNL     1      63.347  34.884  16.793  1.00  0.00     0.000 C 
BRANCH   8   9
ATOM      9  C   UNL     1      64.799  35.344  16.600  1.00  0.00     0.000 C 
BRANCH   9  10
ATOM     10  C   UNL     1      65.765  34.512  17.456  1.00  0.00     0.000 C 
BRANCH  10  11
ATOM     11  C   UNL     1      66.767  35.384  18.228  1.00  0.00     0.000 C 
BRANCH  11  12
ATOM     12  C   UNL     1      66.800  35.058  19.733  1.00  0.00     0.006 C 
BRANCH  12  13
ATOM     13  C   UNL     1      65.555  35.580  20.460  1.00  0.00     0.053 C 
BRANCH  13  14
ATOM     14  C   UNL     1      64.664  34.463  20.911  1.00  0.00     0.041 C 
ATOM     15  O   UNL     1      65.028  33.691  21.839  1.00  0.00    -0.550 OA
ATOM     16  O   UNL     1      63.413  34.298  20.326  1.00  0.00    -0.550 OA
ENDBRANCH  13  14
ENDBRANCH  12  13
ENDBRANCH  11  12
ENDBRANCH  10  11
ENDBRANCH   9  10
ENDBRANCH   8   9
ENDBRANCH   7   8
ENDBRANCH   6   7
ENDBRANCH   5   6
ENDBRANCH   4   5
ENDBRANCH   3   4
ENDBRANCH   2   3
ENDBRANCH   1   2
BRANCH   1  17
ATOM     17  C   UNL     1      60.154  28.627  11.020  1.00  0.00     0.000 C 
BRANCH  17  18
ATOM     18  C   UNL     1      60.577  29.573   9.886  1.00  0.00     0.000 C 
BRANCH  18  19
ATOM     19  C   UNL     1      61.709  28.949   9.058  1.00  0.00     0.000 C 
BRANCH  19  20
ATOM     20  C   UNL     1      63.031  29.728   9.164  1.00  0.00     0.000 C 
BRANCH  20  21
ATOM     21  C   UNL     1      63.726  29.641  10.534  1.00  0.00     0.000 C 
BRANCH  21  22
ATOM     22  C   UNL     1      63.932  31.015  11.191  1.00  0.00    -0.000 C 
BRANCH  22  23
ATOM     23  C   UNL     1      64.741  31.949  10.282  1.00  0.00    -0.000 C 
BRANCH  23  24
ATOM     24  C   UNL     1      65.519  32.990  11.102  1.00  0.00    -0.000 C 
BRANCH  24  25
ATOM     25  C   UNL     1      64.845  33.259  12.471  1.00  0.00    -0.000 C 
BRANCH  25  26
ATOM     26  C   UNL     1      65.856  33.329  13.636  1.00  0.00    -0.000 C 
BRANCH  26  27
ATOM     27  C   UNL     1      65.797  32.111  14.587  1.00  0.00    -0.000 C 
BRANCH  27  28
ATOM     28  C   UNL     1      64.452  31.367  14.569  1.00  0.00    -0.000 C 
BRANCH  28  29
ATOM     29  C   UNL     1      64.612  29.841  14.540  1.00  0.00    -0.003 C 
ATOM     30  C   UNL     1      66.015  29.420  14.969  1.00  0.00     0.004 C 
ENDBRANCH  28  29
ENDBRANCH  27  28
ENDBRANCH  26  27
ENDBRANCH  25  26
ENDBRANCH  24  25
ENDBRANCH  23  24
ENDBRANCH  22  23
ENDBRANCH  21  22
ENDBRANCH  20  21
ENDBRANCH  19  20
ENDBRANCH  18  19
ENDBRANCH  17  18
ENDBRANCH   1  17
TORSDOF 26
ENDMDL
MODEL 4
REMARK VINA RESULT:    -4.060      2.399      6.467
REMARK INTER + INTRA:         -14.125
REMARK INTER:                 -10.558
REMARK INTRA:                  -3.567
REMARK UNBOUND:                -3.893
REMARK SMILES CCCCCCCCCCCCCCCCCCCCCCCCCCCC(=O)[O-]
REMARK SMILES IDX 15 1 16 2 17 3 18 4 19 5 20 6 21 7 22 8 23 9 24 10 25 11
REMARK SMILES IDX 26 12 27 13 28 14 29 15 30 16 14 17 13 18 12 19 11 20 10 21
REMARK SMILES IDX 9 22 8 23 7 24 6 25 5 26 4 27 3 28 2 29 1 30
REMARK H PARENT
REMARK Flexibility Score: inf
ROOT
ATOM      1  C   UNL     1      60.858  29.426  12.064  1.00  0.00     0.000 C 
ENDROOT
BRANCH   1   2
ATOM      2  C   UNL     1      61.639  28.494  13.008  1.00  0.00     0.000 C 
BRANCH   2   3
ATOM      3  C   UNL     1      63.118  28.900  13.136  1.00  0.00     0.000 C 
BRANCH   3   4
ATOM      4  C   UNL     1      63.368  29.752  14.396  1.00  0.00     0.000 C 
BRANCH   4   5
ATOM      5  C   UNL     1      64.841  29.743  14.834  1.00  0.00     0.000 C 
BRANCH   5   6
ATOM      6  C   UNL     1      65.521  31.113  14.659  1.00  0.00     0.000 C 
BRANCH   6   7
ATOM      7  C   UNL     1      66.555  31.400  15.770  1.00  0.00     0.000 C 
BRANCH   7   8
ATOM      8  C   UNL     1      66.815  32.899  16.002  1.00  0.00     0.000 C 
BRANCH   8   9
ATOM      9  C   UNL     1      65.724  33.792  15.393  1.00  0.00     0.000 C 
BRANCH   9  10
ATOM     10  C   UNL     1      65.336  34.930  16.350  1.00  0.00     0.000 C 
BRANCH  10  11
ATOM     11  C   UNL     1      65.983  34.779  17.735  1.00  0.00     0.000 C 
BRANCH  11  12
ATOM     12  C   UNL     1      65.304  35.655  18.805  1.00  0.00     0.006 C 
BRANCH  12  13
ATOM     13  C   UNL     1      65.632  35.181  20.226  1.00  0.00     0.053 C 
BRANCH  13  14
ATOM     14  C   UNL     1      64.513  34.377  20.816  1.00  0.00     0.041 C 
ATOM     15  O   UNL     1      63.377  34.368  20.271  1.00  0.00    -0.550 OA
ATOM     16  O   UNL     1      64.741  33.607  21.952  1.00  0.00    -0.550 OA
ENDBRANCH  13  14
ENDBRANCH  12  13
ENDBRANCH  11  12
ENDBRANCH  10  11
ENDBRANCH   9  10
ENDBRANCH   8   9
ENDBRANCH   7   8
ENDBRANCH   6   7
ENDBRANCH   5   6
ENDBRANCH   4   5
ENDBRANCH   3   4
ENDBRANCH   2   3
ENDBRANCH   1   2
BRANCH   1  17
ATOM     17  C   UNL     1      60.192  28.669  10.904  1.00  0.00     0.000 C 
BRANCH  17  18
ATOM     18  C   UNL     1      61.185  28.248   9.811  1.00  0.00     0.000 C 
BRANCH  18  19
ATOM     19  C   UNL     1      62.100  29.422   9.433  1.00  0.00     0.000 C 
BRANCH  19  20
ATOM     20  C   UNL     1      63.595  29.089   9.575  1.00  0.00     0.000 C 
BRANCH  20  21
ATOM     21  C   UNL     1      64.550  30.105   8.926  1.00  0.00     0.000 C 
BRANCH  21  22
ATOM     22  C   UNL     1      64.469  31.500   9.569  1.00  0.00    -0.000 C 
BRANCH  22  23
ATOM     23  C   UNL     1      64.512  31.409  11.099  1.00  0.00    -0.000 C 
BRANCH  23  24
ATOM     24  C   UNL     1      64.456  32.803  11.743  1.00  0.00    -0.000 C 
BRANCH  24  25
ATOM     25  C   UNL     1      63.378  32.877  12.854  1.00  0.00    -0.000 C 
BRANCH  25  26
ATOM     26  C   UNL     1      61.984  32.424  12.371  1.00  0.00    -0.000 C 
BRANCH  26  27
ATOM     27  C   UNL     1      60.839  32.776  13.349  1.00  0.00    -0.000 C 
BRANCH  27  28
ATOM     28  C   UNL     1      61.276  32.857  14.821  1.00  0.00    -0.000 C 
BRANCH  28  29
ATOM     29  C   UNL     1      60.715  34.088  15.545  1.00  0.00    -0.003 C 
ATOM     30  C   UNL     1      61.594  34.486  16.728  1.00  0.00     0.004 C 
ENDBRANCH  28  29
ENDBRANCH  27  28
ENDBRANCH  26  27
ENDBRANCH  25  26
ENDBRANCH  24  25
ENDBRANCH  23  24
ENDBRANCH  22  23
ENDBRANCH  21  22
ENDBRANCH  20  21
ENDBRANCH  19  20
ENDBRANCH  18  19
ENDBRANCH  17  18
ENDBRANCH   1  17
TORSDOF 26
ENDMDL
MODEL 5
REMARK VINA RESULT:    -4.055      4.538      9.585
REMARK INTER + INTRA:         -14.110
REMARK INTER:                 -10.981
REMARK INTRA:                  -3.129
REMARK UNBOUND:                -3.893
REMARK SMILES CCCCCCCCCCCCCCCCCCCCCCCCCCCC(=O)[O-]
REMARK SMILES IDX 15 1 16 2 17 3 18 4 19 5 20 6 21 7 22 8 23 9 24 10 25 11
REMARK SMILES IDX 26 12 27 13 28 14 29 15 30 16 14 17 13 18 12 19 11 20 10 21
REMARK SMILES IDX 9 22 8 23 7 24 6 25 5 26 4 27 3 28 2 29 1 30
REMARK H PARENT
REMARK Flexibility Score: inf
ROOT
ATOM      1  C   UNL     1      64.477  31.833  23.487  1.00  0.00     0.000 C 
ENDROOT
BRANCH   1   2
ATOM      2  C   UNL     1      64.131  33.103  22.689  1.00  0.00     0.000 C 
BRANCH   2   3
ATOM      3  C   UNL     1      65.303  33.578  21.812  1.00  0.00     0.000 C 
BRANCH   3   4
ATOM      4  C   UNL     1      64.819  34.450  20.637  1.00  0.00     0.000 C 
BRANCH   4   5
ATOM      5  C   UNL     1      65.972  34.929  19.741  1.00  0.00     0.000 C 
BRANCH   5   6
ATOM      6  C   UNL     1      66.083  34.123  18.434  1.00  0.00     0.000 C 
BRANCH   6   7
ATOM      7  C   UNL     1      66.190  35.033  17.191  1.00  0.00     0.000 C 
BRANCH   7   8
ATOM      8  C   UNL     1      64.950  34.986  16.280  1.00  0.00     0.000 C 
BRANCH   8   9
ATOM      9  C   UNL     1      65.304  35.102  14.790  1.00  0.00     0.000 C 
BRANCH   9  10
ATOM     10  C   UNL     1      65.044  33.780  14.051  1.00  0.00     0.000 C 
BRANCH  10  11
ATOM     11  C   UNL     1      63.922  32.956  14.699  1.00  0.00     0.000 C 
BRANCH  11  12
ATOM     12  C   UNL     1      62.543  33.238  14.073  1.00  0.00     0.006 C 
BRANCH  12  13
ATOM     13  C   UNL     1      62.222  32.266  12.931  1.00  0.00     0.053 C 
BRANCH  13  14
ATOM     14  C   UNL     1      60.759  31.953  12.860  1.00  0.00     0.041 C 
ATOM     15  O   UNL     1      59.949  32.503  13.654  1.00  0.00    -0.550 OA
ATOM     16  O   UNL     1      60.285  31.078  11.888  1.00  0.00    -0.550 OA
ENDBRANCH  13  14
ENDBRANCH  12  13
ENDBRANCH  11  12
ENDBRANCH  10  11
ENDBRANCH   9  10
ENDBRANCH   8   9
ENDBRANCH   7   8
ENDBRANCH   6   7
ENDBRANCH   5   6
ENDBRANCH   4   5
ENDBRANCH   3   4
ENDBRANCH   2   3
ENDBRANCH   1   2
BRANCH   1  17
ATOM     17  C   UNL     1      65.805  31.200  23.042  1.00  0.00     0.000 C 
BRANCH  17  18
ATOM     18  C   UNL     1      65.805  29.668  23.143  1.00  0.00     0.000 C 
BRANCH  18  19
ATOM     19  C   UNL     1      66.643  29.207  24.344  1.00  0.00     0.000 C 
BRANCH  19  20
ATOM     20  C   UNL     1      65.792  28.895  25.587  1.00  0.00     0.000 C 
BRANCH  20  21
ATOM     21  C   UNL     1      65.615  30.071  26.564  1.00  0.00     0.000 C 
BRANCH  21  22
ATOM     22  C   UNL     1      64.405  29.900  27.496  1.00  0.00    -0.000 C 
BRANCH  22  23
ATOM     23  C   UNL     1      63.136  30.497  26.873  1.00  0.00    -0.000 C 
BRANCH  23  24
ATOM     24  C   UNL     1      62.200  29.396  26.351  1.00  0.00    -0.000 C 
BRANCH  24  25
ATOM     25  C   UNL     1      61.995  29.499  24.818  1.00  0.00    -0.000 C 
BRANCH  25  26
ATOM     26  C   UNL     1      62.495  28.252  24.059  1.00  0.00    -0.000 C 
BRANCH  26  27
ATOM     27  C   UNL     1      62.509  26.964  24.913  1.00  0.00    -0.000 C 
BRANCH  27  28
ATOM     28  C   UNL     1      63.719  26.052  24.650  1.00  0.00    -0.000 C 
BRANCH  28  29
ATOM     29  C   UNL     1      64.118  25.999  23.170  1.00  0.00    -0.003 C 
ATOM     30  C   UNL     1      65.617  25.763  23.006  1.00  0.00     0.004 C 
ENDBRANCH  28  29
ENDBRANCH  27  28
ENDBRANCH  26  27
ENDBRANCH  25  26
ENDBRANCH  24  25
ENDBRANCH  23  24
ENDBRANCH  22  23
ENDBRANCH  21  22
ENDBRANCH  20  21
ENDBRANCH  19  20
ENDBRANCH  18  19
ENDBRANCH  17  18
ENDBRANCH   1  17
TORSDOF 26
ENDMDL
MODEL 6
REMARK VINA RESULT:    -4.041      4.874     10.070
REMARK INTER + INTRA:         -14.075
REMARK INTER:                 -11.108
REMARK INTRA:                  -2.967
REMARK UNBOUND:                -3.893
REMARK SMILES CCCCCCCCCCCCCCCCCCCCCCCCCCCC(=O)[O-]
REMARK SMILES IDX 15 1 16 2 17 3 18 4 19 5 20 6 21 7 22 8 23 9 24 10 25 11
REMARK SMILES IDX 26 12 27 13 28 14 29 15 30 16 14 17 13 18 12 19 11 20 10 21
REMARK SMILES IDX 9 22 8 23 7 24 6 25 5 26 4 27 3 28 2 29 1 30
REMARK H PARENT
REMARK Flexibility Score: inf
ROOT
ATOM      1  C   UNL     1      65.031  30.372  23.601  1.00  0.00     0.000 C 
ENDROOT
BRANCH   1   2
ATOM      2  C   UNL     1      64.306  31.727  23.499  1.00  0.00     0.000 C 
BRANCH   2   3
ATOM      3  C   UNL     1      65.069  32.730  22.616  1.00  0.00     0.000 C 
BRANCH   3   4
ATOM      4  C   UNL     1      64.114  33.726  21.929  1.00  0.00     0.000 C 
BRANCH   4   5
ATOM      5  C   UNL     1      64.819  34.589  20.871  1.00  0.00     0.000 C 
BRANCH   5   6
ATOM      6  C   UNL     1      65.972  33.847  20.172  1.00  0.00     0.000 C 
BRANCH   6   7
ATOM      7  C   UNL     1      66.057  34.180  18.667  1.00  0.00     0.000 C 
BRANCH   7   8
ATOM      8  C   UNL     1      65.167  35.362  18.242  1.00  0.00     0.000 C 
BRANCH   8   9
ATOM      9  C   UNL     1      64.749  35.290  16.767  1.00  0.00     0.000 C 
BRANCH   9  10
ATOM     10  C   UNL     1      65.703  34.397  15.960  1.00  0.00     0.000 C 
BRANCH  10  11
ATOM     11  C   UNL     1      64.966  33.285  15.200  1.00  0.00     0.000 C 
BRANCH  11  12
ATOM     12  C   UNL     1      63.683  33.788  14.511  1.00  0.00     0.006 C 
BRANCH  12  13
ATOM     13  C   UNL     1      62.583  32.720  14.498  1.00  0.00     0.053 C 
BRANCH  13  14
ATOM     14  C   UNL     1      61.226  33.315  14.726  1.00  0.00     0.041 C 
ATOM     15  O   UNL     1      60.297  33.124  13.896  1.00  0.00    -0.550 OA
ATOM     16  O   UNL     1      60.981  34.055  15.878  1.00  0.00    -0.550 OA
ENDBRANCH  13  14
ENDBRANCH  12  13
ENDBRANCH  11  12
ENDBRANCH  10  11
ENDBRANCH   9  10
ENDBRANCH   8   9
ENDBRANCH   7   8
ENDBRANCH   6   7
ENDBRANCH   5   6
ENDBRANCH   4   5
ENDBRANCH   3   4
ENDBRANCH   2   3
ENDBRANCH   1   2
BRANCH   1  17
ATOM     17  C   UNL     1      66.501  30.519  24.027  1.00  0.00     0.000 C 
BRANCH  17  18
ATOM     18  C   UNL     1      66.769  30.007  25.449  1.00  0.00     0.000 C 
BRANCH  18  19
ATOM     19  C   UNL     1      65.493  29.405  26.055  1.00  0.00     0.000 C 
BRANCH  19  20
ATOM     20  C   UNL     1      64.914  30.254  27.199  1.00  0.00     0.000 C 
BRANCH  20  21
ATOM     21  C   UNL     1      63.427  30.621  27.046  1.00  0.00     0.000 C 
BRANCH  21  22
ATOM     22  C   UNL     1      62.552  29.422  26.646  1.00  0.00    -0.000 C 
BRANCH  22  23
ATOM     23  C   UNL     1      61.979  29.601  25.234  1.00  0.00    -0.000 C 
BRANCH  23  24
ATOM     24  C   UNL     1      61.136  28.385  24.817  1.00  0.00    -0.000 C 
BRANCH  24  25
ATOM     25  C   UNL     1      61.683  27.072  25.431  1.00  0.00    -0.000 C 
BRANCH  25  26
ATOM     26  C   UNL     1      62.825  26.449  24.600  1.00  0.00    -0.000 C 
BRANCH  26  27
ATOM     27  C   UNL     1      64.158  26.318  25.371  1.00  0.00    -0.000 C 
BRANCH  27  28
ATOM     28  C   UNL     1      65.370  26.008  24.477  1.00  0.00    -0.000 C 
BRANCH  28  29
ATOM     29  C   UNL     1      65.373  26.814  23.171  1.00  0.00    -0.003 C 
ATOM     30  C   UNL     1      66.040  26.037  22.039  1.00  0.00     0.004 C 
ENDBRANCH  28  29
ENDBRANCH  27  28
ENDBRANCH  26  27
ENDBRANCH  25  26
ENDBRANCH  24  25
ENDBRANCH  23  24
ENDBRANCH  22  23
ENDBRANCH  21  22
ENDBRANCH  20  21
ENDBRANCH  19  20
ENDBRANCH  18  19
ENDBRANCH  17  18
ENDBRANCH   1  17
TORSDOF 26
ENDMDL
MODEL 7
REMARK VINA RESULT:    -3.923      5.195     11.650
REMARK INTER + INTRA:         -13.778
REMARK INTER:                 -11.188
REMARK INTRA:                  -2.590
REMARK UNBOUND:                -3.893
REMARK SMILES CCCCCCCCCCCCCCCCCCCCCCCCCCCC(=O)[O-]
REMARK SMILES IDX 15 1 16 2 17 3 18 4 19 5 20 6 21 7 22 8 23 9 24 10 25 11
REMARK SMILES IDX 26 12 27 13 28 14 29 15 30 16 14 17 13 18 12 19 11 20 10 21
REMARK SMILES IDX 9 22 8 23 7 24 6 25 5 26 4 27 3 28 2 29 1 30
REMARK H PARENT
REMARK Flexibility Score: inf
ROOT
ATOM      1  C   UNL     1      65.374  32.247  22.790  1.00  0.00     0.000 C 
ENDROOT
BRANCH   1   2
ATOM      2  C   UNL     1      65.185  30.994  23.664  1.00  0.00     0.000 C 
BRANCH   2   3
ATOM      3  C   UNL     1      63.706  30.586  23.786  1.00  0.00     0.000 C 
BRANCH   3   4
ATOM      4  C   UNL     1      63.237  30.572  25.254  1.00  0.00     0.000 C 
BRANCH   4   5
ATOM      5  C   UNL     1      64.407  30.536  26.250  1.00  0.00     0.000 C 
BRANCH   5   6
ATOM      6  C   UNL     1      63.947  30.680  27.711  1.00  0.00     0.000 C 
BRANCH   6   7
ATOM      7  C   UNL     1      63.373  29.364  28.278  1.00  0.00     0.000 C 
BRANCH   7   8
ATOM      8  C   UNL     1      61.918  29.481  28.766  1.00  0.00     0.000 C 
BRANCH   8   9
ATOM      9  C   UNL     1      61.015  28.368  28.214  1.00  0.00     0.000 C 
BRANCH   9  10
ATOM     10  C   UNL     1      61.830  27.326  27.433  1.00  0.00     0.000 C 
BRANCH  10  11
ATOM     11  C   UNL     1      61.371  27.194  25.973  1.00  0.00     0.000 C 
BRANCH  11  12
ATOM     12  C   UNL     1      62.547  27.210  24.979  1.00  0.00     0.006 C 
BRANCH  12  13
ATOM     13  C   UNL     1      63.794  26.528  25.555  1.00  0.00     0.053 C 
BRANCH  13  14
ATOM     14  C   UNL     1      64.981  26.687  24.654  1.00  0.00     0.041 C 
ATOM     15  O   UNL     1      65.690  27.728  24.710  1.00  0.00    -0.550 OA
ATOM     16  O   UNL     1      65.325  25.665  23.776  1.00  0.00    -0.550 OA
ENDBRANCH  13  14
ENDBRANCH  12  13
ENDBRANCH  11  12
ENDBRANCH  10  11
ENDBRANCH   9  10
ENDBRANCH   8   9
ENDBRANCH   7   8
ENDBRANCH   6   7
ENDBRANCH   5   6
ENDBRANCH   4   5
ENDBRANCH   3   4
ENDBRANCH   2   3
ENDBRANCH   1   2
BRANCH   1  17
ATOM     17  C   UNL     1      64.126  33.145  22.766  1.00  0.00     0.000 C 
BRANCH  17  18
ATOM     18  C   UNL     1      63.993  33.956  21.470  1.00  0.00     0.000 C 
BRANCH  18  19
ATOM     19  C   UNL     1      65.367  34.160  20.818  1.00  0.00     0.000 C 
BRANCH  19  20
ATOM     20  C   UNL     1      65.712  35.643  20.596  1.00  0.00     0.000 C 
BRANCH  20  21
ATOM     21  C   UNL     1      66.106  36.009  19.154  1.00  0.00     0.000 C 
BRANCH  21  22
ATOM     22  C   UNL     1      65.479  35.075  18.106  1.00  0.00    -0.000 C 
BRANCH  22  23
ATOM     23  C   UNL     1      64.807  35.874  16.983  1.00  0.00    -0.000 C 
BRANCH  23  24
ATOM     24  C   UNL     1      65.421  35.538  15.615  1.00  0.00    -0.000 C 
BRANCH  24  25
ATOM     25  C   UNL     1      65.517  34.008  15.392  1.00  0.00    -0.000 C 
BRANCH  25  26
ATOM     26  C   UNL     1      64.556  33.497  14.298  1.00  0.00    -0.000 C 
BRANCH  26  27
ATOM     27  C   UNL     1      63.069  33.495  14.723  1.00  0.00    -0.000 C 
BRANCH  27  28
ATOM     28  C   UNL     1      62.148  32.711  13.776  1.00  0.00    -0.000 C 
BRANCH  28  29
ATOM     29  C   UNL     1      60.702  33.223  13.786  1.00  0.00    -0.003 C 
ATOM     30  C   UNL     1      59.708  32.082  13.987  1.00  0.00     0.004 C 
ENDBRANCH  28  29
ENDBRANCH  27  28
ENDBRANCH  26  27
ENDBRANCH  25  26
ENDBRANCH  24  25
ENDBRANCH  23  24
ENDBRANCH  22  23
ENDBRANCH  21  22
ENDBRANCH  20  21
ENDBRANCH  19  20
ENDBRANCH  18  19
ENDBRANCH  17  18
ENDBRANCH   1  17
TORSDOF 26
ENDMDL
MODEL 8
REMARK VINA RESULT:    -3.899      4.990     11.388
REMARK INTER + INTRA:         -13.719
REMARK INTER:                 -11.556
REMARK INTRA:                  -2.164
REMARK UNBOUND:                -3.893
REMARK SMILES CCCCCCCCCCCCCCCCCCCCCCCCCCCC(=O)[O-]
REMARK SMILES IDX 15 1 16 2 17 3 18 4 19 5 20 6 21 7 22 8 23 9 24 10 25 11
REMARK SMILES IDX 26 12 27 13 28 14 29 15 30 16 14 17 13 18 12 19 11 20 10 21
REMARK SMILES IDX 9 22 8 23 7 24 6 25 5 26 4 27 3 28 2 29 1 30
REMARK H PARENT
REMARK Flexibility Score: inf
ROOT
ATOM      1  C   UNL     1      64.763  34.073  20.643  1.00  0.00     0.000 C 
ENDROOT
BRANCH   1   2
ATOM      2  C   UNL     1      65.139  33.406  21.979  1.00  0.00     0.000 C 
BRANCH   2   3
ATOM      3  C   UNL     1      66.555  32.805  21.951  1.00  0.00     0.000 C 
BRANCH   3   4
ATOM      4  C   UNL     1      66.624  31.471  22.720  1.00  0.00     0.000 C 
BRANCH   4   5
ATOM      5  C   UNL     1      65.327  31.159  23.482  1.00  0.00     0.000 C 
BRANCH   5   6
ATOM      6  C   UNL     1      65.032  29.650  23.562  1.00  0.00     0.000 C 
BRANCH   6   7
ATOM      7  C   UNL     1      64.524  29.225  24.957  1.00  0.00     0.000 C 
BRANCH   7   8
ATOM      8  C   UNL     1      63.695  30.308  25.671  1.00  0.00     0.000 C 
BRANCH   8   9
ATOM      9  C   UNL     1      63.717  30.161  27.199  1.00  0.00     0.000 C 
BRANCH   9  10
ATOM     10  C   UNL     1      62.316  29.849  27.749  1.00  0.00     0.000 C 
BRANCH  10  11
ATOM     11  C   UNL     1      62.259  28.501  28.482  1.00  0.00     0.000 C 
BRANCH  11  12
ATOM     12  C   UNL     1      61.242  27.529  27.856  1.00  0.00     0.006 C 
BRANCH  12  13
ATOM     13  C   UNL     1      61.678  27.065  26.460  1.00  0.00     0.053 C 
BRANCH  13  14
ATOM     14  C   UNL     1      60.671  27.433  25.412  1.00  0.00     0.041 C 
ATOM     15  O   UNL     1      60.885  28.401  24.633  1.00  0.00    -0.550 OA
ATOM     16  O   UNL     1      59.510  26.679  25.275  1.00  0.00    -0.550 OA
ENDBRANCH  13  14
ENDBRANCH  12  13
ENDBRANCH  11  12
ENDBRANCH  10  11
ENDBRANCH   9  10
ENDBRANCH   8   9
ENDBRANCH   7   8
ENDBRANCH   6   7
ENDBRANCH   5   6
ENDBRANCH   4   5
ENDBRANCH   3   4
ENDBRANCH   2   3
ENDBRANCH   1   2
BRANCH   1  17
ATOM     17  C   UNL     1      65.271  35.521  20.542  1.00  0.00     0.000 C 
BRANCH  17  18
ATOM     18  C   UNL     1      66.111  35.777  19.283  1.00  0.00     0.000 C 
BRANCH  18  19
ATOM     19  C   UNL     1      65.709  34.810  18.160  1.00  0.00     0.000 C 
BRANCH  19  20
ATOM     20  C   UNL     1      64.915  35.495  17.034  1.00  0.00     0.000 C 
BRANCH  20  21
ATOM     21  C   UNL     1      65.320  35.077  15.610  1.00  0.00     0.000 C 
BRANCH  21  22
ATOM     22  C   UNL     1      64.860  33.656  15.247  1.00  0.00    -0.000 C 
BRANCH  22  23
ATOM     23  C   UNL     1      64.665  33.505  13.733  1.00  0.00    -0.000 C 
BRANCH  23  24
ATOM     24  C   UNL     1      63.264  32.968  13.402  1.00  0.00    -0.000 C 
BRANCH  24  25
ATOM     25  C   UNL     1      62.288  33.143  14.593  1.00  0.00    -0.000 C 
BRANCH  25  26
ATOM     26  C   UNL     1      60.819  33.307  14.148  1.00  0.00    -0.000 C 
BRANCH  26  27
ATOM     27  C   UNL     1      60.455  32.493  12.885  1.00  0.00    -0.000 C 
BRANCH  27  28
ATOM     28  C   UNL     1      59.792  31.138  13.182  1.00  0.00    -0.000 C 
BRANCH  28  29
ATOM     29  C   UNL     1      60.634  29.944  12.716  1.00  0.00    -0.003 C 
ATOM     30  C   UNL     1      61.478  29.379  13.855  1.00  0.00     0.004 C 
ENDBRANCH  28  29
ENDBRANCH  27  28
ENDBRANCH  26  27
ENDBRANCH  25  26
ENDBRANCH  24  25
ENDBRANCH  23  24
ENDBRANCH  22  23
ENDBRANCH  21  22
ENDBRANCH  20  21
ENDBRANCH  19  20
ENDBRANCH  18  19
ENDBRANCH  17  18
ENDBRANCH   1  17
TORSDOF 26
ENDMDL
MODEL 9
REMARK VINA RESULT:    -3.882      3.802      8.636
REMARK INTER + INTRA:         -13.676
REMARK INTER:                 -11.210
REMARK INTRA:                  -2.466
REMARK UNBOUND:                -3.893
REMARK SMILES CCCCCCCCCCCCCCCCCCCCCCCCCCCC(=O)[O-]
REMARK SMILES IDX 15 1 16 2 17 3 18 4 19 5 20 6 21 7 22 8 23 9 24 10 25 11
REMARK SMILES IDX 26 12 27 13 28 14 29 15 30 16 14 17 13 18 12 19 11 20 10 21
REMARK SMILES IDX 9 22 8 23 7 24 6 25 5 26 4 27 3 28 2 29 1 30
REMARK H PARENT
REMARK Flexibility Score: inf
ROOT
ATOM      1  C   UNL     1      64.535  34.254  20.818  1.00  0.00     0.000 C 
ENDROOT
BRANCH   1   2
ATOM      2  C   UNL     1      65.557  35.230  20.206  1.00  0.00     0.000 C 
BRANCH   2   3
ATOM      3  C   UNL     1      65.575  35.166  18.669  1.00  0.00     0.000 C 
BRANCH   3   4
ATOM      4  C   UNL     1      66.368  33.947  18.158  1.00  0.00     0.000 C 
BRANCH   4   5
ATOM      5  C   UNL     1      66.234  33.747  16.640  1.00  0.00     0.000 C 
BRANCH   5   6
ATOM      6  C   UNL     1      65.126  34.618  16.022  1.00  0.00     0.000 C 
BRANCH   6   7
ATOM      7  C   UNL     1      64.848  34.253  14.547  1.00  0.00     0.000 C 
BRANCH   7   8
ATOM      8  C   UNL     1      63.687  33.260  14.363  1.00  0.00     0.000 C 
BRANCH   8   9
ATOM      9  C   UNL     1      62.386  33.738  15.023  1.00  0.00     0.000 C 
BRANCH   9  10
ATOM     10  C   UNL     1      61.334  32.620  15.056  1.00  0.00     0.000 C 
BRANCH  10  11
ATOM     11  C   UNL     1      60.303  32.749  13.926  1.00  0.00     0.000 C 
BRANCH  11  12
ATOM     12  C   UNL     1      60.726  31.998  12.649  1.00  0.00     0.006 C 
BRANCH  12  13
ATOM     13  C   UNL     1      60.004  30.652  12.511  1.00  0.00     0.053 C 
BRANCH  13  14
ATOM     14  C   UNL     1      60.902  29.501  12.852  1.00  0.00     0.041 C 
ATOM     15  O   UNL     1      61.119  29.196  14.056  1.00  0.00    -0.550 OA
ATOM     16  O   UNL     1      61.470  28.742  11.834  1.00  0.00    -0.550 OA
ENDBRANCH  13  14
ENDBRANCH  12  13
ENDBRANCH  11  12
ENDBRANCH  10  11
ENDBRANCH   9  10
ENDBRANCH   8   9
ENDBRANCH   7   8
ENDBRANCH   6   7
ENDBRANCH   5   6
ENDBRANCH   4   5
ENDBRANCH   3   4
ENDBRANCH   2   3
ENDBRANCH   1   2
BRANCH   1  17
ATOM     17  C   UNL     1      65.110  33.464  22.004  1.00  0.00     0.000 C 
BRANCH  17  18
ATOM     18  C   UNL     1      66.615  33.190  21.872  1.00  0.00     0.000 C 
BRANCH  18  19
ATOM     19  C   UNL     1      66.898  31.683  21.958  1.00  0.00     0.000 C 
BRANCH  19  20
ATOM     20  C   UNL     1      66.801  31.134  23.391  1.00  0.00     0.000 C 
BRANCH  20  21
ATOM     21  C   UNL     1      65.665  30.122  23.622  1.00  0.00     0.000 C 
BRANCH  21  22
ATOM     22  C   UNL     1      65.919  29.199  24.825  1.00  0.00    -0.000 C 
BRANCH  22  23
ATOM     23  C   UNL     1      65.348  29.798  26.116  1.00  0.00    -0.000 C 
BRANCH  23  24
ATOM     24  C   UNL     1      64.069  30.604  25.838  1.00  0.00    -0.000 C 
BRANCH  24  25
ATOM     25  C   UNL     1      62.913  30.184  26.781  1.00  0.00    -0.000 C 
BRANCH  25  26
ATOM     26  C   UNL     1      62.147  28.942  26.277  1.00  0.00    -0.000 C 
BRANCH  26  27
ATOM     27  C   UNL     1      61.768  29.006  24.780  1.00  0.00    -0.000 C 
BRANCH  27  28
ATOM     28  C   UNL     1      62.528  28.000  23.899  1.00  0.00    -0.000 C 
BRANCH  28  29
ATOM     29  C   UNL     1      63.114  26.828  24.696  1.00  0.00    -0.003 C 
ATOM     30  C   UNL     1      63.625  25.726  23.772  1.00  0.00     0.004 C 
ENDBRANCH  28  29
ENDBRANCH  27  28
ENDBRANCH  26  27
ENDBRANCH  25  26
ENDBRANCH  24  25
ENDBRANCH  23  24
ENDBRANCH  22  23
ENDBRANCH  21  22
ENDBRANCH  20  21
ENDBRANCH  19  20
ENDBRANCH  18  19
ENDBRANCH  17  18
ENDBRANCH   1  17
TORSDOF 26
ENDMDL
