MODEL 1
REMARK VINA RESULT:     0.212      0.000      0.000
REMARK INTER + INTRA:           1.606
REMARK INTER:                   0.461
REMARK INTRA:                   1.145
REMARK UNBOUND:                 1.145
REMARK SMILES CCCCCCCCCCCCCCCCCCCCCC(=O)[O-]
REMARK SMILES IDX 12 1 11 2 10 3 9 4 8 5 7 6 6 7 5 8 4 9 3 10 2 11 1 12 13 13
REMARK SMILES IDX 14 14 15 15 16 16 17 17 18 18 19 19 20 20 21 21 22 22 23 23
REMARK SMILES IDX 24 24
REMARK H PARENT
REMARK Flexibility Score: inf
ROOT
ATOM      1  C   UNL     1      45.652 -27.109   1.097  1.00  0.00     0.000 C 
ENDROOT
BRANCH   1   2
ATOM      2  C   UNL     1      46.125 -26.765   2.516  1.00  0.00     0.000 C 
BRANCH   2   3
ATOM      3  C   UNL     1      44.993 -26.828   3.557  1.00  0.00     0.000 C 
BRANCH   3   4
ATOM      4  C   UNL     1      45.398 -27.425   4.917  1.00  0.00    -0.000 C 
BRANCH   4   5
ATOM      5  C   UNL     1      45.896 -26.363   5.912  1.00  0.00    -0.000 C 
BRANCH   5   6
ATOM      6  C   UNL     1      45.479 -26.669   7.358  1.00  0.00    -0.000 C 
BRANCH   6   7
ATOM      7  C   UNL     1      45.837 -28.104   7.783  1.00  0.00    -0.000 C 
BRANCH   7   8
ATOM      8  C   UNL     1      45.903 -28.278   9.312  1.00  0.00    -0.000 C 
BRANCH   8   9
ATOM      9  C   UNL     1      44.969 -29.361   9.886  1.00  0.00    -0.000 C 
BRANCH   9  10
ATOM     10  C   UNL     1      45.731 -30.572  10.448  1.00  0.00    -0.000 C 
BRANCH  10  11
ATOM     11  C   UNL     1      45.977 -31.656   9.386  1.00  0.00    -0.003 C 
ATOM     12  C   UNL     1      45.033 -31.541   8.189  1.00  0.00     0.004 C 
ENDBRANCH  10  11
ENDBRANCH   9  10
ENDBRANCH   8   9
ENDBRANCH   7   8
ENDBRANCH   6   7
ENDBRANCH   5   6
ENDBRANCH   4   5
ENDBRANCH   3   4
ENDBRANCH   2   3
ENDBRANCH   1   2
BRANCH   1  13
ATOM     13  C   UNL     1      44.731 -26.014   0.545  1.00  0.00     0.000 C 
BRANCH  13  14
ATOM     14  C   UNL     1      44.770 -24.760   1.430  1.00  0.00     0.000 C 
BRANCH  14  15
ATOM     15  C   UNL     1      46.048 -23.931   1.219  1.00  0.00     0.000 C 
BRANCH  15  16
ATOM     16  C   UNL     1      46.115 -23.296  -0.181  1.00  0.00     0.000 C 
BRANCH  16  17
ATOM     17  C   UNL     1      44.845 -23.547  -1.011  1.00  0.00     0.000 C 
BRANCH  17  18
ATOM     18  C   UNL     1      44.985 -24.714  -2.011  1.00  0.00     0.000 C 
BRANCH  18  19
ATOM     19  C   UNL     1      45.873 -24.345  -3.213  1.00  0.00     0.000 C 
BRANCH  19  20
ATOM     20  C   UNL     1      45.401 -24.999  -4.521  1.00  0.00     0.006 C 
BRANCH  20  21
ATOM     21  C   UNL     1      45.996 -24.330  -5.766  1.00  0.00     0.053 C 
BRANCH  21  22
ATOM     22  C   UNL     1      46.035 -25.294  -6.909  1.00  0.00     0.041 C 
ATOM     23  O   UNL     1      45.979 -24.875  -8.095  1.00  0.00    -0.550 OA
ATOM     24  O   UNL     1      46.100 -26.660  -6.663  1.00  0.00    -0.550 OA
ENDBRANCH  21  22
ENDBRANCH  20  21
ENDBRANCH  19  20
ENDBRANCH  18  19
ENDBRANCH  17  18
ENDBRANCH  16  17
ENDBRANCH  15  16
ENDBRANCH  14  15
ENDBRANCH  13  14
ENDBRANCH   1  13
TORSDOF 20
ENDMDL
MODEL 2
REMARK VINA RESULT:     0.255      1.192      2.601
REMARK INTER + INTRA:           1.697
REMARK INTER:                   0.385
REMARK INTRA:                   1.312
REMARK UNBOUND:                 1.145
REMARK SMILES CCCCCCCCCCCCCCCCCCCCCC(=O)[O-]
REMARK SMILES IDX 12 1 11 2 10 3 9 4 8 5 7 6 6 7 5 8 4 9 3 10 2 11 1 12 13 13
REMARK SMILES IDX 14 14 15 15 16 16 17 17 18 18 19 19 20 20 21 21 22 22 23 23
REMARK SMILES IDX 24 24
REMARK H PARENT
REMARK Flexibility Score: inf
ROOT
ATOM      1  C   UNL     1      45.263 -23.290   1.401  1.00  0.00     0.000 C 
ENDROOT
BRANCH   1   2
ATOM      2  C   UNL     1      45.973 -24.651   1.373  1.00  0.00     0.000 C 
BRANCH   2   3
ATOM      3  C   UNL     1      45.001 -25.838   1.499  1.00  0.00     0.000 C 
BRANCH   3   4
ATOM      4  C   UNL     1      44.954 -26.488   2.895  1.00  0.00    -0.000 C 
BRANCH   4   5
ATOM      5  C   UNL     1      46.079 -27.513   3.114  1.00  0.00    -0.000 C 
BRANCH   5   6
ATOM      6  C   UNL     1      46.097 -28.071   4.545  1.00  0.00    -0.000 C 
BRANCH   6   7
ATOM      7  C   UNL     1      45.998 -26.965   5.610  1.00  0.00    -0.000 C 
BRANCH   7   8
ATOM      8  C   UNL     1      45.376 -27.457   6.930  1.00  0.00    -0.000 C 
BRANCH   8   9
ATOM      9  C   UNL     1      45.776 -28.886   7.345  1.00  0.00    -0.000 C 
BRANCH   9  10
ATOM     10  C   UNL     1      45.682 -29.118   8.863  1.00  0.00    -0.000 C 
BRANCH  10  11
ATOM     11  C   UNL     1      45.913 -30.587   9.249  1.00  0.00    -0.003 C 
ATOM     12  C   UNL     1      45.104 -31.014  10.475  1.00  0.00     0.004 C 
ENDBRANCH  10  11
ENDBRANCH   9  10
ENDBRANCH   8   9
ENDBRANCH   7   8
ENDBRANCH   6   7
ENDBRANCH   5   6
ENDBRANCH   4   5
ENDBRANCH   3   4
ENDBRANCH   2   3
ENDBRANCH   1   2
BRANCH   1  13
ATOM     13  C   UNL     1      45.710 -22.414   0.225  1.00  0.00     0.000 C 
BRANCH  13  14
ATOM     14  C   UNL     1      45.633 -23.185  -1.101  1.00  0.00     0.000 C 
BRANCH  14  15
ATOM     15  C   UNL     1      46.056 -24.656  -0.951  1.00  0.00     0.000 C 
BRANCH  15  16
ATOM     16  C   UNL     1      45.370 -25.575  -1.976  1.00  0.00     0.000 C 
BRANCH  16  17
ATOM     17  C   UNL     1      46.084 -25.587  -3.337  1.00  0.00     0.000 C 
BRANCH  17  18
ATOM     18  C   UNL     1      45.312 -24.835  -4.443  1.00  0.00     0.000 C 
BRANCH  18  19
ATOM     19  C   UNL     1      46.010 -23.525  -4.851  1.00  0.00     0.000 C 
BRANCH  19  20
ATOM     20  C   UNL     1      45.822 -23.193  -6.339  1.00  0.00     0.006 C 
BRANCH  20  21
ATOM     21  C   UNL     1      44.923 -24.203  -7.062  1.00  0.00     0.053 C 
BRANCH  21  22
ATOM     22  C   UNL     1      45.466 -24.506  -8.422  1.00  0.00     0.041 C 
ATOM     23  O   UNL     1      46.085 -23.622  -9.070  1.00  0.00    -0.550 OA
ATOM     24  O   UNL     1      45.260 -25.758  -8.990  1.00  0.00    -0.550 OA
ENDBRANCH  21  22
ENDBRANCH  20  21
ENDBRANCH  19  20
ENDBRANCH  18  19
ENDBRANCH  17  18
ENDBRANCH  16  17
ENDBRANCH  15  16
ENDBRANCH  14  15
ENDBRANCH  13  14
ENDBRANCH   1  13
TORSDOF 20
ENDMDL
