MODEL 1
REMARK VINA RESULT:    -6.128      0.000      0.000
REMARK INTER + INTRA:          -7.407
REMARK INTER:                  -7.203
REMARK INTRA:                  -0.205
REMARK UNBOUND:                -0.205
REMARK SMILES O=c1c(O)c(-c2ccc(O)cc2)oc2cc(O)cc(O)c12
REMARK SMILES IDX 5 1 3 2 2 3 1 4 21 5 19 6 18 7 16 8 15 9 14 10 13 11 6 12
REMARK SMILES IDX 7 13 8 14 9 15 12 16 11 17 10 18 4 20 20 22 17 24
REMARK H PARENT 10 19 4 21 20 23 17 25
REMARK Flexibility Score: inf
ROOT
ATOM      1  C   UNL     1     -33.351   2.827  15.457  1.00  0.00     0.180 A 
ATOM      2  C   UNL     1     -34.225   3.532  16.303  1.00  0.00     0.208 A 
ATOM      3  C   UNL     1     -33.707   4.550  17.120  1.00  0.00     0.238 A 
ATOM      4  O   UNL     1     -34.506   5.227  17.820  1.00  0.00    -0.285 OA
ATOM      5  C   UNL     1     -32.316   4.813  17.125  1.00  0.00     0.111 A 
ATOM      6  C   UNL     1     -31.675   5.790  17.945  1.00  0.00     0.134 A 
ATOM      7  C   UNL     1     -30.306   6.035  17.787  1.00  0.00     0.093 A 
ATOM      8  C   UNL     1     -29.541   5.297  16.885  1.00  0.00     0.123 A 
ATOM      9  C   UNL     1     -30.145   4.302  16.117  1.00  0.00     0.094 A 
ATOM     10  C   UNL     1     -31.517   4.059  16.225  1.00  0.00     0.146 A 
ATOM     11  O   UNL     1     -32.055   3.119  15.459  1.00  0.00    -0.452 OA
ENDROOT
BRANCH   1  12
ATOM     12  C   UNL     1     -33.823   1.752  14.557  1.00  0.00     0.021 A 
ATOM     13  C   UNL     1     -33.867   1.929  13.162  1.00  0.00     0.016 A 
ATOM     14  C   UNL     1     -34.294   0.890  12.330  1.00  0.00     0.047 A 
ATOM     15  C   UNL     1     -34.668  -0.342  12.876  1.00  0.00     0.115 A 
ATOM     16  C   UNL     1     -34.180   0.505  15.097  1.00  0.00     0.016 A 
ATOM     17  C   UNL     1     -34.606  -0.533  14.263  1.00  0.00     0.047 A 
BRANCH  15  18
ATOM     18  O   UNL     1     -35.091  -1.368  12.035  1.00  0.00    -0.508 OA
ATOM     19  H   UNL     1     -35.009  -1.294  11.028  1.00  0.00     0.293 HD
ENDBRANCH  15  18
ENDBRANCH   1  12
BRANCH   2  20
ATOM     20  O   UNL     1     -35.583   3.206  16.341  1.00  0.00    -0.502 OA
ATOM     21  H   UNL     1     -36.045   2.715  15.585  1.00  0.00     0.293 HD
ENDBRANCH   2  20
BRANCH   6  22
ATOM     22  O   UNL     1     -32.326   6.524  18.942  1.00  0.00    -0.507 OA
ATOM     23  H   UNL     1     -33.153   6.223  19.435  1.00  0.00     0.293 HD
ENDBRANCH   6  22
BRANCH   8  24
ATOM     24  O   UNL     1     -28.177   5.556  16.767  1.00  0.00    -0.508 OA
ATOM     25  H   UNL     1     -27.539   5.402  17.538  1.00  0.00     0.293 HD
ENDBRANCH   8  24
TORSDOF 5
ENDMDL
MODEL 2
REMARK VINA RESULT:    -6.056      2.003      3.302
REMARK INTER + INTRA:          -7.323
REMARK INTER:                  -7.108
REMARK INTRA:                  -0.215
REMARK UNBOUND:                -0.205
REMARK SMILES O=c1c(O)c(-c2ccc(O)cc2)oc2cc(O)cc(O)c12
REMARK SMILES IDX 5 1 3 2 2 3 1 4 21 5 19 6 18 7 16 8 15 9 14 10 13 11 6 12
REMARK SMILES IDX 7 13 8 14 9 15 12 16 11 17 10 18 4 20 20 22 17 24
REMARK H PARENT 10 19 4 21 20 23 17 25
REMARK Flexibility Score: inf
ROOT
ATOM      1  C   UNL     1     -33.301   3.097  15.851  1.00  0.00     0.180 A 
ATOM      2  C   UNL     1     -32.375   2.677  16.822  1.00  0.00     0.208 A 
ATOM      3  C   UNL     1     -32.219   3.444  17.988  1.00  0.00     0.238 A 
ATOM      4  O   UNL     1     -31.443   3.024  18.887  1.00  0.00    -0.285 OA
ATOM      5  C   UNL     1     -32.945   4.650  18.144  1.00  0.00     0.111 A 
ATOM      6  C   UNL     1     -32.831   5.529  19.263  1.00  0.00     0.134 A 
ATOM      7  C   UNL     1     -33.678   6.640  19.357  1.00  0.00     0.093 A 
ATOM      8  C   UNL     1     -34.590   6.939  18.347  1.00  0.00     0.123 A 
ATOM      9  C   UNL     1     -34.672   6.118  17.222  1.00  0.00     0.094 A 
ATOM     10  C   UNL     1     -33.866   4.981  17.116  1.00  0.00     0.146 A 
ATOM     11  O   UNL     1     -33.992   4.215  16.040  1.00  0.00    -0.452 OA
ENDROOT
BRANCH   1  12
ATOM     12  C   UNL     1     -33.533   2.335  14.603  1.00  0.00     0.021 A 
ATOM     13  C   UNL     1     -34.203   1.098  14.612  1.00  0.00     0.016 A 
ATOM     14  C   UNL     1     -34.433   0.409  13.419  1.00  0.00     0.047 A 
ATOM     15  C   UNL     1     -34.010   0.950  12.200  1.00  0.00     0.115 A 
ATOM     16  C   UNL     1     -33.131   2.882  13.373  1.00  0.00     0.016 A 
ATOM     17  C   UNL     1     -33.361   2.191  12.180  1.00  0.00     0.047 A 
BRANCH  15  18
ATOM     18  O   UNL     1     -34.245   0.252  11.019  1.00  0.00    -0.508 OA
ATOM     19  H   UNL     1     -34.853   0.621  10.297  1.00  0.00     0.293 HD
ENDBRANCH  15  18
ENDBRANCH   1  12
BRANCH   2  20
ATOM     20  O   UNL     1     -31.612   1.526  16.615  1.00  0.00    -0.502 OA
ATOM     21  H   UNL     1     -30.625   1.562  16.389  1.00  0.00     0.293 HD
ENDBRANCH   2  20
BRANCH   6  22
ATOM     22  O   UNL     1     -31.893   5.374  20.288  1.00  0.00    -0.507 OA
ATOM     23  H   UNL     1     -31.303   6.109  20.647  1.00  0.00     0.293 HD
ENDBRANCH   6  22
BRANCH   8  24
ATOM     24  O   UNL     1     -35.406   8.062  18.467  1.00  0.00    -0.508 OA
ATOM     25  H   UNL     1     -36.215   8.196  17.873  1.00  0.00     0.293 HD
ENDBRANCH   8  24
TORSDOF 5
ENDMDL
MODEL 3
REMARK VINA RESULT:    -6.022      3.103      4.651
REMARK INTER + INTRA:          -7.283
REMARK INTER:                  -7.029
REMARK INTRA:                  -0.254
REMARK UNBOUND:                -0.205
REMARK SMILES O=c1c(O)c(-c2ccc(O)cc2)oc2cc(O)cc(O)c12
REMARK SMILES IDX 5 1 3 2 2 3 1 4 21 5 19 6 18 7 16 8 15 9 14 10 13 11 6 12
REMARK SMILES IDX 7 13 8 14 9 15 12 16 11 17 10 18 4 20 20 22 17 24
REMARK H PARENT 10 19 4 21 20 23 17 25
REMARK Flexibility Score: inf
ROOT
ATOM      1  C   UNL     1     -33.415   2.760  15.674  1.00  0.00     0.180 A 
ATOM      2  C   UNL     1     -34.235   3.657  16.380  1.00  0.00     0.208 A 
ATOM      3  C   UNL     1     -34.695   3.298  17.657  1.00  0.00     0.238 A 
ATOM      4  O   UNL     1     -35.367   4.136  18.313  1.00  0.00    -0.285 OA
ATOM      5  C   UNL     1     -34.378   2.025  18.190  1.00  0.00     0.111 A 
ATOM      6  C   UNL     1     -34.828   1.538  19.454  1.00  0.00     0.134 A 
ATOM      7  C   UNL     1     -34.363   0.303  19.923  1.00  0.00     0.093 A 
ATOM      8  C   UNL     1     -33.517  -0.490  19.151  1.00  0.00     0.123 A 
ATOM      9  C   UNL     1     -33.115  -0.049  17.889  1.00  0.00     0.094 A 
ATOM     10  C   UNL     1     -33.531   1.195  17.409  1.00  0.00     0.146 A 
ATOM     11  O   UNL     1     -33.107   1.586  16.214  1.00  0.00    -0.452 OA
ENDROOT
BRANCH   1  12
ATOM     12  C   UNL     1     -32.878   3.072  14.330  1.00  0.00     0.021 A 
ATOM     13  C   UNL     1     -31.797   3.955  14.158  1.00  0.00     0.016 A 
ATOM     14  C   UNL     1     -31.292   4.215  12.881  1.00  0.00     0.047 A 
ATOM     15  C   UNL     1     -31.850   3.589  11.762  1.00  0.00     0.115 A 
ATOM     16  C   UNL     1     -33.420   2.430  13.204  1.00  0.00     0.016 A 
ATOM     17  C   UNL     1     -32.913   2.692  11.927  1.00  0.00     0.047 A 
BRANCH  15  18
ATOM     18  O   UNL     1     -31.337   3.858  10.496  1.00  0.00    -0.508 OA
ATOM     19  H   UNL     1     -31.681   4.633   9.940  1.00  0.00     0.293 HD
ENDBRANCH  15  18
ENDBRANCH   1  12
BRANCH   2  20
ATOM     20  O   UNL     1     -34.600   4.877  15.805  1.00  0.00    -0.502 OA
ATOM     21  H   UNL     1     -34.373   5.116  14.846  1.00  0.00     0.293 HD
ENDBRANCH   2  20
BRANCH   6  22
ATOM     22  O   UNL     1     -35.743   2.208  20.271  1.00  0.00    -0.507 OA
ATOM     23  H   UNL     1     -36.364   2.941  19.963  1.00  0.00     0.293 HD
ENDBRANCH   6  22
BRANCH   8  24
ATOM     24  O   UNL     1     -33.088  -1.721  19.642  1.00  0.00    -0.508 OA
ATOM     25  H   UNL     1     -32.553  -1.792  20.499  1.00  0.00     0.293 HD
ENDBRANCH   8  24
TORSDOF 5
ENDMDL
MODEL 4
REMARK VINA RESULT:    -6.007      4.013      5.035
REMARK INTER + INTRA:          -7.265
REMARK INTER:                  -6.974
REMARK INTRA:                  -0.291
REMARK UNBOUND:                -0.205
REMARK SMILES O=c1c(O)c(-c2ccc(O)cc2)oc2cc(O)cc(O)c12
REMARK SMILES IDX 5 1 3 2 2 3 1 4 21 5 19 6 18 7 16 8 15 9 14 10 13 11 6 12
REMARK SMILES IDX 7 13 8 14 9 15 12 16 11 17 10 18 4 20 20 22 17 24
REMARK H PARENT 10 19 4 21 20 23 17 25
REMARK Flexibility Score: inf
ROOT
ATOM      1  C   UNL     1     -31.918   0.420  17.344  1.00  0.00     0.180 A 
ATOM      2  C   UNL     1     -33.165   0.332  16.701  1.00  0.00     0.208 A 
ATOM      3  C   UNL     1     -33.677   1.468  16.054  1.00  0.00     0.238 A 
ATOM      4  O   UNL     1     -34.759   1.362  15.417  1.00  0.00    -0.285 OA
ATOM      5  C   UNL     1     -32.967   2.691  16.104  1.00  0.00     0.111 A 
ATOM      6  C   UNL     1     -33.413   3.916  15.522  1.00  0.00     0.134 A 
ATOM      7  C   UNL     1     -32.575   5.037  15.544  1.00  0.00     0.093 A 
ATOM      8  C   UNL     1     -31.336   4.998  16.179  1.00  0.00     0.123 A 
ATOM      9  C   UNL     1     -30.912   3.823  16.800  1.00  0.00     0.094 A 
ATOM     10  C   UNL     1     -31.709   2.676  16.763  1.00  0.00     0.146 A 
ATOM     11  O   UNL     1     -31.258   1.573  17.346  1.00  0.00    -0.452 OA
ENDROOT
BRANCH   1  12
ATOM     12  C   UNL     1     -31.304  -0.736  18.035  1.00  0.00     0.021 A 
ATOM     13  C   UNL     1     -30.547  -1.693  17.335  1.00  0.00     0.016 A 
ATOM     14  C   UNL     1     -29.957  -2.763  18.013  1.00  0.00     0.047 A 
ATOM     15  C   UNL     1     -30.103  -2.885  19.399  1.00  0.00     0.115 A 
ATOM     16  C   UNL     1     -31.429  -0.854  19.429  1.00  0.00     0.016 A 
ATOM     17  C   UNL     1     -30.838  -1.925  20.106  1.00  0.00     0.047 A 
BRANCH  15  18
ATOM     18  O   UNL     1     -29.510  -3.957  20.062  1.00  0.00    -0.508 OA
ATOM     19  H   UNL     1     -29.310  -4.828  19.585  1.00  0.00     0.293 HD
ENDBRANCH  15  18
ENDBRANCH   1  12
BRANCH   2  20
ATOM     20  O   UNL     1     -33.888  -0.863  16.729  1.00  0.00    -0.502 OA
ATOM     21  H   UNL     1     -34.020  -1.437  15.904  1.00  0.00     0.293 HD
ENDBRANCH   2  20
BRANCH   6  22
ATOM     22  O   UNL     1     -34.671   4.092  14.937  1.00  0.00    -0.507 OA
ATOM     23  H   UNL     1     -35.528   3.681  15.275  1.00  0.00     0.293 HD
ENDBRANCH   6  22
BRANCH   8  24
ATOM     24  O   UNL     1     -30.535   6.139  16.197  1.00  0.00    -0.508 OA
ATOM     25  H   UNL     1     -30.044   6.455  15.369  1.00  0.00     0.293 HD
ENDBRANCH   8  24
TORSDOF 5
ENDMDL
MODEL 5
REMARK VINA RESULT:    -5.948      1.366      2.340
REMARK INTER + INTRA:          -7.195
REMARK INTER:                  -6.983
REMARK INTRA:                  -0.213
REMARK UNBOUND:                -0.205
REMARK SMILES O=c1c(O)c(-c2ccc(O)cc2)oc2cc(O)cc(O)c12
REMARK SMILES IDX 5 1 3 2 2 3 1 4 21 5 19 6 18 7 16 8 15 9 14 10 13 11 6 12
REMARK SMILES IDX 7 13 8 14 9 15 12 16 11 17 10 18 4 20 20 22 17 24
REMARK H PARENT 10 19 4 21 20 23 17 25
REMARK Flexibility Score: inf
ROOT
ATOM      1  C   UNL     1     -32.123   3.805  16.252  1.00  0.00     0.180 A 
ATOM      2  C   UNL     1     -32.556   4.554  17.360  1.00  0.00     0.208 A 
ATOM      3  C   UNL     1     -31.695   5.518  17.908  1.00  0.00     0.238 A 
ATOM      4  O   UNL     1     -32.117   6.236  18.853  1.00  0.00    -0.285 OA
ATOM      5  C   UNL     1     -30.392   5.683  17.381  1.00  0.00     0.111 A 
ATOM      6  C   UNL     1     -29.419   6.597  17.886  1.00  0.00     0.134 A 
ATOM      7  C   UNL     1     -28.199   6.748  17.217  1.00  0.00     0.093 A 
ATOM      8  C   UNL     1     -27.889   5.976  16.099  1.00  0.00     0.123 A 
ATOM      9  C   UNL     1     -28.810   5.039  15.628  1.00  0.00     0.094 A 
ATOM     10  C   UNL     1     -30.051   4.891  16.252  1.00  0.00     0.146 A 
ATOM     11  O   UNL     1     -30.906   4.005  15.758  1.00  0.00    -0.452 OA
ENDROOT
BRANCH   1  12
ATOM     12  C   UNL     1     -32.978   2.782  15.609  1.00  0.00     0.021 A 
ATOM     13  C   UNL     1     -33.234   1.545  16.228  1.00  0.00     0.016 A 
ATOM     14  C   UNL     1     -34.064   0.605  15.613  1.00  0.00     0.047 A 
ATOM     15  C   UNL     1     -34.660   0.890  14.381  1.00  0.00     0.115 A 
ATOM     16  C   UNL     1     -33.597   3.070  14.382  1.00  0.00     0.016 A 
ATOM     17  C   UNL     1     -34.427   2.128  13.768  1.00  0.00     0.047 A 
BRANCH  15  18
ATOM     18  O   UNL     1     -35.485  -0.057  13.779  1.00  0.00    -0.508 OA
ATOM     19  H   UNL     1     -35.118  -0.735  13.121  1.00  0.00     0.293 HD
ENDBRANCH  15  18
ENDBRANCH   1  12
BRANCH   2  20
ATOM     20  O   UNL     1     -33.817   4.323  17.915  1.00  0.00    -0.502 OA
ATOM     21  H   UNL     1     -34.245   3.405  17.929  1.00  0.00     0.293 HD
ENDBRANCH   2  20
BRANCH   6  22
ATOM     22  O   UNL     1     -29.587   7.356  19.049  1.00  0.00    -0.507 OA
ATOM     23  H   UNL     1     -28.840   7.780  19.576  1.00  0.00     0.293 HD
ENDBRANCH   6  22
BRANCH   8  24
ATOM     24  O   UNL     1     -26.658   6.141  15.467  1.00  0.00    -0.508 OA
ATOM     25  H   UNL     1     -26.495   5.803  14.526  1.00  0.00     0.293 HD
ENDBRANCH   8  24
TORSDOF 5
ENDMDL
MODEL 6
REMARK VINA RESULT:    -5.838      2.608      7.027
REMARK INTER + INTRA:          -7.067
REMARK INTER:                  -6.769
REMARK INTRA:                  -0.298
REMARK UNBOUND:                -0.205
REMARK SMILES O=c1c(O)c(-c2ccc(O)cc2)oc2cc(O)cc(O)c12
REMARK SMILES IDX 5 1 3 2 2 3 1 4 21 5 19 6 18 7 16 8 15 9 14 10 13 11 6 12
REMARK SMILES IDX 7 13 8 14 9 15 12 16 11 17 10 18 4 20 20 22 17 24
REMARK H PARENT 10 19 4 21 20 23 17 25
REMARK Flexibility Score: inf
ROOT
ATOM      1  C   UNL     1     -33.712   1.918  15.984  1.00  0.00     0.180 A 
ATOM      2  C   UNL     1     -33.644   2.666  14.796  1.00  0.00     0.208 A 
ATOM      3  C   UNL     1     -33.887   2.021  13.572  1.00  0.00     0.238 A 
ATOM      4  O   UNL     1     -33.897   2.712  12.519  1.00  0.00    -0.285 OA
ATOM      5  C   UNL     1     -34.138   0.629  13.545  1.00  0.00     0.111 A 
ATOM      6  C   UNL     1     -34.353  -0.136  12.359  1.00  0.00     0.134 A 
ATOM      7  C   UNL     1     -34.697  -1.489  12.462  1.00  0.00     0.093 A 
ATOM      8  C   UNL     1     -34.774  -2.121  13.702  1.00  0.00     0.123 A 
ATOM      9  C   UNL     1     -34.512  -1.397  14.865  1.00  0.00     0.094 A 
ATOM     10  C   UNL     1     -34.203  -0.037  14.798  1.00  0.00     0.146 A 
ATOM     11  O   UNL     1     -33.983   0.619  15.930  1.00  0.00    -0.452 OA
ENDROOT
BRANCH   1  12
ATOM     12  C   UNL     1     -33.484   2.528  17.314  1.00  0.00     0.021 A 
ATOM     13  C   UNL     1     -34.531   3.126  18.037  1.00  0.00     0.016 A 
ATOM     14  C   UNL     1     -34.296   3.674  19.301  1.00  0.00     0.047 A 
ATOM     15  C   UNL     1     -33.017   3.620  19.865  1.00  0.00     0.115 A 
ATOM     16  C   UNL     1     -32.207   2.459  17.896  1.00  0.00     0.016 A 
ATOM     17  C   UNL     1     -31.973   3.008  19.160  1.00  0.00     0.047 A 
BRANCH  15  18
ATOM     18  O   UNL     1     -32.797   4.171  21.125  1.00  0.00    -0.508 OA
ATOM     19  H   UNL     1     -33.034   5.135  21.330  1.00  0.00     0.293 HD
ENDBRANCH  15  18
ENDBRANCH   1  12
BRANCH   2  20
ATOM     20  O   UNL     1     -33.318   4.024  14.837  1.00  0.00    -0.502 OA
ATOM     21  H   UNL     1     -32.481   4.396  14.404  1.00  0.00     0.293 HD
ENDBRANCH   2  20
BRANCH   6  22
ATOM     22  O   UNL     1     -34.215   0.373  11.064  1.00  0.00    -0.507 OA
ATOM     23  H   UNL     1     -33.556   0.039  10.378  1.00  0.00     0.293 HD
ENDBRANCH   6  22
BRANCH   8  24
ATOM     24  O   UNL     1     -35.103  -3.474  13.765  1.00  0.00    -0.508 OA
ATOM     25  H   UNL     1     -36.017  -3.783  14.074  1.00  0.00     0.293 HD
ENDBRANCH   8  24
TORSDOF 5
ENDMDL
MODEL 7
REMARK VINA RESULT:    -5.778     12.825     15.615
REMARK INTER + INTRA:          -6.996
REMARK INTER:                  -6.708
REMARK INTRA:                  -0.289
REMARK UNBOUND:                -0.205
REMARK SMILES O=c1c(O)c(-c2ccc(O)cc2)oc2cc(O)cc(O)c12
REMARK SMILES IDX 5 1 3 2 2 3 1 4 21 5 19 6 18 7 16 8 15 9 14 10 13 11 6 12
REMARK SMILES IDX 7 13 8 14 9 15 12 16 11 17 10 18 4 20 20 22 17 24
REMARK H PARENT 10 19 4 21 20 23 17 25
REMARK Flexibility Score: inf
ROOT
ATOM      1  C   UNL     1     -26.883   2.191   2.742  1.00  0.00     0.180 A 
ATOM      2  C   UNL     1     -27.511   2.005   3.985  1.00  0.00     0.208 A 
ATOM      3  C   UNL     1     -27.842   0.702   4.392  1.00  0.00     0.238 A 
ATOM      4  O   UNL     1     -28.337   0.536   5.538  1.00  0.00    -0.285 OA
ATOM      5  C   UNL     1     -27.593  -0.392   3.529  1.00  0.00     0.111 A 
ATOM      6  C   UNL     1     -27.928  -1.749   3.819  1.00  0.00     0.134 A 
ATOM      7  C   UNL     1     -27.537  -2.761   2.934  1.00  0.00     0.093 A 
ATOM      8  C   UNL     1     -26.881  -2.463   1.742  1.00  0.00     0.123 A 
ATOM      9  C   UNL     1     -26.597  -1.135   1.421  1.00  0.00     0.094 A 
ATOM     10  C   UNL     1     -26.940  -0.105   2.301  1.00  0.00     0.146 A 
ATOM     11  O   UNL     1     -26.632   1.142   1.968  1.00  0.00    -0.452 OA
ENDROOT
BRANCH   1  12
ATOM     12  C   UNL     1     -26.490   3.531   2.250  1.00  0.00     0.021 A 
ATOM     13  C   UNL     1     -27.371   4.321   1.489  1.00  0.00     0.016 A 
ATOM     14  C   UNL     1     -26.987   5.593   1.056  1.00  0.00     0.047 A 
ATOM     15  C   UNL     1     -25.726   6.098   1.388  1.00  0.00     0.115 A 
ATOM     16  C   UNL     1     -25.234   4.054   2.598  1.00  0.00     0.016 A 
ATOM     17  C   UNL     1     -24.851   5.327   2.164  1.00  0.00     0.047 A 
BRANCH  15  18
ATOM     18  O   UNL     1     -25.356   7.367   0.949  1.00  0.00    -0.508 OA
ATOM     19  H   UNL     1     -24.394   7.588   0.718  1.00  0.00     0.293 HD
ENDBRANCH  15  18
ENDBRANCH   1  12
BRANCH   2  20
ATOM     20  O   UNL     1     -27.819   3.105   4.790  1.00  0.00    -0.502 OA
ATOM     21  H   UNL     1     -27.290   3.334   5.623  1.00  0.00     0.293 HD
ENDBRANCH   2  20
BRANCH   6  22
ATOM     22  O   UNL     1     -28.660  -2.153   4.940  1.00  0.00    -0.507 OA
ATOM     23  H   UNL     1     -28.929  -1.550   5.702  1.00  0.00     0.293 HD
ENDBRANCH   6  22
BRANCH   8  24
ATOM     24  O   UNL     1     -26.522  -3.494   0.876  1.00  0.00    -0.508 OA
ATOM     25  H   UNL     1     -26.934  -3.581  -0.045  1.00  0.00     0.293 HD
ENDBRANCH   8  24
TORSDOF 5
ENDMDL
MODEL 8
REMARK VINA RESULT:    -5.599      4.366      6.707
REMARK INTER + INTRA:          -6.786
REMARK INTER:                  -6.769
REMARK INTRA:                  -0.017
REMARK UNBOUND:                -0.205
REMARK SMILES O=c1c(O)c(-c2ccc(O)cc2)oc2cc(O)cc(O)c12
REMARK SMILES IDX 5 1 3 2 2 3 1 4 21 5 19 6 18 7 16 8 15 9 14 10 13 11 6 12
REMARK SMILES IDX 7 13 8 14 9 15 12 16 11 17 10 18 4 20 20 22 17 24
REMARK H PARENT 10 19 4 21 20 23 17 25
REMARK Flexibility Score: inf
ROOT
ATOM      1  C   UNL     1     -32.024  -0.249  17.667  1.00  0.00     0.180 A 
ATOM      2  C   UNL     1     -32.012   1.149  17.808  1.00  0.00     0.208 A 
ATOM      3  C   UNL     1     -32.790   1.927  16.936  1.00  0.00     0.238 A 
ATOM      4  O   UNL     1     -32.833   3.173  17.114  1.00  0.00    -0.285 OA
ATOM      5  C   UNL     1     -33.525   1.304  15.898  1.00  0.00     0.111 A 
ATOM      6  C   UNL     1     -34.311   1.997  14.929  1.00  0.00     0.134 A 
ATOM      7  C   UNL     1     -35.080   1.267  14.013  1.00  0.00     0.093 A 
ATOM      8  C   UNL     1     -35.043  -0.126  13.990  1.00  0.00     0.123 A 
ATOM      9  C   UNL     1     -34.235  -0.813  14.897  1.00  0.00     0.094 A 
ATOM     10  C   UNL     1     -33.486  -0.115  15.847  1.00  0.00     0.146 A 
ATOM     11  O   UNL     1     -32.749  -0.808  16.705  1.00  0.00    -0.452 OA
ENDROOT
BRANCH   1  12
ATOM     12  C   UNL     1     -31.242  -1.137  18.557  1.00  0.00     0.021 A 
ATOM     13  C   UNL     1     -31.349  -1.052  19.957  1.00  0.00     0.016 A 
ATOM     14  C   UNL     1     -30.620  -1.918  20.776  1.00  0.00     0.047 A 
ATOM     15  C   UNL     1     -29.785  -2.888  20.211  1.00  0.00     0.115 A 
ATOM     16  C   UNL     1     -30.419  -2.127  17.996  1.00  0.00     0.016 A 
ATOM     17  C   UNL     1     -29.690  -2.993  18.817  1.00  0.00     0.047 A 
BRANCH  15  18
ATOM     18  O   UNL     1     -29.064  -3.743  21.039  1.00  0.00    -0.508 OA
ATOM     19  H   UNL     1     -29.187  -3.734  22.045  1.00  0.00     0.293 HD
ENDBRANCH  15  18
ENDBRANCH   1  12
BRANCH   2  20
ATOM     20  O   UNL     1     -31.220   1.751  18.789  1.00  0.00    -0.502 OA
ATOM     21  H   UNL     1     -30.480   2.406  18.565  1.00  0.00     0.293 HD
ENDBRANCH   2  20
BRANCH   6  22
ATOM     22  O   UNL     1     -34.353   3.389  14.805  1.00  0.00    -0.507 OA
ATOM     23  H   UNL     1     -35.190   3.931  14.652  1.00  0.00     0.293 HD
ENDBRANCH   6  22
BRANCH   8  24
ATOM     24  O   UNL     1     -35.808  -0.819  13.054  1.00  0.00    -0.508 OA
ATOM     25  H   UNL     1     -35.889  -0.501  12.096  1.00  0.00     0.293 HD
ENDBRANCH   8  24
TORSDOF 5
ENDMDL
