MODEL 1
REMARK VINA RESULT:    -6.575      0.000      0.000
REMARK INTER + INTRA:          -8.194
REMARK INTER:                  -7.921
REMARK INTRA:                  -0.274
REMARK UNBOUND:                -0.274
REMARK SMILES O=c1c(O)c(-c2ccc(O)c(O)c2)oc2cc(O)cc(O)c12
REMARK SMILES IDX 5 1 3 2 2 3 1 4 22 5 20 6 19 7 17 8 16 9 15 10 14 11 6 12
REMARK SMILES IDX 7 13 8 14 9 15 13 16 11 17 10 18 12 20 4 22 21 24 18 26
REMARK H PARENT 10 19 12 21 4 23 21 25 18 27
REMARK Flexibility Score: inf
ROOT
ATOM      1  C   UNL     1      -7.829  -6.887  24.324  1.00  0.00     0.180 A 
ATOM      2  C   UNL     1      -7.647  -7.968  23.446  1.00  0.00     0.208 A 
ATOM      3  C   UNL     1      -6.344  -8.311  23.049  1.00  0.00     0.238 A 
ATOM      4  O   UNL     1      -6.192  -9.246  22.220  1.00  0.00    -0.285 OA
ATOM      5  C   UNL     1      -5.240  -7.578  23.547  1.00  0.00     0.111 A 
ATOM      6  C   UNL     1      -3.875  -7.863  23.242  1.00  0.00     0.134 A 
ATOM      7  C   UNL     1      -2.872  -6.993  23.687  1.00  0.00     0.093 A 
ATOM      8  C   UNL     1      -3.178  -5.885  24.477  1.00  0.00     0.123 A 
ATOM      9  C   UNL     1      -4.504  -5.630  24.830  1.00  0.00     0.094 A 
ATOM     10  C   UNL     1      -5.530  -6.460  24.372  1.00  0.00     0.146 A 
ATOM     11  O   UNL     1      -6.779  -6.178  24.721  1.00  0.00    -0.452 OA
ENDROOT
BRANCH   1  12
ATOM     12  C   UNL     1      -9.168  -6.481  24.807  1.00  0.00     0.025 A 
ATOM     13  C   UNL     1      -9.740  -5.287  24.340  1.00  0.00     0.016 A 
ATOM     14  C   UNL     1     -10.994  -4.875  24.798  1.00  0.00     0.051 A 
ATOM     15  C   UNL     1     -11.688  -5.639  25.740  1.00  0.00     0.157 A 
ATOM     16  C   UNL     1      -9.860  -7.238  25.771  1.00  0.00     0.062 A 
ATOM     17  C   UNL     1     -11.117  -6.825  26.233  1.00  0.00     0.158 A 
BRANCH  15  18
ATOM     18  O   UNL     1     -12.939  -5.204  26.177  1.00  0.00    -0.504 OA
ATOM     19  H   UNL     1     -13.193  -4.224  26.189  1.00  0.00     0.293 HD
ENDBRANCH  15  18
BRANCH  17  20
ATOM     20  O   UNL     1     -11.799  -7.584  27.184  1.00  0.00    -0.504 OA
ATOM     21  H   UNL     1     -12.755  -7.885  27.036  1.00  0.00     0.293 HD
ENDBRANCH  17  20
ENDBRANCH   1  12
BRANCH   2  22
ATOM     22  O   UNL     1      -8.752  -8.665  22.948  1.00  0.00    -0.502 OA
ATOM     23  H   UNL     1      -8.889  -9.655  23.110  1.00  0.00     0.293 HD
ENDBRANCH   2  22
BRANCH   6  24
ATOM     24  O   UNL     1      -3.452  -8.994  22.538  1.00  0.00    -0.507 OA
ATOM     25  H   UNL     1      -2.934  -8.972  21.672  1.00  0.00     0.293 HD
ENDBRANCH   6  24
BRANCH   8  26
ATOM     26  O   UNL     1      -2.153  -5.049  24.914  1.00  0.00    -0.508 OA
ATOM     27  H   UNL     1      -1.306  -5.422  25.326  1.00  0.00     0.293 HD
ENDBRANCH   8  26
TORSDOF 6
ENDMDL
MODEL 2
REMARK VINA RESULT:    -6.389      2.654      4.222
REMARK INTER + INTRA:          -7.970
REMARK INTER:                  -8.073
REMARK INTRA:                   0.103
REMARK UNBOUND:                -0.274
REMARK SMILES O=c1c(O)c(-c2ccc(O)c(O)c2)oc2cc(O)cc(O)c12
REMARK SMILES IDX 5 1 3 2 2 3 1 4 22 5 20 6 19 7 17 8 16 9 15 10 14 11 6 12
REMARK SMILES IDX 7 13 8 14 9 15 13 16 11 17 10 18 12 20 4 22 21 24 18 26
REMARK H PARENT 10 19 12 21 4 23 21 25 18 27
REMARK Flexibility Score: inf
ROOT
ATOM      1  C   UNL     1      -4.820  -8.845  23.848  1.00  0.00     0.180 A 
ATOM      2  C   UNL     1      -4.697 -10.154  24.346  1.00  0.00     0.208 A 
ATOM      3  C   UNL     1      -3.418 -10.721  24.462  1.00  0.00     0.238 A 
ATOM      4  O   UNL     1      -3.318 -11.912  24.857  1.00  0.00    -0.285 OA
ATOM      5  C   UNL     1      -2.277  -9.967  24.096  1.00  0.00     0.111 A 
ATOM      6  C   UNL     1      -0.931 -10.428  24.210  1.00  0.00     0.134 A 
ATOM      7  C   UNL     1       0.112  -9.647  23.696  1.00  0.00     0.093 A 
ATOM      8  C   UNL     1      -0.136  -8.396  23.131  1.00  0.00     0.123 A 
ATOM      9  C   UNL     1      -1.442  -7.910  23.067  1.00  0.00     0.094 A 
ATOM     10  C   UNL     1      -2.508  -8.681  23.539  1.00  0.00     0.146 A 
ATOM     11  O   UNL     1      -3.736  -8.188  23.451  1.00  0.00    -0.452 OA
ENDROOT
BRANCH   1  12
ATOM     12  C   UNL     1      -6.131  -8.171  23.720  1.00  0.00     0.025 A 
ATOM     13  C   UNL     1      -7.207  -8.858  23.136  1.00  0.00     0.016 A 
ATOM     14  C   UNL     1      -8.449  -8.233  22.986  1.00  0.00     0.051 A 
ATOM     15  C   UNL     1      -8.629  -6.911  23.401  1.00  0.00     0.157 A 
ATOM     16  C   UNL     1      -6.310  -6.833  24.118  1.00  0.00     0.062 A 
ATOM     17  C   UNL     1      -7.554  -6.205  23.966  1.00  0.00     0.158 A 
BRANCH  15  18
ATOM     18  O   UNL     1      -9.879  -6.315  23.241  1.00  0.00    -0.504 OA
ATOM     19  H   UNL     1     -10.200  -5.969  22.344  1.00  0.00     0.293 HD
ENDBRANCH  15  18
BRANCH  17  20
ATOM     20  O   UNL     1      -7.724  -4.881  24.369  1.00  0.00    -0.504 OA
ATOM     21  H   UNL     1      -7.572  -4.108  23.731  1.00  0.00     0.293 HD
ENDBRANCH  17  20
ENDBRANCH   1  12
BRANCH   2  22
ATOM     22  O   UNL     1      -5.838 -10.889  24.681  1.00  0.00    -0.502 OA
ATOM     23  H   UNL     1      -5.868 -11.899  24.629  1.00  0.00     0.293 HD
ENDBRANCH   2  22
BRANCH   6  24
ATOM     24  O   UNL     1      -0.565 -11.620  24.841  1.00  0.00    -0.507 OA
ATOM     25  H   UNL     1       0.122 -12.270  24.488  1.00  0.00     0.293 HD
ENDBRANCH   6  24
BRANCH   8  26
ATOM     26  O   UNL     1       0.928  -7.640  22.643  1.00  0.00    -0.508 OA
ATOM     27  H   UNL     1       1.757  -7.472  23.201  1.00  0.00     0.293 HD
ENDBRANCH   8  26
TORSDOF 6
ENDMDL
MODEL 3
REMARK VINA RESULT:    -6.266      2.571      7.289
REMARK INTER + INTRA:          -7.822
REMARK INTER:                  -7.502
REMARK INTRA:                  -0.320
REMARK UNBOUND:                -0.274
REMARK SMILES O=c1c(O)c(-c2ccc(O)c(O)c2)oc2cc(O)cc(O)c12
REMARK SMILES IDX 5 1 3 2 2 3 1 4 22 5 20 6 19 7 17 8 16 9 15 10 14 11 6 12
REMARK SMILES IDX 7 13 8 14 9 15 13 16 11 17 10 18 12 20 4 22 21 24 18 26
REMARK H PARENT 10 19 12 21 4 23 21 25 18 27
REMARK Flexibility Score: inf
ROOT
ATOM      1  C   UNL     1      -5.783  -9.077  23.584  1.00  0.00     0.180 A 
ATOM      2  C   UNL     1      -5.628  -7.802  23.013  1.00  0.00     0.208 A 
ATOM      3  C   UNL     1      -6.625  -6.836  23.222  1.00  0.00     0.238 A 
ATOM      4  O   UNL     1      -6.507  -5.714  22.664  1.00  0.00    -0.285 OA
ATOM      5  C   UNL     1      -7.758  -7.152  24.011  1.00  0.00     0.111 A 
ATOM      6  C   UNL     1      -8.810  -6.238  24.321  1.00  0.00     0.134 A 
ATOM      7  C   UNL     1      -9.944  -6.697  25.002  1.00  0.00     0.093 A 
ATOM      8  C   UNL     1     -10.037  -8.018  25.440  1.00  0.00     0.123 A 
ATOM      9  C   UNL     1      -8.988  -8.905  25.194  1.00  0.00     0.094 A 
ATOM     10  C   UNL     1      -7.859  -8.486  24.486  1.00  0.00     0.146 A 
ATOM     11  O   UNL     1      -6.888  -9.363  24.263  1.00  0.00    -0.452 OA
ENDROOT
BRANCH   1  12
ATOM     12  C   UNL     1      -4.764 -10.139  23.429  1.00  0.00     0.025 A 
ATOM     13  C   UNL     1      -4.818 -10.992  22.315  1.00  0.00     0.016 A 
ATOM     14  C   UNL     1      -3.878 -12.014  22.160  1.00  0.00     0.051 A 
ATOM     15  C   UNL     1      -2.881 -12.210  23.120  1.00  0.00     0.157 A 
ATOM     16  C   UNL     1      -3.773 -10.350  24.404  1.00  0.00     0.062 A 
ATOM     17  C   UNL     1      -2.830 -11.377  24.251  1.00  0.00     0.158 A 
BRANCH  15  18
ATOM     18  O   UNL     1      -1.956 -13.236  22.937  1.00  0.00    -0.504 OA
ATOM     19  H   UNL     1      -1.311 -13.516  23.667  1.00  0.00     0.293 HD
ENDBRANCH  15  18
BRANCH  17  20
ATOM     20  O   UNL     1      -1.847 -11.576  25.219  1.00  0.00    -0.504 OA
ATOM     21  H   UNL     1      -1.335 -10.800  25.623  1.00  0.00     0.293 HD
ENDBRANCH  17  20
ENDBRANCH   1  12
BRANCH   2  22
ATOM     22  O   UNL     1      -4.513  -7.518  22.219  1.00  0.00    -0.502 OA
ATOM     23  H   UNL     1      -3.725  -6.982  22.560  1.00  0.00     0.293 HD
ENDBRANCH   2  22
BRANCH   6  24
ATOM     24  O   UNL     1      -8.776  -4.875  24.012  1.00  0.00    -0.507 OA
ATOM     25  H   UNL     1      -9.200  -4.460  23.195  1.00  0.00     0.293 HD
ENDBRANCH   6  24
BRANCH   8  26
ATOM     26  O   UNL     1     -11.175  -8.435  26.128  1.00  0.00    -0.508 OA
ATOM     27  H   UNL     1     -12.077  -8.495  25.670  1.00  0.00     0.293 HD
ENDBRANCH   8  26
TORSDOF 6
ENDMDL
MODEL 4
REMARK VINA RESULT:    -6.119      2.981      5.174
REMARK INTER + INTRA:          -7.645
REMARK INTER:                  -7.505
REMARK INTRA:                  -0.140
REMARK UNBOUND:                -0.274
REMARK SMILES O=c1c(O)c(-c2ccc(O)c(O)c2)oc2cc(O)cc(O)c12
REMARK SMILES IDX 5 1 3 2 2 3 1 4 22 5 20 6 19 7 17 8 16 9 15 10 14 11 6 12
REMARK SMILES IDX 7 13 8 14 9 15 13 16 11 17 10 18 12 20 4 22 21 24 18 26
REMARK H PARENT 10 19 12 21 4 23 21 25 18 27
REMARK Flexibility Score: inf
ROOT
ATOM      1  C   UNL     1      -4.808  -8.755  23.784  1.00  0.00     0.180 A 
ATOM      2  C   UNL     1      -3.735  -8.207  24.508  1.00  0.00     0.208 A 
ATOM      3  C   UNL     1      -2.515  -8.901  24.548  1.00  0.00     0.238 A 
ATOM      4  O   UNL     1      -1.575  -8.433  25.242  1.00  0.00    -0.285 OA
ATOM      5  C   UNL     1      -2.379 -10.126  23.852  1.00  0.00     0.111 A 
ATOM      6  C   UNL     1      -1.176 -10.894  23.791  1.00  0.00     0.134 A 
ATOM      7  C   UNL     1      -1.192 -12.155  23.181  1.00  0.00     0.093 A 
ATOM      8  C   UNL     1      -2.348 -12.647  22.575  1.00  0.00     0.123 A 
ATOM      9  C   UNL     1      -3.513 -11.879  22.576  1.00  0.00     0.094 A 
ATOM     10  C   UNL     1      -3.538 -10.633  23.208  1.00  0.00     0.146 A 
ATOM     11  O   UNL     1      -4.668  -9.938  23.196  1.00  0.00    -0.452 OA
ENDROOT
BRANCH   1  12
ATOM     12  C   UNL     1      -6.116  -8.071  23.675  1.00  0.00     0.025 A 
ATOM     13  C   UNL     1      -7.280  -8.734  24.094  1.00  0.00     0.016 A 
ATOM     14  C   UNL     1      -8.528  -8.114  23.980  1.00  0.00     0.051 A 
ATOM     15  C   UNL     1      -8.633  -6.832  23.434  1.00  0.00     0.157 A 
ATOM     16  C   UNL     1      -6.227  -6.789  23.106  1.00  0.00     0.062 A 
ATOM     17  C   UNL     1      -7.478  -6.167  22.989  1.00  0.00     0.158 A 
BRANCH  15  18
ATOM     18  O   UNL     1      -9.891  -6.238  23.335  1.00  0.00    -0.504 OA
ATOM     19  H   UNL     1     -10.040  -5.375  22.826  1.00  0.00     0.293 HD
ENDBRANCH  15  18
BRANCH  17  20
ATOM     20  O   UNL     1      -7.578  -4.894  22.430  1.00  0.00    -0.504 OA
ATOM     21  H   UNL     1      -7.192  -4.079  22.892  1.00  0.00     0.293 HD
ENDBRANCH  17  20
ENDBRANCH   1  12
BRANCH   2  22
ATOM     22  O   UNL     1      -3.898  -7.007  25.207  1.00  0.00    -0.502 OA
ATOM     23  H   UNL     1      -3.830  -6.952  26.215  1.00  0.00     0.293 HD
ENDBRANCH   2  22
BRANCH   6  24
ATOM     24  O   UNL     1       0.056 -10.455  24.284  1.00  0.00    -0.507 OA
ATOM     25  H   UNL     1       0.173  -9.735  24.981  1.00  0.00     0.293 HD
ENDBRANCH   6  24
BRANCH   8  26
ATOM     26  O   UNL     1      -2.323 -13.899  21.964  1.00  0.00    -0.508 OA
ATOM     27  H   UNL     1      -2.711 -14.044  21.040  1.00  0.00     0.293 HD
ENDBRANCH   8  26
TORSDOF 6
ENDMDL
MODEL 5
REMARK VINA RESULT:    -6.109      2.769      4.659
REMARK INTER + INTRA:          -7.632
REMARK INTER:                  -7.655
REMARK INTRA:                   0.023
REMARK UNBOUND:                -0.274
REMARK SMILES O=c1c(O)c(-c2ccc(O)c(O)c2)oc2cc(O)cc(O)c12
REMARK SMILES IDX 5 1 3 2 2 3 1 4 22 5 20 6 19 7 17 8 16 9 15 10 14 11 6 12
REMARK SMILES IDX 7 13 8 14 9 15 13 16 11 17 10 18 12 20 4 22 21 24 18 26
REMARK H PARENT 10 19 12 21 4 23 21 25 18 27
REMARK Flexibility Score: inf
ROOT
ATOM      1  C   UNL     1      -4.984  -8.454  23.780  1.00  0.00     0.180 A 
ATOM      2  C   UNL     1      -3.871  -7.848  24.387  1.00  0.00     0.208 A 
ATOM      3  C   UNL     1      -2.640  -8.525  24.382  1.00  0.00     0.238 A 
ATOM      4  O   UNL     1      -1.661  -8.002  24.975  1.00  0.00    -0.285 OA
ATOM      5  C   UNL     1      -2.535  -9.791  23.757  1.00  0.00     0.111 A 
ATOM      6  C   UNL     1      -1.328 -10.547  23.657  1.00  0.00     0.134 A 
ATOM      7  C   UNL     1      -1.368 -11.844  23.132  1.00  0.00     0.093 A 
ATOM      8  C   UNL     1      -2.556 -12.388  22.643  1.00  0.00     0.123 A 
ATOM      9  C   UNL     1      -3.730 -11.634  22.681  1.00  0.00     0.094 A 
ATOM     10  C   UNL     1      -3.729 -10.350  23.232  1.00  0.00     0.146 A 
ATOM     11  O   UNL     1      -4.868  -9.671  23.260  1.00  0.00    -0.452 OA
ENDROOT
BRANCH   1  12
ATOM     12  C   UNL     1      -6.307  -7.793  23.723  1.00  0.00     0.025 A 
ATOM     13  C   UNL     1      -6.397  -6.464  23.280  1.00  0.00     0.016 A 
ATOM     14  C   UNL     1      -7.634  -5.814  23.238  1.00  0.00     0.051 A 
ATOM     15  C   UNL     1      -8.794  -6.475  23.651  1.00  0.00     0.157 A 
ATOM     16  C   UNL     1      -7.473  -8.449  24.157  1.00  0.00     0.062 A 
ATOM     17  C   UNL     1      -8.714  -7.798  24.118  1.00  0.00     0.158 A 
BRANCH  15  18
ATOM     18  O   UNL     1     -10.014  -5.802  23.596  1.00  0.00    -0.504 OA
ATOM     19  H   UNL     1     -10.874  -6.218  23.933  1.00  0.00     0.293 HD
ENDBRANCH  15  18
BRANCH  17  20
ATOM     20  O   UNL     1      -9.866  -8.458  24.545  1.00  0.00    -0.504 OA
ATOM     21  H   UNL     1     -10.718  -7.953  24.758  1.00  0.00     0.293 HD
ENDBRANCH  17  20
ENDBRANCH   1  12
BRANCH   2  22
ATOM     22  O   UNL     1      -4.002  -6.608  25.019  1.00  0.00    -0.502 OA
ATOM     23  H   UNL     1      -4.163  -5.751  24.505  1.00  0.00     0.293 HD
ENDBRANCH   2  22
BRANCH   6  24
ATOM     24  O   UNL     1      -0.071 -10.064  24.031  1.00  0.00    -0.507 OA
ATOM     25  H   UNL     1       0.093  -9.397  24.770  1.00  0.00     0.293 HD
ENDBRANCH   6  24
BRANCH   8  26
ATOM     26  O   UNL     1      -2.555 -13.676  22.113  1.00  0.00    -0.508 OA
ATOM     27  H   UNL     1      -3.397 -14.240  22.093  1.00  0.00     0.293 HD
ENDBRANCH   8  26
TORSDOF 6
ENDMDL
MODEL 6
REMARK VINA RESULT:    -5.886      1.307      2.954
REMARK INTER + INTRA:          -7.364
REMARK INTER:                  -7.365
REMARK INTRA:                   0.002
REMARK UNBOUND:                -0.274
REMARK SMILES O=c1c(O)c(-c2ccc(O)c(O)c2)oc2cc(O)cc(O)c12
REMARK SMILES IDX 5 1 3 2 2 3 1 4 22 5 20 6 19 7 17 8 16 9 15 10 14 11 6 12
REMARK SMILES IDX 7 13 8 14 9 15 13 16 11 17 10 18 12 20 4 22 21 24 18 26
REMARK H PARENT 10 19 12 21 4 23 21 25 18 27
REMARK Flexibility Score: inf
ROOT
ATOM      1  C   UNL     1      -7.733  -7.026  24.505  1.00  0.00     0.180 A 
ATOM      2  C   UNL     1      -6.647  -6.140  24.616  1.00  0.00     0.208 A 
ATOM      3  C   UNL     1      -5.380  -6.557  24.176  1.00  0.00     0.238 A 
ATOM      4  O   UNL     1      -4.402  -5.779  24.328  1.00  0.00    -0.285 OA
ATOM      5  C   UNL     1      -5.218  -7.847  23.616  1.00  0.00     0.111 A 
ATOM      6  C   UNL     1      -3.988  -8.358  23.101  1.00  0.00     0.134 A 
ATOM      7  C   UNL     1      -3.915  -9.694  22.690  1.00  0.00     0.093 A 
ATOM      8  C   UNL     1      -5.039 -10.519  22.715  1.00  0.00     0.123 A 
ATOM      9  C   UNL     1      -6.261 -10.012  23.160  1.00  0.00     0.094 A 
ATOM     10  C   UNL     1      -6.358  -8.693  23.610  1.00  0.00     0.146 A 
ATOM     11  O   UNL     1      -7.535  -8.253  24.036  1.00  0.00    -0.452 OA
ENDROOT
BRANCH   1  12
ATOM     12  C   UNL     1      -9.102  -6.650  24.924  1.00  0.00     0.025 A 
ATOM     13  C   UNL     1      -9.664  -5.453  24.455  1.00  0.00     0.016 A 
ATOM     14  C   UNL     1     -10.947  -5.069  24.855  1.00  0.00     0.051 A 
ATOM     15  C   UNL     1     -11.680  -5.866  25.738  1.00  0.00     0.157 A 
ATOM     16  C   UNL     1      -9.833  -7.441  25.829  1.00  0.00     0.062 A 
ATOM     17  C   UNL     1     -11.120  -7.056  26.232  1.00  0.00     0.158 A 
BRANCH  15  18
ATOM     18  O   UNL     1     -12.959  -5.459  26.117  1.00  0.00    -0.504 OA
ATOM     19  H   UNL     1     -13.299  -4.521  25.941  1.00  0.00     0.293 HD
ENDBRANCH  15  18
BRANCH  17  20
ATOM     20  O   UNL     1     -11.840  -7.848  27.125  1.00  0.00    -0.504 OA
ATOM     21  H   UNL     1     -12.551  -7.454  27.730  1.00  0.00     0.293 HD
ENDBRANCH  17  20
ENDBRANCH   1  12
BRANCH   2  22
ATOM     22  O   UNL     1      -6.824  -4.879  25.192  1.00  0.00    -0.502 OA
ATOM     23  H   UNL     1      -6.850  -4.029  24.643  1.00  0.00     0.293 HD
ENDBRANCH   2  22
BRANCH   6  24
ATOM     24  O   UNL     1      -2.829  -7.593  22.947  1.00  0.00    -0.507 OA
ATOM     25  H   UNL     1      -1.922  -7.843  23.312  1.00  0.00     0.293 HD
ENDBRANCH   6  24
BRANCH   8  26
ATOM     26  O   UNL     1      -4.932 -11.840  22.283  1.00  0.00    -0.508 OA
ATOM     27  H   UNL     1      -4.116 -12.401  22.495  1.00  0.00     0.293 HD
ENDBRANCH   8  26
TORSDOF 6
ENDMDL
MODEL 7
REMARK VINA RESULT:    -5.873      2.526      7.228
REMARK INTER + INTRA:          -7.348
REMARK INTER:                  -7.227
REMARK INTRA:                  -0.121
REMARK UNBOUND:                -0.274
REMARK SMILES O=c1c(O)c(-c2ccc(O)c(O)c2)oc2cc(O)cc(O)c12
REMARK SMILES IDX 5 1 3 2 2 3 1 4 22 5 20 6 19 7 17 8 16 9 15 10 14 11 6 12
REMARK SMILES IDX 7 13 8 14 9 15 13 16 11 17 10 18 12 20 4 22 21 24 18 26
REMARK H PARENT 10 19 12 21 4 23 21 25 18 27
REMARK Flexibility Score: inf
ROOT
ATOM      1  C   UNL     1      -5.066  -8.443  23.867  1.00  0.00     0.180 A 
ATOM      2  C   UNL     1      -4.972  -7.355  22.981  1.00  0.00     0.208 A 
ATOM      3  C   UNL     1      -6.109  -6.562  22.755  1.00  0.00     0.238 A 
ATOM      4  O   UNL     1      -6.034  -5.623  21.919  1.00  0.00    -0.285 OA
ATOM      5  C   UNL     1      -7.319  -6.857  23.428  1.00  0.00     0.111 A 
ATOM      6  C   UNL     1      -8.521  -6.096  23.304  1.00  0.00     0.134 A 
ATOM      7  C   UNL     1      -9.694  -6.554  23.915  1.00  0.00     0.093 A 
ATOM      8  C   UNL     1      -9.695  -7.709  24.697  1.00  0.00     0.123 A 
ATOM      9  C   UNL     1      -8.512  -8.428  24.874  1.00  0.00     0.094 A 
ATOM     10  C   UNL     1      -7.333  -8.015  24.248  1.00  0.00     0.146 A 
ATOM     11  O   UNL     1      -6.232  -8.732  24.432  1.00  0.00    -0.452 OA
ENDROOT
BRANCH   1  12
ATOM     12  C   UNL     1      -3.906  -9.309  24.176  1.00  0.00     0.025 A 
ATOM     13  C   UNL     1      -2.757  -8.746  24.752  1.00  0.00     0.016 A 
ATOM     14  C   UNL     1      -1.643  -9.542  25.033  1.00  0.00     0.051 A 
ATOM     15  C   UNL     1      -1.654 -10.905  24.729  1.00  0.00     0.157 A 
ATOM     16  C   UNL     1      -3.907 -10.678  23.851  1.00  0.00     0.062 A 
ATOM     17  C   UNL     1      -2.790 -11.477  24.130  1.00  0.00     0.158 A 
BRANCH  15  18
ATOM     18  O   UNL     1      -0.528 -11.675  25.022  1.00  0.00    -0.504 OA
ATOM     19  H   UNL     1       0.362 -11.256  25.264  1.00  0.00     0.293 HD
ENDBRANCH  15  18
BRANCH  17  20
ATOM     20  O   UNL     1      -2.801 -12.834  23.811  1.00  0.00    -0.504 OA
ATOM     21  H   UNL     1      -2.456 -13.172  22.920  1.00  0.00     0.293 HD
ENDBRANCH  17  20
ENDBRANCH   1  12
BRANCH   2  22
ATOM     22  O   UNL     1      -3.774  -7.095  22.310  1.00  0.00    -0.502 OA
ATOM     23  H   UNL     1      -3.434  -6.156  22.149  1.00  0.00     0.293 HD
ENDBRANCH   2  22
BRANCH   6  24
ATOM     24  O   UNL     1      -8.607  -4.879  22.622  1.00  0.00    -0.507 OA
ATOM     25  H   UNL     1      -8.707  -3.977  23.064  1.00  0.00     0.293 HD
ENDBRANCH   6  24
BRANCH   8  26
ATOM     26  O   UNL     1     -10.878  -8.127  25.304  1.00  0.00    -0.508 OA
ATOM     27  H   UNL     1     -11.176  -7.752  26.196  1.00  0.00     0.293 HD
ENDBRANCH   8  26
TORSDOF 6
ENDMDL
MODEL 8
REMARK VINA RESULT:    -5.822      2.596      4.088
REMARK INTER + INTRA:          -7.287
REMARK INTER:                  -7.417
REMARK INTRA:                   0.130
REMARK UNBOUND:                -0.274
REMARK SMILES O=c1c(O)c(-c2ccc(O)c(O)c2)oc2cc(O)cc(O)c12
REMARK SMILES IDX 5 1 3 2 2 3 1 4 22 5 20 6 19 7 17 8 16 9 15 10 14 11 6 12
REMARK SMILES IDX 7 13 8 14 9 15 13 16 11 17 10 18 12 20 4 22 21 24 18 26
REMARK H PARENT 10 19 12 21 4 23 21 25 18 27
REMARK Flexibility Score: inf
ROOT
ATOM      1  C   UNL     1      -4.618  -8.798  23.719  1.00  0.00     0.180 A 
ATOM      2  C   UNL     1      -4.040 -10.067  23.541  1.00  0.00     0.208 A 
ATOM      3  C   UNL     1      -2.646 -10.167  23.406  1.00  0.00     0.238 A 
ATOM      4  O   UNL     1      -2.139 -11.300  23.193  1.00  0.00    -0.285 OA
ATOM      5  C   UNL     1      -1.846  -9.000  23.466  1.00  0.00     0.111 A 
ATOM      6  C   UNL     1      -0.421  -8.990  23.382  1.00  0.00     0.134 A 
ATOM      7  C   UNL     1       0.257  -7.766  23.323  1.00  0.00     0.093 A 
ATOM      8  C   UNL     1      -0.430  -6.556  23.410  1.00  0.00     0.123 A 
ATOM      9  C   UNL     1      -1.819  -6.556  23.553  1.00  0.00     0.094 A 
ATOM     10  C   UNL     1      -2.527  -7.760  23.579  1.00  0.00     0.146 A 
ATOM     11  O   UNL     1      -3.847  -7.717  23.705  1.00  0.00    -0.452 OA
ENDROOT
BRANCH   1  12
ATOM     12  C   UNL     1      -6.076  -8.614  23.893  1.00  0.00     0.025 A 
ATOM     13  C   UNL     1      -6.793  -9.503  24.710  1.00  0.00     0.016 A 
ATOM     14  C   UNL     1      -8.174  -9.360  24.871  1.00  0.00     0.051 A 
ATOM     15  C   UNL     1      -8.861  -8.339  24.210  1.00  0.00     0.157 A 
ATOM     16  C   UNL     1      -6.773  -7.600  23.212  1.00  0.00     0.062 A 
ATOM     17  C   UNL     1      -8.159  -7.456  23.371  1.00  0.00     0.158 A 
BRANCH  15  18
ATOM     18  O   UNL     1     -10.238  -8.220  24.392  1.00  0.00    -0.504 OA
ATOM     19  H   UNL     1     -10.898  -8.829  23.923  1.00  0.00     0.293 HD
ENDBRANCH  15  18
BRANCH  17  20
ATOM     20  O   UNL     1      -8.841  -6.444  22.697  1.00  0.00    -0.504 OA
ATOM     21  H   UNL     1      -8.690  -6.270  21.710  1.00  0.00     0.293 HD
ENDBRANCH  17  20
ENDBRANCH   1  12
BRANCH   2  22
ATOM     22  O   UNL     1      -4.849 -11.204  23.462  1.00  0.00    -0.502 OA
ATOM     23  H   UNL     1      -5.374 -11.441  22.629  1.00  0.00     0.293 HD
ENDBRANCH   2  22
BRANCH   6  24
ATOM     24  O   UNL     1       0.369 -10.142  23.382  1.00  0.00    -0.507 OA
ATOM     25  H   UNL     1       1.375 -10.150  23.301  1.00  0.00     0.293 HD
ENDBRANCH   6  24
BRANCH   8  26
ATOM     26  O   UNL     1       0.279  -5.357  23.363  1.00  0.00    -0.508 OA
ATOM     27  H   UNL     1       1.245  -5.303  23.664  1.00  0.00     0.293 HD
ENDBRANCH   8  26
TORSDOF 6
ENDMDL
MODEL 9
REMARK VINA RESULT:    -5.794      2.471      7.248
REMARK INTER + INTRA:          -7.254
REMARK INTER:                  -7.028
REMARK INTRA:                  -0.226
REMARK UNBOUND:                -0.274
REMARK SMILES O=c1c(O)c(-c2ccc(O)c(O)c2)oc2cc(O)cc(O)c12
REMARK SMILES IDX 5 1 3 2 2 3 1 4 22 5 20 6 19 7 17 8 16 9 15 10 14 11 6 12
REMARK SMILES IDX 7 13 8 14 9 15 13 16 11 17 10 18 12 20 4 22 21 24 18 26
REMARK H PARENT 10 19 12 21 4 23 21 25 18 27
REMARK Flexibility Score: inf
ROOT
ATOM      1  C   UNL     1      -4.200  -7.480  23.907  1.00  0.00     0.180 A 
ATOM      2  C   UNL     1      -4.655  -8.735  24.348  1.00  0.00     0.208 A 
ATOM      3  C   UNL     1      -6.030  -9.014  24.305  1.00  0.00     0.238 A 
ATOM      4  O   UNL     1      -6.437 -10.119  24.752  1.00  0.00    -0.285 OA
ATOM      5  C   UNL     1      -6.931  -8.042  23.807  1.00  0.00     0.111 A 
ATOM      6  C   UNL     1      -8.341  -8.234  23.681  1.00  0.00     0.134 A 
ATOM      7  C   UNL     1      -9.152  -7.158  23.299  1.00  0.00     0.093 A 
ATOM      8  C   UNL     1      -8.600  -5.919  22.976  1.00  0.00     0.123 A 
ATOM      9  C   UNL     1      -7.217  -5.738  23.038  1.00  0.00     0.094 A 
ATOM     10  C   UNL     1      -6.385  -6.782  23.451  1.00  0.00     0.146 A 
ATOM     11  O   UNL     1      -5.077  -6.566  23.508  1.00  0.00    -0.452 OA
ENDROOT
BRANCH   1  12
ATOM     12  C   UNL     1      -2.764  -7.121  23.898  1.00  0.00     0.025 A 
ATOM     13  C   UNL     1      -1.903  -7.739  22.978  1.00  0.00     0.016 A 
ATOM     14  C   UNL     1      -0.540  -7.429  22.967  1.00  0.00     0.051 A 
ATOM     15  C   UNL     1      -0.015  -6.512  23.882  1.00  0.00     0.157 A 
ATOM     16  C   UNL     1      -2.231  -6.213  24.831  1.00  0.00     0.062 A 
ATOM     17  C   UNL     1      -0.863  -5.904  24.822  1.00  0.00     0.158 A 
BRANCH  15  18
ATOM     18  O   UNL     1       1.348  -6.222  23.845  1.00  0.00    -0.504 OA
ATOM     19  H   UNL     1       1.700  -5.278  23.948  1.00  0.00     0.293 HD
ENDBRANCH  15  18
BRANCH  17  20
ATOM     20  O   UNL     1      -0.344  -4.999  25.747  1.00  0.00    -0.504 OA
ATOM     21  H   UNL     1      -0.252  -4.013  25.531  1.00  0.00     0.293 HD
ENDBRANCH  17  20
ENDBRANCH   1  12
BRANCH   2  22
ATOM     22  O   UNL     1      -3.751  -9.672  24.856  1.00  0.00    -0.502 OA
ATOM     23  H   UNL     1      -2.926  -9.963  24.347  1.00  0.00     0.293 HD
ENDBRANCH   2  22
BRANCH   6  24
ATOM     24  O   UNL     1      -8.984  -9.457  23.890  1.00  0.00    -0.507 OA
ATOM     25  H   UNL     1      -9.982  -9.574  23.978  1.00  0.00     0.293 HD
ENDBRANCH   6  24
BRANCH   8  26
ATOM     26  O   UNL     1      -9.436  -4.875  22.584  1.00  0.00    -0.508 OA
ATOM     27  H   UNL     1      -9.521  -4.030  23.137  1.00  0.00     0.293 HD
ENDBRANCH   8  26
TORSDOF 6
ENDMDL
