MODEL 1
REMARK VINA RESULT:    15.159      0.000      0.000
REMARK INTER + INTRA:          23.927
REMARK INTER:                  22.248
REMARK INTRA:                   1.679
REMARK UNBOUND:                 1.679
REMARK SMILES O=c1c(O[C@@H]2O[C@@H](CO)[C@@H](O)[C@H](O)[C@H]2O)c(-c2ccc(O)c(O)c2)oc2cc(O)cc(O)c12
REMARK SMILES IDX 4 1 3 2 16 3 25 4 2 5 26 6 1 7 33 8 27 9 31 10 28 11 30 12
REMARK SMILES IDX 17 13 18 14 19 15 20 16 24 17 22 18 21 19 23 21 32 23 29 25
REMARK SMILES IDX 5 27 14 28 6 29 12 30 7 31 10 32 15 33 13 35 8 37 9 38 11 40
REMARK H PARENT 21 20 23 22 32 24 29 26 15 34 13 36 9 39 11 41
REMARK Flexibility Score: inf
ROOT
ATOM      1  O   UNL     1     109.931 107.862 109.459  1.00  0.00    -0.454 OA
ENDROOT
BRANCH   1   2
ATOM      2  C   UNL     1     110.533 108.359 108.293  1.00  0.00     0.214 A 
ATOM      3  C   UNL     1     110.265 107.833 107.008  1.00  0.00     0.180 A 
ATOM      4  O   UNL     1     110.738 108.455 105.931  1.00  0.00    -0.452 OA
ATOM      5  C   UNL     1     111.422 109.435 108.401  1.00  0.00     0.239 A 
ATOM      6  C   UNL     1     111.512 109.535 105.990  1.00  0.00     0.146 A 
ATOM      7  O   UNL     1     111.765 109.834 109.546  1.00  0.00    -0.285 OA
ATOM      8  C   UNL     1     111.901 110.069 107.239  1.00  0.00     0.111 A 
ATOM      9  C   UNL     1     111.943 110.136 104.801  1.00  0.00     0.094 A 
ATOM     10  C   UNL     1     112.719 111.223 107.272  1.00  0.00     0.134 A 
ATOM     11  C   UNL     1     112.735 111.289 104.840  1.00  0.00     0.123 A 
ATOM     12  C   UNL     1     113.122 111.825 106.071  1.00  0.00     0.093 A 
BRANCH   3  13
ATOM     13  C   UNL     1     109.512 106.576 106.798  1.00  0.00     0.025 A 
ATOM     14  C   UNL     1     108.166 106.627 106.400  1.00  0.00     0.016 A 
ATOM     15  C   UNL     1     107.454 105.445 106.162  1.00  0.00     0.051 A 
ATOM     16  C   UNL     1     108.080 104.199 106.315  1.00  0.00     0.157 A 
ATOM     17  C   UNL     1     110.142 105.324 106.920  1.00  0.00     0.062 A 
ATOM     18  C   UNL     1     109.425 104.139 106.698  1.00  0.00     0.158 A 
BRANCH  16  19
ATOM     19  O   UNL     1     107.371 103.019 106.095  1.00  0.00    -0.504 OA
ATOM     20  H   UNL     1     107.808 102.207 105.673  1.00  0.00     0.293 HD
ENDBRANCH  16  19
BRANCH  18  21
ATOM     21  O   UNL     1     110.042 102.900 106.862  1.00  0.00    -0.504 OA
ATOM     22  H   UNL     1     109.916 102.353 107.708  1.00  0.00     0.293 HD
ENDBRANCH  18  21
ENDBRANCH   3  13
BRANCH  10  23
ATOM     23  O   UNL     1     113.123 111.780 108.486  1.00  0.00    -0.507 OA
ATOM     24  H   UNL     1     113.662 112.635 108.534  1.00  0.00     0.293 HD
ENDBRANCH  10  23
BRANCH  11  25
ATOM     25  O   UNL     1     113.125 111.929 103.669  1.00  0.00    -0.508 OA
ATOM     26  H   UNL     1     114.097 112.080 103.436  1.00  0.00     0.293 HD
ENDBRANCH  11  25
ENDBRANCH   1   2
BRANCH   1  27
ATOM     27  C   UNL     1     109.133 108.660 110.348  1.00  0.00     0.339 C 
ATOM     28  C   UNL     1     108.399 107.762 111.372  1.00  0.00     0.214 C 
ATOM     29  O   UNL     1     109.905 109.672 110.982  1.00  0.00    -0.332 OA
ATOM     30  C   UNL     1     109.368 107.220 112.441  1.00  0.00     0.180 C 
ATOM     31  C   UNL     1     110.897 109.123 111.834  1.00  0.00     0.179 C 
ATOM     32  C   UNL     1     110.251 108.350 113.002  1.00  0.00     0.177 C 
BRANCH  28  33
ATOM     33  O   UNL     1     107.376 108.491 111.999  1.00  0.00    -0.384 OA
ATOM     34  H   UNL     1     107.581 108.499 112.972  1.00  0.00     0.211 HD
ENDBRANCH  28  33
BRANCH  30  35
ATOM     35  O   UNL     1     110.189 106.224 111.879  1.00  0.00    -0.387 OA
ATOM     36  H   UNL     1     109.770 105.949 111.021  1.00  0.00     0.211 HD
ENDBRANCH  30  35
BRANCH  31  37
ATOM     37  C   UNL     1     111.801 110.261 112.334  1.00  0.00     0.191 C 
BRANCH  37  38
ATOM     38  O   UNL     1     111.572 111.441 111.613  1.00  0.00    -0.394 OA
ATOM     39  H   UNL     1     111.534 112.175 112.281  1.00  0.00     0.210 HD
ENDBRANCH  37  38
ENDBRANCH  31  37
BRANCH  32  40
ATOM     40  O   UNL     1     109.480 109.224 113.789  1.00  0.00    -0.387 OA
ATOM     41  H   UNL     1     109.938 109.297 114.668  1.00  0.00     0.211 HD
ENDBRANCH  32  40
ENDBRANCH   1  27
TORSDOF 12
ENDMDL
MODEL 2
REMARK VINA RESULT:    16.447      1.264      1.912
REMARK INTER + INTRA:          25.817
REMARK INTER:                  20.960
REMARK INTRA:                   4.857
REMARK UNBOUND:                 1.679
REMARK SMILES O=c1c(O[C@@H]2O[C@@H](CO)[C@@H](O)[C@H](O)[C@H]2O)c(-c2ccc(O)c(O)c2)oc2cc(O)cc(O)c12
REMARK SMILES IDX 4 1 3 2 16 3 25 4 2 5 26 6 1 7 33 8 27 9 31 10 28 11 30 12
REMARK SMILES IDX 17 13 18 14 19 15 20 16 24 17 22 18 21 19 23 21 32 23 29 25
REMARK SMILES IDX 5 27 14 28 6 29 12 30 7 31 10 32 15 33 13 35 8 37 9 38 11 40
REMARK H PARENT 21 20 23 22 32 24 29 26 15 34 13 36 9 39 11 41
REMARK Flexibility Score: inf
ROOT
ATOM      1  O   UNL     1     110.209 107.008 109.782  1.00  0.00    -0.454 OA
ENDROOT
BRANCH   1   2
ATOM      2  C   UNL     1     110.757 107.718 108.703  1.00  0.00     0.214 A 
ATOM      3  C   UNL     1     110.501 107.379 107.353  1.00  0.00     0.180 A 
ATOM      4  O   UNL     1     110.915 108.189 106.383  1.00  0.00    -0.452 OA
ATOM      5  C   UNL     1     111.577 108.820 108.969  1.00  0.00     0.239 A 
ATOM      6  C   UNL     1     111.619 109.297 106.602  1.00  0.00     0.146 A 
ATOM      7  O   UNL     1     111.914 109.060 110.160  1.00  0.00    -0.285 OA
ATOM      8  C   UNL     1     111.994 109.656 107.916  1.00  0.00     0.111 A 
ATOM      9  C   UNL     1     111.989 110.101 105.517  1.00  0.00     0.094 A 
ATOM     10  C   UNL     1     112.736 110.843 108.122  1.00  0.00     0.134 A 
ATOM     11  C   UNL     1     112.706 111.284 105.729  1.00  0.00     0.123 A 
ATOM     12  C   UNL     1     113.079 111.648 107.025  1.00  0.00     0.093 A 
BRANCH   3  13
ATOM     13  C   UNL     1     109.827 106.122 106.957  1.00  0.00     0.025 A 
ATOM     14  C   UNL     1     110.541 104.913 106.970  1.00  0.00     0.016 A 
ATOM     15  C   UNL     1     109.905 103.713 106.634  1.00  0.00     0.051 A 
ATOM     16  C   UNL     1     108.546 103.706 106.285  1.00  0.00     0.157 A 
ATOM     17  C   UNL     1     108.458 106.104 106.636  1.00  0.00     0.062 A 
ATOM     18  C   UNL     1     107.823 104.904 106.284  1.00  0.00     0.158 A 
BRANCH  16  19
ATOM     19  O   UNL     1     107.911 102.515 105.933  1.00  0.00    -0.504 OA
ATOM     20  H   UNL     1     107.765 101.771 106.607  1.00  0.00     0.293 HD
ENDBRANCH  16  19
BRANCH  18  21
ATOM     21  O   UNL     1     106.476 104.897 105.925  1.00  0.00    -0.504 OA
ATOM     22  H   UNL     1     106.186 104.939 104.952  1.00  0.00     0.293 HD
ENDBRANCH  18  21
ENDBRANCH   3  13
BRANCH  10  23
ATOM     23  O   UNL     1     113.125 111.232 109.405  1.00  0.00    -0.507 OA
ATOM     24  H   UNL     1     114.058 111.566 109.607  1.00  0.00     0.293 HD
ENDBRANCH  10  23
BRANCH  11  25
ATOM     25  O   UNL     1     113.033 112.121 104.669  1.00  0.00    -0.508 OA
ATOM     26  H   UNL     1     113.397 111.766 103.795  1.00  0.00     0.293 HD
ENDBRANCH  11  25
ENDBRANCH   1   2
BRANCH   1  27
ATOM     27  C   UNL     1     109.088 107.468 110.553  1.00  0.00     0.339 C 
ATOM     28  C   UNL     1     109.436 107.487 112.060  1.00  0.00     0.214 C 
ATOM     29  O   UNL     1     108.621 108.732 110.097  1.00  0.00    -0.332 OA
ATOM     30  C   UNL     1     110.381 108.654 112.404  1.00  0.00     0.180 C 
ATOM     31  C   UNL     1     109.589 109.751 110.284  1.00  0.00     0.179 C 
ATOM     32  C   UNL     1     109.875 109.969 111.784  1.00  0.00     0.177 C 
BRANCH  28  33
ATOM     33  O   UNL     1     108.262 107.600 112.820  1.00  0.00    -0.384 OA
ATOM     34  H   UNL     1     108.269 106.853 113.476  1.00  0.00     0.211 HD
ENDBRANCH  28  33
BRANCH  30  35
ATOM     35  O   UNL     1     111.674 108.380 111.921  1.00  0.00    -0.387 OA
ATOM     36  H   UNL     1     111.968 107.526 112.337  1.00  0.00     0.211 HD
ENDBRANCH  30  35
BRANCH  31  37
ATOM     37  C   UNL     1     109.088 111.036 109.606  1.00  0.00     0.191 C 
BRANCH  37  38
ATOM     38  O   UNL     1     108.697 110.789 108.283  1.00  0.00    -0.394 OA
ATOM     39  H   UNL     1     107.715 110.643 108.304  1.00  0.00     0.210 HD
ENDBRANCH  37  38
ENDBRANCH  31  37
BRANCH  32  40
ATOM     40  O   UNL     1     108.706 110.397 112.439  1.00  0.00    -0.387 OA
ATOM     41  H   UNL     1     108.943 111.224 112.936  1.00  0.00     0.211 HD
ENDBRANCH  32  40
ENDBRANCH   1  27
TORSDOF 12
ENDMDL
MODEL 3
REMARK VINA RESULT:    17.217      1.065      2.429
REMARK INTER + INTRA:          26.947
REMARK INTER:                  23.615
REMARK INTRA:                   3.332
REMARK UNBOUND:                 1.679
REMARK SMILES O=c1c(O[C@@H]2O[C@@H](CO)[C@@H](O)[C@H](O)[C@H]2O)c(-c2ccc(O)c(O)c2)oc2cc(O)cc(O)c12
REMARK SMILES IDX 4 1 3 2 16 3 25 4 2 5 26 6 1 7 33 8 27 9 31 10 28 11 30 12
REMARK SMILES IDX 17 13 18 14 19 15 20 16 24 17 22 18 21 19 23 21 32 23 29 25
REMARK SMILES IDX 5 27 14 28 6 29 12 30 7 31 10 32 15 33 13 35 8 37 9 38 11 40
REMARK H PARENT 21 20 23 22 32 24 29 26 15 34 13 36 9 39 11 41
REMARK Flexibility Score: inf
ROOT
ATOM      1  O   UNL     1     110.388 107.635 109.679  1.00  0.00    -0.454 OA
ENDROOT
BRANCH   1   2
ATOM      2  C   UNL     1     110.934 108.213 108.522  1.00  0.00     0.214 A 
ATOM      3  C   UNL     1     110.730 107.678 107.229  1.00  0.00     0.180 A 
ATOM      4  O   UNL     1     111.134 108.364 106.163  1.00  0.00    -0.452 OA
ATOM      5  C   UNL     1     111.697 109.379 108.649  1.00  0.00     0.239 A 
ATOM      6  C   UNL     1     111.782 109.523 106.240  1.00  0.00     0.146 A 
ATOM      7  O   UNL     1     111.990 109.798 109.801  1.00  0.00    -0.285 OA
ATOM      8  C   UNL     1     112.105 110.079 107.497  1.00  0.00     0.111 A 
ATOM      9  C   UNL     1     112.146 110.185 105.061  1.00  0.00     0.094 A 
ATOM     10  C   UNL     1     112.789 111.318 107.550  1.00  0.00     0.134 A 
ATOM     11  C   UNL     1     112.804 111.419 105.119  1.00  0.00     0.123 A 
ATOM     12  C   UNL     1     113.125 111.977 106.359  1.00  0.00     0.093 A 
BRANCH   3  13
ATOM     13  C   UNL     1     110.123 106.347 106.999  1.00  0.00     0.025 A 
ATOM     14  C   UNL     1     110.947 105.222 106.843  1.00  0.00     0.016 A 
ATOM     15  C   UNL     1     110.384 103.953 106.663  1.00  0.00     0.051 A 
ATOM     16  C   UNL     1     108.991 103.794 106.640  1.00  0.00     0.157 A 
ATOM     17  C   UNL     1     108.727 106.177 107.005  1.00  0.00     0.062 A 
ATOM     18  C   UNL     1     108.161 104.909 106.809  1.00  0.00     0.158 A 
BRANCH  16  19
ATOM     19  O   UNL     1     108.425 102.535 106.444  1.00  0.00    -0.504 OA
ATOM     20  H   UNL     1     107.566 102.260 106.909  1.00  0.00     0.293 HD
ENDBRANCH  16  19
BRANCH  18  21
ATOM     21  O   UNL     1     106.776 104.751 106.773  1.00  0.00    -0.504 OA
ATOM     22  H   UNL     1     106.297 104.475 105.923  1.00  0.00     0.293 HD
ENDBRANCH  18  21
ENDBRANCH   3  13
BRANCH  10  23
ATOM     23  O   UNL     1     113.125 111.899 108.774  1.00  0.00    -0.507 OA
ATOM     24  H   UNL     1     113.508 112.833 108.839  1.00  0.00     0.293 HD
ENDBRANCH  10  23
BRANCH  11  25
ATOM     25  O   UNL     1     113.123 112.115 103.959  1.00  0.00    -0.508 OA
ATOM     26  H   UNL     1     113.805 111.773 103.297  1.00  0.00     0.293 HD
ENDBRANCH  11  25
ENDBRANCH   1   2
BRANCH   1  27
ATOM     27  C   UNL     1     111.040 107.645 110.959  1.00  0.00     0.339 C 
ATOM     28  C   UNL     1     111.392 109.092 111.377  1.00  0.00     0.214 C 
ATOM     29  O   UNL     1     110.265 106.978 111.948  1.00  0.00    -0.332 OA
ATOM     30  C   UNL     1     110.137 109.874 111.809  1.00  0.00     0.180 C 
ATOM     31  C   UNL     1     109.039 107.645 112.197  1.00  0.00     0.179 C 
ATOM     32  C   UNL     1     109.287 109.047 112.791  1.00  0.00     0.177 C 
BRANCH  28  33
ATOM     33  O   UNL     1     112.314 109.072 112.435  1.00  0.00    -0.384 OA
ATOM     34  H   UNL     1     113.160 108.694 112.075  1.00  0.00     0.211 HD
ENDBRANCH  28  33
BRANCH  30  35
ATOM     35  O   UNL     1     109.361 110.194 110.679  1.00  0.00    -0.387 OA
ATOM     36  H   UNL     1     108.774 110.956 110.932  1.00  0.00     0.211 HD
ENDBRANCH  30  35
BRANCH  31  37
ATOM     37  C   UNL     1     108.185 106.773 113.131  1.00  0.00     0.191 C 
BRANCH  37  38
ATOM     38  O   UNL     1     108.982 106.126 114.086  1.00  0.00    -0.394 OA
ATOM     39  H   UNL     1     109.760 106.722 114.251  1.00  0.00     0.210 HD
ENDBRANCH  37  38
ENDBRANCH  31  37
BRANCH  32  40
ATOM     40  O   UNL     1     109.946 108.935 114.029  1.00  0.00    -0.387 OA
ATOM     41  H   UNL     1     110.702 108.305 113.894  1.00  0.00     0.211 HD
ENDBRANCH  32  40
ENDBRANCH   1  27
TORSDOF 12
ENDMDL
