MODEL 1
REMARK VINA RESULT:    -3.417      0.000      0.000
REMARK INTER + INTRA:          -8.491
REMARK INTER:                  -7.413
REMARK INTRA:                  -1.078
REMARK UNBOUND:                -1.078
REMARK SMILES CCCCCCCCCCCCCCCCCCCCCC(=O)[O-]
REMARK SMILES IDX 12 1 11 2 10 3 9 4 8 5 7 6 6 7 5 8 4 9 3 10 2 11 1 12 13 13
REMARK SMILES IDX 14 14 15 15 16 16 17 17 18 18 19 19 20 20 21 21 22 22 23 23
REMARK SMILES IDX 24 24
REMARK H PARENT
REMARK Flexibility Score: inf
ROOT
ATOM      1  C   UNL     1     -15.970  -8.074 -19.764  1.00  0.00     0.000 C 
ENDROOT
BRANCH   1   2
ATOM      2  C   UNL     1     -15.830  -9.406 -20.516  1.00  0.00     0.000 C 
BRANCH   2   3
ATOM      3  C   UNL     1     -16.660 -10.539 -19.886  1.00  0.00     0.000 C 
BRANCH   3   4
ATOM      4  C   UNL     1     -16.220 -11.960 -20.279  1.00  0.00    -0.000 C 
BRANCH   4   5
ATOM      5  C   UNL     1     -16.813 -13.045 -19.367  1.00  0.00    -0.000 C 
BRANCH   5   6
ATOM      6  C   UNL     1     -17.530 -14.124 -20.190  1.00  0.00    -0.000 C 
BRANCH   6   7
ATOM      7  C   UNL     1     -17.769 -13.706 -21.652  1.00  0.00    -0.000 C 
BRANCH   7   8
ATOM      8  C   UNL     1     -19.104 -12.979 -21.914  1.00  0.00    -0.000 C 
BRANCH   8   9
ATOM      9  C   UNL     1     -19.531 -12.916 -23.392  1.00  0.00    -0.000 C 
BRANCH   9  10
ATOM     10  C   UNL     1     -18.842 -13.986 -24.256  1.00  0.00    -0.000 C 
BRANCH  10  11
ATOM     11  C   UNL     1     -18.182 -13.389 -25.509  1.00  0.00    -0.003 C 
ATOM     12  C   UNL     1     -17.008 -12.468 -25.175  1.00  0.00     0.004 C 
ENDBRANCH  10  11
ENDBRANCH   9  10
ENDBRANCH   8   9
ENDBRANCH   7   8
ENDBRANCH   6   7
ENDBRANCH   5   6
ENDBRANCH   4   5
ENDBRANCH   3   4
ENDBRANCH   2   3
ENDBRANCH   1   2
BRANCH   1  13
ATOM     13  C   UNL     1     -15.370  -6.920 -20.574  1.00  0.00     0.000 C 
BRANCH  13  14
ATOM     14  C   UNL     1     -14.877  -5.797 -19.648  1.00  0.00     0.000 C 
BRANCH  14  15
ATOM     15  C   UNL     1     -13.810  -6.270 -18.645  1.00  0.00     0.000 C 
BRANCH  15  16
ATOM     16  C   UNL     1     -14.031  -5.819 -17.189  1.00  0.00     0.000 C 
BRANCH  16  17
ATOM     17  C   UNL     1     -14.441  -4.342 -17.072  1.00  0.00     0.000 C 
BRANCH  17  18
ATOM     18  C   UNL     1     -14.430  -3.828 -15.620  1.00  0.00     0.000 C 
BRANCH  18  19
ATOM     19  C   UNL     1     -13.944  -2.377 -15.437  1.00  0.00     0.000 C 
BRANCH  19  20
ATOM     20  C   UNL     1     -13.478  -2.014 -14.016  1.00  0.00     0.006 C 
BRANCH  20  21
ATOM     21  C   UNL     1     -13.208  -3.248 -13.145  1.00  0.00     0.053 C 
BRANCH  21  22
ATOM     22  C   UNL     1     -14.276  -3.401 -12.107  1.00  0.00     0.041 C 
ATOM     23  O   UNL     1     -13.969  -3.657 -10.914  1.00  0.00    -0.550 OA
ATOM     24  O   UNL     1     -15.610  -3.219 -12.451  1.00  0.00    -0.550 OA
ENDBRANCH  21  22
ENDBRANCH  20  21
ENDBRANCH  19  20
ENDBRANCH  18  19
ENDBRANCH  17  18
ENDBRANCH  16  17
ENDBRANCH  15  16
ENDBRANCH  14  15
ENDBRANCH  13  14
ENDBRANCH   1  13
TORSDOF 20
ENDMDL
MODEL 2
REMARK VINA RESULT:    -3.275      1.476      1.832
REMARK INTER + INTRA:          -8.183
REMARK INTER:                  -7.736
REMARK INTRA:                  -0.447
REMARK UNBOUND:                -1.078
REMARK SMILES CCCCCCCCCCCCCCCCCCCCCC(=O)[O-]
REMARK SMILES IDX 12 1 11 2 10 3 9 4 8 5 7 6 6 7 5 8 4 9 3 10 2 11 1 12 13 13
REMARK SMILES IDX 14 14 15 15 16 16 17 17 18 18 19 19 20 20 21 21 22 22 23 23
REMARK SMILES IDX 24 24
REMARK H PARENT
REMARK Flexibility Score: inf
ROOT
ATOM      1  C   UNL     1     -15.395  -8.313 -20.120  1.00  0.00     0.000 C 
ENDROOT
BRANCH   1   2
ATOM      2  C   UNL     1     -16.602  -9.258 -20.024  1.00  0.00     0.000 C 
BRANCH   2   3
ATOM      3  C   UNL     1     -16.209 -10.743 -20.119  1.00  0.00     0.000 C 
BRANCH   3   4
ATOM      4  C   UNL     1     -16.967 -11.677 -19.160  1.00  0.00    -0.000 C 
BRANCH   4   5
ATOM      5  C   UNL     1     -16.560 -13.150 -19.311  1.00  0.00    -0.000 C 
BRANCH   5   6
ATOM      6  C   UNL     1     -17.518 -13.891 -20.255  1.00  0.00    -0.000 C 
BRANCH   6   7
ATOM      7  C   UNL     1     -17.346 -13.483 -21.729  1.00  0.00    -0.000 C 
BRANCH   7   8
ATOM      8  C   UNL     1     -18.557 -12.760 -22.353  1.00  0.00    -0.000 C 
BRANCH   8   9
ATOM      9  C   UNL     1     -19.388 -13.609 -23.332  1.00  0.00    -0.000 C 
BRANCH   9  10
ATOM     10  C   UNL     1     -18.681 -13.826 -24.680  1.00  0.00    -0.000 C 
BRANCH  10  11
ATOM     11  C   UNL     1     -18.010 -12.546 -25.201  1.00  0.00    -0.003 C 
ATOM     12  C   UNL     1     -16.591 -12.792 -25.717  1.00  0.00     0.004 C 
ENDBRANCH  10  11
ENDBRANCH   9  10
ENDBRANCH   8   9
ENDBRANCH   7   8
ENDBRANCH   6   7
ENDBRANCH   5   6
ENDBRANCH   4   5
ENDBRANCH   3   4
ENDBRANCH   2   3
ENDBRANCH   1   2
BRANCH   1  13
ATOM     13  C   UNL     1     -15.836  -6.893 -20.493  1.00  0.00     0.000 C 
BRANCH  13  14
ATOM     14  C   UNL     1     -14.931  -5.845 -19.829  1.00  0.00     0.000 C 
BRANCH  14  15
ATOM     15  C   UNL     1     -13.973  -6.451 -18.788  1.00  0.00     0.000 C 
BRANCH  15  16
ATOM     16  C   UNL     1     -13.976  -5.758 -17.411  1.00  0.00     0.000 C 
BRANCH  16  17
ATOM     17  C   UNL     1     -13.986  -6.752 -16.238  1.00  0.00     0.000 C 
BRANCH  17  18
ATOM     18  C   UNL     1     -14.154  -6.065 -14.870  1.00  0.00     0.000 C 
BRANCH  18  19
ATOM     19  C   UNL     1     -14.401  -4.543 -14.922  1.00  0.00     0.000 C 
BRANCH  19  20
ATOM     20  C   UNL     1     -14.300  -3.815 -13.570  1.00  0.00     0.006 C 
BRANCH  20  21
ATOM     21  C   UNL     1     -13.271  -2.677 -13.582  1.00  0.00     0.053 C 
BRANCH  21  22
ATOM     22  C   UNL     1     -13.647  -1.642 -14.596  1.00  0.00     0.041 C 
ATOM     23  O   UNL     1     -13.953  -1.986 -15.769  1.00  0.00    -0.550 OA
ATOM     24  O   UNL     1     -13.700  -0.302 -14.236  1.00  0.00    -0.550 OA
ENDBRANCH  21  22
ENDBRANCH  20  21
ENDBRANCH  19  20
ENDBRANCH  18  19
ENDBRANCH  17  18
ENDBRANCH  16  17
ENDBRANCH  15  16
ENDBRANCH  14  15
ENDBRANCH  13  14
ENDBRANCH   1  13
TORSDOF 20
ENDMDL
MODEL 3
REMARK VINA RESULT:    -3.243      4.414      6.571
REMARK INTER + INTRA:          -8.113
REMARK INTER:                  -7.296
REMARK INTRA:                  -0.817
REMARK UNBOUND:                -1.078
REMARK SMILES CCCCCCCCCCCCCCCCCCCCCC(=O)[O-]
REMARK SMILES IDX 12 1 11 2 10 3 9 4 8 5 7 6 6 7 5 8 4 9 3 10 2 11 1 12 13 13
REMARK SMILES IDX 14 14 15 15 16 16 17 17 18 18 19 19 20 20 21 21 22 22 23 23
REMARK SMILES IDX 24 24
REMARK H PARENT
REMARK Flexibility Score: inf
ROOT
ATOM      1  C   UNL     1     -17.572 -12.852 -21.655  1.00  0.00     0.000 C 
ENDROOT
BRANCH   1   2
ATOM      2  C   UNL     1     -18.434 -14.122 -21.648  1.00  0.00     0.000 C 
BRANCH   2   3
ATOM      3  C   UNL     1     -19.642 -14.031 -22.598  1.00  0.00     0.000 C 
BRANCH   3   4
ATOM      4  C   UNL     1     -19.475 -13.046 -23.768  1.00  0.00    -0.000 C 
BRANCH   4   5
ATOM      5  C   UNL     1     -18.736 -13.660 -24.967  1.00  0.00    -0.000 C 
BRANCH   5   6
ATOM      6  C   UNL     1     -18.977 -12.838 -26.241  1.00  0.00    -0.000 C 
BRANCH   6   7
ATOM      7  C   UNL     1     -17.784 -11.939 -26.611  1.00  0.00    -0.000 C 
BRANCH   7   8
ATOM      8  C   UNL     1     -16.630 -11.929 -25.588  1.00  0.00    -0.000 C 
BRANCH   8   9
ATOM      9  C   UNL     1     -15.634 -13.096 -25.719  1.00  0.00    -0.000 C 
BRANCH   9  10
ATOM     10  C   UNL     1     -14.243 -12.757 -25.157  1.00  0.00    -0.000 C 
BRANCH  10  11
ATOM     11  C   UNL     1     -13.114 -13.130 -26.130  1.00  0.00    -0.003 C 
ATOM     12  C   UNL     1     -13.630 -13.804 -27.402  1.00  0.00     0.004 C 
ENDBRANCH  10  11
ENDBRANCH   9  10
ENDBRANCH   8   9
ENDBRANCH   7   8
ENDBRANCH   6   7
ENDBRANCH   5   6
ENDBRANCH   4   5
ENDBRANCH   3   4
ENDBRANCH   2   3
ENDBRANCH   1   2
BRANCH   1  13
ATOM     13  C   UNL     1     -16.415 -12.966 -20.656  1.00  0.00     0.000 C 
BRANCH  13  14
ATOM     14  C   UNL     1     -16.910 -12.756 -19.217  1.00  0.00     0.000 C 
BRANCH  14  15
ATOM     15  C   UNL     1     -16.920 -11.275 -18.795  1.00  0.00     0.000 C 
BRANCH  15  16
ATOM     16  C   UNL     1     -17.005 -10.263 -19.953  1.00  0.00     0.000 C 
BRANCH  16  17
ATOM     17  C   UNL     1     -15.726  -9.424 -20.114  1.00  0.00     0.000 C 
BRANCH  17  18
ATOM     18  C   UNL     1     -16.006  -7.912 -20.205  1.00  0.00     0.000 C 
BRANCH  18  19
ATOM     19  C   UNL     1     -14.819  -6.998 -19.840  1.00  0.00     0.000 C 
BRANCH  19  20
ATOM     20  C   UNL     1     -15.100  -5.488 -19.939  1.00  0.00     0.006 C 
BRANCH  20  21
ATOM     21  C   UNL     1     -16.599  -5.159 -19.942  1.00  0.00     0.053 C 
BRANCH  21  22
ATOM     22  C   UNL     1     -17.030  -4.694 -21.298  1.00  0.00     0.041 C 
ATOM     23  O   UNL     1     -16.658  -3.572 -21.732  1.00  0.00    -0.550 OA
ATOM     24  O   UNL     1     -17.809  -5.518 -22.100  1.00  0.00    -0.550 OA
ENDBRANCH  21  22
ENDBRANCH  20  21
ENDBRANCH  19  20
ENDBRANCH  18  19
ENDBRANCH  17  18
ENDBRANCH  16  17
ENDBRANCH  15  16
ENDBRANCH  14  15
ENDBRANCH  13  14
ENDBRANCH   1  13
TORSDOF 20
ENDMDL
MODEL 4
REMARK VINA RESULT:    -3.132      5.058     11.887
REMARK INTER + INTRA:          -7.872
REMARK INTER:                  -6.532
REMARK INTRA:                  -1.340
REMARK UNBOUND:                -1.078
REMARK SMILES CCCCCCCCCCCCCCCCCCCCCC(=O)[O-]
REMARK SMILES IDX 12 1 11 2 10 3 9 4 8 5 7 6 6 7 5 8 4 9 3 10 2 11 1 12 13 13
REMARK SMILES IDX 14 14 15 15 16 16 17 17 18 18 19 19 20 20 21 21 22 22 23 23
REMARK SMILES IDX 24 24
REMARK H PARENT
REMARK Flexibility Score: inf
ROOT
ATOM      1  C   UNL     1     -15.570  -8.773 -19.807  1.00  0.00     0.000 C 
ENDROOT
BRANCH   1   2
ATOM      2  C   UNL     1     -15.996  -7.473 -20.503  1.00  0.00     0.000 C 
BRANCH   2   3
ATOM      3  C   UNL     1     -15.126  -6.267 -20.106  1.00  0.00     0.000 C 
BRANCH   3   4
ATOM      4  C   UNL     1     -13.992  -6.584 -19.116  1.00  0.00    -0.000 C 
BRANCH   4   5
ATOM      5  C   UNL     1     -13.546  -5.358 -18.304  1.00  0.00    -0.000 C 
BRANCH   5   6
ATOM      6  C   UNL     1     -14.441  -5.161 -17.071  1.00  0.00    -0.000 C 
BRANCH   6   7
ATOM      7  C   UNL     1     -14.153  -6.176 -15.951  1.00  0.00    -0.000 C 
BRANCH   7   8
ATOM      8  C   UNL     1     -14.133  -5.588 -14.525  1.00  0.00    -0.000 C 
BRANCH   8   9
ATOM      9  C   UNL     1     -14.601  -4.126 -14.417  1.00  0.00    -0.000 C 
BRANCH   9  10
ATOM     10  C   UNL     1     -13.736  -3.294 -13.455  1.00  0.00    -0.000 C 
BRANCH  10  11
ATOM     11  C   UNL     1     -13.111  -2.070 -14.141  1.00  0.00    -0.003 C 
ATOM     12  C   UNL     1     -13.758  -1.756 -15.491  1.00  0.00     0.004 C 
ENDBRANCH  10  11
ENDBRANCH   9  10
ENDBRANCH   8   9
ENDBRANCH   7   8
ENDBRANCH   6   7
ENDBRANCH   5   6
ENDBRANCH   4   5
ENDBRANCH   3   4
ENDBRANCH   2   3
ENDBRANCH   1   2
BRANCH   1  13
ATOM     13  C   UNL     1     -16.266  -9.987 -20.432  1.00  0.00     0.000 C 
BRANCH  13  14
ATOM     14  C   UNL     1     -17.025 -10.794 -19.368  1.00  0.00     0.000 C 
BRANCH  14  15
ATOM     15  C   UNL     1     -16.648 -12.286 -19.364  1.00  0.00     0.000 C 
BRANCH  15  16
ATOM     16  C   UNL     1     -16.620 -12.961 -20.748  1.00  0.00     0.000 C 
BRANCH  16  17
ATOM     17  C   UNL     1     -17.887 -13.781 -21.043  1.00  0.00     0.000 C 
BRANCH  17  18
ATOM     18  C   UNL     1     -19.020 -12.937 -21.655  1.00  0.00     0.000 C 
BRANCH  18  19
ATOM     19  C   UNL     1     -19.532 -13.416 -23.029  1.00  0.00     0.000 C 
BRANCH  19  20
ATOM     20  C   UNL     1     -18.950 -12.669 -24.242  1.00  0.00     0.006 C 
BRANCH  20  21
ATOM     21  C   UNL     1     -17.418 -12.713 -24.291  1.00  0.00     0.053 C 
BRANCH  21  22
ATOM     22  C   UNL     1     -16.932 -12.511 -25.693  1.00  0.00     0.041 C 
ATOM     23  O   UNL     1     -17.637 -11.878 -26.523  1.00  0.00    -0.550 OA
ATOM     24  O   UNL     1     -15.683 -12.986 -26.071  1.00  0.00    -0.550 OA
ENDBRANCH  21  22
ENDBRANCH  20  21
ENDBRANCH  19  20
ENDBRANCH  18  19
ENDBRANCH  17  18
ENDBRANCH  16  17
ENDBRANCH  15  16
ENDBRANCH  14  15
ENDBRANCH  13  14
ENDBRANCH   1  13
TORSDOF 20
ENDMDL
MODEL 5
REMARK VINA RESULT:    -2.966      4.909     12.542
REMARK INTER + INTRA:          -7.512
REMARK INTER:                  -6.699
REMARK INTRA:                  -0.813
REMARK UNBOUND:                -1.078
REMARK SMILES CCCCCCCCCCCCCCCCCCCCCC(=O)[O-]
REMARK SMILES IDX 12 1 11 2 10 3 9 4 8 5 7 6 6 7 5 8 4 9 3 10 2 11 1 12 13 13
REMARK SMILES IDX 14 14 15 15 16 16 17 17 18 18 19 19 20 20 21 21 22 22 23 23
REMARK SMILES IDX 24 24
REMARK H PARENT
REMARK Flexibility Score: inf
ROOT
ATOM      1  C   UNL     1     -15.863  -6.530 -20.532  1.00  0.00     0.000 C 
ENDROOT
BRANCH   1   2
ATOM      2  C   UNL     1     -15.132  -5.461 -19.709  1.00  0.00     0.000 C 
BRANCH   2   3
ATOM      3  C   UNL     1     -14.032  -6.048 -18.805  1.00  0.00     0.000 C 
BRANCH   3   4
ATOM      4  C   UNL     1     -14.331  -5.986 -17.297  1.00  0.00    -0.000 C 
BRANCH   4   5
ATOM      5  C   UNL     1     -14.332  -4.552 -16.745  1.00  0.00    -0.000 C 
BRANCH   5   6
ATOM      6  C   UNL     1     -14.306  -4.555 -15.210  1.00  0.00    -0.000 C 
BRANCH   6   7
ATOM      7  C   UNL     1     -14.542  -3.161 -14.603  1.00  0.00    -0.000 C 
BRANCH   7   8
ATOM      8  C   UNL     1     -13.279  -2.459 -14.064  1.00  0.00    -0.000 C 
BRANCH   8   9
ATOM      9  C   UNL     1     -12.893  -2.832 -12.621  1.00  0.00    -0.000 C 
BRANCH   9  10
ATOM     10  C   UNL     1     -14.007  -3.596 -11.885  1.00  0.00    -0.000 C 
BRANCH  10  11
ATOM     11  C   UNL     1     -13.581  -4.038 -10.477  1.00  0.00    -0.003 C 
ATOM     12  C   UNL     1     -14.018  -3.052  -9.392  1.00  0.00     0.004 C 
ENDBRANCH  10  11
ENDBRANCH   9  10
ENDBRANCH   8   9
ENDBRANCH   7   8
ENDBRANCH   6   7
ENDBRANCH   5   6
ENDBRANCH   4   5
ENDBRANCH   3   4
ENDBRANCH   2   3
ENDBRANCH   1   2
BRANCH   1  13
ATOM     13  C   UNL     1     -15.418  -7.939 -20.124  1.00  0.00     0.000 C 
BRANCH  13  14
ATOM     14  C   UNL     1     -16.608  -8.910 -20.113  1.00  0.00     0.000 C 
BRANCH  14  15
ATOM     15  C   UNL     1     -16.177 -10.387 -20.048  1.00  0.00     0.000 C 
BRANCH  15  16
ATOM     16  C   UNL     1     -17.277 -11.408 -20.397  1.00  0.00     0.000 C 
BRANCH  16  17
ATOM     17  C   UNL     1     -16.790 -12.865 -20.325  1.00  0.00     0.000 C 
BRANCH  17  18
ATOM     18  C   UNL     1     -17.370 -13.749 -21.445  1.00  0.00     0.000 C 
BRANCH  18  19
ATOM     19  C   UNL     1     -18.776 -13.350 -21.938  1.00  0.00     0.000 C 
BRANCH  19  20
ATOM     20  C   UNL     1     -19.137 -13.835 -23.353  1.00  0.00     0.006 C 
BRANCH  20  21
ATOM     21  C   UNL     1     -19.039 -12.725 -24.408  1.00  0.00     0.053 C 
BRANCH  21  22
ATOM     22  C   UNL     1     -17.737 -12.812 -25.141  1.00  0.00     0.041 C 
ATOM     23  O   UNL     1     -17.487 -12.017 -26.085  1.00  0.00    -0.550 OA
ATOM     24  O   UNL     1     -16.783 -13.744 -24.755  1.00  0.00    -0.550 OA
ENDBRANCH  21  22
ENDBRANCH  20  21
ENDBRANCH  19  20
ENDBRANCH  18  19
ENDBRANCH  17  18
ENDBRANCH  16  17
ENDBRANCH  15  16
ENDBRANCH  14  15
ENDBRANCH  13  14
ENDBRANCH   1  13
TORSDOF 20
ENDMDL
MODEL 6
REMARK VINA RESULT:    -2.424      1.077      2.254
REMARK INTER + INTRA:          -6.337
REMARK INTER:                  -5.080
REMARK INTRA:                  -1.257
REMARK UNBOUND:                -1.078
REMARK SMILES CCCCCCCCCCCCCCCCCCCCCC(=O)[O-]
REMARK SMILES IDX 12 1 11 2 10 3 9 4 8 5 7 6 6 7 5 8 4 9 3 10 2 11 1 12 13 13
REMARK SMILES IDX 14 14 15 15 16 16 17 17 18 18 19 19 20 20 21 21 22 22 23 23
REMARK SMILES IDX 24 24
REMARK H PARENT
REMARK Flexibility Score: inf
ROOT
ATOM      1  C   UNL     1     -16.236 -10.295 -20.211  1.00  0.00     0.000 C 
ENDROOT
BRANCH   1   2
ATOM      2  C   UNL     1     -17.378 -11.119 -19.599  1.00  0.00     0.000 C 
BRANCH   2   3
ATOM      3  C   UNL     1     -16.875 -12.307 -18.757  1.00  0.00     0.000 C 
BRANCH   3   4
ATOM      4  C   UNL     1     -16.967 -13.677 -19.450  1.00  0.00    -0.000 C 
BRANCH   4   5
ATOM      5  C   UNL     1     -16.924 -13.578 -20.982  1.00  0.00    -0.000 C 
BRANCH   5   6
ATOM      6  C   UNL     1     -18.217 -14.125 -21.605  1.00  0.00    -0.000 C 
BRANCH   6   7
ATOM      7  C   UNL     1     -19.099 -13.026 -22.223  1.00  0.00    -0.000 C 
BRANCH   7   8
ATOM      8  C   UNL     1     -19.684 -13.359 -23.611  1.00  0.00    -0.000 C 
BRANCH   8   9
ATOM      9  C   UNL     1     -19.017 -12.628 -24.790  1.00  0.00    -0.000 C 
BRANCH   9  10
ATOM     10  C   UNL     1     -17.932 -13.474 -25.478  1.00  0.00    -0.000 C 
BRANCH  10  11
ATOM     11  C   UNL     1     -16.661 -12.664 -25.776  1.00  0.00    -0.003 C 
ATOM     12  C   UNL     1     -15.622 -12.765 -24.658  1.00  0.00     0.004 C 
ENDBRANCH  10  11
ENDBRANCH   9  10
ENDBRANCH   8   9
ENDBRANCH   7   8
ENDBRANCH   6   7
ENDBRANCH   5   6
ENDBRANCH   4   5
ENDBRANCH   3   4
ENDBRANCH   2   3
ENDBRANCH   1   2
BRANCH   1  13
ATOM     13  C   UNL     1     -16.289  -8.840 -19.732  1.00  0.00     0.000 C 
BRANCH  13  14
ATOM     14  C   UNL     1     -15.275  -7.973 -20.493  1.00  0.00     0.000 C 
BRANCH  14  15
ATOM     15  C   UNL     1     -15.732  -6.511 -20.648  1.00  0.00     0.000 C 
BRANCH  15  16
ATOM     16  C   UNL     1     -15.078  -5.511 -19.677  1.00  0.00     0.000 C 
BRANCH  16  17
ATOM     17  C   UNL     1     -14.247  -6.195 -18.578  1.00  0.00     0.000 C 
BRANCH  17  18
ATOM     18  C   UNL     1     -14.147  -5.356 -17.290  1.00  0.00     0.000 C 
BRANCH  18  19
ATOM     19  C   UNL     1     -14.229  -6.156 -15.974  1.00  0.00     0.000 C 
BRANCH  19  20
ATOM     20  C   UNL     1     -14.034  -5.330 -14.691  1.00  0.00     0.006 C 
BRANCH  20  21
ATOM     21  C   UNL     1     -14.389  -3.849 -14.876  1.00  0.00     0.053 C 
BRANCH  21  22
ATOM     22  C   UNL     1     -14.105  -3.082 -13.622  1.00  0.00     0.041 C 
ATOM     23  O   UNL     1     -14.220  -3.639 -12.499  1.00  0.00    -0.550 OA
ATOM     24  O   UNL     1     -13.675  -1.763 -13.696  1.00  0.00    -0.550 OA
ENDBRANCH  21  22
ENDBRANCH  20  21
ENDBRANCH  19  20
ENDBRANCH  18  19
ENDBRANCH  17  18
ENDBRANCH  16  17
ENDBRANCH  15  16
ENDBRANCH  14  15
ENDBRANCH  13  14
ENDBRANCH   1  13
TORSDOF 20
ENDMDL
MODEL 7
REMARK VINA RESULT:    -2.287      4.627      6.132
REMARK INTER + INTRA:          -6.038
REMARK INTER:                  -5.216
REMARK INTRA:                  -0.822
REMARK UNBOUND:                -1.078
REMARK SMILES CCCCCCCCCCCCCCCCCCCCCC(=O)[O-]
REMARK SMILES IDX 12 1 11 2 10 3 9 4 8 5 7 6 6 7 5 8 4 9 3 10 2 11 1 12 13 13
REMARK SMILES IDX 14 14 15 15 16 16 17 17 18 18 19 19 20 20 21 21 22 22 23 23
REMARK SMILES IDX 24 24
REMARK H PARENT
REMARK Flexibility Score: inf
ROOT
ATOM      1  C   UNL     1     -16.928 -14.070 -19.566  1.00  0.00     0.000 C 
ENDROOT
BRANCH   1   2
ATOM      2  C   UNL     1     -15.576 -13.633 -20.147  1.00  0.00     0.000 C 
BRANCH   2   3
ATOM      3  C   UNL     1     -15.717 -12.816 -21.444  1.00  0.00     0.000 C 
BRANCH   3   4
ATOM      4  C   UNL     1     -16.895 -13.227 -22.344  1.00  0.00    -0.000 C 
BRANCH   4   5
ATOM      5  C   UNL     1     -18.234 -12.624 -21.892  1.00  0.00    -0.000 C 
BRANCH   5   6
ATOM      6  C   UNL     1     -19.410 -13.512 -22.324  1.00  0.00    -0.000 C 
BRANCH   6   7
ATOM      7  C   UNL     1     -19.427 -13.793 -23.836  1.00  0.00    -0.000 C 
BRANCH   7   8
ATOM      8  C   UNL     1     -19.374 -12.541 -24.735  1.00  0.00    -0.000 C 
BRANCH   8   9
ATOM      9  C   UNL     1     -18.605 -12.720 -26.057  1.00  0.00    -0.000 C 
BRANCH   9  10
ATOM     10  C   UNL     1     -17.169 -12.174 -25.988  1.00  0.00    -0.000 C 
BRANCH  10  11
ATOM     11  C   UNL     1     -16.138 -13.275 -25.697  1.00  0.00    -0.003 C 
ATOM     12  C   UNL     1     -14.794 -12.716 -25.230  1.00  0.00     0.004 C 
ENDBRANCH  10  11
ENDBRANCH   9  10
ENDBRANCH   8   9
ENDBRANCH   7   8
ENDBRANCH   6   7
ENDBRANCH   5   6
ENDBRANCH   4   5
ENDBRANCH   3   4
ENDBRANCH   2   3
ENDBRANCH   1   2
BRANCH   1  13
ATOM     13  C   UNL     1     -17.415 -13.083 -18.499  1.00  0.00     0.000 C 
BRANCH  13  14
ATOM     14  C   UNL     1     -16.587 -11.789 -18.529  1.00  0.00     0.000 C 
BRANCH  14  15
ATOM     15  C   UNL     1     -17.227 -10.687 -19.392  1.00  0.00     0.000 C 
BRANCH  15  16
ATOM     16  C   UNL     1     -16.238  -9.832 -20.207  1.00  0.00     0.000 C 
BRANCH  16  17
ATOM     17  C   UNL     1     -16.441  -8.321 -20.006  1.00  0.00     0.000 C 
BRANCH  17  18
ATOM     18  C   UNL     1     -15.175  -7.499 -20.313  1.00  0.00     0.000 C 
BRANCH  18  19
ATOM     19  C   UNL     1     -15.195  -6.044 -19.803  1.00  0.00     0.000 C 
BRANCH  19  20
ATOM     20  C   UNL     1     -16.522  -5.294 -20.011  1.00  0.00     0.006 C 
BRANCH  20  21
ATOM     21  C   UNL     1     -16.543  -4.464 -21.302  1.00  0.00     0.053 C 
BRANCH  21  22
ATOM     22  C   UNL     1     -17.544  -5.019 -22.265  1.00  0.00     0.041 C 
ATOM     23  O   UNL     1     -18.556  -5.638 -21.842  1.00  0.00    -0.550 OA
ATOM     24  O   UNL     1     -17.383  -4.817 -23.630  1.00  0.00    -0.550 OA
ENDBRANCH  21  22
ENDBRANCH  20  21
ENDBRANCH  19  20
ENDBRANCH  18  19
ENDBRANCH  17  18
ENDBRANCH  16  17
ENDBRANCH  15  16
ENDBRANCH  14  15
ENDBRANCH  13  14
ENDBRANCH   1  13
TORSDOF 20
ENDMDL
MODEL 8
REMARK VINA RESULT:    -2.190      5.442     11.058
REMARK INTER + INTRA:          -5.829
REMARK INTER:                  -4.559
REMARK INTRA:                  -1.270
REMARK UNBOUND:                -1.078
REMARK SMILES CCCCCCCCCCCCCCCCCCCCCC(=O)[O-]
REMARK SMILES IDX 12 1 11 2 10 3 9 4 8 5 7 6 6 7 5 8 4 9 3 10 2 11 1 12 13 13
REMARK SMILES IDX 14 14 15 15 16 16 17 17 18 18 19 19 20 20 21 21 22 22 23 23
REMARK SMILES IDX 24 24
REMARK H PARENT
REMARK Flexibility Score: inf
ROOT
ATOM      1  C   UNL     1     -16.416 -12.259 -20.422  1.00  0.00     0.000 C 
ENDROOT
BRANCH   1   2
ATOM      2  C   UNL     1     -16.532 -10.910 -19.699  1.00  0.00     0.000 C 
BRANCH   2   3
ATOM      3  C   UNL     1     -15.980  -9.736 -20.528  1.00  0.00     0.000 C 
BRANCH   3   4
ATOM      4  C   UNL     1     -15.956  -8.382 -19.798  1.00  0.00    -0.000 C 
BRANCH   4   5
ATOM      5  C   UNL     1     -14.791  -7.484 -20.242  1.00  0.00    -0.000 C 
BRANCH   5   6
ATOM      6  C   UNL     1     -14.350  -6.553 -19.103  1.00  0.00    -0.000 C 
BRANCH   6   7
ATOM      7  C   UNL     1     -15.233  -5.300 -18.975  1.00  0.00    -0.000 C 
BRANCH   7   8
ATOM      8  C   UNL     1     -15.999  -4.905 -20.255  1.00  0.00    -0.000 C 
BRANCH   8   9
ATOM      9  C   UNL     1     -17.508  -5.207 -20.229  1.00  0.00    -0.000 C 
BRANCH   9  10
ATOM     10  C   UNL     1     -18.137  -5.213 -21.633  1.00  0.00    -0.000 C 
BRANCH  10  11
ATOM     11  C   UNL     1     -17.081  -5.164 -22.747  1.00  0.00    -0.003 C 
ATOM     12  C   UNL     1     -17.684  -4.857 -24.119  1.00  0.00     0.004 C 
ENDBRANCH  10  11
ENDBRANCH   9  10
ENDBRANCH   8   9
ENDBRANCH   7   8
ENDBRANCH   6   7
ENDBRANCH   5   6
ENDBRANCH   4   5
ENDBRANCH   3   4
ENDBRANCH   2   3
ENDBRANCH   1   2
BRANCH   1  13
ATOM     13  C   UNL     1     -17.561 -12.448 -21.423  1.00  0.00     0.000 C 
BRANCH  13  14
ATOM     14  C   UNL     1     -18.047 -13.905 -21.434  1.00  0.00     0.000 C 
BRANCH  14  15
ATOM     15  C   UNL     1     -19.323 -14.106 -22.271  1.00  0.00     0.000 C 
BRANCH  15  16
ATOM     16  C   UNL     1     -19.113 -14.124 -23.797  1.00  0.00     0.000 C 
BRANCH  16  17
ATOM     17  C   UNL     1     -19.275 -12.738 -24.443  1.00  0.00     0.000 C 
BRANCH  17  18
ATOM     18  C   UNL     1     -19.168 -12.775 -25.979  1.00  0.00     0.000 C 
BRANCH  18  19
ATOM     19  C   UNL     1     -17.930 -12.072 -26.571  1.00  0.00     0.000 C 
BRANCH  19  20
ATOM     20  C   UNL     1     -16.703 -12.013 -25.644  1.00  0.00     0.006 C 
BRANCH  20  21
ATOM     21  C   UNL     1     -15.985 -13.363 -25.518  1.00  0.00     0.053 C 
BRANCH  21  22
ATOM     22  C   UNL     1     -14.517 -13.200 -25.763  1.00  0.00     0.041 C 
ATOM     23  O   UNL     1     -14.040 -13.403 -26.910  1.00  0.00    -0.550 OA
ATOM     24  O   UNL     1     -13.682 -12.785 -24.733  1.00  0.00    -0.550 OA
ENDBRANCH  21  22
ENDBRANCH  20  21
ENDBRANCH  19  20
ENDBRANCH  18  19
ENDBRANCH  17  18
ENDBRANCH  16  17
ENDBRANCH  15  16
ENDBRANCH  14  15
ENDBRANCH  13  14
ENDBRANCH   1  13
TORSDOF 20
ENDMDL
